# generated using pymatgen
data_CoF2
_symmetry_space_group_name_H-M   'P 1'
_cell_length_a   4.64351941
_cell_length_b   4.64351941
_cell_length_c   3.19916469
_cell_angle_alpha   90.00000000
_cell_angle_beta   90.00000000
_cell_angle_gamma   90.00000000
_symmetry_Int_Tables_number   1
_chemical_formula_structural   CoF2
_chemical_formula_sum   'Co2 F4'
_cell_volume   68.98126085
_cell_formula_units_Z   2
loop_
 _symmetry_equiv_pos_site_id
 _symmetry_equiv_pos_as_xyz
  1  'x, y, z'
loop_
 _atom_type_symbol
 _atom_type_oxidation_number
  Co2+  2.0
  F-  -1.0
loop_
 _atom_site_type_symbol
 _atom_site_label
 _atom_site_symmetry_multiplicity
 _atom_site_fract_x
 _atom_site_fract_y
 _atom_site_fract_z
 _atom_site_occupancy
  Co2+  Co0  1  0.00000000  0.00000000  0.00000000  1
  Co2+  Co1  1  0.50000000  0.50000000  0.50000000  1
  F-  F2  1  0.30433674  0.30433674  0.00000000  1
  F-  F3  1  0.69566326  0.69566326  0.00000000  1
  F-  F4  1  0.80433674  0.19566326  0.50000000  1
  F-  F5  1  0.19566326  0.80433674  0.50000000  1