# generated using pymatgen
data_CaAl2(Si2O7)2
_symmetry_space_group_name_H-M   'P 1'
_cell_length_a   10.06735367
_cell_length_b   10.06735367
_cell_length_c   7.61278687
_cell_angle_alpha   75.05322898
_cell_angle_beta   104.94677102
_cell_angle_gamma   96.21633493
_symmetry_Int_Tables_number   1
_chemical_formula_structural   CaAl2(Si2O7)2
_chemical_formula_sum   'Ca2 Al4 Si8 O28'
_cell_volume   719.51971232
_cell_formula_units_Z   2
loop_
 _symmetry_equiv_pos_site_id
 _symmetry_equiv_pos_as_xyz
  1  'x, y, z'
loop_
 _atom_site_type_symbol
 _atom_site_label
 _atom_site_symmetry_multiplicity
 _atom_site_fract_x
 _atom_site_fract_y
 _atom_site_fract_z
 _atom_site_occupancy
  Al  Al0  1  0.96276428  0.21609252  0.76162100  1.0
  Al  Al1  1  1.21609252  -0.03723572  0.23837900  1.0
  Al  Al2  1  1.57327845  -0.17368444  0.76191646  1.0
  Al  Al3  1  0.82631556  0.57327845  0.23808354  1.0
  Si  Si4  1  1.25176525  -0.23032267  0.65169274  1.0
  Si  Si5  1  0.76967733  0.25176525  0.34830726  1.0
  Si  Si6  1  1.01968816  -0.46229713  0.65147016  1.0
  Si  Si7  1  0.53770287  0.01968816  0.34852984  1.0
  Si  Si8  1  1.09454620  -0.07070581  0.82583040  1.0
  Si  Si9  1  0.92929419  0.09454620  0.17416960  1.0
  Si  Si10  1  0.86009314  0.69494208  0.82569944  1.0
  Si  Si11  1  1.69494208  -0.13990686  0.17430056  1.0
  Ca  Ca12  1  1.13203542  -0.34291179  0.23369415  1.0
  Ca  Ca13  1  0.65708821  0.13203542  0.76630585  1.0
  O  O14  1  0.89669663  0.19973753  0.28842520  1.0
  O  O15  1  1.19973753  -0.10330337  0.71157480  1.0
  O  O16  1  0.87250404  0.16215650  0.94679384  1.0
  O  O17  1  1.16215650  -0.12749596  0.05320616  1.0
  O  O18  1  1.41161593  -0.25494704  0.74875692  1.0
  O  O19  1  0.74505296  0.41161593  0.25124308  1.0
  O  O20  1  0.80624144  0.22114353  0.57915426  1.0
  O  O21  1  1.22114353  -0.19375856  0.42084574  1.0
  O  O22  1  1.16279795  -0.37342898  0.71885026  1.0
  O  O23  1  0.62657102  0.16279795  0.28114974  1.0
  O  O24  1  0.98307554  0.56802747  0.42080554  1.0
  O  O25  1  1.56802747  -0.01692446  0.57919446  1.0
  O  O26  1  0.89302166  0.58953294  0.71199415  1.0
  O  O27  1  1.58953294  -0.10697834  0.28800585  1.0
  O  O28  1  0.94826514  0.84132091  0.77494958  1.0
  O  O29  1  1.84132091  -0.05173486  0.22505042  1.0
  O  O30  1  1.69821720  -0.28291935  0.77287764  1.0
  O  O31  1  0.71708065  0.69821720  0.22712236  1.0
  O  O32  1  1.62747910  -0.08304185  0.94683468  1.0
  O  O33  1  0.91695815  0.62747910  0.05316532  1.0
  O  O34  1  0.45797736  0.28455881  0.75263762  1.0
  O  O35  1  1.28455881  -0.54202264  0.24736238  1.0
  O  O36  1  1.29015111  -0.63050712  0.16634907  1.0
  O  O37  1  0.36949288  0.29015111  0.83365093  1.0
  O  O38  1  1.04481285  -0.62235372  0.74869375  1.0
  O  O39  1  0.37764628  0.04481285  0.25130625  1.0
  O  O40  1  1.07305695  -0.90847620  0.77347334  1.0
  O  O41  1  0.09152380  0.07305695  0.22652666  1.0
