# generated using pymatgen
data_Bi2O3
_symmetry_space_group_name_H-M   'P 1'
_cell_length_a   5.41456223
_cell_length_b   12.81532767
_cell_length_c   5.73695618
_cell_angle_alpha   90.00000000
_cell_angle_beta   90.00000000
_cell_angle_gamma   90.00000000
_symmetry_Int_Tables_number   1
_chemical_formula_structural   Bi2O3
_chemical_formula_sum   'Bi8 O12'
_cell_volume   398.08388504
_cell_formula_units_Z   4
loop_
 _symmetry_equiv_pos_site_id
 _symmetry_equiv_pos_as_xyz
  1  'x, y, z'
loop_
 _atom_site_type_symbol
 _atom_site_label
 _atom_site_symmetry_multiplicity
 _atom_site_fract_x
 _atom_site_fract_y
 _atom_site_fract_z
 _atom_site_occupancy
  Bi  Bi0  1  0.94460407  0.87487732  0.17965242  1.0
  Bi  Bi1  1  0.94460407  0.62512268  0.67965242  1.0
  Bi  Bi2  1  0.44460407  0.37487732  0.82034758  1.0
  Bi  Bi3  1  0.44460407  0.12512268  0.32034758  1.0
  Bi  Bi4  1  0.05539593  0.37487732  0.32034758  1.0
  Bi  Bi5  1  0.05539593  0.12512268  0.82034758  1.0
  Bi  Bi6  1  0.55539593  0.87487732  0.67965242  1.0
  Bi  Bi7  1  0.55539593  0.62512268  0.17965242  1.0
  O  O8  1  0.63312892  0.94548166  0.33890264  1.0
  O  O9  1  0.63312892  0.55451834  0.83890264  1.0
  O  O10  1  0.13312892  0.44548166  0.66109736  1.0
  O  O11  1  0.13312892  0.05451834  0.16109736  1.0
  O  O12  1  0.36687108  0.44548166  0.16109736  1.0
  O  O13  1  0.36687108  0.05451834  0.66109736  1.0
  O  O14  1  0.86687108  0.94548166  0.83890264  1.0
  O  O15  1  0.86687108  0.55451834  0.33890264  1.0
  O  O16  1  0.75000000  0.75000000  0.98756581  1.0
  O  O17  1  0.75000000  0.75000000  0.48756581  1.0
  O  O18  1  0.25000000  0.25000000  0.01243419  1.0
  O  O19  1  0.25000000  0.25000000  0.51243419  1.0
