# generated using pymatgen
data_Yb(InPt)4
_symmetry_space_group_name_H-M   'P 1'
_cell_length_a   4.60956877
_cell_length_b   4.60956877
_cell_length_c   20.19803309
_cell_angle_alpha   90.00000000
_cell_angle_beta   90.00000000
_cell_angle_gamma   120.00000000
_symmetry_Int_Tables_number   1
_chemical_formula_structural   Yb(InPt)4
_chemical_formula_sum   'Yb2 In8 Pt8'
_cell_volume   371.67239729
_cell_formula_units_Z   2
loop_
 _symmetry_equiv_pos_site_id
 _symmetry_equiv_pos_as_xyz
  1  'x, y, z'
loop_
 _atom_site_type_symbol
 _atom_site_label
 _atom_site_symmetry_multiplicity
 _atom_site_fract_x
 _atom_site_fract_y
 _atom_site_fract_z
 _atom_site_occupancy
  Yb  Yb0  1  0.33333333  0.66666667  0.25000000  1.0
  Yb  Yb1  1  0.66666667  0.33333333  0.75000000  1.0
  In  In2  1  0.33333333  0.66666667  0.95773243  1.0
  In  In3  1  0.33333333  0.66666667  0.54226757  1.0
  In  In4  1  0.66666667  0.33333333  0.45773243  1.0
  In  In5  1  0.66666667  0.33333333  0.04226757  1.0
  In  In6  1  -0.00000000  -0.00000000  0.35571699  1.0
  In  In7  1  0.00000000  0.00000000  0.14428301  1.0
  In  In8  1  -0.00000000  -0.00000000  0.85571699  1.0
  In  In9  1  0.00000000  0.00000000  0.64428301  1.0
  Pt  Pt10  1  0.33333333  0.66666667  0.40605363  1.0
  Pt  Pt11  1  0.33333333  0.66666667  0.09394637  1.0
  Pt  Pt12  1  0.66666667  0.33333333  0.90605363  1.0
  Pt  Pt13  1  0.66666667  0.33333333  0.59394637  1.0
  Pt  Pt14  1  0.33333333  0.66666667  0.81923558  1.0
  Pt  Pt15  1  0.33333333  0.66666667  0.68076442  1.0
  Pt  Pt16  1  0.66666667  0.33333333  0.31923558  1.0
  Pt  Pt17  1  0.66666667  0.33333333  0.18076442  1.0
