# generated using pymatgen
data_CsZr2(AsO4)3
_symmetry_space_group_name_H-M   'P 1'
_cell_length_a   10.14631025
_cell_length_b   10.14631025
_cell_length_c   10.14631025
_cell_angle_alpha   53.19285851
_cell_angle_beta   53.19285851
_cell_angle_gamma   53.19285851
_symmetry_Int_Tables_number   1
_chemical_formula_structural   CsZr2(AsO4)3
_chemical_formula_sum   'Cs2 Zr4 As6 O24'
_cell_volume   620.83093056
_cell_formula_units_Z   2
loop_
 _symmetry_equiv_pos_site_id
 _symmetry_equiv_pos_as_xyz
  1  'x, y, z'
loop_
 _atom_site_type_symbol
 _atom_site_label
 _atom_site_symmetry_multiplicity
 _atom_site_fract_x
 _atom_site_fract_y
 _atom_site_fract_z
 _atom_site_occupancy
  Cs  Cs0  1  1.00000000  0.00000000  -0.00000000  1.0
  Cs  Cs1  1  0.50000000  0.50000000  0.50000000  1.0
  Zr  Zr2  1  0.84932526  -0.15067474  -0.15067474  1.0
  Zr  Zr3  1  0.34932526  0.34932526  0.34932526  1.0
  Zr  Zr4  1  0.65067474  0.65067474  -0.34932526  1.0
  Zr  Zr5  1  1.15067474  0.15067474  0.15067474  1.0
  As  As6  1  0.47344207  0.75000000  0.02655793  1.0
  As  As7  1  0.97344207  -0.47344207  0.25000000  1.0
  As  As8  1  0.25000000  0.97344207  -0.47344207  1.0
  As  As9  1  0.75000000  1.02655793  -0.52655793  1.0
  As  As10  1  0.52655793  0.25000000  -0.02655793  1.0
  As  As11  1  1.02655793  0.47344207  -0.25000000  1.0
  O  O12  1  0.73021651  1.01380977  -0.33845324  1.0
  O  O13  1  1.23021651  0.16154676  -0.48619023  1.0
  O  O14  1  0.83845324  0.48619023  -0.23021651  1.0
  O  O15  1  0.33845324  0.26978349  -0.01380977  1.0
  O  O16  1  0.98619023  0.33845324  -0.73021651  1.0
  O  O17  1  0.48619023  0.76978349  -0.16154676  1.0
  O  O18  1  0.26978349  0.98619023  -0.66154676  1.0
  O  O19  1  0.76978349  0.83845324  -0.51380977  1.0
  O  O20  1  0.66154676  0.73021651  0.01380977  1.0
  O  O21  1  1.16154676  -0.48619023  0.23021651  1.0
  O  O22  1  0.51380977  0.23021651  0.16154676  1.0
  O  O23  1  1.01380977  0.66154676  -0.26978349  1.0
  O  O24  1  0.70042651  0.06277043  -0.07101202  1.0
  O  O25  1  1.20042651  0.42898798  -0.43722957  1.0
  O  O26  1  0.57101202  0.43722957  -0.20042651  1.0
  O  O27  1  1.07101202  0.29957349  -0.06277043  1.0
  O  O28  1  0.93722957  0.07101202  0.29957349  1.0
  O  O29  1  0.43722957  0.79957349  -0.42898798  1.0
  O  O30  1  1.29957349  -0.06277043  0.07101202  1.0
  O  O31  1  0.79957349  0.57101202  -0.56277043  1.0
  O  O32  1  0.92898798  -0.29957349  0.06277043  1.0
  O  O33  1  0.42898798  0.56277043  0.20042651  1.0
  O  O34  1  0.56277043  1.20042651  -0.57101202  1.0
  O  O35  1  1.06277043  -0.07101202  -0.29957349  1.0
