# generated using pymatgen
data_Ba(InP)2
_symmetry_space_group_name_H-M   'P 1'
_cell_length_a   10.12649874
_cell_length_b   4.24010550
_cell_length_c   13.21282328
_cell_angle_alpha   90.00000000
_cell_angle_beta   94.61774201
_cell_angle_gamma   90.00000000
_symmetry_Int_Tables_number   1
_chemical_formula_structural   Ba(InP)2
_chemical_formula_sum   'Ba4 In8 P8'
_cell_volume   565.48304531
_cell_formula_units_Z   4
loop_
 _symmetry_equiv_pos_site_id
 _symmetry_equiv_pos_as_xyz
  1  'x, y, z'
loop_
 _atom_site_type_symbol
 _atom_site_label
 _atom_site_symmetry_multiplicity
 _atom_site_fract_x
 _atom_site_fract_y
 _atom_site_fract_z
 _atom_site_occupancy
  Ba  Ba0  1  0.94315925  0.25000000  0.65558407  1.0
  Ba  Ba1  1  0.05684075  0.75000000  0.34441593  1.0
  Ba  Ba2  1  0.34330882  0.25000000  0.09447344  1.0
  Ba  Ba3  1  0.65669118  0.75000000  0.90552656  1.0
  In  In4  1  0.94956599  0.25000000  0.09545033  1.0
  In  In5  1  0.05043401  0.75000000  0.90454967  1.0
  In  In6  1  0.72931128  0.25000000  0.21749203  1.0
  In  In7  1  0.27068872  0.75000000  0.78250797  1.0
  In  In8  1  0.54287595  0.25000000  0.66320137  1.0
  In  In9  1  0.45712405  0.75000000  0.33679863  1.0
  In  In10  1  0.30998299  0.25000000  0.53424316  1.0
  In  In11  1  0.69001701  0.75000000  0.46575684  1.0
  P  P12  1  0.88933033  0.25000000  0.89550331  1.0
  P  P13  1  0.11066967  0.75000000  0.10449669  1.0
  P  P14  1  0.82753570  0.25000000  0.41017312  1.0
  P  P15  1  0.17246430  0.75000000  0.58982688  1.0
  P  P16  1  0.42021411  0.25000000  0.83766605  1.0
  P  P17  1  0.57978589  0.75000000  0.16233395  1.0
  P  P18  1  0.29881645  0.25000000  0.33514612  1.0
  P  P19  1  0.70118355  0.75000000  0.66485388  1.0
