# generated using pymatgen
data_BIrPd
_symmetry_space_group_name_H-M   'P 1'
_cell_length_a   6.10818120
_cell_length_b   5.53341919
_cell_length_c   6.75063348
_cell_angle_alpha   58.63932267
_cell_angle_beta   50.67446966
_cell_angle_gamma   70.68620767
_symmetry_Int_Tables_number   1
_chemical_formula_structural   BIrPd
_chemical_formula_sum   'B4 Ir4 Pd4'
_cell_volume   150.71399287
_cell_formula_units_Z   4
loop_
 _symmetry_equiv_pos_site_id
 _symmetry_equiv_pos_as_xyz
  1  'x, y, z'
loop_
 _atom_site_type_symbol
 _atom_site_label
 _atom_site_symmetry_multiplicity
 _atom_site_fract_x
 _atom_site_fract_y
 _atom_site_fract_z
 _atom_site_occupancy
  B  B0  1  0.27440619  0.68549670  1.19586168  1.0
  B  B1  1  1.05413832  0.40576457  -0.02440619  1.0
  B  B2  1  1.68549670  0.27440619  -0.15576457  1.0
  B  B3  1  0.40576457  0.05413832  1.56450330  1.0
  Ir  Ir4  1  0.37996061  -0.38186080  0.85492833  1.0
  Ir  Ir5  1  0.39507167  1.10302813  0.87003939  1.0
  Ir  Ir6  1  0.61813920  0.37996061  1.14697187  1.0
  Ir  Ir7  1  1.10302813  -0.60492833  0.63186080  1.0
  Pd  Pd8  1  -0.13797822  0.45757553  1.36869443  1.0
  Pd  Pd9  1  0.88130557  -0.06170827  0.38797822  1.0
  Pd  Pd10  1  1.45757553  -0.13797822  0.31170827  1.0
  Pd  Pd11  1  0.93829173  -0.11869443  0.79242447  1.0
