# generated using pymatgen
data_MgAlAg2F7
_symmetry_space_group_name_H-M   'P 1'
_cell_length_a   7.35948980
_cell_length_b   7.35948980
_cell_length_c   7.35948980
_cell_angle_alpha   120.46595296
_cell_angle_beta   92.62240393
_cell_angle_gamma   116.56546981
_symmetry_Int_Tables_number   1
_chemical_formula_structural   MgAlAg2F7
_chemical_formula_sum   'Mg2 Al2 Ag4 F14'
_cell_volume   287.45931381
_cell_formula_units_Z   2
loop_
 _symmetry_equiv_pos_site_id
 _symmetry_equiv_pos_as_xyz
  1  'x, y, z'
loop_
 _atom_site_type_symbol
 _atom_site_label
 _atom_site_symmetry_multiplicity
 _atom_site_fract_x
 _atom_site_fract_y
 _atom_site_fract_z
 _atom_site_occupancy
  Mg  Mg0  1  1.11238875  0.86227103  0.74988227  1.0
  Mg  Mg1  1  1.11238875  1.36250648  1.25011773  1.0
  Al  Al2  1  1.11222783  1.36226661  0.74996122  1.0
  Al  Al3  1  1.61230539  1.36226661  1.25003878  1.0
  Ag  Ag4  1  1.61303002  0.86243983  0.75059019  1.0
  Ag  Ag5  1  1.11184965  0.86243983  0.24940981  1.0
  Ag  Ag6  1  0.61157133  0.36138231  0.74981097  1.0
  Ag  Ag7  1  0.61157133  0.86176036  1.25018903  1.0
  F  F8  1  1.07859025  1.26027690  0.46011018  1.0
  F  F9  1  1.80016671  1.26027690  1.18168665  1.0
  F  F10  1  1.07859025  1.61848006  0.81831335  1.0
  F  F11  1  1.80016671  1.61848006  1.53988982  1.0
  F  F12  1  1.14591132  1.10604787  0.68153795  1.0
  F  F13  1  1.42450992  1.10604787  0.96013655  1.0
  F  F14  1  1.14591132  1.46437337  1.03986345  1.0
  F  F15  1  1.42450992  1.46437337  1.31846205  1.0
  F  F16  1  0.41069793  0.57097754  0.83972039  1.0
  F  F17  1  0.73125715  0.57097754  1.16027961  1.0
  F  F18  1  0.81376740  0.15346200  0.66030540  1.0
  F  F19  1  0.49315660  0.15346200  0.33969460  1.0
  F  F20  1  1.21514059  0.71514059  0.50000000  1.0
  F  F21  1  0.00979088  0.00979088  -0.00000000  1.0
