# generated using pymatgen
data_Eu(GaSb)2
_symmetry_space_group_name_H-M   'P 1'
_cell_length_a   18.13685349
_cell_length_b   4.38761371
_cell_length_c   6.65718021
_cell_angle_alpha   90.00000000
_cell_angle_beta   90.00000000
_cell_angle_gamma   90.00000000
_symmetry_Int_Tables_number   1
_chemical_formula_structural   Eu(GaSb)2
_chemical_formula_sum   'Eu4 Ga8 Sb8'
_cell_volume   529.76180545
_cell_formula_units_Z   4
loop_
 _symmetry_equiv_pos_site_id
 _symmetry_equiv_pos_as_xyz
  1  'x, y, z'
loop_
 _atom_site_type_symbol
 _atom_site_label
 _atom_site_symmetry_multiplicity
 _atom_site_fract_x
 _atom_site_fract_y
 _atom_site_fract_z
 _atom_site_occupancy
  Eu  Eu0  1  0.11714401  0.75000000  0.74617418  1.0
  Eu  Eu1  1  0.61714401  0.75000000  0.75382582  1.0
  Eu  Eu2  1  0.88285599  0.25000000  0.25382582  1.0
  Eu  Eu3  1  0.38285599  0.25000000  0.24617418  1.0
  Ga  Ga4  1  0.43168452  0.75000000  0.56599984  1.0
  Ga  Ga5  1  0.93168452  0.75000000  0.93400016  1.0
  Ga  Ga6  1  0.56831548  0.25000000  0.43400016  1.0
  Ga  Ga7  1  0.06831548  0.25000000  0.06599984  1.0
  Ga  Ga8  1  0.29116060  0.75000000  0.54532630  1.0
  Ga  Ga9  1  0.79116060  0.75000000  0.95467370  1.0
  Ga  Ga10  1  0.70883940  0.25000000  0.45467370  1.0
  Ga  Ga11  1  0.20883940  0.25000000  0.04532630  1.0
  Sb  Sb12  1  0.29122659  0.75000000  0.95392230  1.0
  Sb  Sb13  1  0.79122659  0.75000000  0.54607770  1.0
  Sb  Sb14  1  0.70877341  0.25000000  0.04607770  1.0
  Sb  Sb15  1  0.20877341  0.25000000  0.45392230  1.0
  Sb  Sb16  1  0.02904360  0.75000000  0.28347996  1.0
  Sb  Sb17  1  0.52904360  0.75000000  0.21652004  1.0
  Sb  Sb18  1  0.97095640  0.25000000  0.71652004  1.0
  Sb  Sb19  1  0.47095640  0.25000000  0.78347996  1.0
