# generated using pymatgen
data_Mg2Ga2S5
_symmetry_space_group_name_H-M   'P 1'
_cell_length_a   3.73255348
_cell_length_b   3.73255348
_cell_length_c   16.04126288
_cell_angle_alpha   90.00000000
_cell_angle_beta   90.00000000
_cell_angle_gamma   120.00000000
_symmetry_Int_Tables_number   1
_chemical_formula_structural   Mg2Ga2S5
_chemical_formula_sum   'Mg2 Ga2 S5'
_cell_volume   193.54469229
_cell_formula_units_Z   1
loop_
 _symmetry_equiv_pos_site_id
 _symmetry_equiv_pos_as_xyz
  1  'x, y, z'
loop_
 _atom_site_type_symbol
 _atom_site_label
 _atom_site_symmetry_multiplicity
 _atom_site_fract_x
 _atom_site_fract_y
 _atom_site_fract_z
 _atom_site_occupancy
  Mg  Mg0  1  0.33333333  0.66666667  0.09469098  1.0
  Mg  Mg1  1  0.66666667  0.33333333  0.90530902  1.0
  Ga  Ga2  1  0.33333333  0.66666667  0.68486429  1.0
  Ga  Ga3  1  0.66666667  0.33333333  0.31513571  1.0
  S  S4  1  0.33333333  0.66666667  0.37812090  1.0
  S  S5  1  0.66666667  0.33333333  0.62187910  1.0
  S  S6  1  0.33333333  0.66666667  0.82236016  1.0
  S  S7  1  0.66666667  0.33333333  0.17763984  1.0
  S  S8  1  0.00000000  0.00000000  0.00000000  1.0
