# generated using pymatgen
data_Gd5Zr3(Ni4As3)4
_symmetry_space_group_name_H-M   'P 1'
_cell_length_a   12.81783203
_cell_length_b   12.81783203
_cell_length_c   3.96289296
_cell_angle_alpha   90.00000000
_cell_angle_beta   90.00000000
_cell_angle_gamma   120.00000000
_symmetry_Int_Tables_number   1
_chemical_formula_structural   Gd5Zr3(Ni4As3)4
_chemical_formula_sum   'Gd5 Zr3 Ni16 As12'
_cell_volume   563.86108908
_cell_formula_units_Z   1
loop_
 _symmetry_equiv_pos_site_id
 _symmetry_equiv_pos_as_xyz
  1  'x, y, z'
loop_
 _atom_site_type_symbol
 _atom_site_label
 _atom_site_symmetry_multiplicity
 _atom_site_fract_x
 _atom_site_fract_y
 _atom_site_fract_z
 _atom_site_occupancy
  Gd  Gd0  1  0.18633281  0.18633281  0.50000000  1.0
  Gd  Gd1  1  -0.00000000  0.81366719  0.50000000  1.0
  Gd  Gd2  1  0.81366719  0.00000000  0.50000000  1.0
  Gd  Gd3  1  0.33333333  0.66666667  -0.00000000  1.0
  Gd  Gd4  1  0.66666667  0.33333333  -0.00000000  1.0
  Zr  Zr5  1  0.56716614  0.56716614  0.00000000  1.0
  Zr  Zr6  1  -0.00000000  0.43283386  0.00000000  1.0
  Zr  Zr7  1  0.43283386  0.00000000  0.00000000  1.0
  Ni  Ni8  1  0.11976468  0.63516475  0.50000000  1.0
  Ni  Ni9  1  0.63516475  0.11976468  0.50000000  1.0
  Ni  Ni10  1  0.51540007  0.88023532  0.50000000  1.0
  Ni  Ni11  1  0.36483525  0.48459993  0.50000000  1.0
  Ni  Ni12  1  0.88023532  0.51540007  0.50000000  1.0
  Ni  Ni13  1  0.48459993  0.36483525  0.50000000  1.0
  Ni  Ni14  1  0.19268544  0.81515603  0.00000000  1.0
  Ni  Ni15  1  0.81515603  0.19268544  -0.00000000  1.0
  Ni  Ni16  1  0.62247059  0.80731456  0.00000000  1.0
  Ni  Ni17  1  0.18484397  0.37752941  -0.00000000  1.0
  Ni  Ni18  1  0.80731456  0.62247059  -0.00000000  1.0
  Ni  Ni19  1  0.37752941  0.18484397  0.00000000  1.0
  Ni  Ni20  1  0.72404205  0.72404205  0.50000000  1.0
  Ni  Ni21  1  -0.00000000  0.27595795  0.50000000  1.0
  Ni  Ni22  1  0.27595795  0.00000000  0.50000000  1.0
  Ni  Ni23  1  0.00000000  0.00000000  0.00000000  1.0
  As  As24  1  0.30476512  0.82717074  0.50000000  1.0
  As  As25  1  0.82717074  0.30476512  0.50000000  1.0
  As  As26  1  0.52240562  0.69523488  0.50000000  1.0
  As  As27  1  0.17282926  0.47759438  0.50000000  1.0
  As  As28  1  0.69523488  0.52240562  0.50000000  1.0
  As  As29  1  0.47759438  0.17282926  0.50000000  1.0
  As  As30  1  0.82129328  0.82129328  -0.00000000  1.0
  As  As31  1  -0.00000000  0.17870672  -0.00000000  1.0
  As  As32  1  0.17870672  -0.00000000  -0.00000000  1.0
  As  As33  1  0.35936697  0.35936697  0.00000000  1.0
  As  As34  1  -0.00000000  0.64063303  -0.00000000  1.0
  As  As35  1  0.64063303  0.00000000  -0.00000000  1.0
