# generated using pymatgen
data_Li15Ge4
_symmetry_space_group_name_H-M   'P 1'
_cell_length_a   9.25587328
_cell_length_b   9.25587328
_cell_length_c   9.25587328
_cell_angle_alpha   109.47122063
_cell_angle_beta   109.47122063
_cell_angle_gamma   109.47122063
_symmetry_Int_Tables_number   1
_chemical_formula_structural   Li15Ge4
_chemical_formula_sum   'Li30 Ge8'
_cell_volume   610.42218640
_cell_formula_units_Z   2
loop_
 _symmetry_equiv_pos_site_id
 _symmetry_equiv_pos_as_xyz
  1  'x, y, z'
loop_
 _atom_site_type_symbol
 _atom_site_label
 _atom_site_symmetry_multiplicity
 _atom_site_fract_x
 _atom_site_fract_y
 _atom_site_fract_z
 _atom_site_occupancy
  Li  Li0  1  1.08573620  0.30901036  0.96871244  1.0
  Li  Li1  1  0.84029792  1.11702376  0.53128756  1.0
  Li  Li2  1  0.80901036  0.58573620  0.46871244  1.0
  Li  Li3  1  1.61702376  1.34029792  1.03128756  1.0
  Li  Li4  1  0.96871244  1.08573620  0.30901036  1.0
  Li  Li5  1  1.27672584  0.65970208  1.19098964  1.0
  Li  Li6  1  1.58573620  1.46871244  1.80901036  1.0
  Li  Li7  1  0.15970208  0.77672584  0.69098964  1.0
  Li  Li8  1  1.30901036  0.96871244  1.08573620  1.0
  Li  Li9  1  1.38297624  1.22327416  1.41426380  1.0
  Li  Li10  1  0.46871244  0.80901036  0.58573620  1.0
  Li  Li11  1  0.72327416  0.88297624  0.91426380  1.0
  Li  Li12  1  1.65970208  1.19098964  1.27672584  1.0
  Li  Li13  1  1.41426380  1.38297624  1.22327416  1.0
  Li  Li14  1  0.88297624  0.91426380  0.72327416  1.0
  Li  Li15  1  0.69098964  1.15970208  0.77672584  1.0
  Li  Li16  1  1.22327416  1.41426380  1.38297624  1.0
  Li  Li17  1  1.53128756  0.84029792  1.11702376  1.0
  Li  Li18  1  1.34029792  1.03128756  1.61702376  1.0
  Li  Li19  1  0.91426380  0.72327416  0.88297624  1.0
  Li  Li20  1  1.11702376  1.53128756  0.84029792  1.0
  Li  Li21  1  1.19098964  1.27672584  1.65970208  1.0
  Li  Li22  1  0.77672584  0.69098964  0.15970208  1.0
  Li  Li23  1  1.03128756  0.61702376  1.34029792  1.0
  Li  Li24  1  1.12500000  0.87500000  1.25000000  1.0
  Li  Li25  1  0.37500000  0.62500000  0.75000000  1.0
  Li  Li26  1  0.25000000  1.12500000  0.87500000  1.0
  Li  Li27  1  0.75000000  1.37500000  0.62500000  1.0
  Li  Li28  1  0.62500000  0.75000000  0.37500000  1.0
  Li  Li29  1  0.87500000  0.25000000  1.12500000  1.0
  Ge  Ge30  1  1.08411335  1.08411335  1.08411335  1.0
  Ge  Ge31  1  1.50000000  1.00000000  1.41588665  1.0
  Ge  Ge32  1  0.58411335  0.58411335  0.58411335  1.0
  Ge  Ge33  1  0.50000000  1.00000000  0.91588665  1.0
  Ge  Ge34  1  1.00000000  1.41588665  1.50000000  1.0
  Ge  Ge35  1  1.41588665  0.50000000  1.00000000  1.0
  Ge  Ge36  1  1.00000000  0.91588665  1.50000000  1.0
  Ge  Ge37  1  0.91588665  1.50000000  1.00000000  1.0
