# generated using pymatgen
data_BaIn2
_symmetry_space_group_name_H-M   'P 1'
_cell_length_a   6.68522033
_cell_length_b   6.68522033
_cell_length_c   6.68522033
_cell_angle_alpha   133.00522760
_cell_angle_beta   99.54082260
_cell_angle_gamma   98.75355056
_symmetry_Int_Tables_number   1
_chemical_formula_structural   BaIn2
_chemical_formula_sum   'Ba2 In4'
_cell_volume   200.36873731
_cell_formula_units_Z   2
loop_
 _symmetry_equiv_pos_site_id
 _symmetry_equiv_pos_as_xyz
  1  'x, y, z'
loop_
 _atom_site_type_symbol
 _atom_site_label
 _atom_site_symmetry_multiplicity
 _atom_site_fract_x
 _atom_site_fract_y
 _atom_site_fract_z
 _atom_site_occupancy
  Ba  Ba0  1  1.70270927  1.45270927  1.25000000  1.0
  Ba  Ba1  1  0.29729073  0.54729073  0.75000000  1.0
  In  In2  1  1.27157469  0.83855770  1.43301699  1.0
  In  In3  1  1.09445929  0.16144230  0.93301699  1.0
  In  In4  1  0.72842531  1.16144230  0.56698301  1.0
  In  In5  1  0.90554071  0.83855770  0.06698301  1.0
