# generated using pymatgen
data_Tb2(Ga3Rh)3
_symmetry_space_group_name_H-M   'P 1'
_cell_length_a   7.56961904
_cell_length_b   7.56961904
_cell_length_c   9.53846957
_cell_angle_alpha   90.00000000
_cell_angle_beta   90.00000000
_cell_angle_gamma   60.26075979
_symmetry_Int_Tables_number   1
_chemical_formula_structural   Tb2(Ga3Rh)3
_chemical_formula_sum   'Tb4 Ga18 Rh6'
_cell_volume   474.56153869
_cell_formula_units_Z   2
loop_
 _symmetry_equiv_pos_site_id
 _symmetry_equiv_pos_as_xyz
  1  'x, y, z'
loop_
 _atom_site_type_symbol
 _atom_site_label
 _atom_site_symmetry_multiplicity
 _atom_site_fract_x
 _atom_site_fract_y
 _atom_site_fract_z
 _atom_site_occupancy
  Tb  Tb0  1  -0.00210077  1.33087331  0.25000000  1.0
  Tb  Tb1  1  0.33087331  0.99789923  0.75000000  1.0
  Tb  Tb2  1  -0.33087331  1.00210077  0.25000000  1.0
  Tb  Tb3  1  0.00210077  0.66912669  0.75000000  1.0
  Ga  Ga4  1  0.00082728  0.66532181  0.42168512  1.0
  Ga  Ga5  1  0.00082728  0.66532181  0.07831488  1.0
  Ga  Ga6  1  -0.33467819  1.00082728  0.92168512  1.0
  Ga  Ga7  1  -0.33467819  1.00082728  0.57831488  1.0
  Ga  Ga8  1  0.33467819  0.99917272  0.42168512  1.0
  Ga  Ga9  1  0.33467819  0.99917272  0.07831488  1.0
  Ga  Ga10  1  -0.00082728  1.33467819  0.92168512  1.0
  Ga  Ga11  1  -0.00082728  1.33467819  0.57831488  1.0
  Ga  Ga12  1  0.33803255  0.45304562  0.25000000  1.0
  Ga  Ga13  1  -0.54695438  1.33803255  0.75000000  1.0
  Ga  Ga14  1  0.54695438  0.66196745  0.25000000  1.0
  Ga  Ga15  1  -0.33803255  1.54695438  0.75000000  1.0
  Ga  Ga16  1  0.33320583  0.66679417  0.93515373  1.0
  Ga  Ga17  1  0.33320583  0.66679417  0.56484627  1.0
  Ga  Ga18  1  -0.33320583  1.33320583  0.43515373  1.0
  Ga  Ga19  1  -0.33320583  1.33320583  0.06484627  1.0
  Ga  Ga20  1  0.12665496  0.87334504  0.25000000  1.0
  Ga  Ga21  1  -0.12665496  1.12665496  0.75000000  1.0
  Rh  Rh22  1  0.67091885  0.67091885  0.50000000  1.0
  Rh  Rh23  1  0.67091885  0.67091885  0.00000000  1.0
  Rh  Rh24  1  0.32908115  0.32908115  0.50000000  1.0
  Rh  Rh25  1  0.32908115  0.32908115  0.00000000  1.0
  Rh  Rh26  1  0.00000000  0.00000000  0.50000000  1.0
  Rh  Rh27  1  0.00000000  0.00000000  0.00000000  1.0
