# generated using pymatgen
data_V2CoP2(H4O7)2
_symmetry_space_group_name_H-M   'P 1'
_cell_length_a   8.01167492
_cell_length_b   8.01167492
_cell_length_c   8.01167492
_cell_angle_alpha   133.50928451
_cell_angle_beta   133.50928451
_cell_angle_gamma   67.85547141
_symmetry_Int_Tables_number   1
_chemical_formula_structural   V2CoP2(H4O7)2
_chemical_formula_sum   'V2 Co1 P2 H8 O14'
_cell_volume   265.85207959
_cell_formula_units_Z   1
loop_
 _symmetry_equiv_pos_site_id
 _symmetry_equiv_pos_as_xyz
  1  'x, y, z'
loop_
 _atom_site_type_symbol
 _atom_site_label
 _atom_site_symmetry_multiplicity
 _atom_site_fract_x
 _atom_site_fract_y
 _atom_site_fract_z
 _atom_site_occupancy
  V  V0  1  0.72329581  0.72329581  1.00000000  1.0
  V  V1  1  0.27670419  0.27670419  0.00000000  1.0
  Co  Co2  1  0.00000000  0.00000000  0.00000000  1.0
  P  P3  1  0.25000000  0.75000000  0.50000000  1.0
  P  P4  1  0.75000000  0.25000000  0.50000000  1.0
  H  H5  1  0.76240164  0.58383563  0.46812791  1.0
  H  H6  1  0.88429228  0.70572627  1.46812791  1.0
  H  H7  1  1.29427373  0.76240164  1.17856601  1.0
  H  H8  1  0.41616437  0.88429228  1.17856601  1.0
  H  H9  1  1.11570772  1.29427373  1.53187209  1.0
  H  H10  1  0.23759836  0.41616437  0.53187209  1.0
  H  H11  1  0.58383563  1.11570772  0.82143399  1.0
  H  H12  1  0.70572627  0.23759836  0.82143399  1.0
  O  O13  1  0.37798188  0.65757166  0.67433683  1.0
  O  O14  1  1.01676516  1.29635495  1.67433683  1.0
  O  O15  1  0.70364505  0.37798188  0.72041021  1.0
  O  O16  1  0.34242834  1.01676516  0.72041021  1.0
  O  O17  1  0.98323484  0.70364505  1.32566317  1.0
  O  O18  1  0.62201812  0.34242834  0.32566317  1.0
  O  O19  1  0.65757166  0.98323484  1.27958979  1.0
  O  O20  1  1.29635495  0.62201812  1.27958979  1.0
  O  O21  1  0.81374402  0.73425679  1.54800081  1.0
  O  O22  1  0.26574321  0.81374402  1.07948724  1.0
  O  O23  1  0.18625598  0.26574321  0.45199919  1.0
  O  O24  1  0.73425679  0.18625598  0.92051276  1.0
  O  O25  1  0.84448357  0.84448357  1.00000000  1.0
  O  O26  1  0.15551643  0.15551643  -0.00000000  1.0
