# generated using pymatgen
data_Y3Tl5
_symmetry_space_group_name_H-M   'P 1'
_cell_length_a   6.50004052
_cell_length_b   6.50004052
_cell_length_c   10.56307163
_cell_angle_alpha   90.00000000
_cell_angle_beta   90.00000000
_cell_angle_gamma   77.79940348
_symmetry_Int_Tables_number   1
_chemical_formula_structural   Y3Tl5
_chemical_formula_sum   'Y6 Tl10'
_cell_volume   436.21517827
_cell_formula_units_Z   2
loop_
 _symmetry_equiv_pos_site_id
 _symmetry_equiv_pos_as_xyz
  1  'x, y, z'
loop_
 _atom_site_type_symbol
 _atom_site_label
 _atom_site_symmetry_multiplicity
 _atom_site_fract_x
 _atom_site_fract_y
 _atom_site_fract_z
 _atom_site_occupancy
  Y  Y0  1  0.79333941  0.79333941  0.50000000  1.0
  Y  Y1  1  0.79333941  0.79333941  0.00000000  1.0
  Y  Y2  1  0.20666059  0.20666059  0.50000000  1.0
  Y  Y3  1  0.20666059  0.20666059  0.00000000  1.0
  Y  Y4  1  -0.39085116  1.39085116  0.25000000  1.0
  Y  Y5  1  0.39085116  0.60914884  0.75000000  1.0
  Tl  Tl6  1  0.06579585  0.48971204  0.25000000  1.0
  Tl  Tl7  1  -0.51028796  1.06579585  0.75000000  1.0
  Tl  Tl8  1  0.51028796  0.93420415  0.25000000  1.0
  Tl  Tl9  1  -0.06579585  1.51028796  0.75000000  1.0
  Tl  Tl10  1  0.30165958  0.69834042  0.46295530  1.0
  Tl  Tl11  1  0.30165958  0.69834042  0.03704470  1.0
  Tl  Tl12  1  -0.30165958  1.30165958  0.96295530  1.0
  Tl  Tl13  1  -0.30165958  1.30165958  0.53704470  1.0
  Tl  Tl14  1  0.00077499  0.99922501  0.25000000  1.0
  Tl  Tl15  1  -0.00077499  1.00077499  0.75000000  1.0
