# generated using pymatgen
data_Mg(SbO2)2
_symmetry_space_group_name_H-M   'P 1'
_cell_length_a   8.60575892
_cell_length_b   8.60575892
_cell_length_c   6.08270863
_cell_angle_alpha   90.00000000
_cell_angle_beta   90.00000000
_cell_angle_gamma   90.00000000
_symmetry_Int_Tables_number   1
_chemical_formula_structural   Mg(SbO2)2
_chemical_formula_sum   'Mg4 Sb8 O16'
_cell_volume   450.47984498
_cell_formula_units_Z   4
loop_
 _symmetry_equiv_pos_site_id
 _symmetry_equiv_pos_as_xyz
  1  'x, y, z'
loop_
 _atom_site_type_symbol
 _atom_site_label
 _atom_site_symmetry_multiplicity
 _atom_site_fract_x
 _atom_site_fract_y
 _atom_site_fract_z
 _atom_site_occupancy
  Mg  Mg0  1  0.00000000  0.50000000  0.75000000  1.0
  Mg  Mg1  1  0.50000000  0.00000000  0.25000000  1.0
  Mg  Mg2  1  0.50000000  0.00000000  0.75000000  1.0
  Mg  Mg3  1  0.00000000  0.50000000  0.25000000  1.0
  Sb  Sb4  1  0.16576608  0.17602650  0.50000000  1.0
  Sb  Sb5  1  0.17602650  0.83423392  0.00000000  1.0
  Sb  Sb6  1  0.33423392  0.67602650  0.50000000  1.0
  Sb  Sb7  1  0.67602650  0.66576608  -0.00000000  1.0
  Sb  Sb8  1  0.83423392  0.82397350  0.50000000  1.0
  Sb  Sb9  1  0.82397350  0.16576608  0.00000000  1.0
  Sb  Sb10  1  0.66576608  0.32397350  0.50000000  1.0
  Sb  Sb11  1  0.32397350  0.33423392  -0.00000000  1.0
  O  O12  1  0.13283527  0.40107776  0.50000000  1.0
  O  O13  1  0.40107776  0.86716473  -0.00000000  1.0
  O  O14  1  0.36716473  0.90107776  0.50000000  1.0
  O  O15  1  0.90107776  0.63283527  -0.00000000  1.0
  O  O16  1  0.86716473  0.59892224  0.50000000  1.0
  O  O17  1  0.59892224  0.13283527  0.00000000  1.0
  O  O18  1  0.63283527  0.09892224  0.50000000  1.0
  O  O19  1  0.09892224  0.36716473  -0.00000000  1.0
  O  O20  1  0.82291656  0.32291656  0.75000000  1.0
  O  O21  1  0.32291656  0.17708344  0.25000000  1.0
  O  O22  1  0.67708344  0.82291656  0.75000000  1.0
  O  O23  1  0.82291656  0.32291656  0.25000000  1.0
  O  O24  1  0.32291656  0.17708344  0.75000000  1.0
  O  O25  1  0.67708344  0.82291656  0.25000000  1.0
  O  O26  1  0.17708344  0.67708344  0.25000000  1.0
  O  O27  1  0.17708344  0.67708344  0.75000000  1.0
