# generated using pymatgen
data_Na3H7Os
_symmetry_space_group_name_H-M   'P 1'
_cell_length_a   9.61764294
_cell_length_b   9.61764294
_cell_length_c   5.30221395
_cell_angle_alpha   90.00000000
_cell_angle_beta   90.00000000
_cell_angle_gamma   90.00000000
_symmetry_Int_Tables_number   1
_chemical_formula_structural   Na3H7Os
_chemical_formula_sum   'Na12 H28 Os4'
_cell_volume   490.44978350
_cell_formula_units_Z   4
loop_
 _symmetry_equiv_pos_site_id
 _symmetry_equiv_pos_as_xyz
  1  'x, y, z'
loop_
 _atom_site_type_symbol
 _atom_site_label
 _atom_site_symmetry_multiplicity
 _atom_site_fract_x
 _atom_site_fract_y
 _atom_site_fract_z
 _atom_site_occupancy
  Na  Na0  1  0.29940491  0.03168528  0.50000000  1.0
  Na  Na1  1  0.79940491  0.46831472  0.00000000  1.0
  Na  Na2  1  0.96831472  0.70059509  0.50000000  1.0
  Na  Na3  1  0.46831472  0.79940491  0.00000000  1.0
  Na  Na4  1  0.70059509  0.96831472  0.50000000  1.0
  Na  Na5  1  0.20059509  0.53168528  0.00000000  1.0
  Na  Na6  1  0.03168528  0.29940491  0.50000000  1.0
  Na  Na7  1  0.53168528  0.20059509  0.00000000  1.0
  Na  Na8  1  0.38281033  0.38281033  0.50000000  1.0
  Na  Na9  1  0.88281033  0.11718967  0.00000000  1.0
  Na  Na10  1  0.61718967  0.61718967  0.50000000  1.0
  Na  Na11  1  0.11718967  0.88281033  0.00000000  1.0
  H  H12  1  0.39696215  0.60303785  0.30455273  1.0
  H  H13  1  0.39696215  0.60303785  0.69544727  1.0
  H  H14  1  0.89696215  0.89696215  0.80455273  1.0
  H  H15  1  0.89696215  0.89696215  0.19544727  1.0
  H  H16  1  0.60303785  0.39696215  0.30455273  1.0
  H  H17  1  0.60303785  0.39696215  0.69544727  1.0
  H  H18  1  0.10303785  0.10303785  0.80455273  1.0
  H  H19  1  0.10303785  0.10303785  0.19544727  1.0
  H  H20  1  0.25943565  0.74056435  0.20293720  1.0
  H  H21  1  0.25943565  0.74056435  0.79706280  1.0
  H  H22  1  0.75943565  0.75943565  0.70293720  1.0
  H  H23  1  0.75943565  0.75943565  0.29706280  1.0
  H  H24  1  0.74056435  0.25943565  0.20293720  1.0
  H  H25  1  0.74056435  0.25943565  0.79706280  1.0
  H  H26  1  0.24056435  0.24056435  0.70293720  1.0
  H  H27  1  0.24056435  0.24056435  0.29706280  1.0
  H  H28  1  0.43077079  0.82410725  0.50000000  1.0
  H  H29  1  0.93077079  0.67589275  0.00000000  1.0
  H  H30  1  0.17589275  0.56922921  0.50000000  1.0
  H  H31  1  0.67589275  0.93077079  0.00000000  1.0
  H  H32  1  0.56922921  0.17589275  0.50000000  1.0
  H  H33  1  0.06922921  0.32410725  0.00000000  1.0
  H  H34  1  0.82410725  0.43077079  0.50000000  1.0
  H  H35  1  0.32410725  0.06922921  0.00000000  1.0
  H  H36  1  0.17524111  0.82475889  0.50000000  1.0
  H  H37  1  0.67524111  0.67524111  0.00000000  1.0
  H  H38  1  0.82475889  0.17524111  0.50000000  1.0
  H  H39  1  0.32475889  0.32475889  0.00000000  1.0
  Os  Os40  1  0.29885856  0.70114144  0.50000000  1.0
  Os  Os41  1  0.79885856  0.79885856  0.00000000  1.0
  Os  Os42  1  0.70114144  0.29885856  0.50000000  1.0
  Os  Os43  1  0.20114144  0.20114144  0.00000000  1.0
