# generated using pymatgen
data_CuN6
_symmetry_space_group_name_H-M   'P 1'
_cell_length_a   14.16366444
_cell_length_b   3.14146566
_cell_length_c   9.56689954
_cell_angle_alpha   90.00000000
_cell_angle_beta   90.00000000
_cell_angle_gamma   90.00000000
_symmetry_Int_Tables_number   1
_chemical_formula_structural   CuN6
_chemical_formula_sum   'Cu4 N24'
_cell_volume   425.67599439
_cell_formula_units_Z   4
loop_
 _symmetry_equiv_pos_site_id
 _symmetry_equiv_pos_as_xyz
  1  'x, y, z'
loop_
 _atom_site_type_symbol
 _atom_site_label
 _atom_site_symmetry_multiplicity
 _atom_site_fract_x
 _atom_site_fract_y
 _atom_site_fract_z
 _atom_site_occupancy
  Cu  Cu0  1  0.39276707  0.75000000  0.58732695  1.0
  Cu  Cu1  1  0.89276707  0.75000000  0.91267305  1.0
  Cu  Cu2  1  0.60723293  0.25000000  0.41267305  1.0
  Cu  Cu3  1  0.10723293  0.25000000  0.08732695  1.0
  N  N4  1  0.47507113  0.75000000  0.24554290  1.0
  N  N5  1  0.97507113  0.75000000  0.25445710  1.0
  N  N6  1  0.52492887  0.25000000  0.75445710  1.0
  N  N7  1  0.02492887  0.25000000  0.74554290  1.0
  N  N8  1  0.41866128  0.75000000  0.15898570  1.0
  N  N9  1  0.91866128  0.75000000  0.34101430  1.0
  N  N10  1  0.58133872  0.25000000  0.84101430  1.0
  N  N11  1  0.08133872  0.25000000  0.65898570  1.0
  N  N12  1  0.30820544  0.75000000  0.85210074  1.0
  N  N13  1  0.80820544  0.75000000  0.64789926  1.0
  N  N14  1  0.69179456  0.25000000  0.14789926  1.0
  N  N15  1  0.19179456  0.25000000  0.35210074  1.0
  N  N16  1  0.24359948  0.75000000  0.92504180  1.0
  N  N17  1  0.74359948  0.75000000  0.57495820  1.0
  N  N18  1  0.75640052  0.25000000  0.07495820  1.0
  N  N19  1  0.25640052  0.25000000  0.42504180  1.0
  N  N20  1  0.17504140  0.75000000  1.00264077  1.0
  N  N21  1  0.67504140  0.75000000  0.49735923  1.0
  N  N22  1  0.82495860  0.25000000  -0.00264077  1.0
  N  N23  1  0.32495860  0.25000000  0.50264077  1.0
  N  N24  1  0.03398084  0.75000000  0.16079067  1.0
  N  N25  1  0.53398084  0.75000000  0.33920933  1.0
  N  N26  1  0.96601916  0.25000000  0.83920933  1.0
  N  N27  1  0.46601916  0.25000000  0.66079067  1.0
