# generated using pymatgen
data_BaCd11
_symmetry_space_group_name_H-M   'P 1'
_cell_length_a   9.47659126
_cell_length_b   9.47659126
_cell_length_c   9.47659126
_cell_angle_alpha   99.95502799
_cell_angle_beta   99.95502799
_cell_angle_gamma   130.86278433
_symmetry_Int_Tables_number   1
_chemical_formula_structural   BaCd11
_chemical_formula_sum   'Ba2 Cd22'
_cell_volume   585.36100716
_cell_formula_units_Z   2
loop_
 _symmetry_equiv_pos_site_id
 _symmetry_equiv_pos_as_xyz
  1  'x, y, z'
loop_
 _atom_site_type_symbol
 _atom_site_label
 _atom_site_symmetry_multiplicity
 _atom_site_fract_x
 _atom_site_fract_y
 _atom_site_fract_z
 _atom_site_occupancy
  Ba  Ba0  1  0.50000000  0.50000000  1.00000000  1.0
  Ba  Ba1  1  0.25000000  0.75000000  0.50000000  1.0
  Cd  Cd2  1  0.75000000  1.25000000  0.50000000  1.0
  Cd  Cd3  1  1.00000000  1.00000000  1.00000000  1.0
  Cd  Cd4  1  0.87500000  0.62500000  0.75000000  1.0
  Cd  Cd5  1  1.37500000  1.12500000  1.25000000  1.0
  Cd  Cd6  1  0.87500000  0.12500000  0.75000000  1.0
  Cd  Cd7  1  0.87500000  1.12500000  0.25000000  1.0
  Cd  Cd8  1  1.00473715  0.67950159  1.08319791  1.0
  Cd  Cd9  1  1.59630368  1.67950159  1.67476444  1.0
  Cd  Cd10  1  1.42950159  1.25473715  1.58319791  1.0
  Cd  Cd11  1  0.67153924  0.25473715  0.82523556  1.0
  Cd  Cd12  1  1.00473715  0.92153924  1.32523556  1.0
  Cd  Cd13  1  1.59630368  0.92153924  0.91680209  1.0
  Cd  Cd14  1  1.42950159  0.84630368  1.17476444  1.0
  Cd  Cd15  1  0.67153924  0.84630368  1.41680209  1.0
  Cd  Cd16  1  1.74526285  1.57049841  1.41680209  1.0
  Cd  Cd17  1  1.15369632  0.57049841  0.82523556  1.0
  Cd  Cd18  1  1.32049841  0.99526285  0.91680209  1.0
  Cd  Cd19  1  1.07846076  0.99526285  1.67476444  1.0
  Cd  Cd20  1  1.74526285  1.32846076  1.17476444  1.0
  Cd  Cd21  1  1.15369632  1.32846076  1.58319791  1.0
  Cd  Cd22  1  1.32049841  1.40369632  1.32523556  1.0
  Cd  Cd23  1  1.07846076  0.40369632  1.08319791  1.0
