# generated using pymatgen
data_Rh2Se3
_symmetry_space_group_name_H-M   'P 1'
_cell_length_a   8.99677800
_cell_length_b   6.38228844
_cell_length_c   6.48315441
_cell_angle_alpha   90.00000000
_cell_angle_beta   90.00000000
_cell_angle_gamma   90.00000000
_symmetry_Int_Tables_number   1
_chemical_formula_structural   Rh2Se3
_chemical_formula_sum   'Rh8 Se12'
_cell_volume   372.26293560
_cell_formula_units_Z   4
loop_
 _symmetry_equiv_pos_site_id
 _symmetry_equiv_pos_as_xyz
  1  'x, y, z'
loop_
 _atom_site_type_symbol
 _atom_site_label
 _atom_site_symmetry_multiplicity
 _atom_site_fract_x
 _atom_site_fract_y
 _atom_site_fract_z
 _atom_site_occupancy
  Rh  Rh0  1  0.10782496  0.25239834  0.53260873  1.0
  Rh  Rh1  1  0.10782496  0.74760166  0.03260873  1.0
  Rh  Rh2  1  0.60782496  0.75239834  0.96739127  1.0
  Rh  Rh3  1  0.60782496  0.24760166  0.46739127  1.0
  Rh  Rh4  1  0.89217504  0.25239834  0.96739127  1.0
  Rh  Rh5  1  0.89217504  0.74760166  0.46739127  1.0
  Rh  Rh6  1  0.39217504  0.75239834  0.53260873  1.0
  Rh  Rh7  1  0.39217504  0.24760166  0.03260873  1.0
  Se  Se8  1  0.15123269  0.39005143  0.89518195  1.0
  Se  Se9  1  0.15123269  0.60994857  0.39518195  1.0
  Se  Se10  1  0.65123269  0.89005143  0.60481805  1.0
  Se  Se11  1  0.65123269  0.10994857  0.10481805  1.0
  Se  Se12  1  0.84876731  0.39005143  0.60481805  1.0
  Se  Se13  1  0.84876731  0.60994857  0.10481805  1.0
  Se  Se14  1  0.34876731  0.89005143  0.89518195  1.0
  Se  Se15  1  0.34876731  0.10994857  0.39518195  1.0
  Se  Se16  1  0.50000000  0.45505559  0.75000000  1.0
  Se  Se17  1  0.50000000  0.54494441  0.25000000  1.0
  Se  Se18  1  0.00000000  0.95505559  0.75000000  1.0
  Se  Se19  1  0.00000000  0.04494441  0.25000000  1.0
