# generated using pymatgen
data_CBrN
_symmetry_space_group_name_H-M   'P 1'
_cell_length_a   4.64001539
_cell_length_b   6.60957392
_cell_length_c   5.73000902
_cell_angle_alpha   90.00000000
_cell_angle_beta   90.00000000
_cell_angle_gamma   90.00000000
_symmetry_Int_Tables_number   1
_chemical_formula_structural   CBrN
_chemical_formula_sum   'C2 Br2 N2'
_cell_volume   175.73092342
_cell_formula_units_Z   2
loop_
 _symmetry_equiv_pos_site_id
 _symmetry_equiv_pos_as_xyz
  1  'x, y, z'
loop_
 _atom_site_type_symbol
 _atom_site_label
 _atom_site_symmetry_multiplicity
 _atom_site_fract_x
 _atom_site_fract_y
 _atom_site_fract_z
 _atom_site_occupancy
  C  C0  1  0.50000000  0.50000000  0.45040084  1.0
  C  C1  1  0.00000000  0.00000000  0.54959916  1.0
  Br  Br2  1  0.50000000  0.50000000  0.13608458  1.0
  Br  Br3  1  0.00000000  0.00000000  0.86391542  1.0
  N  N4  1  0.50000000  0.50000000  0.65408339  1.0
  N  N5  1  0.00000000  0.00000000  0.34591661  1.0
