# generated using pymatgen
data_Zn3B7ClO13
_symmetry_space_group_name_H-M   'P 1'
_cell_length_a   8.59799069
_cell_length_b   8.59799069
_cell_length_c   8.59799069
_cell_angle_alpha   60.00000000
_cell_angle_beta   60.00000000
_cell_angle_gamma   60.00000000
_symmetry_Int_Tables_number   1
_chemical_formula_structural   Zn3B7ClO13
_chemical_formula_sum   'Zn6 B14 Cl2 O26'
_cell_volume   449.44433874
_cell_formula_units_Z   2
loop_
 _symmetry_equiv_pos_site_id
 _symmetry_equiv_pos_as_xyz
  1  'x, y, z'
loop_
 _atom_site_type_symbol
 _atom_site_label
 _atom_site_symmetry_multiplicity
 _atom_site_fract_x
 _atom_site_fract_y
 _atom_site_fract_z
 _atom_site_occupancy
  Zn  Zn0  1  0.50000000  -0.00000000  0.00000000  1.0
  Zn  Zn1  1  1.00000000  0.50000000  -0.50000000  1.0
  Zn  Zn2  1  -0.50000000  0.50000000  1.00000000  1.0
  Zn  Zn3  1  -0.00000000  0.50000000  0.00000000  1.0
  Zn  Zn4  1  0.00000000  0.00000000  0.50000000  1.0
  Zn  Zn5  1  0.50000000  1.00000000  -0.50000000  1.0
  B  B6  1  0.91925098  0.91925098  -0.08074902  1.0
  B  B7  1  0.41925098  1.41925098  0.41925098  1.0
  B  B8  1  0.24224706  0.91925098  -0.08074902  1.0
  B  B9  1  -0.25775294  0.41925098  0.41925098  1.0
  B  B10  1  0.91925098  0.91925098  -0.75775294  1.0
  B  B11  1  0.41925098  1.41925098  -0.25775294  1.0
  B  B12  1  0.91925098  0.24224706  -0.08074902  1.0
  B  B13  1  0.41925098  -0.25775294  0.41925098  1.0
  B  B14  1  -0.75000000  0.75000000  0.75000000  1.0
  B  B15  1  -0.25000000  0.25000000  0.25000000  1.0
  B  B16  1  0.25000000  1.25000000  -0.25000000  1.0
  B  B17  1  -0.25000000  0.25000000  0.75000000  1.0
  B  B18  1  -0.25000000  0.75000000  0.25000000  1.0
  B  B19  1  0.25000000  -0.25000000  0.25000000  1.0
  Cl  Cl20  1  0.75000000  0.75000000  -0.25000000  1.0
  Cl  Cl21  1  0.25000000  0.25000000  0.25000000  1.0
  O  O22  1  0.74228461  1.06334032  -0.10358036  1.0
  O  O23  1  0.24228461  1.39641964  0.56334032  1.0
  O  O24  1  -0.70204457  0.89641964  1.06334032  1.0
  O  O25  1  -0.20204457  0.56334032  0.39641964  1.0
  O  O26  1  0.39641964  1.56334032  0.24228461  1.0
  O  O27  1  -0.10358036  0.74228461  1.06334032  1.0
  O  O28  1  -0.20204457  0.24228461  0.56334032  1.0
  O  O29  1  0.29795543  1.06334032  -0.25771539  1.0
  O  O30  1  1.06334032  0.89641964  -0.25771539  1.0
  O  O31  1  0.56334032  1.24228461  0.39641964  1.0
  O  O32  1  -0.70204457  0.74228461  0.89641964  1.0
  O  O33  1  -0.20204457  0.39641964  0.24228461  1.0
  O  O34  1  1.06334032  0.74228461  -0.70204457  1.0
  O  O35  1  0.39641964  1.24228461  -0.20204457  1.0
  O  O36  1  -0.10358036  0.29795543  0.74228461  1.0
  O  O37  1  0.56334032  -0.20204457  0.24228461  1.0
  O  O38  1  0.56334032  1.39641964  -0.20204457  1.0
  O  O39  1  -0.25771539  0.89641964  0.29795543  1.0
  O  O40  1  0.24228461  -0.20204457  0.39641964  1.0
  O  O41  1  1.06334032  0.29795543  -0.10358036  1.0
  O  O42  1  0.89641964  1.06334032  -0.70204457  1.0
  O  O43  1  0.24228461  1.56334032  -0.20204457  1.0
  O  O44  1  -0.25771539  0.29795543  1.06334032  1.0
  O  O45  1  0.39641964  -0.20204457  0.56334032  1.0
  O  O46  1  0.00000000  0.00000000  0.00000000  1.0
  O  O47  1  -0.50000000  0.50000000  0.50000000  1.0
