# generated using pymatgen
data_Cs2CrH8Cl5O4
_symmetry_space_group_name_H-M   'P 1'
_cell_length_a   10.32557952
_cell_length_b   10.32557952
_cell_length_c   14.21137317
_cell_angle_alpha   62.37822329
_cell_angle_beta   117.62177671
_cell_angle_gamma   145.18806805
_symmetry_Int_Tables_number   1
_chemical_formula_structural   Cs2CrH8Cl5O4
_chemical_formula_sum   'Cs4 Cr2 H16 Cl10 O8'
_cell_volume   756.02620387
_cell_formula_units_Z   2
loop_
 _symmetry_equiv_pos_site_id
 _symmetry_equiv_pos_as_xyz
  1  'x, y, z'
loop_
 _atom_site_type_symbol
 _atom_site_label
 _atom_site_symmetry_multiplicity
 _atom_site_fract_x
 _atom_site_fract_y
 _atom_site_fract_z
 _atom_site_occupancy
  Cs  Cs0  1  0.71072012  0.30853047  0.32778347  1.0
  Cs  Cs1  1  0.69146953  -0.71072012  0.82778347  1.0
  Cs  Cs2  1  1.30853047  0.71072012  0.17221653  1.0
  Cs  Cs3  1  1.28927988  -0.30853047  0.67221653  1.0
  Cr  Cr4  1  -0.00000000  0.00000000  0.50000000  1.0
  Cr  Cr5  1  0.00000000  0.00000000  0.00000000  1.0
  H  H6  1  1.66509816  -0.30398758  0.11262297  1.0
  H  H7  1  1.30398758  -0.66509816  0.61262297  1.0
  H  H8  1  0.69601242  0.66509816  0.38737703  1.0
  H  H9  1  0.33490184  0.30398758  0.88737703  1.0
  H  H10  1  1.57793757  -0.24773697  -0.00634342  1.0
  H  H11  1  1.24773697  -0.57793757  0.49365658  1.0
  H  H12  1  0.75226303  0.57793757  0.50634342  1.0
  H  H13  1  0.42206243  0.24773697  1.00634342  1.0
  H  H14  1  0.36564890  0.15869218  0.49302077  1.0
  H  H15  1  0.84130782  0.63435110  0.99302077  1.0
  H  H16  1  1.15869218  -0.63435110  0.00697923  1.0
  H  H17  1  1.63435110  -0.15869218  0.50697923  1.0
  H  H18  1  0.27485242  0.21010266  0.37478328  1.0
  H  H19  1  0.78989734  0.72514758  0.87478328  1.0
  H  H20  1  1.21010266  -0.72514758  0.12521672  1.0
  H  H21  1  1.72514758  -0.21010266  0.62521672  1.0
  Cl  Cl22  1  0.89958613  0.11532065  0.33044909  1.0
  Cl  Cl23  1  0.88467935  -0.89958613  0.83044909  1.0
  Cl  Cl24  1  1.11532065  0.89958613  0.16955091  1.0
  Cl  Cl25  1  1.10041387  -0.11532065  0.66955091  1.0
  Cl  Cl26  1  0.69722246  0.31804371  0.06914812  1.0
  Cl  Cl27  1  0.68195629  -0.69722246  0.56914812  1.0
  Cl  Cl28  1  1.31804371  0.69722246  0.43085188  1.0
  Cl  Cl29  1  1.30277754  -0.31804371  0.93085188  1.0
  Cl  Cl30  1  0.49086629  0.49086629  0.25000000  1.0
  Cl  Cl31  1  0.50913371  0.50913371  0.75000000  1.0
  O  O32  1  1.68600958  -0.24907521  0.03658818  1.0
  O  O33  1  1.24907521  -0.68600958  0.53658818  1.0
  O  O34  1  0.75092479  0.68600958  0.46341182  1.0
  O  O35  1  0.31399042  0.24907521  0.96341182  1.0
  O  O36  1  0.22228778  0.09801643  0.44273074  1.0
  O  O37  1  0.90198357  0.77771222  0.94273074  1.0
  O  O38  1  1.09801643  -0.77771222  0.05726926  1.0
  O  O39  1  1.77771222  -0.09801643  0.55726926  1.0
