# generated using pymatgen
data_Ba3VO5
_symmetry_space_group_name_H-M   'P 1'
_cell_length_a   7.90214703
_cell_length_b   7.90214703
_cell_length_c   7.90214703
_cell_angle_alpha   124.41704232
_cell_angle_beta   124.41704232
_cell_angle_gamma   82.50585898
_symmetry_Int_Tables_number   1
_chemical_formula_structural   Ba3VO5
_chemical_formula_sum   'Ba6 V2 O10'
_cell_volume   322.58806930
_cell_formula_units_Z   2
loop_
 _symmetry_equiv_pos_site_id
 _symmetry_equiv_pos_as_xyz
  1  'x, y, z'
loop_
 _atom_site_type_symbol
 _atom_site_label
 _atom_site_symmetry_multiplicity
 _atom_site_fract_x
 _atom_site_fract_y
 _atom_site_fract_z
 _atom_site_occupancy
  Ba  Ba0  1  0.81843018  0.31843018  1.13686037  1.0
  Ba  Ba1  1  0.68156982  0.81843018  1.50000000  1.0
  Ba  Ba2  1  0.31843018  0.18156982  0.50000000  1.0
  Ba  Ba3  1  0.18156982  0.68156982  0.86313963  1.0
  Ba  Ba4  1  0.75000000  0.75000000  1.00000000  1.0
  Ba  Ba5  1  0.25000000  0.25000000  0.00000000  1.0
  V  V6  1  0.25000000  0.75000000  0.50000000  1.0
  V  V7  1  0.75000000  0.25000000  0.50000000  1.0
  O  O8  1  1.20726289  0.70726289  1.22888515  1.0
  O  O9  1  0.52162226  1.02162226  1.22888515  1.0
  O  O10  1  0.97837774  1.20726289  1.50000000  1.0
  O  O11  1  0.29273711  0.52162226  0.50000000  1.0
  O  O12  1  0.70726289  0.47837774  0.50000000  1.0
  O  O13  1  1.02162226  0.79273711  1.50000000  1.0
  O  O14  1  0.47837774  0.97837774  0.77111485  1.0
  O  O15  1  0.79273711  0.29273711  0.77111485  1.0
  O  O16  1  0.00000000  0.00000000  0.00000000  1.0
  O  O17  1  0.50000000  0.50000000  1.00000000  1.0
