# generated using pymatgen
data_LaGa3Pd
_symmetry_space_group_name_H-M   'P 1'
_cell_length_a   6.12476267
_cell_length_b   6.12476267
_cell_length_c   5.99874555
_cell_angle_alpha   90.00000000
_cell_angle_beta   90.00000000
_cell_angle_gamma   116.24634137
_symmetry_Int_Tables_number   1
_chemical_formula_structural   LaGa3Pd
_chemical_formula_sum   'La2 Ga6 Pd2'
_cell_volume   201.82895431
_cell_formula_units_Z   2
loop_
 _symmetry_equiv_pos_site_id
 _symmetry_equiv_pos_as_xyz
  1  'x, y, z'
loop_
 _atom_site_type_symbol
 _atom_site_label
 _atom_site_symmetry_multiplicity
 _atom_site_fract_x
 _atom_site_fract_y
 _atom_site_fract_z
 _atom_site_occupancy
  La  La0  1  -0.26660690  1.26660690  0.25000000  1.0
  La  La1  1  0.26660690  0.73339310  0.75000000  1.0
  Ga  Ga2  1  0.78301942  0.78301942  0.50000000  1.0
  Ga  Ga3  1  0.78301942  0.78301942  0.00000000  1.0
  Ga  Ga4  1  0.21698058  0.21698058  0.50000000  1.0
  Ga  Ga5  1  0.21698058  0.21698058  0.00000000  1.0
  Ga  Ga6  1  0.16306993  0.83693007  0.25000000  1.0
  Ga  Ga7  1  -0.16306993  1.16306993  0.75000000  1.0
  Pd  Pd8  1  0.40483125  0.59516875  0.25000000  1.0
  Pd  Pd9  1  -0.40483125  1.40483125  0.75000000  1.0
