# generated using pymatgen
data_Mg2Cu
_symmetry_space_group_name_H-M   'P 1'
_cell_length_a   10.19333384
_cell_length_b   9.51449702
_cell_length_c   5.22739415
_cell_angle_alpha   81.93984364
_cell_angle_beta   67.54549773
_cell_angle_gamma   30.51465863
_symmetry_Int_Tables_number   1
_chemical_formula_structural   Mg2Cu
_chemical_formula_sum   'Mg8 Cu4'
_cell_volume   217.79182997
_cell_formula_units_Z   4
loop_
 _symmetry_equiv_pos_site_id
 _symmetry_equiv_pos_as_xyz
  1  'x, y, z'
loop_
 _atom_site_type_symbol
 _atom_site_label
 _atom_site_symmetry_multiplicity
 _atom_site_fract_x
 _atom_site_fract_y
 _atom_site_fract_z
 _atom_site_occupancy
  Mg  Mg0  1  0.58380619  0.58380619  0.41619381  1.0
  Mg  Mg1  1  0.41619381  0.41619381  0.58380619  1.0
  Mg  Mg2  1  0.66619381  -0.33380619  0.83380619  1.0
  Mg  Mg3  1  0.83380619  -0.16619381  0.66619381  1.0
  Mg  Mg4  1  0.83379393  0.16620607  0.83379393  1.0
  Mg  Mg5  1  0.16620607  0.83379393  0.16620607  1.0
  Mg  Mg6  1  0.41620607  0.08379393  0.41620607  1.0
  Mg  Mg7  1  0.08379393  0.41620607  0.08379393  1.0
  Cu  Cu8  1  0.12659428  0.12659428  -0.12659428  1.0
  Cu  Cu9  1  -0.12659428  0.87340572  0.12659428  1.0
  Cu  Cu10  1  0.12340572  1.12340572  0.37659428  1.0
  Cu  Cu11  1  0.37659428  0.37659428  0.12340572  1.0
