# generated using pymatgen
data_Gd4B4O11F2
_symmetry_space_group_name_H-M   'P 1'
_cell_length_a   7.25727045
_cell_length_b   7.25727045
_cell_length_c   13.85182724
_cell_angle_alpha   89.12688354
_cell_angle_beta   90.87311646
_cell_angle_gamma   142.30987448
_symmetry_Int_Tables_number   1
_chemical_formula_structural   Gd4B4O11F2
_chemical_formula_sum   'Gd8 B8 O22 F4'
_cell_volume   445.98082431
_cell_formula_units_Z   2
loop_
 _symmetry_equiv_pos_site_id
 _symmetry_equiv_pos_as_xyz
  1  'x, y, z'
loop_
 _atom_site_type_symbol
 _atom_site_label
 _atom_site_symmetry_multiplicity
 _atom_site_fract_x
 _atom_site_fract_y
 _atom_site_fract_z
 _atom_site_occupancy
  Gd  Gd0  1  0.92114453  0.04119151  0.62914099  1.0
  Gd  Gd1  1  0.95880849  0.07885547  0.12914099  1.0
  Gd  Gd2  1  1.04119151  0.92114453  0.87085901  1.0
  Gd  Gd3  1  0.07885547  -0.04119151  0.37085901  1.0
  Gd  Gd4  1  0.76552060  0.20513401  0.86869017  1.0
  Gd  Gd5  1  0.79486599  0.23447940  0.36869017  1.0
  Gd  Gd6  1  1.20513401  0.76552060  0.63130983  1.0
  Gd  Gd7  1  0.23447940  -0.20513401  0.13130983  1.0
  B  B8  1  0.43269332  -0.38162029  0.78595355  1.0
  B  B9  1  1.38162029  0.56730668  0.28595355  1.0
  B  B10  1  0.61837971  0.43269332  0.71404645  1.0
  B  B11  1  0.56730668  0.38162029  0.21404645  1.0
  B  B12  1  1.35879531  0.55036705  0.97483650  1.0
  B  B13  1  0.44963295  -0.35879531  0.47483650  1.0
  B  B14  1  0.55036705  0.35879531  0.52516350  1.0
  B  B15  1  0.64120469  0.44963295  0.02516350  1.0
  O  O16  1  0.55474490  0.32440642  0.93521701  1.0
  O  O17  1  0.67559358  0.44525510  0.43521701  1.0
  O  O18  1  1.32440642  0.55474490  0.56478299  1.0
  O  O19  1  0.44525510  -0.32440642  0.06478299  1.0
  O  O20  1  0.65597366  0.65597366  0.75000000  1.0
  O  O21  1  0.34402634  0.34402634  0.25000000  1.0
  O  O22  1  0.32391025  0.12505853  0.72562534  1.0
  O  O23  1  0.87494147  0.67608975  0.22562534  1.0
  O  O24  1  1.12505853  0.32391025  0.77437466  1.0
  O  O25  1  0.67608975  -0.12505853  0.27437466  1.0
  O  O26  1  0.75404575  -0.08673502  0.46457995  1.0
  O  O27  1  1.08673502  0.24595425  0.96457995  1.0
  O  O28  1  0.91326498  0.75404575  0.03542005  1.0
  O  O29  1  0.24595425  0.08673502  0.53542005  1.0
  O  O30  1  0.54315994  -0.28021421  0.89380630  1.0
  O  O31  1  1.28021421  0.45684006  0.39380630  1.0
  O  O32  1  0.71978579  0.54315994  0.60619370  1.0
  O  O33  1  0.45684006  0.28021421  0.10619370  1.0
  O  O34  1  0.51381356  -0.13939498  0.74302963  1.0
  O  O35  1  1.13939498  0.48618644  0.24302963  1.0
  O  O36  1  0.86060502  0.51381356  0.75697037  1.0
  O  O37  1  0.48618644  0.13939498  0.25697037  1.0
  F  F38  1  0.74501818  0.20482489  0.57854407  1.0
  F  F39  1  0.79517511  0.25498182  0.07854407  1.0
  F  F40  1  1.20482489  0.74501818  0.92145593  1.0
  F  F41  1  0.25498182  -0.20482489  0.42145593  1.0
