# generated using pymatgen
data_MgZn5
_symmetry_space_group_name_H-M   'P 1'
_cell_length_a   9.71079288
_cell_length_b   9.71079288
_cell_length_c   8.88598610
_cell_angle_alpha   67.02396805
_cell_angle_beta   112.97603195
_cell_angle_gamma   149.52604202
_symmetry_Int_Tables_number   1
_chemical_formula_structural   MgZn5
_chemical_formula_sum   'Mg4 Zn20'
_cell_volume   388.62981933
_cell_formula_units_Z   4
loop_
 _symmetry_equiv_pos_site_id
 _symmetry_equiv_pos_as_xyz
  1  'x, y, z'
loop_
 _atom_site_type_symbol
 _atom_site_label
 _atom_site_symmetry_multiplicity
 _atom_site_fract_x
 _atom_site_fract_y
 _atom_site_fract_z
 _atom_site_occupancy
  Mg  Mg0  1  1.46798837  -0.46798837  0.80042928  1.0
  Mg  Mg1  1  1.28050323  -0.28050323  0.62382747  1.0
  Mg  Mg2  1  0.71949677  -0.71949677  0.37617253  1.0
  Mg  Mg3  1  0.53201163  -0.53201163  0.19957072  1.0
  Zn  Zn4  1  -0.03262229  0.03262229  0.30111120  1.0
  Zn  Zn5  1  0.79109996  -0.79109996  0.13064836  1.0
  Zn  Zn6  1  1.20890004  -0.20890004  0.86935164  1.0
  Zn  Zn7  1  0.03262229  -0.03262229  0.69888880  1.0
  Zn  Zn8  1  0.00000000  0.00000000  0.00000000  1.0
  Zn  Zn9  1  0.74730015  -0.74730015  0.75968084  1.0
  Zn  Zn10  1  0.50000000  0.50000000  0.50000000  1.0
  Zn  Zn11  1  1.25269985  -0.25269985  0.24031916  1.0
  Zn  Zn12  1  1.61512708  -0.12383368  0.96111522  1.0
  Zn  Zn13  1  1.11966234  -0.62704330  0.46076347  1.0
  Zn  Zn14  1  1.12383368  -0.61512708  0.96111522  1.0
  Zn  Zn15  1  1.62704330  -0.11966234  0.46076347  1.0
  Zn  Zn16  1  1.38546419  -0.38546419  0.21850217  1.0
  Zn  Zn17  1  0.87739933  -0.87739933  0.71160719  1.0
  Zn  Zn18  1  0.88033766  -0.37295670  0.53923653  1.0
  Zn  Zn19  1  1.38487292  0.12383368  0.03888478  1.0
  Zn  Zn20  1  1.37295670  0.11966234  0.53923653  1.0
  Zn  Zn21  1  0.87616632  -0.38487292  0.03888478  1.0
  Zn  Zn22  1  1.12260067  -0.12260067  0.28839281  1.0
  Zn  Zn23  1  0.61453581  -0.61453581  0.78149783  1.0
