# generated using pymatgen
data_TlH6(NO4)3
_symmetry_space_group_name_H-M   'P 1'
_cell_length_a   7.99119268
_cell_length_b   7.99119268
_cell_length_c   7.99119268
_cell_angle_alpha   94.70638738
_cell_angle_beta   94.70638738
_cell_angle_gamma   94.70638738
_symmetry_Int_Tables_number   1
_chemical_formula_structural   TlH6(NO4)3
_chemical_formula_sum   'Tl2 H12 N6 O24'
_cell_volume   504.84649466
_cell_formula_units_Z   2
loop_
 _symmetry_equiv_pos_site_id
 _symmetry_equiv_pos_as_xyz
  1  'x, y, z'
loop_
 _atom_site_type_symbol
 _atom_site_label
 _atom_site_symmetry_multiplicity
 _atom_site_fract_x
 _atom_site_fract_y
 _atom_site_fract_z
 _atom_site_occupancy
  Tl  Tl0  1  0.77002785  0.77002785  0.77002785  1.0
  Tl  Tl1  1  0.22997215  0.22997215  0.22997215  1.0
  H  H2  1  1.41385542  0.77267890  -0.31195442  1.0
  H  H3  1  1.22732110  0.31195442  -0.41385542  1.0
  H  H4  1  1.31195442  -0.41385542  0.22732110  1.0
  H  H5  1  0.58614458  0.22732110  0.31195442  1.0
  H  H6  1  0.77267890  0.68804558  0.41385542  1.0
  H  H7  1  0.68804558  1.41385542  -0.22732110  1.0
  H  H8  1  1.43963166  0.72231459  -0.12566032  1.0
  H  H9  1  1.27768541  0.12566032  -0.43963166  1.0
  H  H10  1  1.12566032  -0.43963166  0.27768541  1.0
  H  H11  1  0.56036834  0.27768541  0.12566032  1.0
  H  H12  1  0.72231459  0.87433968  0.43963166  1.0
  H  H13  1  0.87433968  1.43963166  -0.27768541  1.0
  N  N14  1  0.85741611  0.66877709  0.11315433  1.0
  N  N15  1  1.33122291  -0.11315433  0.14258389  1.0
  N  N16  1  0.88684567  0.14258389  0.33122291  1.0
  N  N17  1  1.14258389  0.33122291  -0.11315433  1.0
  N  N18  1  0.66877709  1.11315433  -0.14258389  1.0
  N  N19  1  1.11315433  0.85741611  -0.33122291  1.0
  O  O20  1  0.92414174  0.63954254  0.25454298  1.0
  O  O21  1  1.36045746  -0.25454298  0.07585826  1.0
  O  O22  1  0.74545702  0.07585826  0.36045746  1.0
  O  O23  1  1.07585826  0.36045746  -0.25454298  1.0
  O  O24  1  0.63954254  1.25454298  -0.07585826  1.0
  O  O25  1  1.25454298  0.92414174  -0.36045746  1.0
  O  O26  1  0.70226655  0.65842648  0.07985266  1.0
  O  O27  1  1.34157352  -0.07985266  0.29773345  1.0
  O  O28  1  0.92014734  0.29773345  0.34157352  1.0
  O  O29  1  1.29773345  0.34157352  -0.07985266  1.0
  O  O30  1  0.65842648  1.07985266  -0.29773345  1.0
  O  O31  1  1.07985266  0.70226655  -0.34157352  1.0
  O  O32  1  1.48163686  0.70424730  -0.23894646  1.0
  O  O33  1  1.29575270  0.23894646  -0.48163686  1.0
  O  O34  1  1.23894646  -0.48163686  0.29575270  1.0
  O  O35  1  0.51836314  0.29575270  0.23894646  1.0
  O  O36  1  0.70424730  0.76105354  0.48163686  1.0
  O  O37  1  0.76105354  1.48163686  -0.29575270  1.0
  O  O38  1  1.71197300  1.00005110  -0.04404626  1.0
  O  O39  1  0.99994890  0.04404626  -0.71197300  1.0
  O  O40  1  1.04404626  -0.71197300  -0.00005110  1.0
  O  O41  1  0.28802700  -0.00005110  0.04404626  1.0
  O  O42  1  1.00005110  0.95595374  0.71197300  1.0
  O  O43  1  0.95595374  1.71197300  0.00005110  1.0
