# generated using pymatgen
data_LuTlTe2
_symmetry_space_group_name_H-M   'P 1'
_cell_length_a   8.57160049
_cell_length_b   8.57160049
_cell_length_c   8.57160049
_cell_angle_alpha   29.69859248
_cell_angle_beta   29.69859248
_cell_angle_gamma   29.69859248
_symmetry_Int_Tables_number   1
_chemical_formula_structural   LuTlTe2
_chemical_formula_sum   'Lu1 Tl1 Te2'
_cell_volume   136.86642228
_cell_formula_units_Z   1
loop_
 _symmetry_equiv_pos_site_id
 _symmetry_equiv_pos_as_xyz
  1  'x, y, z'
loop_
 _atom_site_type_symbol
 _atom_site_label
 _atom_site_symmetry_multiplicity
 _atom_site_fract_x
 _atom_site_fract_y
 _atom_site_fract_z
 _atom_site_occupancy
  Lu  Lu0  1  1.50000000  0.50000000  0.50000000  1.0
  Tl  Tl1  1  0.00000000  0.00000000  0.00000000  1.0
  Te  Te2  1  0.76367464  0.76367464  0.76367464  1.0
  Te  Te3  1  1.23632536  1.23632536  0.23632536  1.0
