# generated using pymatgen
data_RbIn(WO4)2
_symmetry_space_group_name_H-M   'P 1'
_cell_length_a   15.82589238
_cell_length_b   5.95308306
_cell_length_c   9.26319688
_cell_angle_alpha   90.00000000
_cell_angle_beta   90.00000000
_cell_angle_gamma   90.00000000
_symmetry_Int_Tables_number   1
_chemical_formula_structural   RbIn(WO4)2
_chemical_formula_sum   'Rb4 In4 W8 O32'
_cell_volume   872.71219452
_cell_formula_units_Z   4
loop_
 _symmetry_equiv_pos_site_id
 _symmetry_equiv_pos_as_xyz
  1  'x, y, z'
loop_
 _atom_site_type_symbol
 _atom_site_label
 _atom_site_symmetry_multiplicity
 _atom_site_fract_x
 _atom_site_fract_y
 _atom_site_fract_z
 _atom_site_occupancy
  Rb  Rb0  1  0.12088774  0.75000000  0.94017018  1.0
  Rb  Rb1  1  0.62088774  0.75000000  0.55982982  1.0
  Rb  Rb2  1  0.87911226  0.25000000  0.05982982  1.0
  Rb  Rb3  1  0.37911226  0.25000000  0.44017018  1.0
  In  In4  1  0.37933791  0.75000000  0.82220266  1.0
  In  In5  1  0.87933791  0.75000000  0.67779734  1.0
  In  In6  1  0.62066209  0.25000000  0.17779734  1.0
  In  In7  1  0.12066209  0.25000000  0.32220266  1.0
  W  W8  1  0.47404529  0.75000000  0.21149706  1.0
  W  W9  1  0.97404529  0.75000000  0.28850294  1.0
  W  W10  1  0.52595471  0.25000000  0.78850294  1.0
  W  W11  1  0.02595471  0.25000000  0.71149706  1.0
  W  W12  1  0.21801568  0.75000000  0.51377334  1.0
  W  W13  1  0.71801568  0.75000000  0.98622666  1.0
  W  W14  1  0.78198432  0.25000000  0.48622666  1.0
  W  W15  1  0.28198432  0.25000000  0.01377334  1.0
  O  O16  1  0.46387512  0.49373678  0.73729457  1.0
  O  O17  1  0.46387512  0.00626322  0.73729457  1.0
  O  O18  1  0.96387512  0.49373678  0.76270543  1.0
  O  O19  1  0.96387512  0.00626322  0.76270543  1.0
  O  O20  1  0.53612488  0.99373678  0.26270543  1.0
  O  O21  1  0.53612488  0.50626322  0.26270543  1.0
  O  O22  1  0.03612488  0.99373678  0.23729457  1.0
  O  O23  1  0.03612488  0.50626322  0.23729457  1.0
  O  O24  1  0.29077480  0.99805305  0.90474018  1.0
  O  O25  1  0.29077480  0.50194695  0.90474018  1.0
  O  O26  1  0.79077480  0.99805305  0.59525982  1.0
  O  O27  1  0.79077480  0.50194695  0.59525982  1.0
  O  O28  1  0.70922520  0.49805305  0.09525982  1.0
  O  O29  1  0.70922520  0.00194695  0.09525982  1.0
  O  O30  1  0.20922520  0.49805305  0.40474018  1.0
  O  O31  1  0.20922520  0.00194695  0.40474018  1.0
  O  O32  1  0.44722077  0.75000000  0.02357749  1.0
  O  O33  1  0.94722077  0.75000000  0.47642251  1.0
  O  O34  1  0.55277923  0.25000000  0.97642251  1.0
  O  O35  1  0.05277923  0.25000000  0.52357749  1.0
  O  O36  1  0.38295268  0.75000000  0.32071785  1.0
  O  O37  1  0.88295268  0.75000000  0.17928215  1.0
  O  O38  1  0.61704732  0.25000000  0.67928215  1.0
  O  O39  1  0.11704732  0.25000000  0.82071785  1.0
  O  O40  1  0.31518381  0.75000000  0.61700280  1.0
  O  O41  1  0.81518381  0.75000000  0.88299720  1.0
  O  O42  1  0.68481619  0.25000000  0.38299720  1.0
  O  O43  1  0.18481619  0.25000000  0.11700280  1.0
  O  O44  1  0.13344237  0.75000000  0.63518234  1.0
  O  O45  1  0.63344237  0.75000000  0.86481766  1.0
  O  O46  1  0.86655763  0.25000000  0.36481766  1.0
  O  O47  1  0.36655763  0.25000000  0.13518234  1.0
