# generated using pymatgen
data_ReN2
_symmetry_space_group_name_H-M   'P 1'
_cell_length_a   4.22784260
_cell_length_b   2.87742967
_cell_length_c   5.09127579
_cell_angle_alpha   90.00000000
_cell_angle_beta   113.18624934
_cell_angle_gamma   90.00000000
_symmetry_Int_Tables_number   1
_chemical_formula_structural   ReN2
_chemical_formula_sum   'Re2 N4'
_cell_volume   56.93433771
_cell_formula_units_Z   2
loop_
 _symmetry_equiv_pos_site_id
 _symmetry_equiv_pos_as_xyz
  1  'x, y, z'
loop_
 _atom_site_type_symbol
 _atom_site_label
 _atom_site_symmetry_multiplicity
 _atom_site_fract_x
 _atom_site_fract_y
 _atom_site_fract_z
 _atom_site_occupancy
  Re  Re0  1  0.29406937  0.25000000  0.28336597  1.0
  Re  Re1  1  0.70593063  0.75000000  0.71663403  1.0
  N  N2  1  0.65453994  0.75000000  0.29592387  1.0
  N  N3  1  0.34546006  0.25000000  0.70407613  1.0
  N  N4  1  0.89013255  0.75000000  0.17100020  1.0
  N  N5  1  0.10986745  0.25000000  0.82899980  1.0
