# generated using pymatgen
data_La(YS2)3
_symmetry_space_group_name_H-M   'P 1'
_cell_length_a   11.12476732
_cell_length_b   4.02476055
_cell_length_c   11.39511552
_cell_angle_alpha   90.00000000
_cell_angle_beta   108.72182316
_cell_angle_gamma   90.00000000
_symmetry_Int_Tables_number   1
_chemical_formula_structural   La(YS2)3
_chemical_formula_sum   'La2 Y6 S12'
_cell_volume   483.21464908
_cell_formula_units_Z   2
loop_
 _symmetry_equiv_pos_site_id
 _symmetry_equiv_pos_as_xyz
  1  'x, y, z'
loop_
 _atom_site_type_symbol
 _atom_site_label
 _atom_site_symmetry_multiplicity
 _atom_site_fract_x
 _atom_site_fract_y
 _atom_site_fract_z
 _atom_site_occupancy
  La  La0  1  0.94949199  0.25000000  0.30531835  1.0
  La  La1  1  0.05050801  0.75000000  0.69468165  1.0
  Y  Y2  1  0.83916093  0.25000000  0.91232480  1.0
  Y  Y3  1  0.16083907  0.75000000  0.08767520  1.0
  Y  Y4  1  0.55617454  0.25000000  0.16698075  1.0
  Y  Y5  1  0.44382546  0.75000000  0.83301925  1.0
  Y  Y6  1  0.32039995  0.25000000  0.49876500  1.0
  Y  Y7  1  0.67960005  0.75000000  0.50123500  1.0
  S  S8  1  0.88053098  0.25000000  0.53731432  1.0
  S  S9  1  0.11946902  0.75000000  0.46268568  1.0
  S  S10  1  0.60596604  0.25000000  0.94260508  1.0
  S  S11  1  0.39403396  0.75000000  0.05739492  1.0
  S  S12  1  0.52242375  0.25000000  0.38934662  1.0
  S  S13  1  0.47757625  0.75000000  0.61065338  1.0
  S  S14  1  0.26803488  0.25000000  0.72912659  1.0
  S  S15  1  0.73196512  0.75000000  0.27087341  1.0
  S  S16  1  0.19672287  0.25000000  0.24874672  1.0
  S  S17  1  0.80327713  0.75000000  0.75125328  1.0
  S  S18  1  0.08262359  0.25000000  0.90736858  1.0
  S  S19  1  0.91737641  0.75000000  0.09263142  1.0
