# generated using pymatgen
data_GdF3
_symmetry_space_group_name_H-M   'P 1'
_cell_length_a   6.97394949
_cell_length_b   6.97394949
_cell_length_c   7.14258875
_cell_angle_alpha   90.00000000
_cell_angle_beta   90.00000000
_cell_angle_gamma   120.00000000
_symmetry_Int_Tables_number   1
_chemical_formula_structural   GdF3
_chemical_formula_sum   'Gd6 F18'
_cell_volume   300.84574412
_cell_formula_units_Z   6
loop_
 _symmetry_equiv_pos_site_id
 _symmetry_equiv_pos_as_xyz
  1  'x, y, z'
loop_
 _atom_site_type_symbol
 _atom_site_label
 _atom_site_symmetry_multiplicity
 _atom_site_fract_x
 _atom_site_fract_y
 _atom_site_fract_z
 _atom_site_occupancy
  Gd  Gd0  1  0.65488778  0.65488778  0.25000000  1.0
  Gd  Gd1  1  0.65488778  0.00000000  0.75000000  1.0
  Gd  Gd2  1  -0.00000000  0.65488778  0.75000000  1.0
  Gd  Gd3  1  -0.00000000  0.34511222  0.25000000  1.0
  Gd  Gd4  1  0.34511222  0.34511222  0.75000000  1.0
  Gd  Gd5  1  0.34511222  0.00000000  0.25000000  1.0
  F  F6  1  0.93270060  0.62600920  0.07871204  1.0
  F  F7  1  0.93270060  0.30669140  0.57871204  1.0
  F  F8  1  0.62600920  0.93270060  0.42128796  1.0
  F  F9  1  0.62600920  0.69330860  0.92128796  1.0
  F  F10  1  0.69330860  0.62600920  0.57871204  1.0
  F  F11  1  0.69330860  0.06729940  0.07871204  1.0
  F  F12  1  0.37399080  0.06729940  0.57871204  1.0
  F  F13  1  0.37399080  0.30669140  0.07871204  1.0
  F  F14  1  0.06729940  0.69330860  0.42128796  1.0
  F  F15  1  0.06729940  0.37399080  0.92128796  1.0
  F  F16  1  0.30669140  0.93270060  0.92128796  1.0
  F  F17  1  0.30669140  0.37399080  0.42128796  1.0
  F  F18  1  0.33333333  0.66666667  0.18419918  1.0
  F  F19  1  0.33333333  0.66666667  0.68419918  1.0
  F  F20  1  0.66666667  0.33333333  0.31580082  1.0
  F  F21  1  0.66666667  0.33333333  0.81580082  1.0
  F  F22  1  0.00000000  0.00000000  0.25000000  1.0
  F  F23  1  0.00000000  0.00000000  0.75000000  1.0
