# generated using pymatgen
data_InSeClO3
_symmetry_space_group_name_H-M   'P 1'
_cell_length_a   7.15981536
_cell_length_b   17.49942326
_cell_length_c   7.32558074
_cell_angle_alpha   90.00000000
_cell_angle_beta   90.00000000
_cell_angle_gamma   90.00000000
_symmetry_Int_Tables_number   1
_chemical_formula_structural   InSeClO3
_chemical_formula_sum   'In8 Se8 Cl8 O24'
_cell_volume   917.84134748
_cell_formula_units_Z   8
loop_
 _symmetry_equiv_pos_site_id
 _symmetry_equiv_pos_as_xyz
  1  'x, y, z'
loop_
 _atom_site_type_symbol
 _atom_site_label
 _atom_site_symmetry_multiplicity
 _atom_site_fract_x
 _atom_site_fract_y
 _atom_site_fract_z
 _atom_site_occupancy
  In  In0  1  0.03185829  0.15909946  0.24990424  1.0
  In  In1  1  0.03185829  0.34090054  0.74990424  1.0
  In  In2  1  0.53185829  0.15909946  0.25009576  1.0
  In  In3  1  0.53185829  0.34090054  0.75009576  1.0
  In  In4  1  0.96814171  0.65909946  0.25009576  1.0
  In  In5  1  0.96814171  0.84090054  0.75009576  1.0
  In  In6  1  0.46814171  0.65909946  0.24990424  1.0
  In  In7  1  0.46814171  0.84090054  0.74990424  1.0
  Se  Se8  1  0.28144322  0.33474920  0.17520588  1.0
  Se  Se9  1  0.28144322  0.16525080  0.67520588  1.0
  Se  Se10  1  0.78144322  0.33474920  0.32479412  1.0
  Se  Se11  1  0.78144322  0.16525080  0.82479412  1.0
  Se  Se12  1  0.71855678  0.83474920  0.32479412  1.0
  Se  Se13  1  0.71855678  0.66525080  0.82479412  1.0
  Se  Se14  1  0.21855678  0.83474920  0.17520588  1.0
  Se  Se15  1  0.21855678  0.66525080  0.67520588  1.0
  Cl  Cl16  1  0.28158672  0.05666686  0.19428792  1.0
  Cl  Cl17  1  0.28158672  0.44333314  0.69428792  1.0
  Cl  Cl18  1  0.78158672  0.05666686  0.30571208  1.0
  Cl  Cl19  1  0.78158672  0.44333314  0.80571208  1.0
  Cl  Cl20  1  0.71841328  0.55666686  0.30571208  1.0
  Cl  Cl21  1  0.71841328  0.94333314  0.80571208  1.0
  Cl  Cl22  1  0.21841328  0.55666686  0.19428792  1.0
  Cl  Cl23  1  0.21841328  0.94333314  0.69428792  1.0
  O  O24  1  0.47565345  0.34164308  0.04112024  1.0
  O  O25  1  0.47565345  0.15835692  0.54112024  1.0
  O  O26  1  0.97565345  0.34164308  0.45887976  1.0
  O  O27  1  0.97565345  0.15835692  0.95887976  1.0
  O  O28  1  0.52434655  0.84164308  0.45887976  1.0
  O  O29  1  0.52434655  0.65835692  0.95887976  1.0
  O  O30  1  0.02434655  0.84164308  0.04112024  1.0
  O  O31  1  0.02434655  0.65835692  0.54112024  1.0
  O  O32  1  0.28188516  0.23244911  0.21257909  1.0
  O  O33  1  0.28188516  0.26755089  0.71257909  1.0
  O  O34  1  0.78188516  0.23244911  0.28742091  1.0
  O  O35  1  0.78188516  0.26755089  0.78742091  1.0
  O  O36  1  0.71811484  0.73244911  0.28742091  1.0
  O  O37  1  0.71811484  0.76755089  0.78742091  1.0
  O  O38  1  0.21811484  0.73244911  0.21257909  1.0
  O  O39  1  0.21811484  0.76755089  0.71257909  1.0
  O  O40  1  0.08717458  0.34111158  0.04105288  1.0
  O  O41  1  0.08717458  0.15888842  0.54105288  1.0
  O  O42  1  0.58717458  0.34111158  0.45894712  1.0
  O  O43  1  0.58717458  0.15888842  0.95894712  1.0
  O  O44  1  0.91282542  0.84111158  0.45894712  1.0
  O  O45  1  0.91282542  0.65888842  0.95894712  1.0
  O  O46  1  0.41282542  0.84111158  0.04105288  1.0
  O  O47  1  0.41282542  0.65888842  0.54105288  1.0
