# generated using pymatgen
data_S(OF)2
_symmetry_space_group_name_H-M   'P 1'
_cell_length_a   5.57068239
_cell_length_b   5.57068239
_cell_length_c   12.59773113
_cell_angle_alpha   90.00000000
_cell_angle_beta   90.00000000
_cell_angle_gamma   90.00000000
_symmetry_Int_Tables_number   1
_chemical_formula_structural   S(OF)2
_chemical_formula_sum   'S4 O8 F8'
_cell_volume   390.93912051
_cell_formula_units_Z   4
loop_
 _symmetry_equiv_pos_site_id
 _symmetry_equiv_pos_as_xyz
  1  'x, y, z'
loop_
 _atom_site_type_symbol
 _atom_site_label
 _atom_site_symmetry_multiplicity
 _atom_site_fract_x
 _atom_site_fract_y
 _atom_site_fract_z
 _atom_site_occupancy
  S  S0  1  0.42478345  0.57521655  0.25000000  1.0
  S  S1  1  0.92478345  0.92478345  0.50000000  1.0
  S  S2  1  0.57521655  0.42478345  0.75000000  1.0
  S  S3  1  0.07521655  0.07521655  0.00000000  1.0
  O  O4  1  0.19422522  0.51184802  0.21003481  1.0
  O  O5  1  0.69422522  0.98815198  0.53996519  1.0
  O  O6  1  0.48815198  0.80577478  0.28996519  1.0
  O  O7  1  0.98815198  0.69422522  0.46003481  1.0
  O  O8  1  0.80577478  0.48815198  0.71003481  1.0
  O  O9  1  0.30577478  0.01184802  0.03996519  1.0
  O  O10  1  0.51184802  0.19422522  0.78996519  1.0
  O  O11  1  0.01184802  0.30577478  0.96003481  1.0
  F  F12  1  0.49987455  0.61833420  0.83511915  1.0
  F  F13  1  0.99987455  0.88166580  0.91488085  1.0
  F  F14  1  0.38166580  0.50012545  0.66488085  1.0
  F  F15  1  0.88166580  0.99987455  0.08511915  1.0
  F  F16  1  0.50012545  0.38166580  0.33511915  1.0
  F  F17  1  0.00012545  0.11833420  0.41488085  1.0
  F  F18  1  0.61833420  0.49987455  0.16488085  1.0
  F  F19  1  0.11833420  0.00012545  0.58511915  1.0
