# generated using pymatgen
data_K2Co(SeO3)2
_symmetry_space_group_name_H-M   'P 1'
_cell_length_a   7.04305409
_cell_length_b   7.04305409
_cell_length_c   7.04305409
_cell_angle_alpha   46.72213218
_cell_angle_beta   46.72213218
_cell_angle_gamma   46.72213219
_symmetry_Int_Tables_number   1
_chemical_formula_structural   K2Co(SeO3)2
_chemical_formula_sum   'K2 Co1 Se2 O6'
_cell_volume   169.17062958
_cell_formula_units_Z   1
loop_
 _symmetry_equiv_pos_site_id
 _symmetry_equiv_pos_as_xyz
  1  'x, y, z'
loop_
 _atom_site_type_symbol
 _atom_site_label
 _atom_site_symmetry_multiplicity
 _atom_site_fract_x
 _atom_site_fract_y
 _atom_site_fract_z
 _atom_site_occupancy
  K  K0  1  0.80583023  0.80583023  0.80583023  1.0
  K  K1  1  1.19416977  1.19416977  0.19416977  1.0
  Co  Co2  1  0.00000000  0.00000000  0.00000000  1.0
  Se  Se3  1  1.63208440  0.63208440  0.63208440  1.0
  Se  Se4  1  1.36791560  0.36791560  0.36791560  1.0
  O  O5  1  1.24436320  0.24436320  0.73112180  1.0
  O  O6  1  1.24436320  0.73112180  0.24436320  1.0
  O  O7  1  1.26887820  0.75563680  0.75563680  1.0
  O  O8  1  1.75563680  0.26887820  0.75563680  1.0
  O  O9  1  1.75563680  0.75563680  0.26887820  1.0
  O  O10  1  1.73112180  0.24436320  0.24436320  1.0
