# generated using pymatgen
data_CsAg(PO3)2
_symmetry_space_group_name_H-M   'P 1'
_cell_length_a   6.66878646
_cell_length_b   13.79452658
_cell_length_c   7.68487129
_cell_angle_alpha   90.00000000
_cell_angle_beta   97.89278307
_cell_angle_gamma   90.00000000
_symmetry_Int_Tables_number   1
_chemical_formula_structural   CsAg(PO3)2
_chemical_formula_sum   'Cs4 Ag4 P8 O24'
_cell_volume   700.25533430
_cell_formula_units_Z   4
loop_
 _symmetry_equiv_pos_site_id
 _symmetry_equiv_pos_as_xyz
  1  'x, y, z'
loop_
 _atom_site_type_symbol
 _atom_site_label
 _atom_site_symmetry_multiplicity
 _atom_site_fract_x
 _atom_site_fract_y
 _atom_site_fract_z
 _atom_site_occupancy
  Cs  Cs0  1  0.27270743  0.15587476  0.26229939  1.0
  Cs  Cs1  1  0.27270743  0.34412524  0.76229939  1.0
  Cs  Cs2  1  0.72729257  0.65587476  0.23770061  1.0
  Cs  Cs3  1  0.72729257  0.84412524  0.73770061  1.0
  Ag  Ag4  1  0.81375749  0.97188309  0.19042478  1.0
  Ag  Ag5  1  0.81375749  0.52811691  0.69042478  1.0
  Ag  Ag6  1  0.18624251  0.47188309  0.30957522  1.0
  Ag  Ag7  1  0.18624251  0.02811691  0.80957522  1.0
  P  P8  1  0.82994236  0.16529743  0.52822360  1.0
  P  P9  1  0.82994236  0.33470257  1.02822360  1.0
  P  P10  1  0.17005764  0.66529743  -0.02822360  1.0
  P  P11  1  0.17005764  0.83470257  0.47177640  1.0
  P  P12  1  0.68362548  0.35971778  0.37973854  1.0
  P  P13  1  0.68362548  0.14028222  0.87973854  1.0
  P  P14  1  0.31637452  0.85971778  0.12026146  1.0
  P  P15  1  0.31637452  0.64028222  0.62026146  1.0
  O  O16  1  0.47310295  0.34460361  0.42387163  1.0
  O  O17  1  0.47310295  0.15539639  0.92387163  1.0
  O  O18  1  0.52689705  0.84460361  0.07612837  1.0
  O  O19  1  0.52689705  0.65539639  0.57612837  1.0
  O  O20  1  0.95684361  0.85788210  0.38857517  1.0
  O  O21  1  0.95684361  0.64211790  0.88857517  1.0
  O  O22  1  0.04315639  0.35788210  0.11142483  1.0
  O  O23  1  0.04315639  0.14211790  0.61142483  1.0
  O  O24  1  0.84265519  0.28042871  0.47819665  1.0
  O  O25  1  0.84265519  0.21957129  0.97819665  1.0
  O  O26  1  0.15734481  0.78042871  0.02180335  1.0
  O  O27  1  0.15734481  0.71957129  0.52180335  1.0
  O  O28  1  0.78862510  0.45666823  0.41253112  1.0
  O  O29  1  0.78862510  0.04333177  0.91253112  1.0
  O  O30  1  0.21137490  0.95666823  0.08746888  1.0
  O  O31  1  0.21137490  0.54333177  0.58746888  1.0
  O  O32  1  0.73072598  0.10876819  0.37238566  1.0
  O  O33  1  0.73072598  0.39123181  0.87238566  1.0
  O  O34  1  0.26927402  0.60876819  0.12761434  1.0
  O  O35  1  0.26927402  0.89123181  0.62761434  1.0
  O  O36  1  0.67176263  0.33189209  0.17216031  1.0
  O  O37  1  0.67176263  0.16810791  0.67216031  1.0
  O  O38  1  0.32823737  0.83189209  0.32783969  1.0
  O  O39  1  0.32823737  0.66810791  0.82783969  1.0
