# generated using pymatgen
data_NaLi5Sn4
_symmetry_space_group_name_H-M   'P 1'
_cell_length_a   10.91014431
_cell_length_b   10.91014431
_cell_length_c   10.91014431
_cell_angle_alpha   26.44146486
_cell_angle_beta   26.44146486
_cell_angle_gamma   26.44146486
_symmetry_Int_Tables_number   1
_chemical_formula_structural   NaLi5Sn4
_chemical_formula_sum   'Na1 Li5 Sn4'
_cell_volume   226.94912446
_cell_formula_units_Z   1
loop_
 _symmetry_equiv_pos_site_id
 _symmetry_equiv_pos_as_xyz
  1  'x, y, z'
loop_
 _atom_site_type_symbol
 _atom_site_label
 _atom_site_symmetry_multiplicity
 _atom_site_fract_x
 _atom_site_fract_y
 _atom_site_fract_z
 _atom_site_occupancy
  Na  Na0  1  0.01716159  0.01716159  0.01716159  1.0
  Li  Li1  1  0.91528436  -0.08471564  -0.08471564  1.0
  Li  Li2  1  0.63725867  0.63725867  -0.36274133  1.0
  Li  Li3  1  0.54973703  0.54973703  -0.45026297  1.0
  Li  Li4  1  0.44553127  0.44553127  -0.55446873  1.0
  Li  Li5  1  0.36168010  0.36168010  -0.63831990  1.0
  Sn  Sn6  1  0.81779724  -0.18220276  -0.18220276  1.0
  Sn  Sn7  1  0.72790514  -0.27209486  -0.27209486  1.0
  Sn  Sn8  1  0.27373296  0.27373296  0.27373296  1.0
  Sn  Sn9  1  0.18111163  0.18111163  0.18111163  1.0
