# generated using pymatgen
data_LaSClO4
_symmetry_space_group_name_H-M   'P 1'
_cell_length_a   6.88865984
_cell_length_b   8.23192637
_cell_length_c   8.81960685
_cell_angle_alpha   90.00000000
_cell_angle_beta   113.83207952
_cell_angle_gamma   90.00000000
_symmetry_Int_Tables_number   1
_chemical_formula_structural   LaSClO4
_chemical_formula_sum   'La4 S4 Cl4 O16'
_cell_volume   457.48837905
_cell_formula_units_Z   4
loop_
 _symmetry_equiv_pos_site_id
 _symmetry_equiv_pos_as_xyz
  1  'x, y, z'
loop_
 _atom_site_type_symbol
 _atom_site_label
 _atom_site_symmetry_multiplicity
 _atom_site_fract_x
 _atom_site_fract_y
 _atom_site_fract_z
 _atom_site_occupancy
  La  La0  1  0.87396417  0.68702057  0.25842528  1.0
  La  La1  1  0.87396417  0.81297943  0.75842528  1.0
  La  La2  1  0.12603583  0.18702057  0.24157472  1.0
  La  La3  1  0.12603583  0.31297943  0.74157472  1.0
  S  S4  1  0.72512687  0.07719732  0.42938916  1.0
  S  S5  1  0.72512687  0.42280268  0.92938916  1.0
  S  S6  1  0.27487313  0.57719732  0.07061084  1.0
  S  S7  1  0.27487313  0.92280268  0.57061084  1.0
  Cl  Cl8  1  0.78023934  0.96294344  0.03126999  1.0
  Cl  Cl9  1  0.78023934  0.53705656  0.53126999  1.0
  Cl  Cl10  1  0.21976066  0.46294344  0.46873001  1.0
  Cl  Cl11  1  0.21976066  0.03705656  0.96873001  1.0
  O  O12  1  0.85265425  0.17485606  0.36141141  1.0
  O  O13  1  0.85265425  0.32514394  0.86141141  1.0
  O  O14  1  0.14734575  0.67485606  0.13858859  1.0
  O  O15  1  0.14734575  0.82514394  0.63858859  1.0
  O  O16  1  0.83067805  0.40665450  0.11745873  1.0
  O  O17  1  0.83067805  0.09334550  0.61745873  1.0
  O  O18  1  0.16932195  0.90665450  0.38254127  1.0
  O  O19  1  0.16932195  0.59334550  0.88254127  1.0
  O  O20  1  0.72632912  0.90007369  0.39275406  1.0
  O  O21  1  0.72632912  0.59992631  0.89275406  1.0
  O  O22  1  0.27367088  0.40007369  0.10724594  1.0
  O  O23  1  0.27367088  0.09992631  0.60724594  1.0
  O  O24  1  0.50611904  0.13995795  0.36822292  1.0
  O  O25  1  0.50611904  0.36004205  0.86822292  1.0
  O  O26  1  0.49388096  0.63995795  0.13177708  1.0
  O  O27  1  0.49388096  0.86004205  0.63177708  1.0
