# generated using pymatgen
data_Fe2Mo4O7
_symmetry_space_group_name_H-M   'P 1'
_cell_length_a   9.54513093
_cell_length_b   9.54513093
_cell_length_c   9.54513093
_cell_angle_alpha   144.85271023
_cell_angle_beta   143.02333570
_cell_angle_gamma   51.93497407
_symmetry_Int_Tables_number   1
_chemical_formula_structural   Fe2Mo4O7
_chemical_formula_sum   'Fe4 Mo8 O14'
_cell_volume   299.43756653
_cell_formula_units_Z   2
loop_
 _symmetry_equiv_pos_site_id
 _symmetry_equiv_pos_as_xyz
  1  'x, y, z'
loop_
 _atom_site_type_symbol
 _atom_site_label
 _atom_site_symmetry_multiplicity
 _atom_site_fract_x
 _atom_site_fract_y
 _atom_site_fract_z
 _atom_site_occupancy
  Fe  Fe0  1  0.50000000  -0.00000000  0.50000000  1.0
  Fe  Fe1  1  0.00000000  0.00000000  0.00000000  1.0
  Fe  Fe2  1  0.69389794  0.44389794  0.25000000  1.0
  Fe  Fe3  1  0.30610206  0.55610206  0.75000000  1.0
  O  O4  1  1.35139422  0.87318872  1.47820550  1.0
  O  O5  1  1.10501678  0.12681128  0.97820550  1.0
  O  O6  1  0.64860578  0.12681128  0.52179450  1.0
  O  O7  1  0.89498322  0.87318872  1.02179450  1.0
  O  O8  1  1.14463015  0.63264580  1.51198436  1.0
  O  O9  1  1.37933856  0.36735420  1.01198436  1.0
  O  O10  1  0.85536985  0.36735420  0.48801564  1.0
  O  O11  1  0.62066144  0.63264580  0.98801564  1.0
  O  O12  1  0.50000000  1.00000000  1.00000000  1.0
  O  O13  1  0.50000000  0.50000000  0.50000000  1.0
  O  O14  1  1.23454026  0.74083760  1.00629735  1.0
  O  O15  1  0.76545974  0.77175709  1.50629735  1.0
  O  O16  1  1.23454026  1.22824291  1.49370265  1.0
  O  O17  1  0.76545974  0.25916240  0.99370265  1.0
  Mo  Mo18  1  1.11096008  0.58959195  0.97863187  1.0
  Mo  Mo19  1  0.88903992  0.86767179  1.47863187  1.0
  Mo  Mo20  1  1.11096008  1.13232821  1.52136813  1.0
  Mo  Mo21  1  0.88903992  0.41040805  1.02136813  1.0
  Mo  Mo22  1  1.23533279  0.75440923  1.48092356  1.0
  Mo  Mo23  1  1.22651433  0.24559077  0.98092356  1.0
  Mo  Mo24  1  0.76466721  0.24559077  0.51907644  1.0
  Mo  Mo25  1  0.77348567  0.75440923  1.01907644  1.0
