# generated using pymatgen
data_H3SNO4
_symmetry_space_group_name_H-M   'P 1'
_cell_length_a   5.06654837
_cell_length_b   10.97419063
_cell_length_c   8.32571309
_cell_angle_alpha   90.00000000
_cell_angle_beta   127.56448791
_cell_angle_gamma   90.00000000
_symmetry_Int_Tables_number   1
_chemical_formula_structural   H3SNO4
_chemical_formula_sum   'H12 S4 N4 O16'
_cell_volume   366.94187415
_cell_formula_units_Z   4
loop_
 _symmetry_equiv_pos_site_id
 _symmetry_equiv_pos_as_xyz
  1  'x, y, z'
loop_
 _atom_site_type_symbol
 _atom_site_label
 _atom_site_symmetry_multiplicity
 _atom_site_fract_x
 _atom_site_fract_y
 _atom_site_fract_z
 _atom_site_occupancy
  H  H0  1  0.47060232  0.25560975  0.69003711  1.0
  H  H1  1  0.47060232  0.24439025  0.19003711  1.0
  H  H2  1  0.52939768  0.75560975  0.80996289  1.0
  H  H3  1  0.52939768  0.74439025  0.30996289  1.0
  H  H4  1  0.81391521  0.63074336  0.37203963  1.0
  H  H5  1  0.81391521  0.86925664  0.87203963  1.0
  H  H6  1  0.18608479  0.13074336  0.12796037  1.0
  H  H7  1  0.18608479  0.36925664  0.62796037  1.0
  H  H8  1  0.55920660  0.40397214  0.67350070  1.0
  H  H9  1  0.55920660  0.09602786  0.17350070  1.0
  H  H10  1  0.44079340  0.90397214  0.82649930  1.0
  H  H11  1  0.44079340  0.59602786  0.32649930  1.0
  S  S12  1  0.92430249  0.08999211  0.73678478  1.0
  S  S13  1  0.92430249  0.41000789  0.23678478  1.0
  S  S14  1  0.07569751  0.58999211  0.76321522  1.0
  S  S15  1  0.07569751  0.91000789  0.26321522  1.0
  N  N16  1  0.36927833  0.33970538  0.61585135  1.0
  N  N17  1  0.36927833  0.16029462  0.11585135  1.0
  N  N18  1  0.63072167  0.83970538  0.88414865  1.0
  N  N19  1  0.63072167  0.66029462  0.38414865  1.0
  O  O20  1  0.65810290  0.11036663  0.75576628  1.0
  O  O21  1  0.65810290  0.38963337  0.25576628  1.0
  O  O22  1  0.34189710  0.61036663  0.74423372  1.0
  O  O23  1  0.34189710  0.88963337  0.24423372  1.0
  O  O24  1  0.12617973  0.63937893  0.94119719  1.0
  O  O25  1  0.12617973  0.86062107  0.44119719  1.0
  O  O26  1  0.87382027  0.13937893  0.55880281  1.0
  O  O27  1  0.87382027  0.36062107  0.05880281  1.0
  O  O28  1  0.23571575  0.18618449  0.91132970  1.0
  O  O29  1  0.23571575  0.31381551  0.41132970  1.0
  O  O30  1  0.76428425  0.68618449  0.58867030  1.0
  O  O31  1  0.76428425  0.81381551  0.08867030  1.0
  O  O32  1  0.93437581  0.46679551  0.69808334  1.0
  O  O33  1  0.93437581  0.03320449  0.19808334  1.0
  O  O34  1  0.06562419  0.96679551  0.80191666  1.0
  O  O35  1  0.06562419  0.53320449  0.30191666  1.0
