# generated using pymatgen
data_Sr6CaSn(BO3)6
_symmetry_space_group_name_H-M   'P 1'
_cell_length_a   7.84290386
_cell_length_b   7.84290386
_cell_length_c   7.84290386
_cell_angle_alpha   105.54449365
_cell_angle_beta   105.54449365
_cell_angle_gamma   105.54449365
_symmetry_Int_Tables_number   1
_chemical_formula_structural   Sr6CaSn(BO3)6
_chemical_formula_sum   'Sr6 Ca1 Sn1 B6 O18'
_cell_volume   416.69363028
_cell_formula_units_Z   1
loop_
 _symmetry_equiv_pos_site_id
 _symmetry_equiv_pos_as_xyz
  1  'x, y, z'
loop_
 _atom_site_type_symbol
 _atom_site_label
 _atom_site_symmetry_multiplicity
 _atom_site_fract_x
 _atom_site_fract_y
 _atom_site_fract_z
 _atom_site_occupancy
  Sr  Sr0  1  0.76288538  0.65569487  0.15818999  1.0
  Sr  Sr1  1  1.34430513  -0.15818999  0.23711462  1.0
  Sr  Sr2  1  0.84181001  0.23711462  0.34430513  1.0
  Sr  Sr3  1  1.23711462  0.34430513  -0.15818999  1.0
  Sr  Sr4  1  0.65569487  1.15818999  -0.23711462  1.0
  Sr  Sr5  1  1.15818999  0.76288538  -0.34430513  1.0
  Ca  Ca6  1  0.50000000  0.50000000  0.50000000  1.0
  Sn  Sn7  1  0.00000000  0.00000000  0.00000000  1.0
  B  B8  1  1.54798930  0.79464499  -0.11992827  1.0
  B  B9  1  1.20535501  0.11992827  -0.54798930  1.0
  B  B10  1  1.11992827  -0.54798930  0.20535501  1.0
  B  B11  1  0.45201070  0.20535501  0.11992827  1.0
  B  B12  1  0.79464499  0.88007173  0.54798930  1.0
  B  B13  1  0.88007173  1.54798930  -0.20535501  1.0
  O  O14  1  0.73069340  0.91992857  0.01507883  1.0
  O  O15  1  1.08007143  -0.01507883  -0.73069340  1.0
  O  O16  1  0.98492117  -0.73069340  0.08007143  1.0
  O  O17  1  0.26930660  0.08007143  -0.01507883  1.0
  O  O18  1  0.91992857  1.01507883  -0.26930660  1.0
  O  O19  1  1.01507883  0.73069340  -0.08007143  1.0
  O  O20  1  1.49438020  0.78935855  -0.30339560  1.0
  O  O21  1  1.21064145  0.30339560  -0.49438020  1.0
  O  O22  1  1.30339560  -0.49438020  0.21064145  1.0
  O  O23  1  0.50561980  0.21064145  0.30339560  1.0
  O  O24  1  0.78935855  0.69660440  0.49438020  1.0
  O  O25  1  0.69660440  1.49438020  -0.21064145  1.0
  O  O26  1  0.57178703  0.30606619  0.05212803  1.0
  O  O27  1  0.69393381  0.94787197  0.42821297  1.0
  O  O28  1  0.94787197  1.42821297  -0.30606619  1.0
  O  O29  1  1.42821297  0.69393381  -0.05212803  1.0
  O  O30  1  1.30606619  0.05212803  -0.42821297  1.0
  O  O31  1  1.05212803  -0.42821297  0.30606619  1.0
