# generated using pymatgen
data_ScCoGe2
_symmetry_space_group_name_H-M   'P 1'
_cell_length_a   9.17800281
_cell_length_b   10.10734002
_cell_length_c   7.95720188
_cell_angle_alpha   90.00000000
_cell_angle_beta   90.00000000
_cell_angle_gamma   90.00000000
_symmetry_Int_Tables_number   1
_chemical_formula_structural   ScCoGe2
_chemical_formula_sum   'Sc12 Co12 Ge24'
_cell_volume   738.15138426
_cell_formula_units_Z   12
loop_
 _symmetry_equiv_pos_site_id
 _symmetry_equiv_pos_as_xyz
  1  'x, y, z'
loop_
 _atom_site_type_symbol
 _atom_site_label
 _atom_site_symmetry_multiplicity
 _atom_site_fract_x
 _atom_site_fract_y
 _atom_site_fract_z
 _atom_site_occupancy
  Sc  Sc0  1  0.17410899  0.54786934  0.76193195  1.0
  Sc  Sc1  1  0.17410899  0.54786934  0.23806805  1.0
  Sc  Sc2  1  0.67410899  0.95213066  0.76193195  1.0
  Sc  Sc3  1  0.67410899  0.95213066  0.23806805  1.0
  Sc  Sc4  1  0.82589101  0.45213066  0.76193195  1.0
  Sc  Sc5  1  0.82589101  0.45213066  0.23806805  1.0
  Sc  Sc6  1  0.32589101  0.04786934  0.76193195  1.0
  Sc  Sc7  1  0.32589101  0.04786934  0.23806805  1.0
  Sc  Sc8  1  0.16422743  0.82219378  0.00000000  1.0
  Sc  Sc9  1  0.66422743  0.67780622  0.00000000  1.0
  Sc  Sc10  1  0.83577257  0.17780622  0.00000000  1.0
  Sc  Sc11  1  0.33577257  0.32219378  0.00000000  1.0
  Co  Co12  1  0.41007541  0.75363578  0.74671353  1.0
  Co  Co13  1  0.41007541  0.75363578  0.25328647  1.0
  Co  Co14  1  0.91007541  0.74636422  0.74671353  1.0
  Co  Co15  1  0.91007541  0.74636422  0.25328647  1.0
  Co  Co16  1  0.58992459  0.24636422  0.74671353  1.0
  Co  Co17  1  0.58992459  0.24636422  0.25328647  1.0
  Co  Co18  1  0.08992459  0.25363578  0.74671353  1.0
  Co  Co19  1  0.08992459  0.25363578  0.25328647  1.0
  Co  Co20  1  0.50000000  0.50000000  0.75240114  1.0
  Co  Co21  1  0.50000000  0.50000000  0.24759886  1.0
  Co  Co22  1  0.00000000  0.00000000  0.75240114  1.0
  Co  Co23  1  0.00000000  0.00000000  0.24759886  1.0
  Ge  Ge24  1  0.15805803  0.81908376  0.65686480  1.0
  Ge  Ge25  1  0.15805803  0.81908376  0.34313520  1.0
  Ge  Ge26  1  0.65805803  0.68091624  0.65686480  1.0
  Ge  Ge27  1  0.65805803  0.68091624  0.34313520  1.0
  Ge  Ge28  1  0.84194197  0.18091624  0.65686480  1.0
  Ge  Ge29  1  0.84194197  0.18091624  0.34313520  1.0
  Ge  Ge30  1  0.34194197  0.31908376  0.65686480  1.0
  Ge  Ge31  1  0.34194197  0.31908376  0.34313520  1.0
  Ge  Ge32  1  0.45755797  0.87685412  0.50000000  1.0
  Ge  Ge33  1  0.95755797  0.62314588  0.50000000  1.0
  Ge  Ge34  1  0.54244203  0.12314588  0.50000000  1.0
  Ge  Ge35  1  0.04244203  0.37685412  0.50000000  1.0
  Ge  Ge36  1  0.37231636  0.59562082  0.50000000  1.0
  Ge  Ge37  1  0.87231636  0.90437918  0.50000000  1.0
  Ge  Ge38  1  0.62768364  0.40437918  0.50000000  1.0
  Ge  Ge39  1  0.12768364  0.09562082  0.50000000  1.0
  Ge  Ge40  1  0.45946870  0.87620753  0.00000000  1.0
  Ge  Ge41  1  0.95946870  0.62379247  0.00000000  1.0
  Ge  Ge42  1  0.54053130  0.12379247  0.00000000  1.0
  Ge  Ge43  1  0.04053130  0.37620753  0.00000000  1.0
  Ge  Ge44  1  0.37334905  0.60361074  0.00000000  1.0
  Ge  Ge45  1  0.87334905  0.89638926  0.00000000  1.0
  Ge  Ge46  1  0.62665095  0.39638926  0.00000000  1.0
  Ge  Ge47  1  0.12665095  0.10361074  0.00000000  1.0
