# generated using pymatgen
data_NaCr2FeO10
_symmetry_space_group_name_H-M   'P 1'
_cell_length_a   6.06009143
_cell_length_b   6.06009143
_cell_length_c   7.71788406
_cell_angle_alpha   66.25342042
_cell_angle_beta   113.74657958
_cell_angle_gamma   126.65230658
_symmetry_Int_Tables_number   1
_chemical_formula_structural   NaCr2FeO10
_chemical_formula_sum   'Na1 Cr2 Fe1 O10'
_cell_volume   202.99440503
_cell_formula_units_Z   1
loop_
 _symmetry_equiv_pos_site_id
 _symmetry_equiv_pos_as_xyz
  1  'x, y, z'
loop_
 _atom_site_type_symbol
 _atom_site_label
 _atom_site_symmetry_multiplicity
 _atom_site_fract_x
 _atom_site_fract_y
 _atom_site_fract_z
 _atom_site_occupancy
  O  O0  1  0.64696270  0.35303730  0.51510740  1.0
  O  O1  1  0.35303730  -0.35303730  0.48489260  1.0
  O  O2  1  0.24725570  -0.24725570  0.73187769  1.0
  O  O3  1  0.75274430  0.24725570  0.26812231  1.0
  O  O4  1  0.83262251  0.16737749  0.92348661  1.0
  O  O5  1  0.16737749  -0.16737749  0.07651339  1.0
  O  O6  1  0.74295221  -0.22969419  0.81137471  1.0
  O  O7  1  1.22969419  0.25704779  0.81137471  1.0
  O  O8  1  0.77030581  0.74295221  0.18862529  1.0
  O  O9  1  0.25704779  0.22969419  0.18862529  1.0
  Cr  Cr10  1  0.38735845  -0.38735845  0.70983399  1.0
  Cr  Cr11  1  0.61264155  0.38735845  0.29016601  1.0
  Fe  Fe12  1  0.00000000  0.00000000  0.00000000  1.0
  Na  Na13  1  -0.00000000  0.00000000  0.50000000  1.0
