# generated using pymatgen
data_MgSiN2
_symmetry_space_group_name_H-M   'P 1'
_cell_length_a   5.31010906
_cell_length_b   6.49435823
_cell_length_c   5.02749601
_cell_angle_alpha   90.00000000
_cell_angle_beta   90.00000000
_cell_angle_gamma   90.00000000
_symmetry_Int_Tables_number   1
_chemical_formula_structural   MgSiN2
_chemical_formula_sum   'Mg4 Si4 N8'
_cell_volume   173.37697310
_cell_formula_units_Z   4
loop_
 _symmetry_equiv_pos_site_id
 _symmetry_equiv_pos_as_xyz
  1  'x, y, z'
loop_
 _atom_site_type_symbol
 _atom_site_label
 _atom_site_symmetry_multiplicity
 _atom_site_fract_x
 _atom_site_fract_y
 _atom_site_fract_z
 _atom_site_occupancy
  Mg  Mg0  1  0.41510918  0.12280846  0.57940998  1.0
  Mg  Mg1  1  0.91510918  0.37719154  0.57940998  1.0
  Mg  Mg2  1  0.58489082  0.87719154  0.07940998  1.0
  Mg  Mg3  1  0.08489082  0.62280846  0.07940998  1.0
  Si  Si4  1  0.43001626  0.62544894  0.59077177  1.0
  Si  Si5  1  0.93001626  0.87455106  0.59077177  1.0
  Si  Si6  1  0.56998374  0.37455106  0.09077177  1.0
  Si  Si7  1  0.06998374  0.12544894  0.09077177  1.0
  N  N8  1  0.45157814  0.59555564  0.93768924  1.0
  N  N9  1  0.95157814  0.90444436  0.93768924  1.0
  N  N10  1  0.54842186  0.40444436  0.43768924  1.0
  N  N11  1  0.04842186  0.09555564  0.43768924  1.0
  N  N12  1  0.10941889  0.65537177  0.50112900  1.0
  N  N13  1  0.60941889  0.84462823  0.50112900  1.0
  N  N14  1  0.89058111  0.34462823  0.00112900  1.0
  N  N15  1  0.39058111  0.15537177  0.00112900  1.0
