# generated using pymatgen
data_In2HgSe4
_symmetry_space_group_name_H-M   'P 1'
_cell_length_a   7.28213169
_cell_length_b   7.28213169
_cell_length_c   7.28213169
_cell_angle_alpha   131.42144012
_cell_angle_beta   131.42144012
_cell_angle_gamma   71.14434868
_symmetry_Int_Tables_number   1
_chemical_formula_structural   In2HgSe4
_chemical_formula_sum   'In2 Hg1 Se4'
_cell_volume   212.58902305
_cell_formula_units_Z   1
loop_
 _symmetry_equiv_pos_site_id
 _symmetry_equiv_pos_as_xyz
  1  'x, y, z'
loop_
 _atom_site_type_symbol
 _atom_site_label
 _atom_site_symmetry_multiplicity
 _atom_site_fract_x
 _atom_site_fract_y
 _atom_site_fract_z
 _atom_site_occupancy
  In  In0  1  0.25000000  0.75000000  0.50000000  1.0
  In  In1  1  0.50000000  0.50000000  1.00000000  1.0
  Hg  Hg2  1  -0.00000000  -0.00000000  -0.00000000  1.0
  Se  Se3  1  0.41203898  0.90147138  1.03890367  1.0
  Se  Se4  1  1.09852862  1.13743229  1.51056760  1.0
  Se  Se5  1  0.86256771  0.37313531  0.96109633  1.0
  Se  Se6  1  0.62686469  0.58796102  0.48943240  1.0
