# generated using pymatgen
data_YScS3
_symmetry_space_group_name_H-M   'P 1'
_cell_length_a   7.01648337
_cell_length_b   6.39084319
_cell_length_c   9.54408699
_cell_angle_alpha   90.00000000
_cell_angle_beta   90.00000000
_cell_angle_gamma   90.00000000
_symmetry_Int_Tables_number   1
_chemical_formula_structural   YScS3
_chemical_formula_sum   'Y4 Sc4 S12'
_cell_volume   427.96874238
_cell_formula_units_Z   4
loop_
 _symmetry_equiv_pos_site_id
 _symmetry_equiv_pos_as_xyz
  1  'x, y, z'
loop_
 _atom_site_type_symbol
 _atom_site_label
 _atom_site_symmetry_multiplicity
 _atom_site_fract_x
 _atom_site_fract_y
 _atom_site_fract_z
 _atom_site_occupancy
  Y  Y0  1  0.39904543  0.95903049  0.24204756  1.0
  Y  Y1  1  0.89904543  0.54096951  0.24204756  1.0
  Y  Y2  1  0.60095457  0.04096951  0.74204756  1.0
  Y  Y3  1  0.10095457  0.45903049  0.74204756  1.0
  Sc  Sc4  1  0.50001981  0.50003375  -0.00802167  1.0
  Sc  Sc5  1  1.00001981  0.99996625  -0.00802167  1.0
  Sc  Sc6  1  0.49998019  0.49996625  0.49197833  1.0
  Sc  Sc7  1  -0.00001981  0.00003375  0.49197833  1.0
  S  S8  1  0.45186089  0.64449180  0.74201625  1.0
  S  S9  1  0.95186089  0.85550820  0.74201625  1.0
  S  S10  1  0.54813911  0.35550820  0.24201625  1.0
  S  S11  1  0.04813911  0.14449180  0.24201625  1.0
  S  S12  1  0.18479969  0.67653806  0.42053137  1.0
  S  S13  1  0.68479969  0.82346194  0.42053137  1.0
  S  S14  1  0.81520031  0.32346194  0.92053137  1.0
  S  S15  1  0.31520031  0.17653806  0.92053137  1.0
  S  S16  1  0.18472796  0.67648120  0.06342649  1.0
  S  S17  1  0.68472796  0.82351880  0.06342649  1.0
  S  S18  1  0.81527204  0.32351880  0.56342649  1.0
  S  S19  1  0.31527204  0.17648120  0.56342649  1.0
