# generated using pymatgen
data_GaS
_symmetry_space_group_name_H-M   'P 1'
_cell_length_a   8.75340125
_cell_length_b   8.75340125
_cell_length_c   8.75340125
_cell_angle_alpha   23.99142381
_cell_angle_beta   23.99142381
_cell_angle_gamma   23.99142381
_symmetry_Int_Tables_number   1
_chemical_formula_structural   GaS
_chemical_formula_sum   'Ga2 S2'
_cell_volume   97.42977002
_cell_formula_units_Z   2
loop_
 _symmetry_equiv_pos_site_id
 _symmetry_equiv_pos_as_xyz
  1  'x, y, z'
loop_
 _atom_site_type_symbol
 _atom_site_label
 _atom_site_symmetry_multiplicity
 _atom_site_fract_x
 _atom_site_fract_y
 _atom_site_fract_z
 _atom_site_occupancy
  Ga  Ga0  1  0.95166490  -0.04833510  -0.04833510  1.0
  Ga  Ga1  1  0.04833510  0.04833510  0.04833510  1.0
  S  S2  1  0.24268489  0.24268489  0.24268489  1.0
  S  S3  1  0.75731511  -0.24268489  -0.24268489  1.0
