# generated using pymatgen
data_RbGaAsH2O4F3
_symmetry_space_group_name_H-M   'P 1'
_cell_length_a   7.47998087
_cell_length_b   7.47998087
_cell_length_c   7.46884074
_cell_angle_alpha   65.98190474
_cell_angle_beta   114.01809526
_cell_angle_gamma   107.55669854
_symmetry_Int_Tables_number   1
_chemical_formula_structural   RbGaAsH2O4F3
_chemical_formula_sum   'Rb2 Ga2 As2 H4 O8 F6'
_cell_volume   343.99037005
_cell_formula_units_Z   2
loop_
 _symmetry_equiv_pos_site_id
 _symmetry_equiv_pos_as_xyz
  1  'x, y, z'
loop_
 _atom_site_type_symbol
 _atom_site_label
 _atom_site_symmetry_multiplicity
 _atom_site_fract_x
 _atom_site_fract_y
 _atom_site_fract_z
 _atom_site_occupancy
  Rb  Rb0  1  1.00000000  -0.50000000  0.50000000  1.0
  Rb  Rb1  1  1.50000000  0.00000000  -0.00000000  1.0
  Ga  Ga2  1  0.00000000  -0.00000000  0.00000000  1.0
  Ga  Ga3  1  -0.00000000  0.00000000  0.50000000  1.0
  As  As4  1  0.30032870  0.30032870  0.25000000  1.0
  As  As5  1  0.69967130  0.69967130  0.75000000  1.0
  H  H6  1  1.21045745  -0.38749015  0.09135547  1.0
  H  H7  1  1.38749015  -0.21045745  0.59135547  1.0
  H  H8  1  0.61250985  0.21045745  0.40864453  1.0
  H  H9  1  0.78954255  0.38749015  0.90864453  1.0
  O  O10  1  1.29993797  -0.45426023  0.07651077  1.0
  O  O11  1  1.45426023  -0.29993797  0.57651077  1.0
  O  O12  1  0.54573977  0.29993797  0.42348923  1.0
  O  O13  1  0.70006203  0.45426023  0.92348923  1.0
  O  O14  1  1.13617144  -0.73742683  0.37383990  1.0
  O  O15  1  1.73742683  -0.13617144  0.87383990  1.0
  O  O16  1  0.26257317  0.13617144  0.12616010  1.0
  O  O17  1  0.86382856  0.73742683  0.62616010  1.0
  F  F18  1  1.10979826  -0.23792326  0.11094990  1.0
  F  F19  1  1.23792326  -0.10979826  0.61094990  1.0
  F  F20  1  0.76207674  0.10979826  0.38905010  1.0
  F  F21  1  0.89020174  0.23792326  0.88905010  1.0
  F  F22  1  0.91912321  0.91912321  0.25000000  1.0
  F  F23  1  0.08087679  0.08087679  0.75000000  1.0
