# generated using pymatgen
data_Hf6Si7Ni16
_symmetry_space_group_name_H-M   'P 1'
_cell_length_a   8.08122343
_cell_length_b   8.08122343
_cell_length_c   8.08122343
_cell_angle_alpha   60.00000000
_cell_angle_beta   60.00000000
_cell_angle_gamma   60.00000000
_symmetry_Int_Tables_number   1
_chemical_formula_structural   Hf6Si7Ni16
_chemical_formula_sum   'Hf6 Si7 Ni16'
_cell_volume   373.17826904
_cell_formula_units_Z   1
loop_
 _symmetry_equiv_pos_site_id
 _symmetry_equiv_pos_as_xyz
  1  'x, y, z'
loop_
 _atom_site_type_symbol
 _atom_site_label
 _atom_site_symmetry_multiplicity
 _atom_site_fract_x
 _atom_site_fract_y
 _atom_site_fract_z
 _atom_site_occupancy
  Hf  Hf0  1  -0.70533602  0.70533602  0.70533602  1.0
  Hf  Hf1  1  -0.29466398  0.29466398  0.70533602  1.0
  Hf  Hf2  1  0.70533602  0.70533602  -0.70533602  1.0
  Hf  Hf3  1  0.29466398  1.29466398  -0.29466398  1.0
  Hf  Hf4  1  0.29466398  -0.29466398  1.29466398  1.0
  Hf  Hf5  1  -0.29466398  0.29466398  0.29466398  1.0
  Si  Si6  1  1.50000000  0.00000000  -0.00000000  1.0
  Si  Si7  1  1.00000000  0.50000000  -0.50000000  1.0
  Si  Si8  1  0.00000000  1.50000000  -0.00000000  1.0
  Si  Si9  1  0.50000000  1.00000000  -0.50000000  1.0
  Si  Si10  1  -0.00000000  0.00000000  0.50000000  1.0
  Si  Si11  1  0.50000000  -0.50000000  1.00000000  1.0
  Si  Si12  1  0.00000000  -0.00000000  -0.00000000  1.0
  Ni  Ni13  1  0.88197359  0.88197359  -0.11802641  1.0
  Ni  Ni14  1  1.11802641  0.11802641  0.64592078  1.0
  Ni  Ni15  1  1.11802641  0.64592078  0.11802641  1.0
  Ni  Ni16  1  0.35407922  0.88197359  -0.11802641  1.0
  Ni  Ni17  1  1.64592078  0.11802641  0.11802641  1.0
  Ni  Ni18  1  0.88197359  0.35407922  -0.11802641  1.0
  Ni  Ni19  1  0.88197359  0.88197359  -0.64592078  1.0
  Ni  Ni20  1  1.11802641  0.11802641  0.11802641  1.0
  Ni  Ni21  1  0.66826661  0.66826661  -0.33173339  1.0
  Ni  Ni22  1  1.33173339  0.33173339  0.00479983  1.0
  Ni  Ni23  1  1.33173339  0.00479983  0.33173339  1.0
  Ni  Ni24  1  0.99520017  0.66826661  -0.33173339  1.0
  Ni  Ni25  1  1.00479983  0.33173339  0.33173339  1.0
  Ni  Ni26  1  0.66826661  0.99520017  -0.33173339  1.0
  Ni  Ni27  1  0.66826661  0.66826661  -0.00479983  1.0
  Ni  Ni28  1  1.33173339  0.33173339  0.33173339  1.0
