# generated using pymatgen
data_CrSBr
_symmetry_space_group_name_H-M   'P 1'
_cell_length_a   3.54790705
_cell_length_b   4.73797732
_cell_length_c   9.23823464
_cell_angle_alpha   90.00000000
_cell_angle_beta   90.00000000
_cell_angle_gamma   90.00000000
_symmetry_Int_Tables_number   1
_chemical_formula_structural   CrSBr
_chemical_formula_sum   'Cr2 S2 Br2'
_cell_volume   155.29382922
_cell_formula_units_Z   2
loop_
 _symmetry_equiv_pos_site_id
 _symmetry_equiv_pos_as_xyz
  1  'x, y, z'
loop_
 _atom_site_type_symbol
 _atom_site_label
 _atom_site_symmetry_multiplicity
 _atom_site_fract_x
 _atom_site_fract_y
 _atom_site_fract_z
 _atom_site_occupancy
  Cr  Cr0  1  0.00000000  0.50000000  0.11157271  1.0
  Cr  Cr1  1  0.50000000  0.00000000  0.88842729  1.0
  S  S2  1  0.00000000  0.00000000  0.06120969  1.0
  S  S3  1  0.50000000  0.50000000  0.93879031  1.0
  Br  Br4  1  0.00000000  0.00000000  0.69387844  1.0
  Br  Br5  1  0.50000000  0.50000000  0.30612156  1.0
