# generated using pymatgen
data_Cu3SbS3
_symmetry_space_group_name_H-M   'P 1'
_cell_length_a   8.76869469
_cell_length_b   8.76869469
_cell_length_c   8.76869469
_cell_angle_alpha   109.47122063
_cell_angle_beta   109.47122063
_cell_angle_gamma   109.47122063
_symmetry_Int_Tables_number   1
_chemical_formula_structural   Cu3SbS3
_chemical_formula_sum   'Cu12 Sb4 S12'
_cell_volume   519.01864078
_cell_formula_units_Z   4
loop_
 _symmetry_equiv_pos_site_id
 _symmetry_equiv_pos_as_xyz
  1  'x, y, z'
loop_
 _atom_site_type_symbol
 _atom_site_label
 _atom_site_symmetry_multiplicity
 _atom_site_fract_x
 _atom_site_fract_y
 _atom_site_fract_z
 _atom_site_occupancy
  Cu  Cu0  1  0.81861593  0.81861593  0.00000000  1.0
  Cu  Cu1  1  0.81861593  0.00000000  0.81861593  1.0
  Cu  Cu2  1  0.00000000  0.81861593  0.81861593  1.0
  Cu  Cu3  1  0.18138407  0.00000000  0.18138407  1.0
  Cu  Cu4  1  0.00000000  0.18138407  0.18138407  1.0
  Cu  Cu5  1  0.18138407  0.18138407  0.00000000  1.0
  Cu  Cu6  1  0.25000000  0.75000000  0.50000000  1.0
  Cu  Cu7  1  0.75000000  0.25000000  0.50000000  1.0
  Cu  Cu8  1  0.25000000  0.50000000  0.75000000  1.0
  Cu  Cu9  1  0.50000000  0.25000000  0.75000000  1.0
  Cu  Cu10  1  0.75000000  0.50000000  0.25000000  1.0
  Cu  Cu11  1  0.50000000  0.75000000  0.25000000  1.0
  Sb  Sb12  1  0.45619628  0.45619628  0.45619628  1.0
  Sb  Sb13  1  1.00000000  1.00000000  0.54380372  1.0
  Sb  Sb14  1  1.00000000  0.54380372  1.00000000  1.0
  Sb  Sb15  1  0.54380372  1.00000000  1.00000000  1.0
  S  S16  1  0.77897244  0.53255785  0.53255785  1.0
  S  S17  1  0.53255785  0.77897244  0.53255785  1.0
  S  S18  1  1.00000000  1.24641458  0.46744215  1.0
  S  S19  1  1.24641458  1.00000000  0.46744215  1.0
  S  S20  1  0.53255785  0.53255785  0.77897244  1.0
  S  S21  1  0.75358542  0.75358542  0.22102756  1.0
  S  S22  1  1.00000000  0.46744215  1.24641458  1.0
  S  S23  1  0.75358542  0.22102756  0.75358542  1.0
  S  S24  1  0.22102756  0.75358542  0.75358542  1.0
  S  S25  1  0.46744215  1.00000000  1.24641458  1.0
  S  S26  1  1.24641458  0.46744215  1.00000000  1.0
  S  S27  1  0.46744215  1.24641458  1.00000000  1.0
