# generated using pymatgen
data_K3Lu(PO4)2
_symmetry_space_group_name_H-M   'P 1'
_cell_length_a   9.71702242
_cell_length_b   9.71702242
_cell_length_c   7.86512119
_cell_angle_alpha   90.00000000
_cell_angle_beta   90.00000000
_cell_angle_gamma   120.00000000
_symmetry_Int_Tables_number   1
_chemical_formula_structural   K3Lu(PO4)2
_chemical_formula_sum   'K9 Lu3 P6 O24'
_cell_volume   643.13546615
_cell_formula_units_Z   3
loop_
 _symmetry_equiv_pos_site_id
 _symmetry_equiv_pos_as_xyz
  1  'x, y, z'
loop_
 _atom_site_type_symbol
 _atom_site_label
 _atom_site_symmetry_multiplicity
 _atom_site_fract_x
 _atom_site_fract_y
 _atom_site_fract_z
 _atom_site_occupancy
  K  K0  1  0.99988535  0.66597934  0.25772643  1.0
  K  K1  1  0.66597934  0.66609399  0.74227357  1.0
  K  K2  1  0.66609399  0.00011465  0.25772643  1.0
  K  K3  1  0.33402066  0.33390601  0.25772643  1.0
  K  K4  1  0.00011465  0.33402066  0.74227357  1.0
  K  K5  1  0.33390601  0.99988535  0.74227357  1.0
  K  K6  1  0.33333333  0.66666667  0.50456765  1.0
  K  K7  1  0.66666667  0.33333333  0.49543235  1.0
  K  K8  1  0.00000000  0.00000000  0.50000000  1.0
  Lu  Lu9  1  0.33333333  0.66666667  0.03447194  1.0
  Lu  Lu10  1  0.66666667  0.33333333  0.96552806  1.0
  Lu  Lu11  1  0.00000000  -0.00000000  0.00000000  1.0
  P  P12  1  0.67269192  0.65888841  0.22996305  1.0
  P  P13  1  0.65888841  0.98619648  0.77003695  1.0
  P  P14  1  0.98619648  0.32730808  0.22996305  1.0
  P  P15  1  0.34111159  0.01380352  0.22996305  1.0
  P  P16  1  0.32730808  0.34111159  0.77003695  1.0
  P  P17  1  0.01380352  0.67269192  0.77003695  1.0
  O  O18  1  0.17738022  0.99146949  0.16885207  1.0
  O  O19  1  0.99146949  0.81408927  0.83114793  1.0
  O  O20  1  0.81408927  0.82261978  0.16885207  1.0
  O  O21  1  0.00853051  0.18591073  0.16885207  1.0
  O  O22  1  0.82261978  0.00853051  0.83114793  1.0
  O  O23  1  0.18591073  0.17738022  0.83114793  1.0
  O  O24  1  0.33593967  0.85041755  0.21169137  1.0
  O  O25  1  0.85041755  0.51447788  0.78830863  1.0
  O  O26  1  0.51447788  0.66406033  0.21169137  1.0
  O  O27  1  0.14958245  0.48552212  0.21169137  1.0
  O  O28  1  0.66406033  0.14958245  0.78830863  1.0
  O  O29  1  0.48552212  0.33593967  0.78830863  1.0
  O  O30  1  0.70202697  0.62775271  0.41394203  1.0
  O  O31  1  0.62775271  0.92572574  0.58605797  1.0
  O  O32  1  0.92572574  0.29797303  0.41394203  1.0
  O  O33  1  0.37224729  0.07427426  0.41394203  1.0
  O  O34  1  0.29797303  0.37224729  0.58605797  1.0
  O  O35  1  0.07427426  0.70202697  0.58605797  1.0
  O  O36  1  0.66294989  0.52304740  0.11312921  1.0
  O  O37  1  0.52304740  0.86009751  0.88687079  1.0
  O  O38  1  0.86009751  0.33705011  0.11312921  1.0
  O  O39  1  0.47695260  0.13990249  0.11312921  1.0
  O  O40  1  0.33705011  0.47695260  0.88687079  1.0
  O  O41  1  0.13990249  0.66294989  0.88687079  1.0
