# generated using pymatgen
data_Nb(SBr)2
_symmetry_space_group_name_H-M   'P 1'
_cell_length_a   6.63283975
_cell_length_b   6.63283975
_cell_length_c   7.78676045
_cell_angle_alpha   80.03565428
_cell_angle_beta   99.96434572
_cell_angle_gamma   60.74981709
_symmetry_Int_Tables_number   1
_chemical_formula_structural   Nb(SBr)2
_chemical_formula_sum   'Nb2 S4 Br4'
_cell_volume   280.84979003
_cell_formula_units_Z   2
loop_
 _symmetry_equiv_pos_site_id
 _symmetry_equiv_pos_as_xyz
  1  'x, y, z'
loop_
 _atom_site_type_symbol
 _atom_site_label
 _atom_site_symmetry_multiplicity
 _atom_site_fract_x
 _atom_site_fract_y
 _atom_site_fract_z
 _atom_site_occupancy
  Nb  Nb0  1  0.87398406  -0.12601594  0.00000000  1.0
  Nb  Nb1  1  1.12601594  0.12601594  -0.00000000  1.0
  S  S2  1  0.68006249  -0.68006249  0.88135432  1.0
  S  S3  1  0.31993751  -0.31993751  0.11864568  1.0
  S  S4  1  0.86391790  -0.86391790  0.72191564  1.0
  S  S5  1  0.13608210  -0.13608210  0.27808436  1.0
  Br  Br6  1  0.43139229  -0.02262385  0.78849896  1.0
  Br  Br7  1  1.02262385  0.56860771  0.78849896  1.0
  Br  Br8  1  0.97737615  -0.56860771  0.21150104  1.0
  Br  Br9  1  1.56860771  0.02262385  0.21150104  1.0
