# generated using pymatgen
data_YClO
_symmetry_space_group_name_H-M   'P 1'
_cell_length_a   10.36425926
_cell_length_b   10.36425926
_cell_length_c   10.36425926
_cell_angle_alpha   21.20682505
_cell_angle_beta   21.20682505
_cell_angle_gamma   21.20682505
_symmetry_Int_Tables_number   1
_chemical_formula_structural   YClO
_chemical_formula_sum   'Y2 Cl2 O2'
_cell_volume   127.60162925
_cell_formula_units_Z   2
loop_
 _symmetry_equiv_pos_site_id
 _symmetry_equiv_pos_as_xyz
  1  'x, y, z'
loop_
 _atom_site_type_symbol
 _atom_site_label
 _atom_site_symmetry_multiplicity
 _atom_site_fract_x
 _atom_site_fract_y
 _atom_site_fract_z
 _atom_site_occupancy
  Y  Y0  1  0.78631911  0.78631911  0.78631911  1.0
  Y  Y1  1  1.21368089  1.21368089  0.21368089  1.0
  Cl  Cl2  1  1.60415870  0.60415870  0.60415870  1.0
  Cl  Cl3  1  1.39584130  0.39584130  0.39584130  1.0
  O  O4  1  0.86131755  0.86131755  0.86131755  1.0
  O  O5  1  1.13868245  1.13868245  0.13868245  1.0
