# generated using pymatgen
data_Sr4Al6WO16
_symmetry_space_group_name_H-M   'P 1'
_cell_length_a   8.34791708
_cell_length_b   8.34791708
_cell_length_c   8.34791708
_cell_angle_alpha   109.47122063
_cell_angle_beta   109.47122063
_cell_angle_gamma   109.47122063
_symmetry_Int_Tables_number   1
_chemical_formula_structural   Sr4Al6WO16
_chemical_formula_sum   'Sr4 Al6 W1 O16'
_cell_volume   447.82928351
_cell_formula_units_Z   1
loop_
 _symmetry_equiv_pos_site_id
 _symmetry_equiv_pos_as_xyz
  1  'x, y, z'
loop_
 _atom_site_type_symbol
 _atom_site_label
 _atom_site_symmetry_multiplicity
 _atom_site_fract_x
 _atom_site_fract_y
 _atom_site_fract_z
 _atom_site_occupancy
  Sr  Sr0  1  0.49860632  0.49860632  0.49860632  1.0
  Sr  Sr1  1  1.00000000  1.00000000  0.50139368  1.0
  Sr  Sr2  1  1.00000000  0.50139368  1.00000000  1.0
  Sr  Sr3  1  0.50139368  1.00000000  1.00000000  1.0
  Al  Al4  1  0.25000000  0.75000000  0.50000000  1.0
  Al  Al5  1  0.75000000  0.25000000  0.50000000  1.0
  Al  Al6  1  0.25000000  0.50000000  0.75000000  1.0
  Al  Al7  1  0.50000000  0.25000000  0.75000000  1.0
  Al  Al8  1  0.75000000  0.50000000  0.25000000  1.0
  Al  Al9  1  0.50000000  0.75000000  0.25000000  1.0
  W  W10  1  0.00000000  0.00000000  0.00000000  1.0
  O  O11  1  0.31737704  0.65745831  0.65745831  1.0
  O  O12  1  0.65745831  0.31737704  0.65745831  1.0
  O  O13  1  1.00000000  0.65991874  1.34254169  1.0
  O  O14  1  0.65991874  1.00000000  1.34254169  1.0
  O  O15  1  0.65745831  0.65745831  0.31737704  1.0
  O  O16  1  1.34008126  1.34008126  0.68262296  1.0
  O  O17  1  1.00000000  1.34254169  0.65991874  1.0
  O  O18  1  1.34008126  0.68262296  1.34008126  1.0
  O  O19  1  0.68262296  1.34008126  1.34008126  1.0
  O  O20  1  1.34254169  1.00000000  0.65991874  1.0
  O  O21  1  0.65991874  1.34254169  1.00000000  1.0
  O  O22  1  1.34254169  0.65991874  1.00000000  1.0
  O  O23  1  0.78578936  0.78578936  0.78578936  1.0
  O  O24  1  1.00000000  1.00000000  0.21421064  1.0
  O  O25  1  1.00000000  0.21421064  1.00000000  1.0
  O  O26  1  0.21421064  1.00000000  1.00000000  1.0
