# generated using pymatgen
data_CrRe8(Ni2Mo)2
_symmetry_space_group_name_H-M   'P 1'
_cell_length_a   9.17701242
_cell_length_b   9.17701242
_cell_length_c   4.87782275
_cell_angle_alpha   90.00000000
_cell_angle_beta   90.00000000
_cell_angle_gamma   90.00000000
_symmetry_Int_Tables_number   1
_chemical_formula_structural   CrRe8(Ni2Mo)2
_chemical_formula_sum   'Cr2 Re16 Ni8 Mo4'
_cell_volume   410.79831555
_cell_formula_units_Z   2
loop_
 _symmetry_equiv_pos_site_id
 _symmetry_equiv_pos_as_xyz
  1  'x, y, z'
loop_
 _atom_site_type_symbol
 _atom_site_label
 _atom_site_symmetry_multiplicity
 _atom_site_fract_x
 _atom_site_fract_y
 _atom_site_fract_z
 _atom_site_occupancy
  Cr  Cr0  1  0.50000000  0.50000000  0.50000000  1.0
  Cr  Cr1  1  0.00000000  0.00000000  0.00000000  1.0
  Re  Re2  1  0.36785529  0.96475423  0.50000000  1.0
  Re  Re3  1  0.63214471  0.03524577  0.50000000  1.0
  Re  Re4  1  0.13214471  0.46475423  0.00000000  1.0
  Re  Re5  1  0.86785529  0.53524577  0.00000000  1.0
  Re  Re6  1  0.96475423  0.36785529  0.50000000  1.0
  Re  Re7  1  0.03524577  0.63214471  0.50000000  1.0
  Re  Re8  1  0.46475423  0.13214471  0.00000000  1.0
  Re  Re9  1  0.53524577  0.86785529  0.00000000  1.0
  Re  Re10  1  0.31637281  0.68362719  0.25006194  1.0
  Re  Re11  1  0.68362719  0.31637281  0.25006194  1.0
  Re  Re12  1  0.18362719  0.18362719  0.75006194  1.0
  Re  Re13  1  0.81637281  0.81637281  0.75006194  1.0
  Re  Re14  1  0.68362719  0.31637281  0.74993806  1.0
  Re  Re15  1  0.31637281  0.68362719  0.74993806  1.0
  Re  Re16  1  0.81637281  0.81637281  0.24993806  1.0
  Re  Re17  1  0.18362719  0.18362719  0.24993806  1.0
  Ni  Ni18  1  0.43595325  0.24344326  0.50000000  1.0
  Ni  Ni19  1  0.56404675  0.75655674  0.50000000  1.0
  Ni  Ni20  1  0.06404675  0.74344326  0.00000000  1.0
  Ni  Ni21  1  0.93595325  0.25655674  0.00000000  1.0
  Ni  Ni22  1  0.24344326  0.43595325  0.50000000  1.0
  Ni  Ni23  1  0.75655674  0.56404675  0.50000000  1.0
  Ni  Ni24  1  0.74344326  0.06404675  0.00000000  1.0
  Ni  Ni25  1  0.25655674  0.93595325  0.00000000  1.0
  Mo  Mo26  1  0.10302876  0.89697124  0.50000000  1.0
  Mo  Mo27  1  0.89697124  0.10302876  0.50000000  1.0
  Mo  Mo28  1  0.39697124  0.39697124  0.00000000  1.0
  Mo  Mo29  1  0.60302876  0.60302876  0.00000000  1.0
