# generated using pymatgen
data_K3Lu(BO3)2
_symmetry_space_group_name_H-M   'P 1'
_cell_length_a   6.85349190
_cell_length_b   9.32812524
_cell_length_c   5.52562698
_cell_angle_alpha   90.00000000
_cell_angle_beta   90.00000000
_cell_angle_gamma   90.00000000
_symmetry_Int_Tables_number   1
_chemical_formula_structural   K3Lu(BO3)2
_chemical_formula_sum   'K6 Lu2 B4 O12'
_cell_volume   353.25460752
_cell_formula_units_Z   2
loop_
 _symmetry_equiv_pos_site_id
 _symmetry_equiv_pos_as_xyz
  1  'x, y, z'
loop_
 _atom_site_type_symbol
 _atom_site_label
 _atom_site_symmetry_multiplicity
 _atom_site_fract_x
 _atom_site_fract_y
 _atom_site_fract_z
 _atom_site_occupancy
  K  K0  1  0.22785597  0.16703863  0.50000000  1.0
  K  K1  1  0.72785597  0.33296137  0.00000000  1.0
  K  K2  1  0.77214403  0.83296137  0.50000000  1.0
  K  K3  1  0.27214403  0.66703863  0.00000000  1.0
  K  K4  1  0.50000000  0.00000000  0.00000000  1.0
  K  K5  1  0.00000000  0.50000000  0.50000000  1.0
  Lu  Lu6  1  0.50000000  0.50000000  0.50000000  1.0
  Lu  Lu7  1  0.00000000  0.00000000  0.00000000  1.0
  B  B8  1  0.23430203  0.83310376  0.50000000  1.0
  B  B9  1  0.73430203  0.66689624  0.00000000  1.0
  B  B10  1  0.76569797  0.16689624  0.50000000  1.0
  B  B11  1  0.26569797  0.33310376  0.00000000  1.0
  O  O12  1  0.19591586  0.90245581  0.28178303  1.0
  O  O13  1  0.19591586  0.90245581  0.71821697  1.0
  O  O14  1  0.69591586  0.59754419  0.78178303  1.0
  O  O15  1  0.69591586  0.59754419  0.21821697  1.0
  O  O16  1  0.80408414  0.09754419  0.28178303  1.0
  O  O17  1  0.80408414  0.09754419  0.71821697  1.0
  O  O18  1  0.30408414  0.40245581  0.78178303  1.0
  O  O19  1  0.30408414  0.40245581  0.21821697  1.0
  O  O20  1  0.30937830  0.69433086  0.50000000  1.0
  O  O21  1  0.80937830  0.80566914  0.00000000  1.0
  O  O22  1  0.69062170  0.30566914  0.50000000  1.0
  O  O23  1  0.19062170  0.19433086  0.00000000  1.0
