# generated using pymatgen
data_NbNiAs
_symmetry_space_group_name_H-M   'P 1'
_cell_length_a   6.33257407
_cell_length_b   3.72907970
_cell_length_c   7.33706738
_cell_angle_alpha   90.00000000
_cell_angle_beta   90.00000000
_cell_angle_gamma   90.00000000
_symmetry_Int_Tables_number   1
_chemical_formula_structural   NbNiAs
_chemical_formula_sum   'Nb4 Ni4 As4'
_cell_volume   173.26244988
_cell_formula_units_Z   4
loop_
 _symmetry_equiv_pos_site_id
 _symmetry_equiv_pos_as_xyz
  1  'x, y, z'
loop_
 _atom_site_type_symbol
 _atom_site_label
 _atom_site_symmetry_multiplicity
 _atom_site_fract_x
 _atom_site_fract_y
 _atom_site_fract_z
 _atom_site_occupancy
  Nb  Nb0  1  0.98155098  0.75000000  0.66403070  1.0
  Nb  Nb1  1  0.48155098  0.75000000  0.83596930  1.0
  Nb  Nb2  1  0.01844902  0.25000000  0.33596930  1.0
  Nb  Nb3  1  0.51844902  0.25000000  0.16403070  1.0
  Ni  Ni4  1  0.84065731  0.75000000  0.07273929  1.0
  Ni  Ni5  1  0.34065731  0.75000000  0.42726071  1.0
  Ni  Ni6  1  0.15934269  0.25000000  0.92726071  1.0
  Ni  Ni7  1  0.65934269  0.25000000  0.57273929  1.0
  As  As8  1  0.71328944  0.75000000  0.37928326  1.0
  As  As9  1  0.21328944  0.75000000  0.12071674  1.0
  As  As10  1  0.28671056  0.25000000  0.62071674  1.0
  As  As11  1  0.78671056  0.25000000  0.87928326  1.0
