# generated using pymatgen
data_Rb2Pb(SeO4)2
_symmetry_space_group_name_H-M   'P 1'
_cell_length_a   8.21295653
_cell_length_b   8.21295653
_cell_length_c   8.21295653
_cell_angle_alpha   42.14636165
_cell_angle_beta   42.14636165
_cell_angle_gamma   42.14636165
_symmetry_Int_Tables_number   1
_chemical_formula_structural   Rb2Pb(SeO4)2
_chemical_formula_sum   'Rb2 Pb1 Se2 O8'
_cell_volume   225.70861666
_cell_formula_units_Z   1
loop_
 _symmetry_equiv_pos_site_id
 _symmetry_equiv_pos_as_xyz
  1  'x, y, z'
loop_
 _atom_site_type_symbol
 _atom_site_label
 _atom_site_symmetry_multiplicity
 _atom_site_fract_x
 _atom_site_fract_y
 _atom_site_fract_z
 _atom_site_occupancy
  Rb  Rb0  1  0.79961426  0.79961426  0.79961426  1.0
  Rb  Rb1  1  1.20038574  1.20038574  0.20038574  1.0
  Pb  Pb2  1  0.00000000  0.00000000  0.00000000  1.0
  Se  Se3  1  1.60349342  0.60349342  0.60349342  1.0
  Se  Se4  1  1.39650658  0.39650658  0.39650658  1.0
  O  O5  1  1.26713786  0.26713786  0.73133962  1.0
  O  O6  1  1.26713786  0.73133962  0.26713786  1.0
  O  O7  1  1.26866038  0.73286214  0.73286214  1.0
  O  O8  1  1.73286214  0.26866038  0.73286214  1.0
  O  O9  1  1.73286214  0.73286214  0.26866038  1.0
  O  O10  1  1.73133962  0.26713786  0.26713786  1.0
  O  O11  1  0.67720821  0.67720821  0.67720821  1.0
  O  O12  1  1.32279179  1.32279179  0.32279179  1.0
