# generated using pymatgen
data_RbBi(MoO4)2
_symmetry_space_group_name_H-M   'P 1'
_cell_length_a   11.78459607
_cell_length_b   12.39714566
_cell_length_c   5.37958001
_cell_angle_alpha   90.00000000
_cell_angle_beta   92.15209114
_cell_angle_gamma   90.00000000
_symmetry_Int_Tables_number   1
_chemical_formula_structural   RbBi(MoO4)2
_chemical_formula_sum   'Rb4 Bi4 Mo8 O32'
_cell_volume   785.37730072
_cell_formula_units_Z   4
loop_
 _symmetry_equiv_pos_site_id
 _symmetry_equiv_pos_as_xyz
  1  'x, y, z'
loop_
 _atom_site_type_symbol
 _atom_site_label
 _atom_site_symmetry_multiplicity
 _atom_site_fract_x
 _atom_site_fract_y
 _atom_site_fract_z
 _atom_site_occupancy
  Rb  Rb0  1  0.12079499  0.62456106  0.97931842  1.0
  Rb  Rb1  1  0.12079499  0.87543894  0.47931842  1.0
  Rb  Rb2  1  0.87920501  0.12456106  0.52068158  1.0
  Rb  Rb3  1  0.87920501  0.37543894  0.02068158  1.0
  Bi  Bi4  1  0.62122582  0.87711022  0.50586781  1.0
  Bi  Bi5  1  0.62122582  0.62288978  0.00586781  1.0
  Bi  Bi6  1  0.37877418  0.37711022  0.99413219  1.0
  Bi  Bi7  1  0.37877418  0.12288978  0.49413219  1.0
  Mo  Mo8  1  0.38596240  0.88765734  0.97560921  1.0
  Mo  Mo9  1  0.38596240  0.61234266  0.47560921  1.0
  Mo  Mo10  1  0.61403760  0.38765734  0.52439079  1.0
  Mo  Mo11  1  0.61403760  0.11234266  0.02439079  1.0
  Mo  Mo12  1  0.83889911  0.85710244  1.00677861  1.0
  Mo  Mo13  1  0.83889911  0.64289756  0.50677861  1.0
  Mo  Mo14  1  0.16110089  0.35710244  0.49322139  1.0
  Mo  Mo15  1  0.16110089  0.14289756  -0.00677861  1.0
  O  O16  1  0.72061527  0.70785278  0.68205720  1.0
  O  O17  1  0.72061527  0.79214722  0.18205720  1.0
  O  O18  1  0.27938473  0.20785278  0.81794280  1.0
  O  O19  1  0.27938473  0.29214722  0.31794280  1.0
  O  O20  1  0.67482463  0.47694781  0.75645796  1.0
  O  O21  1  0.67482463  0.02305219  0.25645796  1.0
  O  O22  1  0.32517537  0.97694781  0.74354204  1.0
  O  O23  1  0.32517537  0.52305219  0.24354204  1.0
  O  O24  1  0.49519709  0.80633532  0.84279140  1.0
  O  O25  1  0.49519709  0.69366468  0.34279140  1.0
  O  O26  1  0.50480291  0.30633532  0.65720860  1.0
  O  O27  1  0.50480291  0.19366468  0.15720860  1.0
  O  O28  1  0.44718184  0.54289721  0.74753649  1.0
  O  O29  1  0.44718184  0.95710279  0.24753649  1.0
  O  O30  1  0.55281816  0.04289721  0.75246351  1.0
  O  O31  1  0.55281816  0.45710279  0.25246351  1.0
  O  O32  1  0.93700665  0.77391469  0.86649256  1.0
  O  O33  1  0.93700665  0.72608531  0.36649256  1.0
  O  O34  1  0.06299335  0.27391469  0.63350744  1.0
  O  O35  1  0.06299335  0.22608531  0.13350744  1.0
  O  O36  1  0.91463328  0.55096132  0.68842891  1.0
  O  O37  1  0.91463328  0.94903868  0.18842891  1.0
  O  O38  1  0.08536672  0.05096132  0.81157109  1.0
  O  O39  1  0.08536672  0.44903868  0.31157109  1.0
  O  O40  1  0.76936594  0.93404890  0.75339503  1.0
  O  O41  1  0.76936594  0.56595110  0.25339503  1.0
  O  O42  1  0.23063406  0.43404890  0.74660497  1.0
  O  O43  1  0.23063406  0.06595110  0.24660497  1.0
  O  O44  1  0.72436858  0.19317078  0.93078357  1.0
  O  O45  1  0.72436858  0.30682922  0.43078357  1.0
  O  O46  1  0.27563142  0.69317078  0.56921643  1.0
  O  O47  1  0.27563142  0.80682922  0.06921643  1.0
