# generated using pymatgen
data_Ge
_symmetry_space_group_name_H-M   'P 1'
_cell_length_a   10.92933917
_cell_length_b   10.92933917
_cell_length_c   10.92933917
_cell_angle_alpha   60.00000000
_cell_angle_beta   60.00000000
_cell_angle_gamma   60.00000000
_symmetry_Int_Tables_number   1
_chemical_formula_structural   Ge
_chemical_formula_sum   Ge34
_cell_volume   923.13817963
_cell_formula_units_Z   34
loop_
 _symmetry_equiv_pos_site_id
 _symmetry_equiv_pos_as_xyz
  1  'x, y, z'
loop_
 _atom_site_type_symbol
 _atom_site_label
 _atom_site_symmetry_multiplicity
 _atom_site_fract_x
 _atom_site_fract_y
 _atom_site_fract_z
 _atom_site_occupancy
  Ge  Ge0  1  0.50000000  -0.50000000  0.50000000  1.0
  Ge  Ge1  1  0.75000000  0.75000000  0.75000000  1.0
  Ge  Ge2  1  0.47433122  0.84188959  -0.15811041  1.0
  Ge  Ge3  1  0.84188959  0.47433122  0.84188959  1.0
  Ge  Ge4  1  0.84188959  0.84188959  -0.52566878  1.0
  Ge  Ge5  1  0.84188959  0.84188959  0.84188959  1.0
  Ge  Ge6  1  -0.22433122  0.40811041  0.40811041  1.0
  Ge  Ge7  1  0.40811041  -0.22433122  0.40811041  1.0
  Ge  Ge8  1  0.40811041  1.40811041  -0.22433122  1.0
  Ge  Ge9  1  0.40811041  1.40811041  0.40811041  1.0
  Ge  Ge10  1  0.38973630  0.99532638  -0.00467362  1.0
  Ge  Ge11  1  0.99532638  0.38973630  -0.38038907  1.0
  Ge  Ge12  1  0.99532638  0.61961093  -0.61026370  1.0
  Ge  Ge13  1  0.61961093  0.99532638  -0.00467362  1.0
  Ge  Ge14  1  0.99532638  0.99532638  -0.61026370  1.0
  Ge  Ge15  1  -0.61026370  0.61961093  0.99532638  1.0
  Ge  Ge16  1  -0.38038907  0.38973630  0.99532638  1.0
  Ge  Ge17  1  0.99532638  0.99532638  -0.38038907  1.0
  Ge  Ge18  1  0.99532638  0.38973630  0.99532638  1.0
  Ge  Ge19  1  0.61961093  0.99532638  0.38973630  1.0
  Ge  Ge20  1  0.38973630  0.99532638  0.61961093  1.0
  Ge  Ge21  1  0.99532638  0.61961093  0.99532638  1.0
  Ge  Ge22  1  -0.13973630  0.25467362  0.25467362  1.0
  Ge  Ge23  1  0.25467362  -0.13973630  1.63038907  1.0
  Ge  Ge24  1  0.25467362  1.63038907  -0.13973630  1.0
  Ge  Ge25  1  1.63038907  0.25467362  0.25467362  1.0
  Ge  Ge26  1  0.25467362  1.25467362  -0.13973630  1.0
  Ge  Ge27  1  -0.13973630  1.63038907  0.25467362  1.0
  Ge  Ge28  1  1.63038907  -0.13973630  0.25467362  1.0
  Ge  Ge29  1  1.25467362  0.25467362  0.63038907  1.0
  Ge  Ge30  1  0.25467362  -0.13973630  0.25467362  1.0
  Ge  Ge31  1  1.63038907  0.25467362  -0.13973630  1.0
  Ge  Ge32  1  -0.13973630  0.25467362  1.63038907  1.0
  Ge  Ge33  1  0.25467362  1.63038907  0.25467362  1.0
