# generated using pymatgen
data_Mg7(SiO7)2
_symmetry_space_group_name_H-M   'P 1'
_cell_length_a   7.87643647
_cell_length_b   7.87643647
_cell_length_c   9.78664270
_cell_angle_alpha   90.00000000
_cell_angle_beta   90.00000000
_cell_angle_gamma   120.00000000
_symmetry_Int_Tables_number   1
_chemical_formula_structural   Mg7(SiO7)2
_chemical_formula_sum   'Mg14 Si4 O28'
_cell_volume   525.80403353
_cell_formula_units_Z   2
loop_
 _symmetry_equiv_pos_site_id
 _symmetry_equiv_pos_as_xyz
  1  'x, y, z'
loop_
 _atom_site_type_symbol
 _atom_site_label
 _atom_site_symmetry_multiplicity
 _atom_site_fract_x
 _atom_site_fract_y
 _atom_site_fract_z
 _atom_site_occupancy
  Si  Si0  1  0.33333333  0.66666667  0.26106264  1.0
  Si  Si1  1  0.66666667  0.33333333  0.76106264  1.0
  Si  Si2  1  -0.00000000  -0.00000000  -0.00866334  1.0
  Si  Si3  1  -0.00000000  -0.00000000  0.49133666  1.0
  Mg  Mg4  1  0.78332651  0.75789089  0.20396751  1.0
  Mg  Mg5  1  0.75789089  0.97456437  0.70396751  1.0
  Mg  Mg6  1  0.97456437  0.21667349  0.20396751  1.0
  Mg  Mg7  1  0.24210911  0.02543563  0.20396751  1.0
  Mg  Mg8  1  0.21667349  0.24210911  0.70396751  1.0
  Mg  Mg9  1  0.02543563  0.78332651  0.70396751  1.0
  Mg  Mg10  1  0.61520774  0.53610150  0.47544470  1.0
  Mg  Mg11  1  0.53610150  0.92089376  0.97544470  1.0
  Mg  Mg12  1  0.92089376  0.38479226  0.47544470  1.0
  Mg  Mg13  1  0.46389850  0.07910624  0.47544470  1.0
  Mg  Mg14  1  0.38479226  0.46389850  0.97544470  1.0
  Mg  Mg15  1  0.07910624  0.61520774  0.97544470  1.0
  Mg  Mg16  1  0.33333333  0.66666667  0.67826479  1.0
  Mg  Mg17  1  0.66666667  0.33333333  0.17826479  1.0
  O  O18  1  0.02682255  0.82487156  0.06532714  1.0
  O  O19  1  0.82487156  0.79804900  0.56532714  1.0
  O  O20  1  0.79804900  0.97317745  0.06532714  1.0
  O  O21  1  0.17512844  0.20195100  0.06532714  1.0
  O  O22  1  0.97317745  0.17512844  0.56532714  1.0
  O  O23  1  0.20195100  0.02682255  0.56532714  1.0
  O  O24  1  0.33333333  0.66666667  0.09173074  1.0
  O  O25  1  0.66666667  0.33333333  0.59173074  1.0
  O  O26  1  0.00000000  0.00000000  0.32257061  1.0
  O  O27  1  -0.00000000  -0.00000000  0.82257061  1.0
  O  O28  1  0.61235446  0.52676560  0.09078544  1.0
  O  O29  1  0.52676560  0.91441115  0.59078544  1.0
  O  O30  1  0.91441115  0.38764554  0.09078544  1.0
  O  O31  1  0.47323440  0.08558885  0.09078544  1.0
  O  O32  1  0.38764554  0.47323440  0.59078544  1.0
  O  O33  1  0.08558885  0.61235446  0.59078544  1.0
  O  O34  1  0.81037213  0.52958039  0.33552604  1.0
  O  O35  1  0.52958039  0.71920826  0.83552604  1.0
  O  O36  1  0.71920826  0.18962787  0.33552604  1.0
  O  O37  1  0.47041961  0.28079174  0.33552604  1.0
  O  O38  1  0.18962787  0.47041961  0.83552604  1.0
  O  O39  1  0.28079174  0.81037213  0.83552604  1.0
  O  O40  1  0.32732985  0.86326394  0.31706068  1.0
  O  O41  1  0.86326394  0.53593409  0.81706068  1.0
  O  O42  1  0.53593409  0.67267015  0.31706068  1.0
  O  O43  1  0.13673606  0.46406591  0.31706068  1.0
  O  O44  1  0.67267015  0.13673606  0.81706068  1.0
  O  O45  1  0.46406591  0.32732985  0.81706068  1.0
