# generated using pymatgen
data_Pr2Re3Si5
_symmetry_space_group_name_H-M   'P 1'
_cell_length_a   11.05849751
_cell_length_b   11.05849751
_cell_length_c   5.60047540
_cell_angle_alpha   90.00000000
_cell_angle_beta   90.00000000
_cell_angle_gamma   90.00000000
_symmetry_Int_Tables_number   1
_chemical_formula_structural   Pr2Re3Si5
_chemical_formula_sum   'Pr8 Re12 Si20'
_cell_volume   684.88419324
_cell_formula_units_Z   4
loop_
 _symmetry_equiv_pos_site_id
 _symmetry_equiv_pos_as_xyz
  1  'x, y, z'
loop_
 _atom_site_type_symbol
 _atom_site_label
 _atom_site_symmetry_multiplicity
 _atom_site_fract_x
 _atom_site_fract_y
 _atom_site_fract_z
 _atom_site_occupancy
  Pr  Pr0  1  0.23625471  0.92436882  0.50000000  1.0
  Pr  Pr1  1  0.73625471  0.57563118  0.00000000  1.0
  Pr  Pr2  1  0.07563118  0.23625471  0.50000000  1.0
  Pr  Pr3  1  0.57563118  0.26374529  0.00000000  1.0
  Pr  Pr4  1  0.76374529  0.07563118  0.50000000  1.0
  Pr  Pr5  1  0.26374529  0.42436882  0.00000000  1.0
  Pr  Pr6  1  0.92436882  0.76374529  0.50000000  1.0
  Pr  Pr7  1  0.42436882  0.73625471  0.00000000  1.0
  Re  Re8  1  0.35403290  0.62267140  0.50000000  1.0
  Re  Re9  1  0.85403290  0.87732860  0.00000000  1.0
  Re  Re10  1  0.37732860  0.35403290  0.50000000  1.0
  Re  Re11  1  0.87732860  0.14596710  0.00000000  1.0
  Re  Re12  1  0.64596710  0.37732860  0.50000000  1.0
  Re  Re13  1  0.14596710  0.12267140  0.00000000  1.0
  Re  Re14  1  0.62267140  0.64596710  0.50000000  1.0
  Re  Re15  1  0.12267140  0.85403290  0.00000000  1.0
  Re  Re16  1  0.50000000  0.00000000  0.25000000  1.0
  Re  Re17  1  0.50000000  0.00000000  0.75000000  1.0
  Re  Re18  1  0.00000000  0.50000000  0.75000000  1.0
  Re  Re19  1  0.00000000  0.50000000  0.25000000  1.0
  Si  Si20  1  0.47382432  0.81479601  0.50000000  1.0
  Si  Si21  1  0.97382432  0.68520399  0.00000000  1.0
  Si  Si22  1  0.18520399  0.47382432  0.50000000  1.0
  Si  Si23  1  0.68520399  0.02617568  0.00000000  1.0
  Si  Si24  1  0.52617568  0.18520399  0.50000000  1.0
  Si  Si25  1  0.02617568  0.31479601  0.00000000  1.0
  Si  Si26  1  0.81479601  0.52617568  0.50000000  1.0
  Si  Si27  1  0.31479601  0.97382432  0.00000000  1.0
  Si  Si28  1  0.32799743  0.17200257  0.25000000  1.0
  Si  Si29  1  0.32799743  0.17200257  0.75000000  1.0
  Si  Si30  1  0.82799743  0.32799743  0.75000000  1.0
  Si  Si31  1  0.82799743  0.32799743  0.25000000  1.0
  Si  Si32  1  0.67200257  0.82799743  0.25000000  1.0
  Si  Si33  1  0.67200257  0.82799743  0.75000000  1.0
  Si  Si34  1  0.17200257  0.67200257  0.75000000  1.0
  Si  Si35  1  0.17200257  0.67200257  0.25000000  1.0
  Si  Si36  1  0.50000000  0.50000000  0.24937177  1.0
  Si  Si37  1  0.50000000  0.50000000  0.75062823  1.0
  Si  Si38  1  0.00000000  0.00000000  0.74937177  1.0
  Si  Si39  1  0.00000000  0.00000000  0.25062823  1.0
