# generated using pymatgen
data_Gd(Zn10Co)2
_symmetry_space_group_name_H-M   'P 1'
_cell_length_a   9.89688384
_cell_length_b   9.89688384
_cell_length_c   9.89688384
_cell_angle_alpha   60.00000000
_cell_angle_beta   60.00000000
_cell_angle_gamma   60.00000000
_symmetry_Int_Tables_number   1
_chemical_formula_structural   Gd(Zn10Co)2
_chemical_formula_sum   'Gd2 Zn40 Co4'
_cell_volume   685.45732467
_cell_formula_units_Z   2
loop_
 _symmetry_equiv_pos_site_id
 _symmetry_equiv_pos_as_xyz
  1  'x, y, z'
loop_
 _atom_site_type_symbol
 _atom_site_label
 _atom_site_symmetry_multiplicity
 _atom_site_fract_x
 _atom_site_fract_y
 _atom_site_fract_z
 _atom_site_occupancy
  Gd  Gd0  1  0.50000000  -0.50000000  0.50000000  1.0
  Gd  Gd1  1  0.75000000  0.75000000  0.75000000  1.0
  Zn  Zn2  1  0.56896607  1.29893815  0.29893815  1.0
  Zn  Zn3  1  0.29893815  1.56896607  -0.16684236  1.0
  Zn  Zn4  1  0.29893815  -0.16684236  0.56896607  1.0
  Zn  Zn5  1  -0.16684236  0.29893815  0.29893815  1.0
  Zn  Zn6  1  0.29893815  1.29893815  0.56896607  1.0
  Zn  Zn7  1  0.56896607  0.83315764  0.29893815  1.0
  Zn  Zn8  1  -0.16684236  1.56896607  0.29893815  1.0
  Zn  Zn9  1  0.29893815  1.29893815  -0.16684236  1.0
  Zn  Zn10  1  0.29893815  1.56896607  0.29893815  1.0
  Zn  Zn11  1  -0.16684236  0.29893815  0.56896607  1.0
  Zn  Zn12  1  0.56896607  1.29893815  -0.16684236  1.0
  Zn  Zn13  1  0.29893815  -0.16684236  0.29893815  1.0
  Zn  Zn14  1  0.68103393  0.95106185  0.95106185  1.0
  Zn  Zn15  1  0.95106185  0.68103393  -0.58315764  1.0
  Zn  Zn16  1  0.95106185  0.41684236  0.68103393  1.0
  Zn  Zn17  1  0.41684236  0.95106185  -0.04893815  1.0
  Zn  Zn18  1  0.95106185  0.95106185  0.68103393  1.0
  Zn  Zn19  1  0.68103393  -0.58315764  0.95106185  1.0
  Zn  Zn20  1  -0.58315764  0.68103393  0.95106185  1.0
  Zn  Zn21  1  0.95106185  0.95106185  -0.58315764  1.0
  Zn  Zn22  1  0.95106185  0.68103393  0.95106185  1.0
  Zn  Zn23  1  0.41684236  0.95106185  -0.31896607  1.0
  Zn  Zn24  1  0.68103393  0.95106185  -0.58315764  1.0
  Zn  Zn25  1  0.95106185  0.41684236  0.95106185  1.0
  Zn  Zn26  1  0.86360139  0.86360139  -0.86360139  1.0
  Zn  Zn27  1  0.13639861  1.13639861  -0.13639861  1.0
  Zn  Zn28  1  0.86360139  -0.86360139  0.86360139  1.0
  Zn  Zn29  1  0.13639861  -0.13639861  0.13639861  1.0
  Zn  Zn30  1  -0.86360139  0.86360139  0.86360139  1.0
  Zn  Zn31  1  -0.13639861  0.13639861  0.13639861  1.0
  Zn  Zn32  1  0.38639861  1.38639861  0.11360139  1.0
  Zn  Zn33  1  0.11360139  0.11360139  0.38639861  1.0
  Zn  Zn34  1  0.38639861  1.11360139  0.38639861  1.0
  Zn  Zn35  1  0.11360139  1.38639861  0.11360139  1.0
  Zn  Zn36  1  0.11360139  1.38639861  0.38639861  1.0
  Zn  Zn37  1  0.38639861  1.11360139  0.11360139  1.0
  Zn  Zn38  1  1.12500000  0.62500000  0.62500000  1.0
  Zn  Zn39  1  0.62500000  1.12500000  -0.37500000  1.0
  Zn  Zn40  1  -0.37500000  0.62500000  1.12500000  1.0
  Zn  Zn41  1  -0.37500000  0.62500000  0.62500000  1.0
  Co  Co42  1  0.62500000  1.12500000  0.12500000  1.0
  Co  Co43  1  0.12500000  1.62500000  0.12500000  1.0
  Co  Co44  1  0.12500000  0.12500000  1.62500000  1.0
  Co  Co45  1  0.12500000  0.12500000  0.12500000  1.0
