# generated using pymatgen
data_Rb2TeSe4
_symmetry_space_group_name_H-M   'P 1'
_cell_length_a   7.13330740
_cell_length_b   7.13330740
_cell_length_c   5.42026269
_cell_angle_alpha   70.23195248
_cell_angle_beta   109.76804752
_cell_angle_gamma   103.39123646
_symmetry_Int_Tables_number   1
_chemical_formula_structural   Rb2TeSe4
_chemical_formula_sum   'Rb2 Te1 Se4'
_cell_volume   242.10750370
_cell_formula_units_Z   1
loop_
 _symmetry_equiv_pos_site_id
 _symmetry_equiv_pos_as_xyz
  1  'x, y, z'
loop_
 _atom_site_type_symbol
 _atom_site_label
 _atom_site_symmetry_multiplicity
 _atom_site_fract_x
 _atom_site_fract_y
 _atom_site_fract_z
 _atom_site_occupancy
  Rb  Rb0  1  0.68124819  0.31875181  0.34107834  1.0
  Rb  Rb1  1  1.31875181  -0.31875181  0.65892166  1.0
  Te  Te2  1  0.00000000  0.00000000  0.00000000  1.0
  Se  Se3  1  1.15322064  -0.68777303  0.26473863  1.0
  Se  Se4  1  1.68777303  -0.15322064  0.26473863  1.0
  Se  Se5  1  0.84677936  0.68777303  0.73526137  1.0
  Se  Se6  1  0.31222697  0.15322064  0.73526137  1.0
