# generated using pymatgen
data_MgCu2AsO7
_symmetry_space_group_name_H-M   'P 1'
_cell_length_a   5.98221033
_cell_length_b   5.33962366
_cell_length_c   5.18281082
_cell_angle_alpha   97.09023852
_cell_angle_beta   115.56528922
_cell_angle_gamma   86.23824867
_symmetry_Int_Tables_number   1
_chemical_formula_structural   MgCu2AsO7
_chemical_formula_sum   'Mg1 Cu2 As1 O7'
_cell_volume   148.18847878
_cell_formula_units_Z   1
loop_
 _symmetry_equiv_pos_site_id
 _symmetry_equiv_pos_as_xyz
  1  'x, y, z'
loop_
 _atom_site_type_symbol
 _atom_site_label
 _atom_site_symmetry_multiplicity
 _atom_site_fract_x
 _atom_site_fract_y
 _atom_site_fract_z
 _atom_site_occupancy
  As  As0  1  -0.01463424  -0.01572292  -0.01158248  1.0
  O  O1  1  0.70841035  0.84560776  -0.06430147  1.0
  O  O2  1  0.17462038  0.78389565  -0.11169925  1.0
  O  O3  1  0.47599684  0.27500222  -0.19104501  1.0
  O  O4  1  0.93454322  0.25270184  -0.19716584  1.0
  O  O5  1  0.34499259  0.62228222  -0.52287896  1.0
  O  O6  1  0.13008002  0.09443931  -0.64332462  1.0
  O  O7  1  0.77767965  0.58991081  -0.53696275  1.0
  Mg  Mg8  1  0.13190696  0.44465497  -0.37130537  1.0
  Cu  Cu9  1  0.41639869  0.94887165  -0.35915748  1.0
  Cu  Cu10  1  0.63100552  0.43535650  -0.36057678  1.0
