# generated using pymatgen
data_MnH2(SO4)2
_symmetry_space_group_name_H-M   'P 1'
_cell_length_a   5.13311800
_cell_length_b   8.40051563
_cell_length_c   8.62027869
_cell_angle_alpha   90.00000000
_cell_angle_beta   117.05173615
_cell_angle_gamma   90.00000000
_symmetry_Int_Tables_number   1
_chemical_formula_structural   MnH2(SO4)2
_chemical_formula_sum   'Mn2 H4 S4 O16'
_cell_volume   331.04676452
_cell_formula_units_Z   2
loop_
 _symmetry_equiv_pos_site_id
 _symmetry_equiv_pos_as_xyz
  1  'x, y, z'
loop_
 _atom_site_type_symbol
 _atom_site_label
 _atom_site_symmetry_multiplicity
 _atom_site_fract_x
 _atom_site_fract_y
 _atom_site_fract_z
 _atom_site_occupancy
  Mn  Mn0  1  0.00000000  0.50000000  0.50000000  1.0
  Mn  Mn1  1  0.00000000  0.00000000  0.00000000  1.0
  H  H2  1  0.56190093  0.98219341  0.33372793  1.0
  H  H3  1  0.56190093  0.51780659  0.83372793  1.0
  H  H4  1  0.43809907  0.48219341  0.16627207  1.0
  H  H5  1  0.43809907  0.01780659  0.66627207  1.0
  S  S6  1  0.66210614  0.18054946  0.21576299  1.0
  S  S7  1  0.66210614  0.31945054  0.71576299  1.0
  S  S8  1  0.33789386  0.68054946  0.28423701  1.0
  S  S9  1  0.33789386  0.81945054  0.78423701  1.0
  O  O10  1  0.90667565  0.13097725  0.18260435  1.0
  O  O11  1  0.90667565  0.36902275  0.68260435  1.0
  O  O12  1  0.09332435  0.63097725  0.31739565  1.0
  O  O13  1  0.09332435  0.86902275  0.81739565  1.0
  O  O14  1  0.69711200  0.34861628  0.27644552  1.0
  O  O15  1  0.69711200  0.15138372  0.77644552  1.0
  O  O16  1  0.30288800  0.84861628  0.22355448  1.0
  O  O17  1  0.30288800  0.65138372  0.72355448  1.0
  O  O18  1  0.67908962  0.08327383  0.37612027  1.0
  O  O19  1  0.67908962  0.41672617  0.87612027  1.0
  O  O20  1  0.32091038  0.58327383  0.12387973  1.0
  O  O21  1  0.32091038  0.91672617  0.62387973  1.0
  O  O22  1  0.37305026  0.15355708  0.06629401  1.0
  O  O23  1  0.37305026  0.34644292  0.56629401  1.0
  O  O24  1  0.62694974  0.65355708  0.43370599  1.0
  O  O25  1  0.62694974  0.84644292  0.93370599  1.0
