# generated using pymatgen
data_Na2SnO6
_symmetry_space_group_name_H-M   'P 1'
_cell_length_a   5.38720299
_cell_length_b   5.38720299
_cell_length_c   5.38720299
_cell_angle_alpha   73.98344525
_cell_angle_beta   73.98344525
_cell_angle_gamma   73.98344525
_symmetry_Int_Tables_number   1
_chemical_formula_structural   Na2SnO6
_chemical_formula_sum   'Na2 Sn1 O6'
_cell_volume   141.02678804
_cell_formula_units_Z   1
loop_
 _symmetry_equiv_pos_site_id
 _symmetry_equiv_pos_as_xyz
  1  'x, y, z'
loop_
 _atom_site_type_symbol
 _atom_site_label
 _atom_site_symmetry_multiplicity
 _atom_site_fract_x
 _atom_site_fract_y
 _atom_site_fract_z
 _atom_site_occupancy
  Na  Na0  1  0.66873471  0.66873471  -0.33126529  1.0
  Na  Na1  1  1.33126529  1.33126529  0.33126529  1.0
  Sn  Sn2  1  0.00000000  0.00000000  0.00000000  1.0
  O  O3  1  0.92478473  -0.36033653  0.21940958  1.0
  O  O4  1  0.36033653  0.78059042  -0.92478473  1.0
  O  O5  1  0.78059042  0.07521527  -0.63966347  1.0
  O  O6  1  0.07521527  0.36033653  -0.21940958  1.0
  O  O7  1  0.63966347  0.21940958  -0.07521527  1.0
  O  O8  1  1.21940958  -0.07521527  -0.36033653  1.0
