# generated using pymatgen
data_ZnS
_symmetry_space_group_name_H-M   'P 1'
_cell_length_a   3.82626297
_cell_length_b   3.82626298
_cell_length_c   39.03580099
_cell_angle_alpha   90.00000000
_cell_angle_beta   90.00000000
_cell_angle_gamma   120.00000000
_symmetry_Int_Tables_number   1
_chemical_formula_structural   ZnS
_chemical_formula_sum   'Zn12 S12'
_cell_volume   494.92951952
_cell_formula_units_Z   12
loop_
 _symmetry_equiv_pos_site_id
 _symmetry_equiv_pos_as_xyz
  1  'x, y, z'
loop_
 _atom_site_type_symbol
 _atom_site_label
 _atom_site_symmetry_multiplicity
 _atom_site_fract_x
 _atom_site_fract_y
 _atom_site_fract_z
 _atom_site_occupancy
  Zn  Zn0  1  0.00000000  0.00000000  0.00748820  1.0
  Zn  Zn1  1  0.33333333  0.66666667  0.08871931  1.0
  Zn  Zn2  1  0.66666667  0.33333333  0.16967681  1.0
  Zn  Zn3  1  -0.00000000  -0.00000000  0.25067197  1.0
  Zn  Zn4  1  0.66666667  0.33333333  0.33166895  1.0
  Zn  Zn5  1  0.33333333  0.66666667  0.41251251  1.0
  Zn  Zn6  1  0.00000000  0.00000000  0.49335193  1.0
  Zn  Zn7  1  0.66666667  0.33333333  0.57429908  1.0
  Zn  Zn8  1  -0.00000000  -0.00000000  0.65527153  1.0
  Zn  Zn9  1  0.33333333  0.66666667  0.73614378  1.0
  Zn  Zn10  1  0.00000000  0.00000000  0.86965416  1.0
  Zn  Zn11  1  0.66666667  0.33333333  0.82055616  1.0
  S  S12  1  0.00000000  0.00000000  0.06874575  1.0
  S  S13  1  0.33333333  0.66666667  0.14943150  1.0
  S  S14  1  0.66666667  0.33333333  0.23026441  1.0
  S  S15  1  0.00000000  0.00000000  0.31134364  1.0
  S  S16  1  0.66666667  0.33333333  0.39220719  1.0
  S  S17  1  0.33333333  0.66666667  0.47305958  1.0
  S  S18  1  -0.00000000  -0.00000000  0.55389294  1.0
  S  S19  1  0.66666667  0.33333333  0.63494413  1.0
  S  S20  1  0.00000000  0.00000000  0.71578700  1.0
  S  S21  1  0.33333333  0.66666667  0.79661438  1.0
  S  S22  1  0.00000000  0.00000000  0.92543763  1.0
  S  S23  1  0.66666667  0.33333333  0.98825748  1.0
