# generated using pymatgen
data_BaTe3O7
_symmetry_space_group_name_H-M   'P 1'
_cell_length_a   10.68957042
_cell_length_b   5.47902460
_cell_length_c   15.23600236
_cell_angle_alpha   90.00000000
_cell_angle_beta   119.04122558
_cell_angle_gamma   90.00000000
_symmetry_Int_Tables_number   1
_chemical_formula_structural   BaTe3O7
_chemical_formula_sum   'Ba4 Te12 O28'
_cell_volume   780.15416804
_cell_formula_units_Z   4
loop_
 _symmetry_equiv_pos_site_id
 _symmetry_equiv_pos_as_xyz
  1  'x, y, z'
loop_
 _atom_site_type_symbol
 _atom_site_label
 _atom_site_symmetry_multiplicity
 _atom_site_fract_x
 _atom_site_fract_y
 _atom_site_fract_z
 _atom_site_occupancy
  Ba  Ba0  1  0.93895899  0.27117165  0.11115654  1.0
  Ba  Ba1  1  0.93895899  0.22882835  0.61115654  1.0
  Ba  Ba2  1  0.06104101  0.77117165  0.38884346  1.0
  Ba  Ba3  1  0.06104101  0.72882835  0.88884346  1.0
  Te  Te4  1  0.76576021  0.28461501  0.29855780  1.0
  Te  Te5  1  0.76576021  0.21538499  0.79855780  1.0
  Te  Te6  1  0.23423979  0.78461501  0.20144220  1.0
  Te  Te7  1  0.23423979  0.71538499  0.70144220  1.0
  Te  Te8  1  0.68328001  0.77629255  0.39696301  1.0
  Te  Te9  1  0.68328001  0.72370745  0.89696301  1.0
  Te  Te10  1  0.31671999  0.27629255  0.10303699  1.0
  Te  Te11  1  0.31671999  0.22370745  0.60303699  1.0
  Te  Te12  1  0.42405263  0.19759166  0.40817128  1.0
  Te  Te13  1  0.42405263  0.30240834  0.90817128  1.0
  Te  Te14  1  0.57594737  0.69759166  0.09182872  1.0
  Te  Te15  1  0.57594737  0.80240834  0.59182872  1.0
  O  O16  1  0.93829289  0.23666411  0.29125268  1.0
  O  O17  1  0.93829289  0.26333589  0.79125268  1.0
  O  O18  1  0.06170711  0.73666411  0.20874732  1.0
  O  O19  1  0.06170711  0.76333589  0.70874732  1.0
  O  O20  1  0.84381995  0.98368754  0.41137080  1.0
  O  O21  1  0.84381995  0.51631246  0.91137080  1.0
  O  O22  1  0.15618005  0.48368754  0.08862920  1.0
  O  O23  1  0.15618005  0.01631246  0.58862920  1.0
  O  O24  1  0.83863776  0.48125741  0.42491509  1.0
  O  O25  1  0.83863776  0.01874259  0.92491509  1.0
  O  O26  1  0.16136224  0.98125741  0.07508491  1.0
  O  O27  1  0.16136224  0.51874259  0.57508491  1.0
  O  O28  1  0.58961758  0.34242382  0.06869201  1.0
  O  O29  1  0.58961758  0.15757618  0.56869201  1.0
  O  O30  1  0.41038242  0.84242382  0.43130799  1.0
  O  O31  1  0.41038242  0.65757618  0.93130799  1.0
  O  O32  1  0.57821444  0.11876579  0.36899523  1.0
  O  O33  1  0.57821444  0.38123421  0.86899523  1.0
  O  O34  1  0.42178556  0.61876579  0.13100477  1.0
  O  O35  1  0.42178556  0.88123421  0.63100477  1.0
  O  O36  1  0.26009858  0.14162891  0.26340675  1.0
  O  O37  1  0.26009858  0.35837109  0.76340675  1.0
  O  O38  1  0.73990142  0.64162891  0.23659325  1.0
  O  O39  1  0.73990142  0.85837109  0.73659325  1.0
  O  O40  1  0.25407265  0.23650536  0.45929729  1.0
  O  O41  1  0.25407265  0.26349464  0.95929729  1.0
  O  O42  1  0.74592735  0.73650536  0.04070271  1.0
  O  O43  1  0.74592735  0.76349464  0.54070271  1.0
