# generated using pymatgen
data_IrC2
_symmetry_space_group_name_H-M   'P 1'
_cell_length_a   4.15052076
_cell_length_b   4.15052076
_cell_length_c   4.15052076
_cell_angle_alpha   113.53082509
_cell_angle_beta   113.53082509
_cell_angle_gamma   101.62557910
_symmetry_Int_Tables_number   1
_chemical_formula_structural   IrC2
_chemical_formula_sum   'Ir2 C4'
_cell_volume   54.28194135
_cell_formula_units_Z   2
loop_
 _symmetry_equiv_pos_site_id
 _symmetry_equiv_pos_as_xyz
  1  'x, y, z'
loop_
 _atom_site_type_symbol
 _atom_site_label
 _atom_site_symmetry_multiplicity
 _atom_site_fract_x
 _atom_site_fract_y
 _atom_site_fract_z
 _atom_site_occupancy
  Ir  Ir0  1  0.75000000  0.75000000  -0.00000000  1.0
  Ir  Ir1  1  0.25000000  0.25000000  -0.00000000  1.0
  C  C2  1  1.11296911  0.61296911  0.72593821  1.0
  C  C3  1  0.88703089  0.38703089  1.27406179  1.0
  C  C4  1  0.61296911  0.88703089  0.50000000  1.0
  C  C5  1  0.38703089  0.11296911  0.50000000  1.0
