# generated using pymatgen
data_Rb2Cu2Sb2S5
_symmetry_space_group_name_H-M   'P 1'
_cell_length_a   16.80623863
_cell_length_b   10.51909215
_cell_length_c   6.69050858
_cell_angle_alpha   90.00000000
_cell_angle_beta   99.95626554
_cell_angle_gamma   90.00000000
_symmetry_Int_Tables_number   1
_chemical_formula_structural   Rb2Cu2Sb2S5
_chemical_formula_sum   'Rb8 Cu8 Sb8 S20'
_cell_volume   1164.97793194
_cell_formula_units_Z   4
loop_
 _symmetry_equiv_pos_site_id
 _symmetry_equiv_pos_as_xyz
  1  'x, y, z'
loop_
 _atom_site_type_symbol
 _atom_site_label
 _atom_site_symmetry_multiplicity
 _atom_site_fract_x
 _atom_site_fract_y
 _atom_site_fract_z
 _atom_site_occupancy
  Rb  Rb0  1  0.96420885  0.13616086  0.25951470  1.0
  Rb  Rb1  1  0.96420885  0.36383914  0.75951470  1.0
  Rb  Rb2  1  0.03579115  0.63616086  0.24048530  1.0
  Rb  Rb3  1  0.03579115  0.86383914  0.74048530  1.0
  Rb  Rb4  1  0.56853692  0.11645933  0.26375032  1.0
  Rb  Rb5  1  0.56853692  0.38354067  0.76375032  1.0
  Rb  Rb6  1  0.43146308  0.61645933  0.23624968  1.0
  Rb  Rb7  1  0.43146308  0.88354067  0.73624968  1.0
  Cu  Cu8  1  0.85139747  0.84751968  0.98012850  1.0
  Cu  Cu9  1  0.85139747  0.65248032  0.48012850  1.0
  Cu  Cu10  1  0.14860253  0.34751968  0.51987150  1.0
  Cu  Cu11  1  0.14860253  0.15248032  0.01987150  1.0
  Cu  Cu12  1  0.75428232  0.36128784  0.42266765  1.0
  Cu  Cu13  1  0.75428232  0.13871216  0.92266765  1.0
  Cu  Cu14  1  0.24571768  0.86128784  0.07733235  1.0
  Cu  Cu15  1  0.24571768  0.63871216  0.57733235  1.0
  Sb  Sb16  1  0.78208191  0.96718819  0.48792634  1.0
  Sb  Sb17  1  0.78208191  0.53281181  0.98792634  1.0
  Sb  Sb18  1  0.21791809  0.46718819  0.01207366  1.0
  Sb  Sb19  1  0.21791809  0.03281181  0.51207366  1.0
  Sb  Sb20  1  0.31684722  0.14991536  0.11956391  1.0
  Sb  Sb21  1  0.31684722  0.35008464  0.61956391  1.0
  Sb  Sb22  1  0.68315278  0.64991536  0.38043609  1.0
  Sb  Sb23  1  0.68315278  0.85008464  0.88043609  1.0
  S  S24  1  0.88279574  0.84120802  0.32723335  1.0
  S  S25  1  0.88279574  0.65879198  0.82723335  1.0
  S  S26  1  0.11720426  0.34120802  0.17276665  1.0
  S  S27  1  0.11720426  0.15879198  0.67276665  1.0
  S  S28  1  0.86671396  0.46584290  0.31361333  1.0
  S  S29  1  0.86671396  0.03415710  0.81361333  1.0
  S  S30  1  0.13328604  0.96584290  0.18638667  1.0
  S  S31  1  0.13328604  0.53415710  0.68638667  1.0
  S  S32  1  0.77051198  0.16053608  0.27954522  1.0
  S  S33  1  0.77051198  0.33946392  0.77954522  1.0
  S  S34  1  0.22948802  0.66053608  0.22045478  1.0
  S  S35  1  0.22948802  0.83946392  0.72045478  1.0
  S  S36  1  0.62581907  0.44376073  0.28261550  1.0
  S  S37  1  0.62581907  0.05623927  0.78261550  1.0
  S  S38  1  0.37418093  0.94376073  0.21738450  1.0
  S  S39  1  0.37418093  0.55623927  0.71738450  1.0
  S  S40  1  0.40257699  0.30802902  0.35587692  1.0
  S  S41  1  0.40257699  0.19197098  0.85587692  1.0
  S  S42  1  0.59742301  0.80802902  0.14412308  1.0
  S  S43  1  0.59742301  0.69197098  0.64412308  1.0
