# generated using pymatgen
data_YbCl3
_symmetry_space_group_name_H-M   'P 1'
_cell_length_a   7.22078416
_cell_length_b   7.22078416
_cell_length_c   7.22078416
_cell_angle_alpha   54.71918307
_cell_angle_beta   54.71918307
_cell_angle_gamma   54.71918307
_symmetry_Int_Tables_number   1
_chemical_formula_structural   YbCl3
_chemical_formula_sum   'Yb2 Cl6'
_cell_volume   233.47142428
_cell_formula_units_Z   2
loop_
 _symmetry_equiv_pos_site_id
 _symmetry_equiv_pos_as_xyz
  1  'x, y, z'
loop_
 _atom_site_type_symbol
 _atom_site_label
 _atom_site_symmetry_multiplicity
 _atom_site_fract_x
 _atom_site_fract_y
 _atom_site_fract_z
 _atom_site_occupancy
  Yb  Yb0  1  1.00000000  0.00000000  -0.00000000  1.0
  Yb  Yb1  1  0.50000000  0.50000000  0.50000000  1.0
  Cl  Cl2  1  1.39794325  -0.25000000  0.10205675  1.0
  Cl  Cl3  1  0.89794325  -0.39794325  0.25000000  1.0
  Cl  Cl4  1  0.25000000  0.89794325  -0.39794325  1.0
  Cl  Cl5  1  0.75000000  0.10205675  0.39794325  1.0
  Cl  Cl6  1  0.60205675  0.25000000  -0.10205675  1.0
  Cl  Cl7  1  1.10205675  0.39794325  -0.25000000  1.0
