# generated using pymatgen
data_RbNa2Ge17
_symmetry_space_group_name_H-M   'P 1'
_cell_length_a   11.17485539
_cell_length_b   11.17485539
_cell_length_c   11.17485539
_cell_angle_alpha   60.00000000
_cell_angle_beta   60.00000000
_cell_angle_gamma   60.00000000
_symmetry_Int_Tables_number   1
_chemical_formula_structural   RbNa2Ge17
_chemical_formula_sum   'Rb2 Na4 Ge34'
_cell_volume   986.75818625
_cell_formula_units_Z   2
loop_
 _symmetry_equiv_pos_site_id
 _symmetry_equiv_pos_as_xyz
  1  'x, y, z'
loop_
 _atom_site_type_symbol
 _atom_site_label
 _atom_site_symmetry_multiplicity
 _atom_site_fract_x
 _atom_site_fract_y
 _atom_site_fract_z
 _atom_site_occupancy
  Rb  Rb0  1  0.25000000  0.25000000  0.25000000  1.0
  Rb  Rb1  1  -0.00000000  1.00000000  0.00000000  1.0
  Na  Na2  1  1.12500000  -0.37500000  0.62500000  1.0
  Na  Na3  1  0.62500000  1.12500000  -0.37500000  1.0
  Na  Na4  1  0.62500000  0.62500000  0.12500000  1.0
  Na  Na5  1  0.62500000  0.62500000  -0.37500000  1.0
  Ge  Ge6  1  1.63057548  0.25480368  0.25480368  1.0
  Ge  Ge7  1  0.25480368  0.63057548  -0.14018285  1.0
  Ge  Ge8  1  1.25480368  -0.14018285  0.63057548  1.0
  Ge  Ge9  1  -0.14018285  0.25480368  0.25480368  1.0
  Ge  Ge10  1  1.25480368  0.25480368  0.63057548  1.0
  Ge  Ge11  1  0.63057548  -0.14018285  1.25480368  1.0
  Ge  Ge12  1  -0.14018285  0.63057548  0.25480368  1.0
  Ge  Ge13  1  0.25480368  1.25480368  -0.14018285  1.0
  Ge  Ge14  1  0.25480368  0.63057548  0.25480368  1.0
  Ge  Ge15  1  0.85981715  0.25480368  0.63057548  1.0
  Ge  Ge16  1  0.63057548  0.25480368  0.85981715  1.0
  Ge  Ge17  1  0.25480368  0.85981715  0.25480368  1.0
  Ge  Ge18  1  0.61942452  0.99519632  -0.00480368  1.0
  Ge  Ge19  1  -0.00480368  0.61942452  0.39018285  1.0
  Ge  Ge20  1  -0.00480368  0.39018285  0.61942452  1.0
  Ge  Ge21  1  0.39018285  0.99519632  -0.00480368  1.0
  Ge  Ge22  1  0.99519632  0.99519632  -0.38057548  1.0
  Ge  Ge23  1  0.61942452  0.39018285  -0.00480368  1.0
  Ge  Ge24  1  0.39018285  0.61942452  -0.00480368  1.0
  Ge  Ge25  1  0.99519632  0.99519632  -0.60981715  1.0
  Ge  Ge26  1  0.99519632  -0.38057548  0.99519632  1.0
  Ge  Ge27  1  0.39018285  -0.00480368  0.61942452  1.0
  Ge  Ge28  1  0.61942452  -0.00480368  0.39018285  1.0
  Ge  Ge29  1  0.99519632  -0.60981715  0.99519632  1.0
  Ge  Ge30  1  -0.22232542  0.40744181  0.40744181  1.0
  Ge  Ge31  1  0.40744181  0.77767458  0.40744181  1.0
  Ge  Ge32  1  0.40744181  1.40744181  -0.22232542  1.0
  Ge  Ge33  1  0.40744181  0.40744181  0.40744181  1.0
  Ge  Ge34  1  0.47232542  0.84255819  -0.15744181  1.0
  Ge  Ge35  1  0.84255819  -0.52767458  0.84255819  1.0
  Ge  Ge36  1  0.84255819  0.84255819  -0.52767458  1.0
  Ge  Ge37  1  0.84255819  -0.15744181  0.84255819  1.0
  Ge  Ge38  1  0.50000000  0.50000000  0.50000000  1.0
  Ge  Ge39  1  0.75000000  -0.25000000  0.75000000  1.0
