# generated using pymatgen
data_PrCuAs2
_symmetry_space_group_name_H-M   'P 1'
_cell_length_a   3.98202216
_cell_length_b   3.98202216
_cell_length_c   10.08019735
_cell_angle_alpha   90.00000000
_cell_angle_beta   90.00000000
_cell_angle_gamma   90.00000000
_symmetry_Int_Tables_number   1
_chemical_formula_structural   PrCuAs2
_chemical_formula_sum   'Pr2 Cu2 As4'
_cell_volume   159.83665385
_cell_formula_units_Z   2
loop_
 _symmetry_equiv_pos_site_id
 _symmetry_equiv_pos_as_xyz
  1  'x, y, z'
loop_
 _atom_site_type_symbol
 _atom_site_label
 _atom_site_symmetry_multiplicity
 _atom_site_fract_x
 _atom_site_fract_y
 _atom_site_fract_z
 _atom_site_occupancy
  Pr  Pr0  1  0.50000000  0.00000000  0.23780959  1.0
  Pr  Pr1  1  0.00000000  0.50000000  0.76219041  1.0
  Cu  Cu2  1  0.00000000  0.00000000  0.50000000  1.0
  Cu  Cu3  1  0.50000000  0.50000000  0.50000000  1.0
  As  As4  1  0.50000000  0.00000000  0.65285822  1.0
  As  As5  1  0.00000000  0.50000000  0.34714178  1.0
  As  As6  1  0.00000000  0.00000000  0.00000000  1.0
  As  As7  1  0.50000000  0.50000000  0.00000000  1.0
