# generated using pymatgen
data_Ca2SiSe4
_symmetry_space_group_name_H-M   'P 1'
_cell_length_a   14.30001761
_cell_length_b   8.62978395
_cell_length_c   6.57669844
_cell_angle_alpha   90.00000000
_cell_angle_beta   90.00000000
_cell_angle_gamma   90.00000000
_symmetry_Int_Tables_number   1
_chemical_formula_structural   Ca2SiSe4
_chemical_formula_sum   'Ca8 Si4 Se16'
_cell_volume   811.60445744
_cell_formula_units_Z   4
loop_
 _symmetry_equiv_pos_site_id
 _symmetry_equiv_pos_as_xyz
  1  'x, y, z'
loop_
 _atom_site_type_symbol
 _atom_site_label
 _atom_site_symmetry_multiplicity
 _atom_site_fract_x
 _atom_site_fract_y
 _atom_site_fract_z
 _atom_site_occupancy
  Ca  Ca0  1  0.00000000  0.50000000  0.00000000  1.0
  Ca  Ca1  1  0.50000000  0.00000000  0.50000000  1.0
  Ca  Ca2  1  0.00000000  0.00000000  0.00000000  1.0
  Ca  Ca3  1  0.50000000  0.50000000  0.50000000  1.0
  Ca  Ca4  1  0.22768602  0.75000000  0.48093203  1.0
  Ca  Ca5  1  0.72768602  0.75000000  0.01906797  1.0
  Ca  Ca6  1  0.77231398  0.25000000  0.51906797  1.0
  Ca  Ca7  1  0.27231398  0.25000000  0.98093203  1.0
  Si  Si8  1  0.40720509  0.75000000  0.90210775  1.0
  Si  Si9  1  0.90720509  0.75000000  0.59789225  1.0
  Si  Si10  1  0.59279491  0.25000000  0.09789225  1.0
  Si  Si11  1  0.09279491  0.25000000  0.40210775  1.0
  Se  Se12  1  0.40714879  0.75000000  0.24907610  1.0
  Se  Se13  1  0.90714879  0.75000000  0.25092390  1.0
  Se  Se14  1  0.59285121  0.25000000  0.75092390  1.0
  Se  Se15  1  0.09285121  0.25000000  0.74907610  1.0
  Se  Se16  1  0.55705218  0.75000000  0.77108370  1.0
  Se  Se17  1  0.05705218  0.75000000  0.72891630  1.0
  Se  Se18  1  0.44294782  0.25000000  0.22891630  1.0
  Se  Se19  1  0.94294782  0.25000000  0.27108370  1.0
  Se  Se20  1  0.33087358  0.54033484  0.76018714  1.0
  Se  Se21  1  0.83087358  0.95966516  0.73981286  1.0
  Se  Se22  1  0.66912642  0.04033484  0.23981286  1.0
  Se  Se23  1  0.16912642  0.45966516  0.26018714  1.0
  Se  Se24  1  0.66912642  0.45966516  0.23981286  1.0
  Se  Se25  1  0.16912642  0.04033484  0.26018714  1.0
  Se  Se26  1  0.33087358  0.95966516  0.76018714  1.0
  Se  Se27  1  0.83087358  0.54033484  0.73981286  1.0
