# generated using pymatgen
data_Sr(InS2)2
_symmetry_space_group_name_H-M   'P 1'
_cell_length_a   15.10857518
_cell_length_b   12.59052317
_cell_length_c   12.51754006
_cell_angle_alpha   73.98887439
_cell_angle_beta   53.22661915
_cell_angle_gamma   52.78450646
_symmetry_Int_Tables_number   1
_chemical_formula_structural   Sr(InS2)2
_chemical_formula_sum   'Sr8 In16 S32'
_cell_volume   1504.97900182
_cell_formula_units_Z   8
loop_
 _symmetry_equiv_pos_site_id
 _symmetry_equiv_pos_as_xyz
  1  'x, y, z'
loop_
 _atom_site_type_symbol
 _atom_site_label
 _atom_site_symmetry_multiplicity
 _atom_site_fract_x
 _atom_site_fract_y
 _atom_site_fract_z
 _atom_site_occupancy
  Sr  Sr0  1  0.50000000  0.50000000  -0.50000000  1.0
  Sr  Sr1  1  0.75000000  0.75000000  0.75000000  1.0
  Sr  Sr2  1  1.00000000  -0.00000000  0.00000000  1.0
  Sr  Sr3  1  0.25000000  1.25000000  0.25000000  1.0
  Sr  Sr4  1  0.75307432  0.24692568  -0.24692568  1.0
  Sr  Sr5  1  1.24692568  -0.24692568  0.24692568  1.0
  Sr  Sr6  1  0.49692568  1.00307432  0.49692568  1.0
  Sr  Sr7  1  0.00307432  1.49692568  0.00307432  1.0
  In  In8  1  0.98026745  0.66235383  0.26955672  1.0
  In  In9  1  1.26955672  0.08782200  -0.01973255  1.0
  In  In10  1  0.66235383  0.98026745  0.08782200  1.0
  In  In11  1  0.08782200  1.26955672  0.66235383  1.0
  In  In12  1  0.26973255  0.58764617  -0.01955672  1.0
  In  In13  1  -0.01955672  1.16217800  0.26973255  1.0
  In  In14  1  0.58764617  0.26973255  0.16217800  1.0
  In  In15  1  0.16217800  0.98044328  0.58764617  1.0
  In  In16  1  0.76285290  0.01272338  0.48564217  1.0
  In  In17  1  0.48564217  0.73878155  0.76285290  1.0
  In  In18  1  0.01272338  0.76285290  0.73878155  1.0
  In  In19  1  0.73878155  0.48564217  0.01272338  1.0
  In  In20  1  0.48714710  1.23727662  -0.23564217  1.0
  In  In21  1  -0.23564217  1.51121845  0.48714710  1.0
  In  In22  1  0.23727662  1.48714710  0.51121845  1.0
  In  In23  1  0.51121845  0.76435783  0.23727662  1.0
  S  S24  1  0.71132595  0.53863303  1.21446688  1.0
  S  S25  1  1.21446688  0.53557413  0.71132595  1.0
  S  S26  1  0.53863303  0.71132595  0.53557413  1.0
  S  S27  1  0.53557413  1.21446688  0.53863303  1.0
  S  S28  1  0.53867405  0.71136697  1.03553312  1.0
  S  S29  1  1.03553312  -0.28557413  0.53867405  1.0
  S  S30  1  0.71136697  0.53867405  -0.28557413  1.0
  S  S31  1  -0.28557413  1.03553312  0.71136697  1.0
  S  S32  1  0.21519758  1.03552880  0.71186997  1.0
  S  S33  1  0.71186997  1.03740365  0.21519758  1.0
  S  S34  1  1.03552880  0.21519758  0.03740365  1.0
  S  S35  1  1.03740365  0.71186997  0.03552880  1.0
  S  S36  1  0.03480242  1.21447120  0.53813003  1.0
  S  S37  1  0.53813003  0.21259635  0.03480242  1.0
  S  S38  1  0.21447120  1.03480242  0.21259635  1.0
  S  S39  1  0.21259635  0.53813003  0.21447120  1.0
  S  S40  1  0.27638482  1.28500124  -0.02337567  1.0
  S  S41  1  -0.02337567  1.46198961  0.27638482  1.0
  S  S42  1  0.28500124  1.27638482  0.46198961  1.0
  S  S43  1  0.46198961  0.97662433  0.28500124  1.0
  S  S44  1  0.97361518  -0.03500124  0.27337567  1.0
  S  S45  1  0.27337567  0.78801039  0.97361518  1.0
  S  S46  1  -0.03500124  0.97361518  0.78801039  1.0
  S  S47  1  0.78801039  0.27337567  -0.03500124  1.0
  S  S48  1  0.47904573  0.94325146  0.76815492  1.0
  S  S49  1  0.76815492  0.80954790  0.47904573  1.0
  S  S50  1  0.94325146  0.47904573  -0.19045210  1.0
  S  S51  1  0.80954790  0.76815492  -0.05674854  1.0
  S  S52  1  -0.22904573  1.30674854  0.48184508  1.0
  S  S53  1  0.48184508  0.44045210  -0.22904573  1.0
  S  S54  1  0.30674854  0.77095427  0.44045210  1.0
  S  S55  1  0.44045210  0.48184508  0.30674854  1.0
