# generated using pymatgen
data_LaMn3Cr4O12
_symmetry_space_group_name_H-M   'P 1'
_cell_length_a   6.45028424
_cell_length_b   6.45028424
_cell_length_c   6.45028424
_cell_angle_alpha   109.47122063
_cell_angle_beta   109.47122063
_cell_angle_gamma   109.47122063
_symmetry_Int_Tables_number   1
_chemical_formula_structural   LaMn3Cr4O12
_chemical_formula_sum   'La1 Mn3 Cr4 O12'
_cell_volume   206.59255576
_cell_formula_units_Z   1
loop_
 _symmetry_equiv_pos_site_id
 _symmetry_equiv_pos_as_xyz
  1  'x, y, z'
loop_
 _atom_site_type_symbol
 _atom_site_label
 _atom_site_symmetry_multiplicity
 _atom_site_fract_x
 _atom_site_fract_y
 _atom_site_fract_z
 _atom_site_occupancy
  La  La0  1  0.00000000  0.00000000  0.00000000  1.0
  Mn  Mn1  1  0.50000000  0.50000000  0.00000000  1.0
  Mn  Mn2  1  -0.00000000  0.50000000  0.50000000  1.0
  Mn  Mn3  1  0.50000000  0.00000000  0.50000000  1.0
  Cr  Cr4  1  0.50000000  1.00000000  1.00000000  1.0
  Cr  Cr5  1  0.50000000  0.50000000  0.50000000  1.0
  Cr  Cr6  1  1.00000000  1.00000000  0.50000000  1.0
  Cr  Cr7  1  1.00000000  0.50000000  1.00000000  1.0
  O  O8  1  0.82390937  1.30902389  1.13293326  1.0
  O  O9  1  0.82390937  0.69097611  0.51488547  1.0
  O  O10  1  0.17609063  0.30902389  0.48511453  1.0
  O  O11  1  0.17609063  0.69097611  0.86706674  1.0
  O  O12  1  0.51488547  0.82390937  0.69097611  1.0
  O  O13  1  1.13293326  0.82390937  1.30902389  1.0
  O  O14  1  0.69097611  0.86706674  0.17609063  1.0
  O  O15  1  0.69097611  0.51488547  0.82390937  1.0
  O  O16  1  0.86706674  0.17609063  0.69097611  1.0
  O  O17  1  0.48511453  0.17609063  0.30902389  1.0
  O  O18  1  0.30902389  0.48511453  0.17609063  1.0
  O  O19  1  1.30902389  1.13293326  0.82390937  1.0
