# generated using pymatgen
data_Y5(FeB3)2
_symmetry_space_group_name_H-M   'P 1'
_cell_length_a   8.32778508
_cell_length_b   8.32778508
_cell_length_c   8.32778508
_cell_angle_alpha   37.98070713
_cell_angle_beta   37.98070713
_cell_angle_gamma   37.98070713
_symmetry_Int_Tables_number   1
_chemical_formula_structural   Y5(FeB3)2
_chemical_formula_sum   'Y5 Fe2 B6'
_cell_volume   196.33024966
_cell_formula_units_Z   1
loop_
 _symmetry_equiv_pos_site_id
 _symmetry_equiv_pos_as_xyz
  1  'x, y, z'
loop_
 _atom_site_type_symbol
 _atom_site_label
 _atom_site_symmetry_multiplicity
 _atom_site_fract_x
 _atom_site_fract_y
 _atom_site_fract_z
 _atom_site_occupancy
  Y  Y0  1  0.74902495  0.74902495  0.74902495  1.0
  Y  Y1  1  1.25097505  1.25097505  0.25097505  1.0
  Y  Y2  1  1.58304773  0.58304773  0.58304773  1.0
  Y  Y3  1  1.41695227  0.41695227  0.41695227  1.0
  Y  Y4  1  0.00000000  0.00000000  0.00000000  1.0
  Fe  Fe5  1  0.88105838  0.88105838  0.88105838  1.0
  Fe  Fe6  1  1.11894162  1.11894162  0.11894162  1.0
  B  B7  1  1.16769985  0.50000000  0.83230015  1.0
  B  B8  1  1.16769985  0.83230015  0.50000000  1.0
  B  B9  1  1.50000000  0.16769985  0.83230015  1.0
  B  B10  1  1.50000000  0.83230015  0.16769985  1.0
  B  B11  1  1.83230015  0.50000000  0.16769985  1.0
  B  B12  1  1.83230015  0.16769985  0.50000000  1.0
