# generated using pymatgen
data_Re(AgCl3)2
_symmetry_space_group_name_H-M   'P 1'
_cell_length_a   7.35587101
_cell_length_b   7.35587101
_cell_length_c   7.35587101
_cell_angle_alpha   55.07305458
_cell_angle_beta   55.07305458
_cell_angle_gamma   55.07305458
_symmetry_Int_Tables_number   1
_chemical_formula_structural   Re(AgCl3)2
_chemical_formula_sum   'Re1 Ag2 Cl6'
_cell_volume   249.18761018
_cell_formula_units_Z   1
loop_
 _symmetry_equiv_pos_site_id
 _symmetry_equiv_pos_as_xyz
  1  'x, y, z'
loop_
 _atom_site_type_symbol
 _atom_site_label
 _atom_site_symmetry_multiplicity
 _atom_site_fract_x
 _atom_site_fract_y
 _atom_site_fract_z
 _atom_site_occupancy
  Re  Re0  1  0.00000000  -0.00000000  -0.00000000  1.0
  Ag  Ag1  1  0.32215973  0.32215973  0.32215973  1.0
  Ag  Ag2  1  0.67784027  -0.32215973  -0.32215973  1.0
  Cl  Cl3  1  0.08235054  0.78242666  -0.64544595  1.0
  Cl  Cl4  1  0.64544595  -0.08235054  0.21757334  1.0
  Cl  Cl5  1  1.21757334  -0.35455405  -0.08235054  1.0
  Cl  Cl6  1  0.91764946  0.21757334  -0.35455405  1.0
  Cl  Cl7  1  0.35455405  0.08235054  -0.21757334  1.0
  Cl  Cl8  1  0.78242666  0.35455405  -0.91764946  1.0
