# generated using pymatgen
data_LiTa3O8
_symmetry_space_group_name_H-M   'P 1'
_cell_length_a   7.54369185
_cell_length_b   5.09783908
_cell_length_c   15.41097838
_cell_angle_alpha   90.00000000
_cell_angle_beta   107.12059192
_cell_angle_gamma   90.00000000
_symmetry_Int_Tables_number   1
_chemical_formula_structural   LiTa3O8
_chemical_formula_sum   'Li4 Ta12 O32'
_cell_volume   566.39065234
_cell_formula_units_Z   4
loop_
 _symmetry_equiv_pos_site_id
 _symmetry_equiv_pos_as_xyz
  1  'x, y, z'
loop_
 _atom_site_type_symbol
 _atom_site_label
 _atom_site_symmetry_multiplicity
 _atom_site_fract_x
 _atom_site_fract_y
 _atom_site_fract_z
 _atom_site_occupancy
  Li  Li0  1  0.76678115  0.75591607  0.42269855  1.0
  Li  Li1  1  0.76678115  0.74408393  0.92269855  1.0
  Li  Li2  1  0.23321885  0.25591607  0.07730145  1.0
  Li  Li3  1  0.23321885  0.24408393  0.57730145  1.0
  Ta  Ta4  1  0.74781777  0.25842796  0.07854346  1.0
  Ta  Ta5  1  0.74781777  0.24157204  0.57854346  1.0
  Ta  Ta6  1  0.25218223  0.75842796  0.42145654  1.0
  Ta  Ta7  1  0.25218223  0.74157204  0.92145654  1.0
  Ta  Ta8  1  0.50483804  0.26061533  0.33376476  1.0
  Ta  Ta9  1  0.50483804  0.23938467  0.83376476  1.0
  Ta  Ta10  1  0.49516196  0.76061533  0.16623524  1.0
  Ta  Ta11  1  0.49516196  0.73938467  0.66623524  1.0
  Ta  Ta12  1  0.99203875  0.26144666  0.33745257  1.0
  Ta  Ta13  1  0.99203875  0.23855334  0.83745257  1.0
  Ta  Ta14  1  0.00796125  0.76144666  0.16254743  1.0
  Ta  Ta15  1  0.00796125  0.73855334  0.66254743  1.0
  O  O16  1  0.85232353  0.93705465  0.04923670  1.0
  O  O17  1  0.85232353  0.56294535  0.54923670  1.0
  O  O18  1  0.14767647  0.43705465  0.45076330  1.0
  O  O19  1  0.14767647  0.06294535  0.95076330  1.0
  O  O20  1  0.76727741  0.39646901  0.34589161  1.0
  O  O21  1  0.76727741  0.10353099  0.84589161  1.0
  O  O22  1  0.23272259  0.89646901  0.15410839  1.0
  O  O23  1  0.23272259  0.60353099  0.65410839  1.0
  O  O24  1  0.64625981  0.10886779  0.46133085  1.0
  O  O25  1  0.64625981  0.39113221  0.96133085  1.0
  O  O26  1  0.35374019  0.60886779  0.03866915  1.0
  O  O27  1  0.35374019  0.89113221  0.53866915  1.0
  O  O28  1  0.54143930  0.07803832  0.10250789  1.0
  O  O29  1  0.54143930  0.42196168  0.60250789  1.0
  O  O30  1  0.45856070  0.57803832  0.39749211  1.0
  O  O31  1  0.45856070  0.92196168  0.89749211  1.0
  O  O32  1  0.27879141  0.08693776  0.34618921  1.0
  O  O33  1  0.27879141  0.41306224  0.84618921  1.0
  O  O34  1  0.72120859  0.58693776  0.15381079  1.0
  O  O35  1  0.72120859  0.91306224  0.65381079  1.0
  O  O36  1  0.42178174  0.43345954  0.21893490  1.0
  O  O37  1  0.42178174  0.06654046  0.71893490  1.0
  O  O38  1  0.57821826  0.93345954  0.28106510  1.0
  O  O39  1  0.57821826  0.56654046  0.78106510  1.0
  O  O40  1  0.99927683  0.43793709  0.09859487  1.0
  O  O41  1  0.99927683  0.06206291  0.59859487  1.0
  O  O42  1  0.00072317  0.93793709  0.40140513  1.0
  O  O43  1  0.00072317  0.56206291  0.90140513  1.0
  O  O44  1  0.91642202  0.09020568  0.21610321  1.0
  O  O45  1  0.91642202  0.40979432  0.71610321  1.0
  O  O46  1  0.08357798  0.59020568  0.28389679  1.0
  O  O47  1  0.08357798  0.90979432  0.78389679  1.0
