# generated using pymatgen
data_BaLaSi2
_symmetry_space_group_name_H-M   'P 1'
_cell_length_a   7.81109450
_cell_length_b   7.81109450
_cell_length_c   6.77098591
_cell_angle_alpha   90.00000000
_cell_angle_beta   90.00000000
_cell_angle_gamma   145.57532980
_symmetry_Int_Tables_number   1
_chemical_formula_structural   BaLaSi2
_chemical_formula_sum   'Ba2 La2 Si4'
_cell_volume   233.54563429
_cell_formula_units_Z   2
loop_
 _symmetry_equiv_pos_site_id
 _symmetry_equiv_pos_as_xyz
  1  'x, y, z'
loop_
 _atom_site_type_symbol
 _atom_site_label
 _atom_site_symmetry_multiplicity
 _atom_site_fract_x
 _atom_site_fract_y
 _atom_site_fract_z
 _atom_site_occupancy
  Ba  Ba0  1  -0.27775157  1.27775157  0.25000000  1.0
  Ba  Ba1  1  -0.72224843  0.72224843  0.75000000  1.0
  La  La2  1  -0.54816050  0.54816050  0.25000000  1.0
  La  La3  1  -0.45183950  1.45183950  0.75000000  1.0
  Si  Si4  1  -0.92369353  0.92369353  0.43205765  1.0
  Si  Si5  1  -0.92369353  0.92369353  0.06794235  1.0
  Si  Si6  1  -0.07630647  1.07630647  0.93205765  1.0
  Si  Si7  1  -0.07630647  1.07630647  0.56794235  1.0
