# generated using pymatgen
data_K2Ga3CuSe6
_symmetry_space_group_name_H-M   'P 1'
_cell_length_a   7.89420263
_cell_length_b   7.89420263
_cell_length_c   21.18657776
_cell_angle_alpha   84.62506251
_cell_angle_beta   95.37493749
_cell_angle_gamma   89.84051749
_symmetry_Int_Tables_number   1
_chemical_formula_structural   K2Ga3CuSe6
_chemical_formula_sum   'K8 Ga12 Cu4 Se24'
_cell_volume   1308.64017043
_cell_formula_units_Z   4
loop_
 _symmetry_equiv_pos_site_id
 _symmetry_equiv_pos_as_xyz
  1  'x, y, z'
loop_
 _atom_site_type_symbol
 _atom_site_label
 _atom_site_symmetry_multiplicity
 _atom_site_fract_x
 _atom_site_fract_y
 _atom_site_fract_z
 _atom_site_occupancy
  K  K0  1  0.23669786  -0.10418635  0.41956390  1.0
  K  K1  1  1.10418635  0.76330214  0.91956390  1.0
  K  K2  1  0.89581365  -0.76330214  0.08043610  1.0
  K  K3  1  1.76330214  0.10418635  0.58043610  1.0
  K  K4  1  1.22277402  0.39356209  0.41976794  1.0
  K  K5  1  0.60643791  -0.22277402  0.91976794  1.0
  K  K6  1  1.39356209  0.22277402  0.08023206  1.0
  K  K7  1  0.77722598  -0.39356209  0.58023206  1.0
  Ga  Ga8  1  0.65396833  -0.27950030  0.11945375  1.0
  Ga  Ga9  1  1.27950030  0.34603167  0.61945375  1.0
  Ga  Ga10  1  0.72049970  -0.34603167  0.38054625  1.0
  Ga  Ga11  1  1.34603167  0.27950030  0.88054625  1.0
  Ga  Ga12  1  1.71936128  0.15444392  0.37949818  1.0
  Ga  Ga13  1  0.84555608  -0.71936128  0.87949818  1.0
  Ga  Ga14  1  1.15444392  0.71936128  0.12050182  1.0
  Ga  Ga15  1  0.28063872  -0.15444392  0.62050182  1.0
  Ga  Ga16  1  0.93192437  -0.06807563  0.25000000  1.0
  Ga  Ga17  1  1.06807563  0.06807563  0.75000000  1.0
  Ga  Ga18  1  1.44227488  0.44227488  0.25000000  1.0
  Ga  Ga19  1  0.55772512  -0.44227488  0.75000000  1.0
  Cu  Cu20  1  0.43803435  -0.06405736  0.25007800  1.0
  Cu  Cu21  1  1.06405736  0.56196565  0.75007800  1.0
  Cu  Cu22  1  0.93594264  -0.56196565  0.24992200  1.0
  Cu  Cu23  1  1.56196565  0.06405736  0.74992200  1.0
  Se  Se24  1  0.71056764  -0.11256102  0.44957050  1.0
  Se  Se25  1  1.11256102  0.28943236  0.94957050  1.0
  Se  Se26  1  0.88743898  -0.28943236  0.05042950  1.0
  Se  Se27  1  1.28943236  0.11256102  0.55042950  1.0
  Se  Se28  1  0.44268601  -0.32844198  0.31958019  1.0
  Se  Se29  1  1.32844198  0.55731399  0.81958019  1.0
  Se  Se30  1  0.67155802  -0.55731399  0.18041981  1.0
  Se  Se31  1  1.55731399  0.32844198  0.68041981  1.0
  Se  Se32  1  0.66733834  -0.03293024  0.18058012  1.0
  Se  Se33  1  1.03293024  0.33266166  0.68058012  1.0
  Se  Se34  1  0.96706976  -0.33266166  0.31941988  1.0
  Se  Se35  1  1.33266166  0.03293024  0.81941988  1.0
  Se  Se36  1  1.61432536  0.23547433  0.94968068  1.0
  Se  Se37  1  0.76452567  -0.61432536  0.44968068  1.0
  Se  Se38  1  1.23547433  0.61432536  0.55031932  1.0
  Se  Se39  1  0.38567464  -0.23547433  0.05031932  1.0
  Se  Se40  1  1.44258898  0.17178671  0.31780690  1.0
  Se  Se41  1  0.82821329  -0.44258898  0.81780690  1.0
  Se  Se42  1  1.17178671  0.44258898  0.18219310  1.0
  Se  Se43  1  0.55741102  -0.17178671  0.68219310  1.0
  Se  Se44  1  0.16827228  -0.03474595  0.18217223  1.0
  Se  Se45  1  1.03474595  0.83172772  0.68217223  1.0
  Se  Se46  1  0.96525405  -0.83172772  0.31782777  1.0
  Se  Se47  1  1.83172772  0.03474595  0.81782777  1.0
