# generated using pymatgen
data_Na3AuO3
_symmetry_space_group_name_H-M   'P 1'
_cell_length_a   9.60326001
_cell_length_b   9.60326001
_cell_length_c   4.55545473
_cell_angle_alpha   90.00000000
_cell_angle_beta   90.00000000
_cell_angle_gamma   90.00000000
_symmetry_Int_Tables_number   1
_chemical_formula_structural   Na3AuO3
_chemical_formula_sum   'Na12 Au4 O12'
_cell_volume   420.11589226
_cell_formula_units_Z   4
loop_
 _symmetry_equiv_pos_site_id
 _symmetry_equiv_pos_as_xyz
  1  'x, y, z'
loop_
 _atom_site_type_symbol
 _atom_site_label
 _atom_site_symmetry_multiplicity
 _atom_site_fract_x
 _atom_site_fract_y
 _atom_site_fract_z
 _atom_site_occupancy
  Na  Na0  1  0.37105472  0.12056611  0.50000000  1.0
  Na  Na1  1  0.87105472  0.37943389  0.00000000  1.0
  Na  Na2  1  0.87943389  0.62894528  0.50000000  1.0
  Na  Na3  1  0.37943389  0.87105472  0.00000000  1.0
  Na  Na4  1  0.62894528  0.87943389  0.50000000  1.0
  Na  Na5  1  0.12894528  0.62056611  0.00000000  1.0
  Na  Na6  1  0.12056611  0.37105472  0.50000000  1.0
  Na  Na7  1  0.62056611  0.12894528  0.00000000  1.0
  Na  Na8  1  0.35264479  0.64735521  0.50000000  1.0
  Na  Na9  1  0.85264479  0.85264479  0.00000000  1.0
  Na  Na10  1  0.64735521  0.35264479  0.50000000  1.0
  Na  Na11  1  0.14735521  0.14735521  0.00000000  1.0
  Au  Au12  1  0.11513605  0.88486395  0.50000000  1.0
  Au  Au13  1  0.61513605  0.61513605  0.00000000  1.0
  Au  Au14  1  0.88486395  0.11513605  0.50000000  1.0
  Au  Au15  1  0.38486395  0.38486395  0.00000000  1.0
  O  O16  1  0.32412274  0.88624924  0.50000000  1.0
  O  O17  1  0.82412274  0.61375076  0.00000000  1.0
  O  O18  1  0.11375076  0.67587726  0.50000000  1.0
  O  O19  1  0.61375076  0.82412274  0.00000000  1.0
  O  O20  1  0.67587726  0.11375076  0.50000000  1.0
  O  O21  1  0.17587726  0.38624924  0.00000000  1.0
  O  O22  1  0.88624924  0.32412274  0.50000000  1.0
  O  O23  1  0.38624924  0.17587726  0.00000000  1.0
  O  O24  1  0.10096733  0.10096733  0.50000000  1.0
  O  O25  1  0.60096733  0.39903267  0.00000000  1.0
  O  O26  1  0.89903267  0.89903267  0.50000000  1.0
  O  O27  1  0.39903267  0.60096733  0.00000000  1.0
