# generated using pymatgen
data_Sc5(Co2Si5)2
_symmetry_space_group_name_H-M   'P 1'
_cell_length_a   12.00238936
_cell_length_b   12.00238936
_cell_length_c   3.93755290
_cell_angle_alpha   90.00000000
_cell_angle_beta   90.00000000
_cell_angle_gamma   90.00000000
_symmetry_Int_Tables_number   1
_chemical_formula_structural   Sc5(Co2Si5)2
_chemical_formula_sum   'Sc10 Co8 Si20'
_cell_volume   567.23343740
_cell_formula_units_Z   2
loop_
 _symmetry_equiv_pos_site_id
 _symmetry_equiv_pos_as_xyz
  1  'x, y, z'
loop_
 _atom_site_type_symbol
 _atom_site_label
 _atom_site_symmetry_multiplicity
 _atom_site_fract_x
 _atom_site_fract_y
 _atom_site_fract_z
 _atom_site_occupancy
  Sc  Sc0  1  0.32351088  0.17648912  0.50000000  1.0
  Sc  Sc1  1  0.82351088  0.32351088  0.50000000  1.0
  Sc  Sc2  1  0.67648912  0.82351088  0.50000000  1.0
  Sc  Sc3  1  0.17648912  0.67648912  0.50000000  1.0
  Sc  Sc4  1  0.88847611  0.61152389  0.50000000  1.0
  Sc  Sc5  1  0.38847611  0.88847611  0.50000000  1.0
  Sc  Sc6  1  0.11152389  0.38847611  0.50000000  1.0
  Sc  Sc7  1  0.61152389  0.11152389  0.50000000  1.0
  Sc  Sc8  1  0.50000000  0.50000000  0.00000000  1.0
  Sc  Sc9  1  0.00000000  0.00000000  0.00000000  1.0
  Co  Co10  1  0.25434059  0.52462716  0.00000000  1.0
  Co  Co11  1  0.75434059  0.97537284  0.00000000  1.0
  Co  Co12  1  0.47537284  0.25434059  0.00000000  1.0
  Co  Co13  1  0.97537284  0.24565941  0.00000000  1.0
  Co  Co14  1  0.74565941  0.47537284  0.00000000  1.0
  Co  Co15  1  0.24565941  0.02462716  0.00000000  1.0
  Co  Co16  1  0.52462716  0.74565941  0.00000000  1.0
  Co  Co17  1  0.02462716  0.75434059  0.00000000  1.0
  Si  Si18  1  0.33572704  0.50139350  0.50000000  1.0
  Si  Si19  1  0.83572704  0.99860650  0.50000000  1.0
  Si  Si20  1  0.49860650  0.33572704  0.50000000  1.0
  Si  Si21  1  0.99860650  0.16427296  0.50000000  1.0
  Si  Si22  1  0.66427296  0.49860650  0.50000000  1.0
  Si  Si23  1  0.16427296  0.00139350  0.50000000  1.0
  Si  Si24  1  0.50139350  0.66427296  0.50000000  1.0
  Si  Si25  1  0.00139350  0.83572704  0.50000000  1.0
  Si  Si26  1  0.34348828  0.69842370  0.00000000  1.0
  Si  Si27  1  0.84348828  0.80157630  0.00000000  1.0
  Si  Si28  1  0.30157630  0.34348828  0.00000000  1.0
  Si  Si29  1  0.80157630  0.15651172  0.00000000  1.0
  Si  Si30  1  0.65651172  0.30157630  0.00000000  1.0
  Si  Si31  1  0.15651172  0.19842370  0.00000000  1.0
  Si  Si32  1  0.69842370  0.65651172  0.00000000  1.0
  Si  Si33  1  0.19842370  0.84348828  0.00000000  1.0
  Si  Si34  1  0.43150574  0.06849426  0.00000000  1.0
  Si  Si35  1  0.93150574  0.43150574  0.00000000  1.0
  Si  Si36  1  0.56849426  0.93150574  0.00000000  1.0
  Si  Si37  1  0.06849426  0.56849426  0.00000000  1.0
