# generated using pymatgen
data_Cs7Ni4F15
_symmetry_space_group_name_H-M   'P 1'
_cell_length_a   7.97357312
_cell_length_b   11.08716188
_cell_length_c   11.65971000
_cell_angle_alpha   90.00000000
_cell_angle_beta   92.00401435
_cell_angle_gamma   90.00000000
_symmetry_Int_Tables_number   1
_chemical_formula_structural   Cs7Ni4F15
_chemical_formula_sum   'Cs14 Ni8 F30'
_cell_volume   1030.13801358
_cell_formula_units_Z   2
loop_
 _symmetry_equiv_pos_site_id
 _symmetry_equiv_pos_as_xyz
  1  'x, y, z'
loop_
 _atom_site_type_symbol
 _atom_site_label
 _atom_site_symmetry_multiplicity
 _atom_site_fract_x
 _atom_site_fract_y
 _atom_site_fract_z
 _atom_site_occupancy
  Cs  Cs0  1  0.83933289  0.15314557  0.69649524  1.0
  Cs  Cs1  1  0.83933289  0.34685443  0.19649524  1.0
  Cs  Cs2  1  0.16066711  0.65314557  0.80350476  1.0
  Cs  Cs3  1  0.16066711  0.84685443  0.30350476  1.0
  Cs  Cs4  1  0.67369909  0.49724146  0.83580827  1.0
  Cs  Cs5  1  0.67369909  0.00275854  0.33580827  1.0
  Cs  Cs6  1  0.32630091  0.99724146  0.66419173  1.0
  Cs  Cs7  1  0.32630091  0.50275854  0.16419173  1.0
  Cs  Cs8  1  0.49971031  0.68148954  0.53055740  1.0
  Cs  Cs9  1  0.49971031  0.81851046  0.03055740  1.0
  Cs  Cs10  1  0.50028969  0.18148954  0.96944260  1.0
  Cs  Cs11  1  0.50028969  0.31851046  0.46944260  1.0
  Cs  Cs12  1  0.00000000  0.00000000  0.00000000  1.0
  Cs  Cs13  1  -0.00000000  0.50000000  0.50000000  1.0
  Ni  Ni14  1  0.92231613  0.83719452  0.57212091  1.0
  Ni  Ni15  1  0.92231613  0.66280548  0.07212091  1.0
  Ni  Ni16  1  0.07768387  0.33719452  0.92787909  1.0
  Ni  Ni17  1  0.07768387  0.16280548  0.42787909  1.0
  Ni  Ni18  1  0.74206455  0.82724113  0.77121872  1.0
  Ni  Ni19  1  0.74206455  0.67275887  0.27121872  1.0
  Ni  Ni20  1  0.25793545  0.32724113  0.72878128  1.0
  Ni  Ni21  1  0.25793545  0.17275887  0.22878128  1.0
  F  F22  1  0.97841547  0.89700241  0.73837802  1.0
  F  F23  1  0.97841547  0.60299759  0.23837802  1.0
  F  F24  1  0.02158453  0.39700241  0.76162198  1.0
  F  F25  1  0.02158453  0.10299759  0.26162198  1.0
  F  F26  1  0.85335803  0.26482509  0.94611850  1.0
  F  F27  1  0.85335803  0.23517491  0.44611850  1.0
  F  F28  1  0.14664197  0.76482509  0.55388150  1.0
  F  F29  1  0.14664197  0.73517491  0.05388150  1.0
  F  F30  1  0.83176870  0.73173373  0.91708370  1.0
  F  F31  1  0.83176870  0.76826627  0.41708370  1.0
  F  F32  1  0.16823130  0.23173373  0.58291630  1.0
  F  F33  1  0.16823130  0.26826627  0.08291630  1.0
  F  F34  1  0.82982552  0.69134831  0.66330414  1.0
  F  F35  1  0.82982552  0.80865169  0.16330414  1.0
  F  F36  1  0.17017448  0.19134831  0.83669586  1.0
  F  F37  1  0.17017448  0.30865169  0.33669586  1.0
  F  F38  1  0.68914622  0.90730966  0.60889424  1.0
  F  F39  1  0.68914622  0.59269034  0.10889424  1.0
  F  F40  1  0.31085378  0.40730966  0.89110576  1.0
  F  F41  1  0.31085378  0.09269034  0.39110576  1.0
  F  F42  1  0.67219461  0.97072243  0.85988451  1.0
  F  F43  1  0.67219461  0.52927757  0.35988451  1.0
  F  F44  1  0.32780539  0.47072243  0.64011549  1.0
  F  F45  1  0.32780539  0.02927757  0.14011549  1.0
  F  F46  1  0.51618998  0.75202080  0.78078589  1.0
  F  F47  1  0.51618998  0.74797920  0.28078589  1.0
  F  F48  1  0.48381002  0.25202080  0.71921411  1.0
  F  F49  1  0.48381002  0.24797920  0.21921411  1.0
  F  F50  1  -0.00000000  0.00000000  0.50000000  1.0
  F  F51  1  0.00000000  0.50000000  0.00000000  1.0
