# generated using pymatgen
data_LiLa6OsI12
_symmetry_space_group_name_H-M   'P 1'
_cell_length_a   10.19064830
_cell_length_b   10.19064830
_cell_length_c   10.19064830
_cell_angle_alpha   107.67877806
_cell_angle_beta   107.67877806
_cell_angle_gamma   107.67877806
_symmetry_Int_Tables_number   1
_chemical_formula_structural   LiLa6OsI12
_chemical_formula_sum   'Li1 La6 Os1 I12'
_cell_volume   864.51707163
_cell_formula_units_Z   1
loop_
 _symmetry_equiv_pos_site_id
 _symmetry_equiv_pos_as_xyz
  1  'x, y, z'
loop_
 _atom_site_type_symbol
 _atom_site_label
 _atom_site_symmetry_multiplicity
 _atom_site_fract_x
 _atom_site_fract_y
 _atom_site_fract_z
 _atom_site_occupancy
  Li  Li0  1  0.50000000  0.50000000  0.50000000  1.0
  La  La1  1  1.68809039  0.89053185  -0.03441810  1.0
  La  La2  1  1.10946815  0.03441810  -0.68809039  1.0
  La  La3  1  1.03441810  -0.68809039  0.10946815  1.0
  La  La4  1  0.31190961  0.10946815  0.03441810  1.0
  La  La5  1  0.89053185  0.96558190  0.68809039  1.0
  La  La6  1  0.96558190  1.68809039  -0.10946815  1.0
  Os  Os7  1  0.00000000  0.00000000  0.00000000  1.0
  I  I8  1  1.61161624  0.53255890  -0.17163034  1.0
  I  I9  1  0.46744110  1.17163034  -0.61161624  1.0
  I  I10  1  1.17163034  0.38838376  -0.53255890  1.0
  I  I11  1  0.38838376  0.46744110  0.17163034  1.0
  I  I12  1  1.53255890  -0.17163034  0.61161624  1.0
  I  I13  1  0.82836966  0.61161624  0.53255890  1.0
  I  I14  1  0.68278113  0.22315203  0.07177598  1.0
  I  I15  1  0.77684797  0.92822402  0.31721887  1.0
  I  I16  1  0.92822402  1.31721887  -0.22315203  1.0
  I  I17  1  1.31721887  0.77684797  -0.07177598  1.0
  I  I18  1  1.22315203  0.07177598  -0.31721887  1.0
  I  I19  1  1.07177598  -0.31721887  0.22315203  1.0
