# generated using pymatgen
data_La4RuI5
_symmetry_space_group_name_H-M   'P 1'
_cell_length_a   10.16917338
_cell_length_b   10.16917338
_cell_length_c   9.48264777
_cell_angle_alpha   76.69912132
_cell_angle_beta   103.30087868
_cell_angle_gamma   155.06013536
_symmetry_Int_Tables_number   1
_chemical_formula_structural   La4RuI5
_chemical_formula_sum   'La4 Ru1 I5'
_cell_volume   401.85291010
_cell_formula_units_Z   1
loop_
 _symmetry_equiv_pos_site_id
 _symmetry_equiv_pos_as_xyz
  1  'x, y, z'
loop_
 _atom_site_type_symbol
 _atom_site_label
 _atom_site_symmetry_multiplicity
 _atom_site_fract_x
 _atom_site_fract_y
 _atom_site_fract_z
 _atom_site_occupancy
  La  La0  1  0.86158843  -0.86158843  0.92790293  1.0
  La  La1  1  1.13841157  -0.13841157  0.07209707  1.0
  La  La2  1  0.50027338  -0.50027338  0.78785233  1.0
  La  La3  1  1.49972662  -0.49972662  0.21214767  1.0
  Ru  Ru4  1  0.00000000  0.00000000  0.00000000  1.0
  I  I5  1  0.67346225  -0.67346225  0.83214733  1.0
  I  I6  1  1.32653775  -0.32653775  0.16785267  1.0
  I  I7  1  0.66845422  -0.66845422  0.33984161  1.0
  I  I8  1  1.33154578  -0.33154578  0.66015839  1.0
  I  I9  1  -0.00000000  0.00000000  0.50000000  1.0
