# generated using pymatgen
data_Co3W3C
_symmetry_space_group_name_H-M   'P 1'
_cell_length_a   7.81811160
_cell_length_b   7.81811160
_cell_length_c   7.81811160
_cell_angle_alpha   60.00000000
_cell_angle_beta   60.00000000
_cell_angle_gamma   60.00000000
_symmetry_Int_Tables_number   1
_chemical_formula_structural   Co3W3C
_chemical_formula_sum   'Co12 W12 C4'
_cell_volume   337.90187251
_cell_formula_units_Z   4
loop_
 _symmetry_equiv_pos_site_id
 _symmetry_equiv_pos_as_xyz
  1  'x, y, z'
loop_
 _atom_site_type_symbol
 _atom_site_label
 _atom_site_symmetry_multiplicity
 _atom_site_fract_x
 _atom_site_fract_y
 _atom_site_fract_z
 _atom_site_occupancy
  Co  Co0  1  0.62500000  0.62500000  1.12500000  1.0
  Co  Co1  1  0.62500000  1.12500000  0.62500000  1.0
  Co  Co2  1  1.12500000  0.62500000  0.62500000  1.0
  Co  Co3  1  0.62500000  0.62500000  0.62500000  1.0
  Co  Co4  1  0.83032790  -0.16967210  0.50901630  1.0
  Co  Co5  1  0.83032790  -0.49098370  0.83032790  1.0
  Co  Co6  1  0.50901630  0.83032790  0.83032790  1.0
  Co  Co7  1  0.83032790  0.83032790  0.83032790  1.0
  Co  Co8  1  1.41967210  0.41967210  -0.25901630  1.0
  Co  Co9  1  1.41967210  -0.25901630  0.41967210  1.0
  Co  Co10  1  0.74098370  0.41967210  0.41967210  1.0
  Co  Co11  1  1.41967210  0.41967210  0.41967210  1.0
  W  W12  1  1.45180713  0.45180713  0.04819287  1.0
  W  W13  1  1.04819287  0.45180713  0.04819287  1.0
  W  W14  1  1.45180713  0.04819287  0.04819287  1.0
  W  W15  1  1.04819287  0.04819287  0.45180713  1.0
  W  W16  1  1.45180713  0.04819287  0.45180713  1.0
  W  W17  1  1.04819287  0.45180713  0.45180713  1.0
  W  W18  1  0.79819287  0.79819287  -0.79819287  1.0
  W  W19  1  1.20180713  -0.20180713  0.20180713  1.0
  W  W20  1  -0.20180713  0.20180713  0.20180713  1.0
  W  W21  1  0.20180713  0.20180713  -0.20180713  1.0
  W  W22  1  0.79819287  -0.79819287  0.79819287  1.0
  W  W23  1  -0.79819287  0.79819287  0.79819287  1.0
  C  C24  1  0.12500000  0.12500000  1.62500000  1.0
  C  C25  1  0.12500000  0.62500000  1.12500000  1.0
  C  C26  1  1.62500000  0.12500000  0.12500000  1.0
  C  C27  1  1.12500000  0.12500000  0.12500000  1.0
