# generated using pymatgen
data_Lu2Ga5Ni12
_symmetry_space_group_name_H-M   'P 1'
_cell_length_a   8.43231993
_cell_length_b   8.43231993
_cell_length_c   8.27821413
_cell_angle_alpha   90.00000000
_cell_angle_beta   90.00000000
_cell_angle_gamma   120.00000000
_symmetry_Int_Tables_number   1
_chemical_formula_structural   Lu2Ga5Ni12
_chemical_formula_sum   'Lu4 Ga10 Ni24'
_cell_volume   509.75493484
_cell_formula_units_Z   2
loop_
 _symmetry_equiv_pos_site_id
 _symmetry_equiv_pos_as_xyz
  1  'x, y, z'
loop_
 _atom_site_type_symbol
 _atom_site_label
 _atom_site_symmetry_multiplicity
 _atom_site_fract_x
 _atom_site_fract_y
 _atom_site_fract_z
 _atom_site_occupancy
  Lu  Lu0  1  0.00000000  0.00000000  0.25000000  1.0
  Lu  Lu1  1  0.00000000  0.00000000  0.75000000  1.0
  Lu  Lu2  1  0.33333333  0.66666667  0.75000000  1.0
  Lu  Lu3  1  0.66666667  0.33333333  0.25000000  1.0
  Ga  Ga4  1  0.33333333  0.66666667  0.39461785  1.0
  Ga  Ga5  1  0.66666667  0.33333333  0.60538215  1.0
  Ga  Ga6  1  0.66666667  0.33333333  0.89461785  1.0
  Ga  Ga7  1  0.33333333  0.66666667  0.10538215  1.0
  Ga  Ga8  1  0.50000000  0.50000000  0.50000000  1.0
  Ga  Ga9  1  0.50000000  0.00000000  0.50000000  1.0
  Ga  Ga10  1  -0.00000000  0.50000000  0.50000000  1.0
  Ga  Ga11  1  0.50000000  0.50000000  0.00000000  1.0
  Ga  Ga12  1  0.50000000  0.00000000  0.00000000  1.0
  Ga  Ga13  1  -0.00000000  0.50000000  0.00000000  1.0
  Ni  Ni14  1  0.32527703  0.35433877  0.25000000  1.0
  Ni  Ni15  1  0.64566123  0.97093826  0.25000000  1.0
  Ni  Ni16  1  0.02906174  0.67472297  0.25000000  1.0
  Ni  Ni17  1  0.64566123  0.67472297  0.25000000  1.0
  Ni  Ni18  1  0.02906174  0.35433877  0.25000000  1.0
  Ni  Ni19  1  0.32527703  0.97093826  0.25000000  1.0
  Ni  Ni20  1  0.67472297  0.64566123  0.75000000  1.0
  Ni  Ni21  1  0.35433877  0.02906174  0.75000000  1.0
  Ni  Ni22  1  0.97093826  0.32527703  0.75000000  1.0
  Ni  Ni23  1  0.35433877  0.32527703  0.75000000  1.0
  Ni  Ni24  1  0.97093826  0.64566123  0.75000000  1.0
  Ni  Ni25  1  0.67472297  0.02906174  0.75000000  1.0
  Ni  Ni26  1  0.16616935  0.83383065  0.51621957  1.0
  Ni  Ni27  1  0.16616935  0.33233870  0.51621957  1.0
  Ni  Ni28  1  0.66766130  0.83383065  0.51621957  1.0
  Ni  Ni29  1  0.83383065  0.16616935  0.48378043  1.0
  Ni  Ni30  1  0.83383065  0.66766130  0.48378043  1.0
  Ni  Ni31  1  0.33233870  0.16616935  0.48378043  1.0
  Ni  Ni32  1  0.83383065  0.16616935  0.01621957  1.0
  Ni  Ni33  1  0.83383065  0.66766130  0.01621957  1.0
  Ni  Ni34  1  0.33233870  0.16616935  0.01621957  1.0
  Ni  Ni35  1  0.16616935  0.83383065  -0.01621957  1.0
  Ni  Ni36  1  0.16616935  0.33233870  -0.01621957  1.0
  Ni  Ni37  1  0.66766130  0.83383065  -0.01621957  1.0
