# generated using pymatgen
data_Zr6Ga2FeH10
_symmetry_space_group_name_H-M   'P 1'
_cell_length_a   8.05723593
_cell_length_b   8.05723593
_cell_length_c   7.13972311
_cell_angle_alpha   90.00000000
_cell_angle_beta   90.00000000
_cell_angle_gamma   120.00000000
_symmetry_Int_Tables_number   1
_chemical_formula_structural   Zr6Ga2FeH10
_chemical_formula_sum   'Zr12 Ga4 Fe2 H20'
_cell_volume   401.40627961
_cell_formula_units_Z   2
loop_
 _symmetry_equiv_pos_site_id
 _symmetry_equiv_pos_as_xyz
  1  'x, y, z'
loop_
 _atom_site_type_symbol
 _atom_site_label
 _atom_site_symmetry_multiplicity
 _atom_site_fract_x
 _atom_site_fract_y
 _atom_site_fract_z
 _atom_site_occupancy
  Zr  Zr0  1  0.62192994  0.57597337  0.25000000  1.0
  Zr  Zr1  1  0.57597337  0.62192994  0.75000000  1.0
  Zr  Zr2  1  0.95404342  0.37807006  0.25000000  1.0
  Zr  Zr3  1  0.42402663  0.04595658  0.25000000  1.0
  Zr  Zr4  1  0.37807006  0.95404342  0.75000000  1.0
  Zr  Zr5  1  0.04595658  0.42402663  0.75000000  1.0
  Zr  Zr6  1  0.26120603  0.26120603  0.50000000  1.0
  Zr  Zr7  1  0.26120603  0.26120603  0.00000000  1.0
  Zr  Zr8  1  0.00000000  0.73879397  0.50000000  1.0
  Zr  Zr9  1  0.00000000  0.73879397  0.00000000  1.0
  Zr  Zr10  1  0.73879397  0.00000000  0.50000000  1.0
  Zr  Zr11  1  0.73879397  0.00000000  0.00000000  1.0
  Ga  Ga12  1  0.33333333  0.66666667  0.45081064  1.0
  Ga  Ga13  1  0.33333333  0.66666667  0.04918936  1.0
  Ga  Ga14  1  0.66666667  0.33333333  0.95081064  1.0
  Ga  Ga15  1  0.66666667  0.33333333  0.54918936  1.0
  Fe  Fe16  1  0.00000000  0.00000000  0.25000000  1.0
  Fe  Fe17  1  0.00000000  0.00000000  0.75000000  1.0
  H  H18  1  0.12043513  0.87814099  0.25000000  1.0
  H  H19  1  0.87814099  0.12043513  0.75000000  1.0
  H  H20  1  0.75770586  0.87956487  0.25000000  1.0
  H  H21  1  0.12185901  0.24229414  0.25000000  1.0
  H  H22  1  0.87956487  0.75770586  0.75000000  1.0
  H  H23  1  0.24229414  0.12185901  0.75000000  1.0
  H  H24  1  0.88349126  0.59191384  0.25000000  1.0
  H  H25  1  0.59191384  0.88349126  0.75000000  1.0
  H  H26  1  0.70842258  0.11650874  0.25000000  1.0
  H  H27  1  0.40808616  0.29157742  0.25000000  1.0
  H  H28  1  0.11650874  0.70842258  0.75000000  1.0
  H  H29  1  0.29157742  0.40808616  0.75000000  1.0
  H  H30  1  0.71970032  0.71970032  0.50000000  1.0
  H  H31  1  0.71970032  0.71970032  0.00000000  1.0
  H  H32  1  0.00000000  0.28029968  0.50000000  1.0
  H  H33  1  0.00000000  0.28029968  0.00000000  1.0
  H  H34  1  0.28029968  0.00000000  0.50000000  1.0
  H  H35  1  0.28029968  0.00000000  0.00000000  1.0
  H  H36  1  0.00000000  0.00000000  0.50000000  1.0
  H  H37  1  0.00000000  0.00000000  0.00000000  1.0
