# generated using pymatgen
data_FeSO5
_symmetry_space_group_name_H-M   'P 1'
_cell_length_a   6.93016572
_cell_length_b   6.61694906
_cell_length_c   7.42373414
_cell_angle_alpha   90.00000000
_cell_angle_beta   90.00000000
_cell_angle_gamma   90.00000000
_symmetry_Int_Tables_number   1
_chemical_formula_structural   FeSO5
_chemical_formula_sum   'Fe4 S4 O20'
_cell_volume   340.42686248
_cell_formula_units_Z   4
loop_
 _symmetry_equiv_pos_site_id
 _symmetry_equiv_pos_as_xyz
  1  'x, y, z'
loop_
 _atom_site_type_symbol
 _atom_site_label
 _atom_site_symmetry_multiplicity
 _atom_site_fract_x
 _atom_site_fract_y
 _atom_site_fract_z
 _atom_site_occupancy
  Fe  Fe0  1  0.14444650  0.75000000  0.24131857  1.0
  Fe  Fe1  1  0.64444650  0.75000000  0.25868143  1.0
  Fe  Fe2  1  0.85555350  0.25000000  0.75868143  1.0
  Fe  Fe3  1  0.35555350  0.25000000  0.74131857  1.0
  O  O4  1  0.36788599  0.92977808  0.73652313  1.0
  O  O5  1  0.36788599  0.57022192  0.73652313  1.0
  O  O6  1  0.86788599  0.92977808  0.76347687  1.0
  O  O7  1  0.86788599  0.57022192  0.76347687  1.0
  O  O8  1  0.63211401  0.42977808  0.26347687  1.0
  O  O9  1  0.63211401  0.07022192  0.26347687  1.0
  O  O10  1  0.13211401  0.42977808  0.23652313  1.0
  O  O11  1  0.13211401  0.07022192  0.23652313  1.0
  O  O12  1  0.19996310  0.75000000  0.49517930  1.0
  O  O13  1  0.69996310  0.75000000  1.00482070  1.0
  O  O14  1  0.80003690  0.25000000  0.50482070  1.0
  O  O15  1  0.30003690  0.25000000  -0.00482070  1.0
  O  O16  1  0.05762546  0.75000000  0.98912263  1.0
  O  O17  1  0.55762546  0.75000000  0.51087737  1.0
  O  O18  1  0.94237454  0.25000000  0.01087737  1.0
  O  O19  1  0.44237454  0.25000000  0.48912263  1.0
  O  O20  1  0.38402691  0.75000000  0.18122573  1.0
  O  O21  1  0.88402691  0.75000000  0.31877427  1.0
  O  O22  1  0.61597309  0.25000000  0.81877427  1.0
  O  O23  1  0.11597309  0.25000000  0.68122573  1.0
  S  S24  1  0.37435548  0.75000000  0.61947466  1.0
  S  S25  1  0.87435548  0.75000000  0.88052534  1.0
  S  S26  1  0.62564452  0.25000000  0.38052534  1.0
  S  S27  1  0.12564452  0.25000000  0.11947466  1.0
