# generated using pymatgen
data_Ba2Sc2B4O11
_symmetry_space_group_name_H-M   'P 1'
_cell_length_a   9.35870605
_cell_length_b   9.35870605
_cell_length_c   6.42006350
_cell_angle_alpha   81.33924798
_cell_angle_beta   98.66075202
_cell_angle_gamma   119.32302982
_symmetry_Int_Tables_number   1
_chemical_formula_structural   Ba2Sc2B4O11
_chemical_formula_sum   'Ba4 Sc4 B8 O22'
_cell_volume   482.73717846
_cell_formula_units_Z   2
loop_
 _symmetry_equiv_pos_site_id
 _symmetry_equiv_pos_as_xyz
  1  'x, y, z'
loop_
 _atom_site_type_symbol
 _atom_site_label
 _atom_site_symmetry_multiplicity
 _atom_site_fract_x
 _atom_site_fract_y
 _atom_site_fract_z
 _atom_site_occupancy
  Ba  Ba0  1  0.52818553  -0.19630961  0.07558462  1.0
  Ba  Ba1  1  1.19630961  0.47181447  0.57558462  1.0
  Ba  Ba2  1  0.80369039  -0.47181447  0.42441538  1.0
  Ba  Ba3  1  1.47181447  0.19630961  0.92441538  1.0
  Sc  Sc4  1  1.50000000  -0.00000000  0.50000000  1.0
  Sc  Sc5  1  1.00000000  -0.50000000  0.00000000  1.0
  Sc  Sc6  1  -0.00000000  0.00000000  0.50000000  1.0
  Sc  Sc7  1  0.00000000  0.00000000  0.00000000  1.0
  B  B8  1  1.82889678  0.16900486  0.24495070  1.0
  B  B9  1  0.83099514  -0.82889678  0.74495070  1.0
  B  B10  1  1.16900486  0.82889678  0.25504930  1.0
  B  B11  1  0.17110322  -0.16900486  0.75504930  1.0
  B  B12  1  1.37937041  0.27872622  0.41257138  1.0
  B  B13  1  0.72127378  -0.37937041  0.91257138  1.0
  B  B14  1  1.27872622  0.37937041  0.08742862  1.0
  B  B15  1  0.62062959  -0.27872622  0.58742862  1.0
  O  O16  1  1.89800315  0.07255815  0.20616983  1.0
  O  O17  1  0.92744185  -0.89800315  0.70616983  1.0
  O  O18  1  1.07255815  0.89800315  0.29383017  1.0
  O  O19  1  0.10199685  -0.07255815  0.79383017  1.0
  O  O20  1  1.66305554  0.09567939  0.26283974  1.0
  O  O21  1  0.90432061  -0.66305554  0.76283974  1.0
  O  O22  1  1.09567939  0.66305554  0.23716026  1.0
  O  O23  1  0.33694446  -0.09567939  0.73716026  1.0
  O  O24  1  0.33351153  -0.07111048  0.23454895  1.0
  O  O25  1  1.07111048  0.66648847  0.73454895  1.0
  O  O26  1  0.92888952  -0.66648847  0.26545105  1.0
  O  O27  1  1.66648847  0.07111048  0.76545105  1.0
  O  O28  1  1.50115044  0.23756074  0.48077219  1.0
  O  O29  1  0.76243926  -0.50115044  0.98077219  1.0
  O  O30  1  1.23756074  0.50115044  0.01922781  1.0
  O  O31  1  0.49884956  -0.23756074  0.51922781  1.0
  O  O32  1  1.23335522  0.21463750  0.49821707  1.0
  O  O33  1  0.78536250  -0.23335522  0.99821707  1.0
  O  O34  1  1.21463750  0.23335522  0.00178293  1.0
  O  O35  1  0.76664478  -0.21463750  0.50178293  1.0
  O  O36  1  1.41343743  0.41343743  0.25000000  1.0
  O  O37  1  0.58656257  -0.41343743  0.75000000  1.0
