# generated using pymatgen
data_Sr2YOsO6
_symmetry_space_group_name_H-M   'P 1'
_cell_length_a   5.80977365
_cell_length_b   5.87255778
_cell_length_c   10.05723644
_cell_angle_alpha   90.00000000
_cell_angle_beta   124.94826189
_cell_angle_gamma   90.00000000
_symmetry_Int_Tables_number   1
_chemical_formula_structural   Sr2YOsO6
_chemical_formula_sum   'Sr4 Y2 Os2 O12'
_cell_volume   281.25744416
_cell_formula_units_Z   2
loop_
 _symmetry_equiv_pos_site_id
 _symmetry_equiv_pos_as_xyz
  1  'x, y, z'
loop_
 _atom_site_type_symbol
 _atom_site_label
 _atom_site_symmetry_multiplicity
 _atom_site_fract_x
 _atom_site_fract_y
 _atom_site_fract_z
 _atom_site_occupancy
  Sr  Sr0  1  0.24109940  0.46427575  0.24938200  1.0
  Sr  Sr1  1  0.24109940  0.03572425  0.74938200  1.0
  Sr  Sr2  1  0.75890060  0.96427575  0.25061800  1.0
  Sr  Sr3  1  0.75890060  0.53572425  0.75061800  1.0
  O  O4  1  0.30889825  0.02026549  0.23410077  1.0
  O  O5  1  0.30889825  0.47973451  0.73410077  1.0
  O  O6  1  0.69110175  0.52026549  0.26589923  1.0
  O  O7  1  0.69110175  0.97973451  0.76589923  1.0
  O  O8  1  0.84425311  0.72845282  0.04073484  1.0
  O  O9  1  0.84425311  0.77154718  0.54073484  1.0
  O  O10  1  0.15574689  0.22845282  0.45926516  1.0
  O  O11  1  0.15574689  0.27154718  0.95926516  1.0
  O  O12  1  0.76816631  0.19955687  0.03861382  1.0
  O  O13  1  0.76816631  0.30044313  0.53861382  1.0
  O  O14  1  0.23183369  0.69955687  0.46138618  1.0
  O  O15  1  0.23183369  0.80044313  0.96138618  1.0
  Y  Y16  1  0.50000000  0.00000000  0.50000000  1.0
  Y  Y17  1  0.50000000  0.50000000  0.00000000  1.0
  Os  Os18  1  0.00000000  0.00000000  0.00000000  1.0
  Os  Os19  1  -0.00000000  0.50000000  0.50000000  1.0
