# generated using pymatgen
data_Bi2WO6
_symmetry_space_group_name_H-M   'P 1'
_cell_length_a   8.47261433
_cell_length_b   8.47261433
_cell_length_c   8.35987704
_cell_angle_alpha   102.08010723
_cell_angle_beta   77.91989277
_cell_angle_gamma   153.84239361
_symmetry_Int_Tables_number   1
_chemical_formula_structural   Bi2WO6
_chemical_formula_sum   'Bi4 W2 O12'
_cell_volume   258.37767619
_cell_formula_units_Z   2
loop_
 _symmetry_equiv_pos_site_id
 _symmetry_equiv_pos_as_xyz
  1  'x, y, z'
loop_
 _atom_site_type_symbol
 _atom_site_label
 _atom_site_symmetry_multiplicity
 _atom_site_fract_x
 _atom_site_fract_y
 _atom_site_fract_z
 _atom_site_occupancy
  Bi  Bi0  1  0.83202282  0.16797718  0.07271967  1.0
  Bi  Bi1  1  0.16797718  -0.16797718  0.92728033  1.0
  Bi  Bi2  1  0.82030976  0.17969024  0.60092914  1.0
  Bi  Bi3  1  0.17969024  -0.17969024  0.39907086  1.0
  W  W4  1  0.49712490  0.50287510  0.70263083  1.0
  W  W5  1  0.50287510  0.49712490  0.29736917  1.0
  O  O6  1  0.99482059  0.00517941  0.68424650  1.0
  O  O7  1  0.00517941  -0.00517941  0.31575350  1.0
  O  O8  1  0.57776577  0.42223423  0.48345266  1.0
  O  O9  1  0.42223423  -0.42223423  0.51654734  1.0
  O  O10  1  0.57538663  0.42461337  0.82187502  1.0
  O  O11  1  0.42461337  -0.42461337  0.17812498  1.0
  O  O12  1  0.39614957  -0.39614957  0.84767457  1.0
  O  O13  1  0.60385043  0.39614957  0.15232543  1.0
  O  O14  1  0.74961859  0.25038141  0.88006070  1.0
  O  O15  1  0.25038141  -0.25038141  0.11993930  1.0
  O  O16  1  0.23281126  -0.23281126  0.63451828  1.0
  O  O17  1  0.76718874  0.23281126  0.36548172  1.0
