# generated using pymatgen
data_TmCO4
_symmetry_space_group_name_H-M   'P 1'
_cell_length_a   9.35289332
_cell_length_b   9.35289332
_cell_length_c   7.99419414
_cell_angle_alpha   90.00000000
_cell_angle_beta   90.00000000
_cell_angle_gamma   90.00000000
_symmetry_Int_Tables_number   1
_chemical_formula_structural   TmCO4
_chemical_formula_sum   'Tm8 C8 O32'
_cell_volume   699.30503046
_cell_formula_units_Z   8
loop_
 _symmetry_equiv_pos_site_id
 _symmetry_equiv_pos_as_xyz
  1  'x, y, z'
loop_
 _atom_site_type_symbol
 _atom_site_label
 _atom_site_symmetry_multiplicity
 _atom_site_fract_x
 _atom_site_fract_y
 _atom_site_fract_z
 _atom_site_occupancy
  Tm  Tm0  1  0.27692511  0.72307489  0.00000000  1.0
  Tm  Tm1  1  0.72307489  0.72307489  0.00000000  1.0
  Tm  Tm2  1  0.27692511  0.27692511  0.00000000  1.0
  Tm  Tm3  1  0.72307489  0.27692511  0.00000000  1.0
  Tm  Tm4  1  0.22307489  0.77692511  0.50000000  1.0
  Tm  Tm5  1  0.77692511  0.77692511  0.50000000  1.0
  Tm  Tm6  1  0.22307489  0.22307489  0.50000000  1.0
  Tm  Tm7  1  0.77692511  0.22307489  0.50000000  1.0
  O  O8  1  0.00000000  0.72984910  0.99740691  1.0
  O  O9  1  0.00000000  0.27015090  0.99740691  1.0
  O  O10  1  0.22984910  0.50000000  0.49740691  1.0
  O  O11  1  0.77015090  0.50000000  0.49740691  1.0
  O  O12  1  0.50000000  0.77015090  0.50259309  1.0
  O  O13  1  0.50000000  0.22984910  0.50259309  1.0
  O  O14  1  0.27015090  0.00000000  0.00259309  1.0
  O  O15  1  0.72984910  0.00000000  0.00259309  1.0
  O  O16  1  0.37887001  0.77420077  0.26467771  1.0
  O  O17  1  0.62112999  0.77420077  0.26467771  1.0
  O  O18  1  0.37887001  0.22579923  0.26467771  1.0
  O  O19  1  0.62112999  0.22579923  0.26467771  1.0
  O  O20  1  0.27420077  0.87887001  0.76467771  1.0
  O  O21  1  0.72579923  0.87887001  0.76467771  1.0
  O  O22  1  0.27420077  0.12112999  0.76467771  1.0
  O  O23  1  0.72579923  0.12112999  0.76467771  1.0
  O  O24  1  0.12112999  0.72579923  0.23532229  1.0
  O  O25  1  0.87887001  0.72579923  0.23532229  1.0
  O  O26  1  0.12112999  0.27420077  0.23532229  1.0
  O  O27  1  0.87887001  0.27420077  0.23532229  1.0
  O  O28  1  0.22579923  0.62112999  0.73532229  1.0
  O  O29  1  0.77420077  0.62112999  0.73532229  1.0
  O  O30  1  0.22579923  0.37887001  0.73532229  1.0
  O  O31  1  0.77420077  0.37887001  0.73532229  1.0
  O  O32  1  0.29841671  0.50000000  0.04594656  1.0
  O  O33  1  0.70158329  0.50000000  0.04594656  1.0
  O  O34  1  0.00000000  0.79841671  0.54594656  1.0
  O  O35  1  0.00000000  0.20158329  0.54594656  1.0
  O  O36  1  0.20158329  0.00000000  0.45405344  1.0
  O  O37  1  0.79841671  0.00000000  0.45405344  1.0
  O  O38  1  0.50000000  0.70158329  0.95405344  1.0
  O  O39  1  0.50000000  0.29841671  0.95405344  1.0
  C  C40  1  0.00000000  0.72779393  0.15901715  1.0
  C  C41  1  0.00000000  0.27220607  0.15901715  1.0
  C  C42  1  0.22779393  0.50000000  0.65901715  1.0
  C  C43  1  0.77220607  0.50000000  0.65901715  1.0
  C  C44  1  0.50000000  0.77220607  0.34098285  1.0
  C  C45  1  0.50000000  0.22779393  0.34098285  1.0
  C  C46  1  0.27220607  0.00000000  0.84098285  1.0
  C  C47  1  0.72779393  0.00000000  0.84098285  1.0
