# generated using pymatgen
data_ZrGeRh
_symmetry_space_group_name_H-M   'P 1'
_cell_length_a   6.64246303
_cell_length_b   4.01568267
_cell_length_c   7.61239238
_cell_angle_alpha   90.00000000
_cell_angle_beta   90.00000000
_cell_angle_gamma   90.00000000
_symmetry_Int_Tables_number   1
_chemical_formula_structural   ZrGeRh
_chemical_formula_sum   'Zr4 Ge4 Rh4'
_cell_volume   203.05313479
_cell_formula_units_Z   4
loop_
 _symmetry_equiv_pos_site_id
 _symmetry_equiv_pos_as_xyz
  1  'x, y, z'
loop_
 _atom_site_type_symbol
 _atom_site_label
 _atom_site_symmetry_multiplicity
 _atom_site_fract_x
 _atom_site_fract_y
 _atom_site_fract_z
 _atom_site_occupancy
  Zr  Zr0  1  0.97823076  0.75000000  0.69168564  1.0
  Zr  Zr1  1  0.47823076  0.75000000  0.80831436  1.0
  Zr  Zr2  1  0.02176924  0.25000000  0.30831436  1.0
  Zr  Zr3  1  0.52176924  0.25000000  0.19168564  1.0
  Ge  Ge4  1  0.73448043  0.75000000  0.38497993  1.0
  Ge  Ge5  1  0.23448043  0.75000000  0.11502007  1.0
  Ge  Ge6  1  0.26551957  0.25000000  0.61502007  1.0
  Ge  Ge7  1  0.76551957  0.25000000  0.88497993  1.0
  Rh  Rh8  1  0.85445583  0.75000000  0.06636908  1.0
  Rh  Rh9  1  0.35445583  0.75000000  0.43363091  1.0
  Rh  Rh10  1  0.14554417  0.25000000  0.93363092  1.0
  Rh  Rh11  1  0.64554417  0.25000000  0.56636909  1.0
