# generated using pymatgen
data_Ca3GaAs3
_symmetry_space_group_name_H-M   'P 1'
_cell_length_a   12.28372029
_cell_length_b   4.21961873
_cell_length_c   13.48829041
_cell_angle_alpha   90.00000000
_cell_angle_beta   90.00000000
_cell_angle_gamma   90.00000000
_symmetry_Int_Tables_number   1
_chemical_formula_structural   Ca3GaAs3
_chemical_formula_sum   'Ca12 Ga4 As12'
_cell_volume   699.13337912
_cell_formula_units_Z   4
loop_
 _symmetry_equiv_pos_site_id
 _symmetry_equiv_pos_as_xyz
  1  'x, y, z'
loop_
 _atom_site_type_symbol
 _atom_site_label
 _atom_site_symmetry_multiplicity
 _atom_site_fract_x
 _atom_site_fract_y
 _atom_site_fract_z
 _atom_site_occupancy
  Ca  Ca0  1  0.72741029  0.75000000  0.71536550  1.0
  Ca  Ca1  1  0.22741029  0.75000000  0.78463450  1.0
  Ca  Ca2  1  0.27258971  0.25000000  0.28463450  1.0
  Ca  Ca3  1  0.77258971  0.25000000  0.21536550  1.0
  Ca  Ca4  1  0.64772041  0.75000000  -0.00037213  1.0
  Ca  Ca5  1  0.14772041  0.75000000  0.50037213  1.0
  Ca  Ca6  1  0.35227959  0.25000000  1.00037213  1.0
  Ca  Ca7  1  0.85227959  0.25000000  0.49962787  1.0
  Ca  Ca8  1  0.43773622  0.75000000  0.60950764  1.0
  Ca  Ca9  1  0.93773622  0.75000000  0.89049236  1.0
  Ca  Ca10  1  0.56226378  0.25000000  0.39049236  1.0
  Ca  Ca11  1  0.06226378  0.25000000  0.10950764  1.0
  Ga  Ga12  1  0.93657207  0.75000000  0.29777896  1.0
  Ga  Ga13  1  0.43657207  0.75000000  0.20222104  1.0
  Ga  Ga14  1  0.06342793  0.25000000  0.70222104  1.0
  Ga  Ga15  1  0.56342793  0.25000000  0.79777896  1.0
  As  As16  1  0.95766474  0.75000000  0.64882754  1.0
  As  As17  1  0.45766474  0.75000000  0.85117246  1.0
  As  As18  1  0.04233526  0.25000000  0.35117246  1.0
  As  As19  1  0.54233526  0.25000000  0.14882754  1.0
  As  As20  1  0.89213320  0.75000000  0.11231382  1.0
  As  As21  1  0.39213320  0.75000000  0.38768618  1.0
  As  As22  1  0.10786680  0.25000000  0.88768618  1.0
  As  As23  1  0.60786680  0.25000000  0.61231382  1.0
  As  As24  1  0.74920405  0.75000000  0.37827369  1.0
  As  As25  1  0.24920405  0.75000000  0.12172631  1.0
  As  As26  1  0.25079595  0.25000000  0.62172631  1.0
  As  As27  1  0.75079595  0.25000000  0.87827369  1.0
