# generated using pymatgen
data_V2CoO6
_symmetry_space_group_name_H-M   'P 1'
_cell_length_a   13.49471428
_cell_length_b   5.53891708
_cell_length_c   4.81523572
_cell_angle_alpha   90.00000000
_cell_angle_beta   90.00000000
_cell_angle_gamma   90.00000000
_symmetry_Int_Tables_number   1
_chemical_formula_structural   V2CoO6
_chemical_formula_sum   'V8 Co4 O24'
_cell_volume   359.92010705
_cell_formula_units_Z   4
loop_
 _symmetry_equiv_pos_site_id
 _symmetry_equiv_pos_as_xyz
  1  'x, y, z'
loop_
 _atom_site_type_symbol
 _atom_site_label
 _atom_site_symmetry_multiplicity
 _atom_site_fract_x
 _atom_site_fract_y
 _atom_site_fract_z
 _atom_site_occupancy
  V  V0  1  0.66269532  0.67664536  0.76314637  1.0
  V  V1  1  0.66269532  0.32335464  0.26314637  1.0
  V  V2  1  0.16269532  0.17664536  0.73685363  1.0
  V  V3  1  0.16269532  0.82335464  0.23685363  1.0
  V  V4  1  0.33730468  0.67664536  0.73685363  1.0
  V  V5  1  0.33730468  0.32335464  0.23685363  1.0
  V  V6  1  0.83730468  0.17664536  0.76314637  1.0
  V  V7  1  0.83730468  0.82335464  0.26314637  1.0
  Co  Co8  1  0.00000000  0.64473940  0.75000000  1.0
  Co  Co9  1  0.00000000  0.35526060  0.25000000  1.0
  Co  Co10  1  0.50000000  0.14473940  0.75000000  1.0
  Co  Co11  1  0.50000000  0.85526060  0.25000000  1.0
  O  O12  1  0.90447452  0.88477269  0.56848224  1.0
  O  O13  1  0.90447452  0.11522731  0.06848224  1.0
  O  O14  1  0.40447452  0.38477269  0.93151776  1.0
  O  O15  1  0.40447452  0.61522731  0.43151776  1.0
  O  O16  1  0.09552548  0.88477269  0.93151776  1.0
  O  O17  1  0.09552548  0.11522731  0.43151776  1.0
  O  O18  1  0.59552548  0.38477269  0.56848224  1.0
  O  O19  1  0.59552548  0.61522731  0.06848224  1.0
  O  O20  1  0.75370336  0.87095318  0.90843401  1.0
  O  O21  1  0.75370336  0.12904682  0.40843401  1.0
  O  O22  1  0.25370336  0.37095318  0.59156599  1.0
  O  O23  1  0.25370336  0.62904682  0.09156599  1.0
  O  O24  1  0.24629664  0.87095318  0.59156599  1.0
  O  O25  1  0.24629664  0.12904682  0.09156599  1.0
  O  O26  1  0.74629664  0.37095318  0.90843401  1.0
  O  O27  1  0.74629664  0.62904682  0.40843401  1.0
  O  O28  1  0.58253236  0.86790168  0.59403716  1.0
  O  O29  1  0.58253236  0.13209832  0.09403716  1.0
  O  O30  1  0.08253236  0.36790168  0.90596284  1.0
  O  O31  1  0.08253236  0.63209832  0.40596284  1.0
  O  O32  1  0.41746764  0.86790168  0.90596284  1.0
  O  O33  1  0.41746764  0.13209832  0.40596284  1.0
  O  O34  1  0.91746764  0.36790168  0.59403716  1.0
  O  O35  1  0.91746764  0.63209832  0.09403716  1.0
