# generated using pymatgen
data_CaMgPd
_symmetry_space_group_name_H-M   'P 1'
_cell_length_a   7.40440252
_cell_length_b   4.29939130
_cell_length_c   8.53651938
_cell_angle_alpha   90.00000000
_cell_angle_beta   90.00000000
_cell_angle_gamma   90.00000000
_symmetry_Int_Tables_number   1
_chemical_formula_structural   CaMgPd
_chemical_formula_sum   'Ca4 Mg4 Pd4'
_cell_volume   271.75517584
_cell_formula_units_Z   4
loop_
 _symmetry_equiv_pos_site_id
 _symmetry_equiv_pos_as_xyz
  1  'x, y, z'
loop_
 _atom_site_type_symbol
 _atom_site_label
 _atom_site_symmetry_multiplicity
 _atom_site_fract_x
 _atom_site_fract_y
 _atom_site_fract_z
 _atom_site_occupancy
  Ca  Ca0  1  0.96971598  0.75000000  0.67566855  1.0
  Ca  Ca1  1  0.46971598  0.75000000  0.82433145  1.0
  Ca  Ca2  1  0.03028402  0.25000000  0.32433145  1.0
  Ca  Ca3  1  0.53028402  0.25000000  0.17566855  1.0
  Mg  Mg4  1  0.86028330  0.75000000  0.06198460  1.0
  Mg  Mg5  1  0.36028330  0.75000000  0.43801540  1.0
  Mg  Mg6  1  0.13971670  0.25000000  0.93801540  1.0
  Mg  Mg7  1  0.63971670  0.25000000  0.56198460  1.0
  Pd  Pd8  1  0.72932409  0.75000000  0.37443357  1.0
  Pd  Pd9  1  0.22932409  0.75000000  0.12556643  1.0
  Pd  Pd10  1  0.27067591  0.25000000  0.62556643  1.0
  Pd  Pd11  1  0.77067591  0.25000000  0.87443357  1.0
