# generated using pymatgen
data_CoGe
_symmetry_space_group_name_H-M   'P 1'
_cell_length_a   4.62885333
_cell_length_b   4.62885333
_cell_length_c   4.62885333
_cell_angle_alpha   90.00000000
_cell_angle_beta   90.00000000
_cell_angle_gamma   90.00000000
_symmetry_Int_Tables_number   1
_chemical_formula_structural   CoGe
_chemical_formula_sum   'Co4 Ge4'
_cell_volume   99.17912199
_cell_formula_units_Z   4
loop_
 _symmetry_equiv_pos_site_id
 _symmetry_equiv_pos_as_xyz
  1  'x, y, z'
loop_
 _atom_site_type_symbol
 _atom_site_label
 _atom_site_symmetry_multiplicity
 _atom_site_fract_x
 _atom_site_fract_y
 _atom_site_fract_z
 _atom_site_occupancy
  Co  Co0  1  0.11366910  0.61366910  0.88633090  1.0
  Co  Co1  1  0.61366910  0.88633090  0.11366910  1.0
  Co  Co2  1  0.88633090  0.11366910  0.61366910  1.0
  Co  Co3  1  0.38633090  0.38633090  0.38633090  1.0
  Ge  Ge4  1  0.41047219  0.91047219  0.58952781  1.0
  Ge  Ge5  1  0.91047219  0.58952781  0.41047219  1.0
  Ge  Ge6  1  0.58952781  0.41047219  0.91047219  1.0
  Ge  Ge7  1  0.08952781  0.08952781  0.08952781  1.0
