# generated using pymatgen
data_Ta12Al4CoC
_symmetry_space_group_name_H-M   'P 1'
_cell_length_a   10.81516307
_cell_length_b   10.81516307
_cell_length_c   10.81516307
_cell_angle_alpha   60.00000000
_cell_angle_beta   60.00000000
_cell_angle_gamma   60.00000000
_symmetry_Int_Tables_number   1
_chemical_formula_structural   Ta12Al4CoC
_chemical_formula_sum   'Ta24 Al8 Co2 C2'
_cell_volume   894.50797820
_cell_formula_units_Z   2
loop_
 _symmetry_equiv_pos_site_id
 _symmetry_equiv_pos_as_xyz
  1  'x, y, z'
loop_
 _atom_site_type_symbol
 _atom_site_label
 _atom_site_symmetry_multiplicity
 _atom_site_fract_x
 _atom_site_fract_y
 _atom_site_fract_z
 _atom_site_occupancy
  Ta  Ta0  1  0.99657669  -0.74638271  0.75322933  1.0
  Ta  Ta1  1  -0.00342331  0.75322933  0.25361729  1.0
  Ta  Ta2  1  -0.00361729  0.25342331  0.25342331  1.0
  Ta  Ta3  1  0.49677067  0.25342331  0.25342331  1.0
  Ta  Ta4  1  -0.74638271  0.99657669  0.75322933  1.0
  Ta  Ta5  1  0.99657669  -0.00342331  0.75322933  1.0
  Ta  Ta6  1  0.99657669  -0.24677067  0.99657669  1.0
  Ta  Ta7  1  -0.74638271  0.75322933  0.99657669  1.0
  Ta  Ta8  1  0.25342331  -0.00361729  0.25342331  1.0
  Ta  Ta9  1  0.25342331  0.25342331  -0.00361729  1.0
  Ta  Ta10  1  0.49677067  0.25342331  -0.00361729  1.0
  Ta  Ta11  1  0.49677067  -0.00361729  0.25342331  1.0
  Ta  Ta12  1  0.75322933  -0.00342331  0.99657669  1.0
  Ta  Ta13  1  -0.74638271  0.99657669  0.99657669  1.0
  Ta  Ta14  1  0.25342331  0.49677067  -0.00361729  1.0
  Ta  Ta15  1  0.25342331  -0.00361729  0.49677067  1.0
  Ta  Ta16  1  -0.24677067  0.99657669  0.25361729  1.0
  Ta  Ta17  1  0.75322933  -0.74638271  0.99657669  1.0
  Ta  Ta18  1  0.99657669  -0.74638271  0.99657669  1.0
  Ta  Ta19  1  -0.00342331  0.99657669  0.25361729  1.0
  Ta  Ta20  1  0.25342331  0.49677067  0.25342331  1.0
  Ta  Ta21  1  -0.00361729  0.49677067  0.25342331  1.0
  Ta  Ta22  1  -0.00361729  0.25342331  0.49677067  1.0
  Ta  Ta23  1  0.25342331  0.25342331  0.49677067  1.0
  Al  Al24  1  0.67007549  -0.32992451  0.98977354  1.0
  Al  Al25  1  0.67007549  -0.01022646  0.67007549  1.0
  Al  Al26  1  0.57992451  -0.42007549  0.57992451  1.0
  Al  Al27  1  1.26022646  -0.42007549  0.57992451  1.0
  Al  Al28  1  0.98977354  -0.32992451  0.67007549  1.0
  Al  Al29  1  0.67007549  -0.32992451  0.67007549  1.0
  Al  Al30  1  0.57992451  0.26022646  0.57992451  1.0
  Al  Al31  1  0.57992451  -0.42007549  1.26022646  1.0
  Co  Co32  1  0.50000000  0.50000000  -0.50000000  1.0
  Co  Co33  1  0.75000000  -0.25000000  0.75000000  1.0
  C  C34  1  0.00000000  1.00000000  -0.00000000  1.0
  C  C35  1  0.25000000  0.25000000  0.25000000  1.0
