# generated using pymatgen
data_Mn2MoP12
_symmetry_space_group_name_H-M   'P 1'
_cell_length_a   8.50000294
_cell_length_b   8.50000294
_cell_length_c   10.59259846
_cell_angle_alpha   65.74795711
_cell_angle_beta   114.25204289
_cell_angle_gamma   140.55413240
_symmetry_Int_Tables_number   1
_chemical_formula_structural   Mn2MoP12
_chemical_formula_sum   'Mn4 Mo2 P24'
_cell_volume   437.50996422
_cell_formula_units_Z   2
loop_
 _symmetry_equiv_pos_site_id
 _symmetry_equiv_pos_as_xyz
  1  'x, y, z'
loop_
 _atom_site_type_symbol
 _atom_site_label
 _atom_site_symmetry_multiplicity
 _atom_site_fract_x
 _atom_site_fract_y
 _atom_site_fract_z
 _atom_site_occupancy
  Mn  Mn0  1  0.51132864  -0.12773498  0.45467161  1.0
  Mn  Mn1  1  1.12773498  -0.51132864  0.95467161  1.0
  Mn  Mn2  1  0.87226502  0.51132864  0.04532839  1.0
  Mn  Mn3  1  1.48867136  0.12773498  0.54532839  1.0
  Mo  Mo4  1  0.80470970  0.80470970  0.25000000  1.0
  Mo  Mo5  1  0.19529030  0.19529030  0.75000000  1.0
  P  P6  1  1.83256789  0.06450814  0.99754175  1.0
  P  P7  1  0.93549186  0.16743211  0.49754175  1.0
  P  P8  1  1.06450814  -0.16743211  0.50245825  1.0
  P  P9  1  0.16743211  -0.06450814  0.00245825  1.0
  P  P10  1  0.52506330  -0.17081745  0.26036606  1.0
  P  P11  1  1.17081745  -0.52506330  0.76036606  1.0
  P  P12  1  0.82918255  0.52506330  0.23963394  1.0
  P  P13  1  1.47493670  0.17081745  0.73963394  1.0
  P  P14  1  0.55153278  0.09727345  0.07560240  1.0
  P  P15  1  0.90272655  -0.55153278  0.57560240  1.0
  P  P16  1  1.09727345  0.55153278  0.42439760  1.0
  P  P17  1  1.44846722  -0.09727345  0.92439760  1.0
  P  P18  1  0.50291764  0.14698428  0.33536437  1.0
  P  P19  1  0.85301572  -0.50291764  0.83536437  1.0
  P  P20  1  1.14698428  0.50291764  0.16463563  1.0
  P  P21  1  1.49708236  -0.14698428  0.66463563  1.0
  P  P22  1  0.19987377  0.07799367  0.16616317  1.0
  P  P23  1  0.92200633  0.80012623  0.66616317  1.0
  P  P24  1  1.07799367  -0.80012623  0.33383683  1.0
  P  P25  1  1.80012623  -0.07799367  0.83383683  1.0
  P  P26  1  0.48993050  0.42300311  0.42579320  1.0
  P  P27  1  0.57699689  0.51006950  0.92579320  1.0
  P  P28  1  1.42300311  -0.51006950  0.07420680  1.0
  P  P29  1  1.51006950  -0.42300311  0.57420680  1.0
