# generated using pymatgen
data_Ta2FeC
_symmetry_space_group_name_H-M   'P 1'
_cell_length_a   5.15550786
_cell_length_b   7.16515704
_cell_length_c   5.48247475
_cell_angle_alpha   90.00000000
_cell_angle_beta   90.00000000
_cell_angle_gamma   90.00000000
_symmetry_Int_Tables_number   1
_chemical_formula_structural   Ta2FeC
_chemical_formula_sum   'Ta8 Fe4 C4'
_cell_volume   202.52274543
_cell_formula_units_Z   4
loop_
 _symmetry_equiv_pos_site_id
 _symmetry_equiv_pos_as_xyz
  1  'x, y, z'
loop_
 _atom_site_type_symbol
 _atom_site_label
 _atom_site_symmetry_multiplicity
 _atom_site_fract_x
 _atom_site_fract_y
 _atom_site_fract_z
 _atom_site_occupancy
  Ta  Ta0  1  0.73714275  0.55142036  0.11694542  1.0
  Ta  Ta1  1  0.23714275  0.94857964  0.38305458  1.0
  Ta  Ta2  1  0.26285725  0.05142036  0.88305458  1.0
  Ta  Ta3  1  0.76285725  0.44857964  0.61694542  1.0
  Ta  Ta4  1  0.26285725  0.44857964  0.88305458  1.0
  Ta  Ta5  1  0.76285725  0.05142036  0.61694542  1.0
  Ta  Ta6  1  0.73714275  0.94857964  0.11694542  1.0
  Ta  Ta7  1  0.23714275  0.55142036  0.38305458  1.0
  Fe  Fe8  1  0.52704045  0.75000000  0.72610724  1.0
  Fe  Fe9  1  0.02704045  0.75000000  0.77389276  1.0
  Fe  Fe10  1  0.47295955  0.25000000  0.27389276  1.0
  Fe  Fe11  1  0.97295955  0.25000000  0.22610724  1.0
  C  C12  1  0.86173014  0.75000000  0.44368764  1.0
  C  C13  1  0.36173014  0.75000000  0.05631236  1.0
  C  C14  1  0.13826986  0.25000000  0.55631236  1.0
  C  C15  1  0.63826986  0.25000000  0.94368764  1.0
