# generated using pymatgen
data_Ba(TeO3)2
_symmetry_space_group_name_H-M   'P 1'
_cell_length_a   7.22649353
_cell_length_b   7.22649353
_cell_length_c   7.57118909
_cell_angle_alpha   90.00000000
_cell_angle_beta   90.00000000
_cell_angle_gamma   133.33186502
_symmetry_Int_Tables_number   1
_chemical_formula_structural   Ba(TeO3)2
_chemical_formula_sum   'Ba2 Te4 O12'
_cell_volume   287.59901064
_cell_formula_units_Z   2
loop_
 _symmetry_equiv_pos_site_id
 _symmetry_equiv_pos_as_xyz
  1  'x, y, z'
loop_
 _atom_site_type_symbol
 _atom_site_label
 _atom_site_symmetry_multiplicity
 _atom_site_fract_x
 _atom_site_fract_y
 _atom_site_fract_z
 _atom_site_occupancy
  Ba  Ba0  1  -0.27521656  0.27521656  0.75000000  1.0
  Ba  Ba1  1  0.27521656  0.72478344  0.25000000  1.0
  Te  Te2  1  0.41390206  0.58609794  0.75000000  1.0
  Te  Te3  1  -0.41390206  0.41390206  0.25000000  1.0
  Te  Te4  1  0.00000000  0.00000000  0.00000000  1.0
  Te  Te5  1  0.00000000  0.00000000  0.50000000  1.0
  O  O6  1  0.13052446  0.34562841  0.95390504  1.0
  O  O7  1  0.13052446  0.34562841  0.54609496  1.0
  O  O8  1  0.34562841  1.13052446  0.45390504  1.0
  O  O9  1  0.34562841  1.13052446  0.04609496  1.0
  O  O10  1  0.65437159  0.86947554  0.95390504  1.0
  O  O11  1  0.65437159  0.86947554  0.54609496  1.0
  O  O12  1  -0.13052446  0.65437159  0.45390504  1.0
  O  O13  1  -0.13052446  0.65437159  0.04609496  1.0
  O  O14  1  0.05336359  0.94663641  0.75000000  1.0
  O  O15  1  -0.05336359  0.05336359  0.25000000  1.0
  O  O16  1  0.27043837  0.72956163  0.75000000  1.0
  O  O17  1  -0.27043837  0.27043837  0.25000000  1.0
