# generated using pymatgen
data_La10Si8O3
_symmetry_space_group_name_H-M   'P 1'
_cell_length_a   10.98016019
_cell_length_b   10.98016019
_cell_length_c   4.68331619
_cell_angle_alpha   90.00000000
_cell_angle_beta   90.00000000
_cell_angle_gamma   120.00000000
_symmetry_Int_Tables_number   1
_chemical_formula_structural   La10Si8O3
_chemical_formula_sum   'La10 Si8 O3'
_cell_volume   488.99167343
_cell_formula_units_Z   1
loop_
 _symmetry_equiv_pos_site_id
 _symmetry_equiv_pos_as_xyz
  1  'x, y, z'
loop_
 _atom_site_type_symbol
 _atom_site_label
 _atom_site_symmetry_multiplicity
 _atom_site_fract_x
 _atom_site_fract_y
 _atom_site_fract_z
 _atom_site_occupancy
  La  La0  1  0.20990949  0.79009051  0.00000000  1.0
  La  La1  1  0.20990949  0.41981898  0.00000000  1.0
  La  La2  1  0.79009051  0.20990949  0.00000000  1.0
  La  La3  1  0.79009051  0.58018102  0.00000000  1.0
  La  La4  1  0.58018102  0.79009051  0.00000000  1.0
  La  La5  1  0.41981898  0.20990949  0.00000000  1.0
  La  La6  1  0.50000000  0.50000000  0.50000000  1.0
  La  La7  1  0.50000000  0.00000000  0.50000000  1.0
  La  La8  1  0.00000000  0.50000000  0.50000000  1.0
  La  La9  1  0.00000000  0.00000000  0.00000000  1.0
  Si  Si10  1  0.78211925  0.78211925  0.50000000  1.0
  Si  Si11  1  0.78211925  0.00000000  0.50000000  1.0
  Si  Si12  1  0.00000000  0.78211925  0.50000000  1.0
  Si  Si13  1  0.00000000  0.21788075  0.50000000  1.0
  Si  Si14  1  0.21788075  0.21788075  0.50000000  1.0
  Si  Si15  1  0.21788075  0.00000000  0.50000000  1.0
  Si  Si16  1  0.33333333  0.66666667  0.50000000  1.0
  Si  Si17  1  0.66666667  0.33333333  0.50000000  1.0
  O  O18  1  0.50000000  0.50000000  0.00000000  1.0
  O  O19  1  0.50000000  0.00000000  0.00000000  1.0
  O  O20  1  0.00000000  0.50000000  0.00000000  1.0
