# generated using pymatgen
data_EuTl(MoO4)2
_symmetry_space_group_name_H-M   'P 1'
_cell_length_a   6.39224939
_cell_length_b   6.39224939
_cell_length_c   9.60377631
_cell_angle_alpha   90.00000000
_cell_angle_beta   90.00000000
_cell_angle_gamma   90.00000000
_symmetry_Int_Tables_number   1
_chemical_formula_structural   EuTl(MoO4)2
_chemical_formula_sum   'Eu2 Tl2 Mo4 O16'
_cell_volume   392.41848463
_cell_formula_units_Z   2
loop_
 _symmetry_equiv_pos_site_id
 _symmetry_equiv_pos_as_xyz
  1  'x, y, z'
loop_
 _atom_site_type_symbol
 _atom_site_label
 _atom_site_symmetry_multiplicity
 _atom_site_fract_x
 _atom_site_fract_y
 _atom_site_fract_z
 _atom_site_occupancy
  Eu  Eu0  1  0.50000000  0.50000000  0.00000000  1.0
  Eu  Eu1  1  0.00000000  0.00000000  0.50000000  1.0
  Tl  Tl2  1  0.50000000  0.50000000  0.50000000  1.0
  Tl  Tl3  1  0.00000000  0.00000000  0.00000000  1.0
  Mo  Mo4  1  0.00000000  0.50000000  0.75000000  1.0
  Mo  Mo5  1  0.00000000  0.50000000  0.25000000  1.0
  Mo  Mo6  1  0.50000000  0.00000000  0.75000000  1.0
  Mo  Mo7  1  0.50000000  0.00000000  0.25000000  1.0
  O  O8  1  0.19691967  0.39289297  0.86026793  1.0
  O  O9  1  0.80308033  0.60710703  0.86026793  1.0
  O  O10  1  0.80308033  0.39289297  0.13973207  1.0
  O  O11  1  0.19691967  0.60710703  0.13973207  1.0
  O  O12  1  0.30308033  0.10710703  0.63973207  1.0
  O  O13  1  0.69691967  0.89289297  0.63973207  1.0
  O  O14  1  0.69691967  0.10710703  0.36026793  1.0
  O  O15  1  0.30308033  0.89289297  0.36026793  1.0
  O  O16  1  0.39289297  0.19691967  0.13973207  1.0
  O  O17  1  0.60710703  0.80308033  0.13973207  1.0
  O  O18  1  0.39289297  0.80308033  0.86026793  1.0
  O  O19  1  0.60710703  0.19691967  0.86026793  1.0
  O  O20  1  0.10710703  0.30308033  0.36026793  1.0
  O  O21  1  0.89289297  0.69691967  0.36026793  1.0
  O  O22  1  0.10710703  0.69691967  0.63973207  1.0
  O  O23  1  0.89289297  0.30308033  0.63973207  1.0
