# generated using pymatgen
data_Mn4SiTeBr2O7
_symmetry_space_group_name_H-M   'P 1'
_cell_length_a   5.53311769
_cell_length_b   6.45618550
_cell_length_c   13.28218826
_cell_angle_alpha   90.00000000
_cell_angle_beta   93.09051093
_cell_angle_gamma   90.00000000
_symmetry_Int_Tables_number   1
_chemical_formula_structural   Mn4SiTeBr2O7
_chemical_formula_sum   'Mn8 Si2 Te2 Br4 O14'
_cell_volume   473.78733568
_cell_formula_units_Z   2
loop_
 _symmetry_equiv_pos_site_id
 _symmetry_equiv_pos_as_xyz
  1  'x, y, z'
loop_
 _atom_site_type_symbol
 _atom_site_label
 _atom_site_symmetry_multiplicity
 _atom_site_fract_x
 _atom_site_fract_y
 _atom_site_fract_z
 _atom_site_occupancy
  Si  Si0  1  0.65245413  0.75000000  0.43875051  1.0
  Si  Si1  1  0.34754587  0.25000000  0.56124949  1.0
  Br  Br2  1  0.92903814  0.75000000  0.16992503  1.0
  Br  Br3  1  0.07096186  0.25000000  0.83007497  1.0
  Br  Br4  1  0.35438599  0.75000000  0.98249680  1.0
  Br  Br5  1  0.64561401  0.25000000  0.01750320  1.0
  O  O6  1  0.78979394  0.96300721  0.40324372  1.0
  O  O7  1  0.78979394  0.53699279  0.40324372  1.0
  O  O8  1  0.21020606  0.46300721  0.59675628  1.0
  O  O9  1  0.21020606  0.03699279  0.59675628  1.0
  O  O10  1  0.59607401  0.95923834  0.76892982  1.0
  O  O11  1  0.59607401  0.54076166  0.76892982  1.0
  O  O12  1  0.40392599  0.45923834  0.23107018  1.0
  O  O13  1  0.40392599  0.04076166  0.23107018  1.0
  O  O14  1  0.36535113  0.75000000  0.39622795  1.0
  O  O15  1  0.63464887  0.25000000  0.60377205  1.0
  O  O16  1  0.00975804  0.75000000  0.73067208  1.0
  O  O17  1  0.99024196  0.25000000  0.26932792  1.0
  O  O18  1  0.66390631  0.75000000  0.56487072  1.0
  O  O19  1  0.33609369  0.25000000  0.43512928  1.0
  Mn  Mn20  1  0.35469424  0.75000000  0.66416935  1.0
  Mn  Mn21  1  0.64530576  0.25000000  0.33583065  1.0
  Mn  Mn22  1  0.85898323  0.49733352  0.63673650  1.0
  Mn  Mn23  1  0.85898323  0.00266648  0.63673650  1.0
  Mn  Mn24  1  0.14101677  0.99733352  0.36326350  1.0
  Mn  Mn25  1  0.14101677  0.50266648  0.36326350  1.0
  Mn  Mn26  1  0.46775878  0.75000000  0.17382426  1.0
  Mn  Mn27  1  0.53224122  0.25000000  0.82617574  1.0
  Te  Te28  1  0.79334945  0.75000000  0.84795575  1.0
  Te  Te29  1  0.20665055  0.25000000  0.15204425  1.0
