# generated using pymatgen
data_Ba4AgAuO6
_symmetry_space_group_name_H-M   'P 1'
_cell_length_a   7.28019226
_cell_length_b   7.28019226
_cell_length_c   11.58736969
_cell_angle_alpha   90.00000000
_cell_angle_beta   90.00000000
_cell_angle_gamma   47.72258433
_symmetry_Int_Tables_number   1
_chemical_formula_structural   Ba4AgAuO6
_chemical_formula_sum   'Ba8 Ag2 Au2 O12'
_cell_volume   454.40324793
_cell_formula_units_Z   2
loop_
 _symmetry_equiv_pos_site_id
 _symmetry_equiv_pos_as_xyz
  1  'x, y, z'
loop_
 _atom_site_type_symbol
 _atom_site_label
 _atom_site_symmetry_multiplicity
 _atom_site_fract_x
 _atom_site_fract_y
 _atom_site_fract_z
 _atom_site_occupancy
  Ba  Ba0  1  -0.08146451  0.78993296  0.75000000  1.0
  Ba  Ba1  1  -0.21006704  0.91853549  0.25000000  1.0
  Ba  Ba2  1  -0.78993296  1.08146451  0.75000000  1.0
  Ba  Ba3  1  0.08146451  0.21006704  0.25000000  1.0
  Ba  Ba4  1  -0.35392654  0.64607346  0.00000000  1.0
  Ba  Ba5  1  -0.35392654  0.64607346  0.50000000  1.0
  Ba  Ba6  1  0.35392654  0.35392654  0.00000000  1.0
  Ba  Ba7  1  0.35392654  0.35392654  0.50000000  1.0
  Ag  Ag8  1  -0.40462050  0.40462050  0.75000000  1.0
  Ag  Ag9  1  -0.59537950  0.59537950  0.25000000  1.0
  Au  Au10  1  0.00000000  0.00000000  0.00000000  1.0
  Au  Au11  1  0.00000000  0.00000000  0.50000000  1.0
  O  O12  1  -0.24078689  0.56108947  0.75000000  1.0
  O  O13  1  -0.43891053  0.75921311  0.25000000  1.0
  O  O14  1  -0.56108947  1.24078689  0.75000000  1.0
  O  O15  1  0.24078689  0.43891053  0.25000000  1.0
  O  O16  1  -0.73169879  0.73169879  0.89147108  1.0
  O  O17  1  -0.73169879  0.73169879  0.60852892  1.0
  O  O18  1  -0.26830121  0.26830121  0.39147108  1.0
  O  O19  1  -0.26830121  0.26830121  0.10852892  1.0
  O  O20  1  -0.15455624  0.84544376  0.00000000  1.0
  O  O21  1  -0.15455624  0.84544376  0.50000000  1.0
  O  O22  1  0.15455624  0.15455624  0.00000000  1.0
  O  O23  1  0.15455624  0.15455624  0.50000000  1.0
