# generated using pymatgen
data_NaBe4SbO7
_symmetry_space_group_name_H-M   'P 1'
_cell_length_a   5.49603616
_cell_length_b   5.49603616
_cell_length_c   8.95774987
_cell_angle_alpha   90.00000000
_cell_angle_beta   90.00000000
_cell_angle_gamma   120.00000000
_symmetry_Int_Tables_number   1
_chemical_formula_structural   NaBe4SbO7
_chemical_formula_sum   'Na2 Be8 Sb2 O14'
_cell_volume   234.33044922
_cell_formula_units_Z   2
loop_
 _symmetry_equiv_pos_site_id
 _symmetry_equiv_pos_as_xyz
  1  'x, y, z'
loop_
 _atom_site_type_symbol
 _atom_site_label
 _atom_site_symmetry_multiplicity
 _atom_site_fract_x
 _atom_site_fract_y
 _atom_site_fract_z
 _atom_site_occupancy
  Na  Na0  1  0.33333333  0.66666667  0.43682426  1.0
  Na  Na1  1  0.66666667  0.33333333  0.93682426  1.0
  Be  Be2  1  0.33114213  0.16557107  0.24929295  1.0
  Be  Be3  1  0.16557107  0.33114213  0.74929295  1.0
  Be  Be4  1  0.16557107  0.83442893  0.74929295  1.0
  Be  Be5  1  0.83442893  0.16557107  0.24929295  1.0
  Be  Be6  1  0.83442893  0.66885787  0.24929295  1.0
  Be  Be7  1  0.66885787  0.83442893  0.74929295  1.0
  Be  Be8  1  0.00000000  0.00000000  0.00184514  1.0
  Be  Be9  1  0.00000000  0.00000000  0.50184514  1.0
  Sb  Sb10  1  0.33333333  0.66666667  0.06222135  1.0
  Sb  Sb11  1  0.66666667  0.33333333  0.56222135  1.0
  O  O12  1  -0.01039156  0.49480422  0.19187166  1.0
  O  O13  1  0.49480422  -0.01039156  0.69187166  1.0
  O  O14  1  0.49480422  0.50519578  0.69187166  1.0
  O  O15  1  0.50519578  0.49480422  0.19187166  1.0
  O  O16  1  0.50519578  0.01039156  0.19187166  1.0
  O  O17  1  0.01039156  0.50519578  0.69187166  1.0
  O  O18  1  0.32112679  0.16056339  0.43360823  1.0
  O  O19  1  0.16056339  0.32112679  0.93360823  1.0
  O  O20  1  0.16056339  0.83943661  0.93360823  1.0
  O  O21  1  0.83943661  0.16056339  0.43360823  1.0
  O  O22  1  0.83943661  0.67887321  0.43360823  1.0
  O  O23  1  0.67887321  0.83943661  0.93360823  1.0
  O  O24  1  0.00000000  0.00000000  0.18729074  1.0
  O  O25  1  0.00000000  0.00000000  0.68729074  1.0
