# generated using pymatgen
data_CaFe5O7
_symmetry_space_group_name_H-M   'P 1'
_cell_length_a   5.24980459
_cell_length_b   5.24980459
_cell_length_c   18.23597937
_cell_angle_alpha   90.00000000
_cell_angle_beta   90.00000000
_cell_angle_gamma   146.30572177
_symmetry_Int_Tables_number   1
_chemical_formula_structural   CaFe5O7
_chemical_formula_sum   'Ca2 Fe10 O14'
_cell_volume   278.81848227
_cell_formula_units_Z   2
loop_
 _symmetry_equiv_pos_site_id
 _symmetry_equiv_pos_as_xyz
  1  'x, y, z'
loop_
 _atom_site_type_symbol
 _atom_site_label
 _atom_site_symmetry_multiplicity
 _atom_site_fract_x
 _atom_site_fract_y
 _atom_site_fract_z
 _atom_site_occupancy
  Ca  Ca0  1  0.21667889  0.78332111  0.75000000  1.0
  Ca  Ca1  1  -0.21667889  0.21667889  0.25000000  1.0
  Fe  Fe2  1  0.00000000  0.00000000  0.00000000  1.0
  Fe  Fe3  1  0.00000000  0.00000000  0.50000000  1.0
  Fe  Fe4  1  0.27301301  0.72698699  0.42603811  1.0
  Fe  Fe5  1  0.27301301  0.72698699  0.07396189  1.0
  Fe  Fe6  1  -0.27301301  0.27301301  0.92603811  1.0
  Fe  Fe7  1  -0.27301301  0.27301301  0.57396189  1.0
  Fe  Fe8  1  0.46717226  0.53282774  0.84741898  1.0
  Fe  Fe9  1  0.46717226  0.53282774  0.65258102  1.0
  Fe  Fe10  1  -0.46717226  0.46717226  0.34741898  1.0
  Fe  Fe11  1  -0.46717226  0.46717226  0.15258102  1.0
  O  O12  1  0.09044889  0.90955111  0.89454285  1.0
  O  O13  1  0.09044889  0.90955111  0.60545715  1.0
  O  O14  1  -0.09044889  0.09044889  0.39454285  1.0
  O  O15  1  -0.09044889  0.09044889  0.10545715  1.0
  O  O16  1  0.17242180  0.82757820  0.33160886  1.0
  O  O17  1  0.17242180  0.82757820  0.16839114  1.0
  O  O18  1  -0.17242180  0.17242180  0.83160886  1.0
  O  O19  1  -0.17242180  0.17242180  0.66839114  1.0
  O  O20  1  0.36329398  0.63670602  0.96738656  1.0
  O  O21  1  0.36329398  0.63670602  0.53261344  1.0
  O  O22  1  -0.36329398  0.36329398  0.46738656  1.0
  O  O23  1  -0.36329398  0.36329398  0.03261344  1.0
  O  O24  1  -0.45506815  0.45506815  0.75000000  1.0
  O  O25  1  0.45506815  0.54493185  0.25000000  1.0
