# generated using pymatgen
data_Cs2CrCl5O
_symmetry_space_group_name_H-M   'P 1'
_cell_length_a   9.31238125
_cell_length_b   9.31238125
_cell_length_c   8.62568318
_cell_angle_alpha   90.00000000
_cell_angle_beta   90.00000000
_cell_angle_gamma   134.11471280
_symmetry_Int_Tables_number   1
_chemical_formula_structural   Cs2CrCl5O
_chemical_formula_sum   'Cs4 Cr2 Cl10 O2'
_cell_volume   537.04135427
_cell_formula_units_Z   2
loop_
 _symmetry_equiv_pos_site_id
 _symmetry_equiv_pos_as_xyz
  1  'x, y, z'
loop_
 _atom_site_type_symbol
 _atom_site_label
 _atom_site_symmetry_multiplicity
 _atom_site_fract_x
 _atom_site_fract_y
 _atom_site_fract_z
 _atom_site_occupancy
  Cs  Cs0  1  -0.96162598  0.96162598  0.25000000  1.0
  Cs  Cs1  1  -0.03837402  1.03837402  0.75000000  1.0
  Cs  Cs2  1  -0.26546961  1.26546961  0.25000000  1.0
  Cs  Cs3  1  -0.73453039  0.73453039  0.75000000  1.0
  Cr  Cr4  1  -0.60302382  0.60302382  0.25000000  1.0
  Cr  Cr5  1  -0.39697618  1.39697618  0.75000000  1.0
  Cl  Cl6  1  0.15829489  1.38934243  0.43925938  1.0
  Cl  Cl7  1  0.15829489  1.38934243  0.06074062  1.0
  Cl  Cl8  1  -0.61065757  1.15829489  0.93925938  1.0
  Cl  Cl9  1  -0.61065757  1.15829489  0.56074062  1.0
  Cl  Cl10  1  -0.38934243  0.84170511  0.43925938  1.0
  Cl  Cl11  1  -0.38934243  0.84170511  0.06074062  1.0
  Cl  Cl12  1  -0.15829489  1.61065757  0.93925938  1.0
  Cl  Cl13  1  -0.15829489  1.61065757  0.56074062  1.0
  Cl  Cl14  1  -0.75073483  0.75073483  0.25000000  1.0
  Cl  Cl15  1  -0.24926517  1.24926517  0.75000000  1.0
  O  O16  1  -0.51196545  1.51196545  0.25000000  1.0
  O  O17  1  -0.48803455  0.48803455  0.75000000  1.0
