# generated using pymatgen
data_NaNb3(TeO4)4
_symmetry_space_group_name_H-M   'P 1'
_cell_length_a   6.65627904
_cell_length_b   7.51434626
_cell_length_c   14.42908209
_cell_angle_alpha   90.00000000
_cell_angle_beta   100.35269023
_cell_angle_gamma   90.00000000
_symmetry_Int_Tables_number   1
_chemical_formula_structural   NaNb3(TeO4)4
_chemical_formula_sum   'Na2 Nb6 Te8 O32'
_cell_volume   709.95858159
_cell_formula_units_Z   2
loop_
 _symmetry_equiv_pos_site_id
 _symmetry_equiv_pos_as_xyz
  1  'x, y, z'
loop_
 _atom_site_type_symbol
 _atom_site_label
 _atom_site_symmetry_multiplicity
 _atom_site_fract_x
 _atom_site_fract_y
 _atom_site_fract_z
 _atom_site_occupancy
  Na  Na0  1  0.50000000  0.00000000  0.50000000  1.0
  Na  Na1  1  0.50000000  0.50000000  0.50000000  1.0
  Nb  Nb2  1  0.91587293  0.50074007  0.72835578  1.0
  Nb  Nb3  1  0.91587293  -0.00074007  0.72835578  1.0
  Nb  Nb4  1  0.08412707  1.00074007  0.27164422  1.0
  Nb  Nb5  1  0.08412707  0.49925993  0.27164422  1.0
  Nb  Nb6  1  0.00000000  0.00000000  0.00000000  1.0
  Nb  Nb7  1  0.00000000  0.50000000  0.00000000  1.0
  Te  Te8  1  0.95862967  0.75000000  0.50368737  1.0
  Te  Te9  1  0.04137033  0.25000000  0.49631263  1.0
  Te  Te10  1  0.59377803  0.75000000  0.28247172  1.0
  Te  Te11  1  0.40622197  0.25000000  0.71752828  1.0
  Te  Te12  1  0.50057528  0.75000000  1.00001845  1.0
  Te  Te13  1  0.49942472  0.25000000  -0.00001845  1.0
  Te  Te14  1  0.40608425  0.75000000  0.71468237  1.0
  Te  Te15  1  0.59391575  0.25000000  0.28531763  1.0
  O  O16  1  0.94573228  0.47387184  0.85879063  1.0
  O  O17  1  0.94573228  0.02612816  0.85879063  1.0
  O  O18  1  0.05426772  0.97387184  0.14120937  1.0
  O  O19  1  0.05426772  0.52612816  0.14120937  1.0
  O  O20  1  0.87740833  0.95018540  0.57650527  1.0
  O  O21  1  0.87740833  0.54981460  0.57650527  1.0
  O  O22  1  0.12259167  0.45018540  0.42349473  1.0
  O  O23  1  0.12259167  0.04981460  0.42349473  1.0
  O  O24  1  0.78488906  0.95445965  0.28132238  1.0
  O  O25  1  0.78488906  0.54554035  0.28132238  1.0
  O  O26  1  0.21511094  0.45445965  0.71867762  1.0
  O  O27  1  0.21511094  0.04554035  0.71867762  1.0
  O  O28  1  0.70505581  0.44579529  1.00116240  1.0
  O  O29  1  0.70505581  0.05420471  1.00116240  1.0
  O  O30  1  0.29494419  0.94579529  -0.00116240  1.0
  O  O31  1  0.29494419  0.55420471  -0.00116240  1.0
  O  O32  1  0.61712466  0.94161879  0.70874194  1.0
  O  O33  1  0.61712466  0.55838121  0.70874194  1.0
  O  O34  1  0.38287534  0.44161879  0.29125806  1.0
  O  O35  1  0.38287534  0.05838121  0.29125806  1.0
  O  O36  1  0.92397814  0.75000000  0.98635002  1.0
  O  O37  1  0.07602186  0.25000000  0.01364998  1.0
  O  O38  1  0.65284973  0.75000000  0.42696222  1.0
  O  O39  1  0.34715027  0.25000000  0.57303778  1.0
  O  O40  1  0.60700400  0.75000000  0.13030443  1.0
  O  O41  1  0.39299600  0.25000000  0.86969557  1.0
  O  O42  1  0.30365307  0.75000000  0.58095254  1.0
  O  O43  1  0.69634693  0.25000000  0.41904746  1.0
  O  O44  1  0.14049077  0.75000000  0.30582086  1.0
  O  O45  1  0.85950923  0.25000000  0.69417914  1.0
  O  O46  1  0.00431108  0.75000000  0.73624130  1.0
  O  O47  1  0.99568892  0.25000000  0.26375870  1.0
