# generated using pymatgen
data_MgAl2P2(HO)18
_symmetry_space_group_name_H-M   'P 1'
_cell_length_a   5.27540699
_cell_length_b   10.29602424
_cell_length_c   7.14846488
_cell_angle_alpha   74.80422309
_cell_angle_beta   66.64292107
_cell_angle_gamma   78.39227091
_symmetry_Int_Tables_number   1
_chemical_formula_structural   MgAl2P2(HO)18
_chemical_formula_sum   'Mg1 Al2 P2 H18 O18'
_cell_volume   341.91205614
_cell_formula_units_Z   1
loop_
 _symmetry_equiv_pos_site_id
 _symmetry_equiv_pos_as_xyz
  1  'x, y, z'
loop_
 _atom_site_type_symbol
 _atom_site_label
 _atom_site_symmetry_multiplicity
 _atom_site_fract_x
 _atom_site_fract_y
 _atom_site_fract_z
 _atom_site_occupancy
  Mg  Mg0  1  0.00000000  -0.50000000  0.50000000  1.0
  Al  Al1  1  -0.50000000  0.00000000  0.50000000  1.0
  Al  Al2  1  0.00000000  0.00000000  0.00000000  1.0
  P  P3  1  -0.09183340  -0.83277220  0.57846426  1.0
  P  P4  1  0.09183340  -0.16722780  0.42153574  1.0
  H  H5  1  0.46505340  -0.37608243  0.50184980  1.0
  H  H6  1  -0.46505340  -0.62391757  0.49815020  1.0
  H  H7  1  0.08885926  -0.17261437  0.79930959  1.0
  H  H8  1  -0.08885926  -0.82738563  0.20069041  1.0
  H  H9  1  -0.18021950  -0.22238813  0.99233538  1.0
  H  H10  1  0.18021950  -0.77761187  0.00766462  1.0
  H  H11  1  -0.08184455  -0.59751097  0.90604940  1.0
  H  H12  1  0.08184455  -0.40248903  0.09395060  1.0
  H  H13  1  0.35807213  -0.70572382  0.44687087  1.0
  H  H14  1  -0.35807213  -0.29427618  0.55312913  1.0
  H  H15  1  -0.21146912  -0.44561091  0.89326965  1.0
  H  H16  1  0.21146912  -0.55438909  0.10673035  1.0
  H  H17  1  -0.51730814  -0.23959653  0.92818301  1.0
  H  H18  1  0.51730814  -0.76040347  0.07181699  1.0
  H  H19  1  -0.43419657  -0.68123572  0.84288303  1.0
  H  H20  1  0.43419657  -0.31876428  0.15711697  1.0
  H  H21  1  -0.49514228  0.01452008  0.82566793  1.0
  H  H22  1  0.49514228  -0.01452008  0.17433207  1.0
  O  O23  1  -0.00131029  -0.18353786  0.95575838  1.0
  O  O24  1  0.00131029  -0.81646214  0.04424162  1.0
  O  O25  1  0.38119997  -0.61235408  0.44717584  1.0
  O  O26  1  -0.38119997  -0.38764592  0.55282416  1.0
  O  O27  1  0.64562361  -0.99667047  0.20963397  1.0
  O  O28  1  -0.64562361  -0.00332953  0.79036603  1.0
  O  O29  1  -0.06595716  -0.50865505  0.81383230  1.0
  O  O30  1  0.06595716  -0.49134495  0.18616770  1.0
  O  O31  1  0.22876189  -0.84945100  0.45947959  1.0
  O  O32  1  -0.22876189  -0.15054900  0.54052041  1.0
  O  O33  1  -0.17392142  -0.92496231  0.79980788  1.0
  O  O34  1  0.17392142  -0.07503769  0.20019212  1.0
  O  O35  1  0.57577940  -0.30643466  0.01210770  1.0
  O  O36  1  -0.57577940  -0.69356534  0.98789230  1.0
  O  O37  1  -0.18901165  -0.68153050  0.59446877  1.0
  O  O38  1  0.18901165  -0.31846950  0.40553123  1.0
  O  O39  1  -0.24241339  -0.87272232  0.45516769  1.0
  O  O40  1  0.24241339  -0.12727768  0.54483231  1.0
