# generated using pymatgen
data_PbI2
_symmetry_space_group_name_H-M   'P 1'
_cell_length_a   15.28036536
_cell_length_b   15.28036536
_cell_length_c   15.28036536
_cell_angle_alpha   17.54454231
_cell_angle_beta   17.54454231
_cell_angle_gamma   17.54454231
_symmetry_Int_Tables_number   1
_chemical_formula_structural   PbI2
_chemical_formula_sum   'Pb2 I4'
_cell_volume   282.96576335
_cell_formula_units_Z   2
loop_
 _symmetry_equiv_pos_site_id
 _symmetry_equiv_pos_as_xyz
  1  'x, y, z'
loop_
 _atom_site_type_symbol
 _atom_site_label
 _atom_site_symmetry_multiplicity
 _atom_site_fract_x
 _atom_site_fract_y
 _atom_site_fract_z
 _atom_site_occupancy
  Pb  Pb0  1  0.58303954  0.58303954  -0.41696046  1.0
  Pb  Pb1  1  0.41696046  0.41696046  -0.58303954  1.0
  I  I2  1  0.87511411  -0.12488589  -0.12488589  1.0
  I  I3  1  0.12488589  0.12488589  0.12488589  1.0
  I  I4  1  0.70904361  -0.29095639  -0.29095639  1.0
  I  I5  1  0.29095639  0.29095639  0.29095639  1.0
