# generated using pymatgen
data_Cs3Cr2Br9
_symmetry_space_group_name_H-M   'P 1'
_cell_length_a   7.75842716
_cell_length_b   7.75842716
_cell_length_c   19.55859846
_cell_angle_alpha   90.00000000
_cell_angle_beta   90.00000000
_cell_angle_gamma   120.00000000
_symmetry_Int_Tables_number   1
_chemical_formula_structural   Cs3Cr2Br9
_chemical_formula_sum   'Cs6 Cr4 Br18'
_cell_volume   1019.56692090
_cell_formula_units_Z   2
loop_
 _symmetry_equiv_pos_site_id
 _symmetry_equiv_pos_as_xyz
  1  'x, y, z'
loop_
 _atom_site_type_symbol
 _atom_site_label
 _atom_site_symmetry_multiplicity
 _atom_site_fract_x
 _atom_site_fract_y
 _atom_site_fract_z
 _atom_site_occupancy
  Cs  Cs0  1  0.33333333  0.66666667  0.43258844  1.0
  Cs  Cs1  1  0.33333333  0.66666667  0.06741156  1.0
  Cs  Cs2  1  0.66666667  0.33333333  0.93258844  1.0
  Cs  Cs3  1  0.66666667  0.33333333  0.56741156  1.0
  Cs  Cs4  1  0.00000000  -0.00000000  0.25000000  1.0
  Cs  Cs5  1  -0.00000000  -0.00000000  0.75000000  1.0
  Cr  Cr6  1  0.33333333  0.66666667  0.83599217  1.0
  Cr  Cr7  1  0.33333333  0.66666667  0.66400783  1.0
  Cr  Cr8  1  0.66666667  0.33333333  0.33599217  1.0
  Cr  Cr9  1  0.66666667  0.33333333  0.16400783  1.0
  Br  Br10  1  0.17905278  0.82094722  0.90457681  1.0
  Br  Br11  1  0.17905278  0.82094722  0.59542319  1.0
  Br  Br12  1  0.17905278  0.35810556  0.90457681  1.0
  Br  Br13  1  0.17905278  0.35810556  0.59542319  1.0
  Br  Br14  1  0.82094722  0.17905278  0.40457681  1.0
  Br  Br15  1  0.82094722  0.17905278  0.09542319  1.0
  Br  Br16  1  0.82094722  0.64189444  0.40457681  1.0
  Br  Br17  1  0.82094722  0.64189444  0.09542319  1.0
  Br  Br18  1  0.64189444  0.82094722  0.90457681  1.0
  Br  Br19  1  0.64189444  0.82094722  0.59542319  1.0
  Br  Br20  1  0.35810556  0.17905278  0.40457681  1.0
  Br  Br21  1  0.35810556  0.17905278  0.09542319  1.0
  Br  Br22  1  0.51904012  0.48095988  0.25000000  1.0
  Br  Br23  1  0.51904012  0.03808024  0.25000000  1.0
  Br  Br24  1  0.48095988  0.51904012  0.75000000  1.0
  Br  Br25  1  0.48095988  0.96191976  0.75000000  1.0
  Br  Br26  1  0.96191976  0.48095988  0.25000000  1.0
  Br  Br27  1  0.03808024  0.51904012  0.75000000  1.0
