# generated using pymatgen
data_K2Bi(IO3)5
_symmetry_space_group_name_H-M   'P 1'
_cell_length_a   12.41913407
_cell_length_b   12.41913407
_cell_length_c   8.25943727
_cell_angle_alpha   90.00000000
_cell_angle_beta   90.00000000
_cell_angle_gamma   38.81394639
_symmetry_Int_Tables_number   1
_chemical_formula_structural   K2Bi(IO3)5
_chemical_formula_sum   'K4 Bi2 I10 O30'
_cell_volume   798.46809661
_cell_formula_units_Z   2
loop_
 _symmetry_equiv_pos_site_id
 _symmetry_equiv_pos_as_xyz
  1  'x, y, z'
loop_
 _atom_site_type_symbol
 _atom_site_label
 _atom_site_symmetry_multiplicity
 _atom_site_fract_x
 _atom_site_fract_y
 _atom_site_fract_z
 _atom_site_occupancy
  K  K0  1  0.25462933  1.24537067  0.50753625  1.0
  K  K1  1  -0.24537067  1.74537067  0.49246375  1.0
  K  K2  1  0.00205581  -0.00205581  0.00000000  1.0
  K  K3  1  -0.49794419  0.49794419  0.00000000  1.0
  Bi  Bi4  1  -0.07514650  0.07514650  0.50000000  1.0
  Bi  Bi5  1  -0.57514650  0.57514650  0.50000000  1.0
  I  I6  1  0.13549859  1.59189647  0.75761089  1.0
  I  I7  1  -0.09189647  1.36450141  0.75761089  1.0
  I  I8  1  0.63549859  1.09189647  0.24238911  1.0
  I  I9  1  0.40810353  0.86450141  0.24238911  1.0
  I  I10  1  0.65959914  1.12307165  0.73678521  1.0
  I  I11  1  0.37692835  0.84040086  0.73678521  1.0
  I  I12  1  0.15959914  1.62307165  0.26321479  1.0
  I  I13  1  -0.12307165  1.34040086  0.26321479  1.0
  I  I14  1  0.70599759  0.79400241  0.96078990  1.0
  I  I15  1  0.20599759  1.29400241  0.03921010  1.0
  O  O16  1  0.66410679  1.17253225  0.94950978  1.0
  O  O17  1  0.32746775  0.83589321  0.94950978  1.0
  O  O18  1  0.16410679  1.67253225  0.05049022  1.0
  O  O19  1  -0.17253225  1.33589321  0.05049022  1.0
  O  O20  1  0.72568766  0.89178402  0.80456557  1.0
  O  O21  1  0.60821598  0.77431234  0.80456557  1.0
  O  O22  1  0.22568766  1.39178402  0.19543443  1.0
  O  O23  1  0.10821598  1.27431234  0.19543443  1.0
  O  O24  1  0.30139819  1.35486530  0.81177738  1.0
  O  O25  1  0.14513470  1.19860181  0.81177738  1.0
  O  O26  1  0.80139819  0.85486530  0.18822262  1.0
  O  O27  1  0.64513470  0.69860181  0.18822262  1.0
  O  O28  1  0.29294925  1.58211267  0.71997191  1.0
  O  O29  1  -0.08211267  1.20705075  0.71997191  1.0
  O  O30  1  0.79294925  1.08211267  0.28002809  1.0
  O  O31  1  0.41788733  0.70705075  0.28002809  1.0
  O  O32  1  0.90191269  0.93579844  0.69355860  1.0
  O  O33  1  0.56420156  0.59808731  0.69355860  1.0
  O  O34  1  0.40191269  1.43579844  0.30644140  1.0
  O  O35  1  0.06420156  1.09808731  0.30644140  1.0
  O  O36  1  0.64716862  1.26993419  0.62179278  1.0
  O  O37  1  0.23006581  0.85283138  0.62179278  1.0
  O  O38  1  0.14716862  1.76993419  0.37820722  1.0
  O  O39  1  -0.26993419  1.35283138  0.37820722  1.0
  O  O40  1  0.58539937  1.08049408  0.45253440  1.0
  O  O41  1  0.41950592  0.91460063  0.45253440  1.0
  O  O42  1  0.08539937  1.58049408  0.54746560  1.0
  O  O43  1  -0.08049408  1.41460063  0.54746560  1.0
  O  O44  1  -0.06386745  1.56386745  0.92211406  1.0
  O  O45  1  0.43613255  1.06386745  0.07788594  1.0
