# generated using pymatgen
data_Rb2Sn3(SbS5)2
_symmetry_space_group_name_H-M   'P 1'
_cell_length_a   7.11596256
_cell_length_b   13.83670989
_cell_length_c   12.14609438
_cell_angle_alpha   90.00000000
_cell_angle_beta   119.54932865
_cell_angle_gamma   90.00000000
_symmetry_Int_Tables_number   1
_chemical_formula_structural   Rb2Sn3(SbS5)2
_chemical_formula_sum   'Rb4 Sn6 Sb4 S20'
_cell_volume   1040.37081179
_cell_formula_units_Z   2
loop_
 _symmetry_equiv_pos_site_id
 _symmetry_equiv_pos_as_xyz
  1  'x, y, z'
loop_
 _atom_site_type_symbol
 _atom_site_label
 _atom_site_symmetry_multiplicity
 _atom_site_fract_x
 _atom_site_fract_y
 _atom_site_fract_z
 _atom_site_occupancy
  Rb  Rb0  1  0.93391045  0.17160105  0.32863581  1.0
  Rb  Rb1  1  0.93391045  0.32839895  0.82863581  1.0
  Rb  Rb2  1  0.06608955  0.67160105  0.17136419  1.0
  Rb  Rb3  1  0.06608955  0.82839895  0.67136419  1.0
  Sn  Sn4  1  0.61148632  0.45112435  0.15353474  1.0
  Sn  Sn5  1  0.61148632  0.04887565  0.65353474  1.0
  Sn  Sn6  1  0.38851368  0.95112435  0.34646526  1.0
  Sn  Sn7  1  0.38851368  0.54887565  0.84646526  1.0
  Sn  Sn8  1  -0.00000000  0.50000000  0.50000000  1.0
  Sn  Sn9  1  0.00000000  0.00000000  0.00000000  1.0
  Sb  Sb10  1  0.50976680  0.35810179  0.40366722  1.0
  Sb  Sb11  1  0.50976680  0.14189821  0.90366722  1.0
  Sb  Sb12  1  0.49023320  0.85810179  0.09633278  1.0
  Sb  Sb13  1  0.49023320  0.64189821  0.59633278  1.0
  S  S14  1  -0.00182400  0.44845195  0.29261385  1.0
  S  S15  1  -0.00182400  0.05154805  0.79261385  1.0
  S  S16  1  1.00182400  0.94845195  0.20738615  1.0
  S  S17  1  1.00182400  0.55154805  0.70738615  1.0
  S  S18  1  0.90081294  0.17285978  0.03236868  1.0
  S  S19  1  0.90081294  0.32714022  0.53236868  1.0
  S  S20  1  0.09918706  0.67285978  0.46763132  1.0
  S  S21  1  0.09918706  0.82714022  0.96763132  1.0
  S  S22  1  0.57421931  0.10273782  0.44413762  1.0
  S  S23  1  0.57421931  0.39726218  0.94413762  1.0
  S  S24  1  0.42578069  0.60273782  0.05586238  1.0
  S  S25  1  0.42578069  0.89726218  0.55586238  1.0
  S  S26  1  0.43554485  0.31078136  0.18418816  1.0
  S  S27  1  0.43554485  0.18921864  0.68418816  1.0
  S  S28  1  0.56445515  0.81078136  0.31581184  1.0
  S  S29  1  0.56445515  0.68921864  0.81581184  1.0
  S  S30  1  0.41897842  0.02856439  0.13072124  1.0
  S  S31  1  0.41897842  0.47143561  0.63072124  1.0
  S  S32  1  0.58102158  0.52856439  0.36927876  1.0
  S  S33  1  0.58102158  0.97143561  0.86927876  1.0
