# generated using pymatgen
data_Eu(CuSn)2
_symmetry_space_group_name_H-M   'P 1'
_cell_length_a   6.00234874
_cell_length_b   6.00234874
_cell_length_c   4.81097309
_cell_angle_alpha   71.85872327
_cell_angle_beta   108.14127673
_cell_angle_gamma   137.81105571
_symmetry_Int_Tables_number   1
_chemical_formula_structural   Eu(CuSn)2
_chemical_formula_sum   'Eu1 Cu2 Sn2'
_cell_volume   109.73156517
_cell_formula_units_Z   1
loop_
 _symmetry_equiv_pos_site_id
 _symmetry_equiv_pos_as_xyz
  1  'x, y, z'
loop_
 _atom_site_type_symbol
 _atom_site_label
 _atom_site_symmetry_multiplicity
 _atom_site_fract_x
 _atom_site_fract_y
 _atom_site_fract_z
 _atom_site_occupancy
  Eu  Eu0  1  0.00000000  0.00000000  0.00000000  1.0
  Cu  Cu1  1  1.25777461  -0.25777461  0.85750306  1.0
  Cu  Cu2  1  0.74222539  -0.74222539  0.14249694  1.0
  Sn  Sn3  1  0.64035123  -0.64035123  0.56621310  1.0
  Sn  Sn4  1  1.35964877  -0.35964877  0.43378690  1.0
