# generated using pymatgen
data_VPO5
_symmetry_space_group_name_H-M   'P 1'
_cell_length_a   5.91479442
_cell_length_b   5.91479442
_cell_length_c   6.23006157
_cell_angle_alpha   79.95582387
_cell_angle_beta   100.04417613
_cell_angle_gamma   116.39510581
_symmetry_Int_Tables_number   1
_chemical_formula_structural   VPO5
_chemical_formula_sum   'V2 P2 O10'
_cell_volume   191.08002420
_cell_formula_units_Z   2
loop_
 _symmetry_equiv_pos_site_id
 _symmetry_equiv_pos_as_xyz
  1  'x, y, z'
loop_
 _atom_site_type_symbol
 _atom_site_label
 _atom_site_symmetry_multiplicity
 _atom_site_fract_x
 _atom_site_fract_y
 _atom_site_fract_z
 _atom_site_occupancy
  V  V0  1  0.80087372  -0.80087372  0.26828717  1.0
  V  V1  1  0.19912628  -0.19912628  0.73171283  1.0
  P  P2  1  0.75106939  -0.75106939  0.74943303  1.0
  P  P3  1  0.24893061  -0.24893061  0.25056697  1.0
  O  O4  1  1.45643759  0.14122877  0.71527267  1.0
  O  O5  1  0.85877123  -0.45643759  0.71527267  1.0
  O  O6  1  1.14122877  0.45643759  0.28472733  1.0
  O  O7  1  0.54356241  -0.14122877  0.28472733  1.0
  O  O8  1  0.84871366  -0.84871366  0.58462168  1.0
  O  O9  1  0.15128634  -0.15128634  0.41537832  1.0
  O  O10  1  0.84167336  -0.84167336  0.98440793  1.0
  O  O11  1  0.15832664  -0.15832664  0.01559207  1.0
  O  O12  1  0.35794051  -0.35794051  0.78012887  1.0
  O  O13  1  0.64205949  -0.64205949  0.21987113  1.0
