# generated using pymatgen
data_Ti6O11
_symmetry_space_group_name_H-M   'P 1'
_cell_length_a   9.77328544
_cell_length_b   7.18221597
_cell_length_c   5.58313813
_cell_angle_alpha   108.72275521
_cell_angle_beta   100.31682224
_cell_angle_gamma   89.97160849
_symmetry_Int_Tables_number   1
_chemical_formula_structural   Ti6O11
_chemical_formula_sum   'Ti12 O22'
_cell_volume   364.47914665
_cell_formula_units_Z   2
loop_
 _symmetry_equiv_pos_site_id
 _symmetry_equiv_pos_as_xyz
  1  'x, y, z'
loop_
 _atom_site_type_symbol
 _atom_site_label
 _atom_site_symmetry_multiplicity
 _atom_site_fract_x
 _atom_site_fract_y
 _atom_site_fract_z
 _atom_site_occupancy
  Ti  Ti0  1  0.75851654  0.42868615  -0.80934232  1.0
  Ti  Ti1  1  0.24148346  0.57131385  -0.19065768  1.0
  Ti  Ti2  1  0.75681083  0.92420451  -0.81264604  1.0
  Ti  Ti3  1  0.24318917  0.07579549  -0.18735396  1.0
  Ti  Ti4  1  0.41251263  0.36261694  -0.72801433  1.0
  Ti  Ti5  1  0.58748737  0.63738306  -0.27198567  1.0
  Ti  Ti6  1  0.41716572  0.85832255  -0.73146443  1.0
  Ti  Ti7  1  0.58283428  0.14167745  -0.26853557  1.0
  Ti  Ti8  1  0.06485603  0.80689637  -0.67857459  1.0
  Ti  Ti9  1  0.93514397  0.19310363  -0.32142541  1.0
  Ti  Ti10  1  0.93975119  0.69709381  -0.31884276  1.0
  Ti  Ti11  1  0.06024881  0.30290619  -0.68115724  1.0
  O  O12  1  0.93449199  0.82817852  0.02694191  1.0
  O  O13  1  0.06550801  0.17182148  -1.02694191  1.0
  O  O14  1  0.70436699  0.64255008  -0.93224636  1.0
  O  O15  1  0.29563301  0.35744992  -0.06775364  1.0
  O  O16  1  0.57583641  0.30309971  -0.90837888  1.0
  O  O17  1  0.42416359  0.69690029  -0.09162112  1.0
  O  O18  1  0.21801787  0.74007487  -0.83635558  1.0
  O  O19  1  0.78198213  0.25992513  -0.16364442  1.0
  O  O20  1  0.96683361  0.54421908  -0.71094715  1.0
  O  O21  1  0.03316639  0.45578092  -0.28905285  1.0
  O  O22  1  0.85354962  0.20054381  -0.68511826  1.0
  O  O23  1  0.14645038  0.79945619  -0.31488174  1.0
  O  O24  1  0.60771106  0.98380121  -0.61918897  1.0
  O  O25  1  0.39228894  0.01619879  -0.38081103  1.0
  O  O26  1  0.47539238  0.64175712  -0.59635212  1.0
  O  O27  1  0.52460762  0.35824288  -0.40364788  1.0
  O  O28  1  0.89095539  0.90595204  -0.48520563  1.0
  O  O29  1  0.10904461  0.09404796  -0.51479437  1.0
  O  O30  1  0.75694973  0.57350512  -0.44375273  1.0
  O  O31  1  0.24305027  0.42649488  -0.55624727  1.0
  O  O32  1  0.64976618  0.92195967  -0.13387757  1.0
  O  O33  1  0.35023382  0.07804033  -0.86612243  1.0
