# generated using pymatgen
data_NaSbF6
_symmetry_space_group_name_H-M   'P 1'
_cell_length_a   6.02539218
_cell_length_b   6.02539218
_cell_length_c   6.02539218
_cell_angle_alpha   60.00000000
_cell_angle_beta   60.00000000
_cell_angle_gamma   60.00000000
_symmetry_Int_Tables_number   1
_chemical_formula_structural   NaSbF6
_chemical_formula_sum   'Na1 Sb1 F6'
_cell_volume   154.68242096
_cell_formula_units_Z   1
loop_
 _symmetry_equiv_pos_site_id
 _symmetry_equiv_pos_as_xyz
  1  'x, y, z'
loop_
 _atom_site_type_symbol
 _atom_site_label
 _atom_site_symmetry_multiplicity
 _atom_site_fract_x
 _atom_site_fract_y
 _atom_site_fract_z
 _atom_site_occupancy
  Na  Na0  1  -0.50000000  0.50000000  0.50000000  1.0
  Sb  Sb1  1  0.00000000  0.00000000  -0.00000000  1.0
  F  F2  1  -0.77415265  0.77415265  0.77415265  1.0
  F  F3  1  -0.22584735  0.22584735  0.77415265  1.0
  F  F4  1  0.77415265  0.77415265  -0.77415265  1.0
  F  F5  1  0.22584735  1.22584735  -0.22584735  1.0
  F  F6  1  0.22584735  -0.22584735  1.22584735  1.0
  F  F7  1  -0.22584735  0.22584735  0.22584735  1.0
