# generated using pymatgen
data_TiNiAs
_symmetry_space_group_name_H-M   'P 1'
_cell_length_a   6.24336212
_cell_length_b   3.73727240
_cell_length_c   7.17824657
_cell_angle_alpha   90.00000000
_cell_angle_beta   90.00000000
_cell_angle_gamma   90.00000000
_symmetry_Int_Tables_number   1
_chemical_formula_structural   TiNiAs
_chemical_formula_sum   'Ti4 Ni4 As4'
_cell_volume   167.49106779
_cell_formula_units_Z   4
loop_
 _symmetry_equiv_pos_site_id
 _symmetry_equiv_pos_as_xyz
  1  'x, y, z'
loop_
 _atom_site_type_symbol
 _atom_site_label
 _atom_site_symmetry_multiplicity
 _atom_site_fract_x
 _atom_site_fract_y
 _atom_site_fract_z
 _atom_site_occupancy
  Ti  Ti0  1  0.97338682  0.75000000  0.67822416  1.0
  Ti  Ti1  1  0.47338682  0.75000000  0.82177584  1.0
  Ti  Ti2  1  0.02661318  0.25000000  0.32177584  1.0
  Ti  Ti3  1  0.52661318  0.25000000  0.17822416  1.0
  Ni  Ni4  1  0.85269109  0.75000000  0.06331144  1.0
  Ni  Ni5  1  0.35269109  0.75000000  0.43668856  1.0
  Ni  Ni6  1  0.14730891  0.25000000  0.93668856  1.0
  Ni  Ni7  1  0.64730891  0.25000000  0.56331144  1.0
  As  As8  1  0.73489357  0.75000000  0.37763104  1.0
  As  As9  1  0.23489357  0.75000000  0.12236896  1.0
  As  As10  1  0.26510643  0.25000000  0.62236896  1.0
  As  As11  1  0.76510643  0.25000000  0.87763104  1.0
