# generated using pymatgen
data_CaB3HO6
_symmetry_space_group_name_H-M   'P 1'
_cell_length_a   13.57385099
_cell_length_b   7.00481636
_cell_length_c   4.43193252
_cell_angle_alpha   90.00000000
_cell_angle_beta   90.00000000
_cell_angle_gamma   90.00000000
_symmetry_Int_Tables_number   1
_chemical_formula_structural   CaB3HO6
_chemical_formula_sum   'Ca4 B12 H4 O24'
_cell_volume   421.39848653
_cell_formula_units_Z   4
loop_
 _symmetry_equiv_pos_site_id
 _symmetry_equiv_pos_as_xyz
  1  'x, y, z'
loop_
 _atom_site_type_symbol
 _atom_site_label
 _atom_site_symmetry_multiplicity
 _atom_site_fract_x
 _atom_site_fract_y
 _atom_site_fract_z
 _atom_site_occupancy
  Ca  Ca0  1  0.09441940  0.29620609  0.96970780  1.0
  Ca  Ca1  1  0.59441940  0.20379391  0.96970780  1.0
  Ca  Ca2  1  0.90558060  0.70379391  0.46970780  1.0
  Ca  Ca3  1  0.40558060  0.79620609  0.46970780  1.0
  B  B4  1  0.42806477  0.28645543  0.49874090  1.0
  B  B5  1  0.92806477  0.21354457  0.49874090  1.0
  B  B6  1  0.57193523  0.71354457  -0.00125910  1.0
  B  B7  1  0.07193523  0.78645543  -0.00125910  1.0
  B  B8  1  0.35554884  0.15640198  0.01857367  1.0
  B  B9  1  0.85554884  0.34359802  0.01857367  1.0
  B  B10  1  0.64445116  0.84359802  0.51857367  1.0
  B  B11  1  0.14445116  0.65640198  0.51857367  1.0
  B  B12  1  0.26954739  0.40627025  0.30354170  1.0
  B  B13  1  0.76954739  0.09372975  0.30354170  1.0
  B  B14  1  0.73045261  0.59372975  0.80354170  1.0
  B  B15  1  0.23045261  0.90627025  0.80354170  1.0
  H  H16  1  0.04588256  0.01849352  0.43750568  1.0
  H  H17  1  0.54588256  0.48150648  0.43750568  1.0
  H  H18  1  0.95411744  0.98150648  0.93750568  1.0
  H  H19  1  0.45411744  0.51849352  0.93750568  1.0
  O  O20  1  0.42981071  0.24455216  0.82196873  1.0
  O  O21  1  0.92981071  0.25544784  0.82196873  1.0
  O  O22  1  0.57018929  0.75544784  0.32196873  1.0
  O  O23  1  0.07018929  0.74455216  0.32196873  1.0
  O  O24  1  0.40308203  0.11985296  0.31248467  1.0
  O  O25  1  0.90308203  0.38014704  0.31248467  1.0
  O  O26  1  0.59691797  0.88014704  0.81248467  1.0
  O  O27  1  0.09691797  0.61985296  0.81248467  1.0
  O  O28  1  0.35745380  0.45011522  0.44159269  1.0
  O  O29  1  0.85745380  0.04988478  0.44159269  1.0
  O  O30  1  0.64254620  0.54988478  0.94159269  1.0
  O  O31  1  0.14254620  0.95011522  0.94159269  1.0
  O  O32  1  0.26734179  0.27945924  0.06565823  1.0
  O  O33  1  0.76734179  0.22054076  0.06565823  1.0
  O  O34  1  0.73265821  0.72054076  0.56565823  1.0
  O  O35  1  0.23265821  0.77945924  0.56565823  1.0
  O  O36  1  0.17820135  0.47421369  0.38479398  1.0
  O  O37  1  0.67820135  0.02578631  0.38479398  1.0
  O  O38  1  0.82179865  0.52578631  0.88479398  1.0
  O  O39  1  0.32179865  0.97421369  0.88479398  1.0
  O  O40  1  0.03178918  0.15573267  0.42293194  1.0
  O  O41  1  0.53178918  0.34426733  0.42293194  1.0
  O  O42  1  0.96821082  0.84426733  0.92293194  1.0
  O  O43  1  0.46821082  0.65573267  0.92293194  1.0
