# generated using pymatgen
data_CoCu2GeS4
_symmetry_space_group_name_H-M   'P 1'
_cell_length_a   6.47721104
_cell_length_b   6.47721104
_cell_length_c   6.47721104
_cell_angle_alpha   131.89302696
_cell_angle_beta   131.89302696
_cell_angle_gamma   70.39803172
_symmetry_Int_Tables_number   1
_chemical_formula_structural   CoCu2GeS4
_chemical_formula_sum   'Co1 Cu2 Ge1 S4'
_cell_volume   147.56180727
_cell_formula_units_Z   1
loop_
 _symmetry_equiv_pos_site_id
 _symmetry_equiv_pos_as_xyz
  1  'x, y, z'
loop_
 _atom_site_type_symbol
 _atom_site_label
 _atom_site_symmetry_multiplicity
 _atom_site_fract_x
 _atom_site_fract_y
 _atom_site_fract_z
 _atom_site_occupancy
  Co  Co0  1  0.00000000  0.00000000  0.00000000  1.0
  Cu  Cu1  1  0.25000000  0.75000000  0.50000000  1.0
  Cu  Cu2  1  0.75000000  0.25000000  0.50000000  1.0
  Ge  Ge3  1  0.50000000  0.50000000  1.00000000  1.0
  S  S4  1  0.37106611  0.87866577  1.00000000  1.0
  S  S5  1  1.12133423  1.12133423  1.49240033  1.0
  S  S6  1  0.62893389  0.62893389  0.50759967  1.0
  S  S7  1  0.87866577  0.37106611  1.00000000  1.0
