# generated using pymatgen
data_Lu2Ni12P7
_symmetry_space_group_name_H-M   'P 1'
_cell_length_a   9.03125179
_cell_length_b   9.03125179
_cell_length_c   3.65784946
_cell_angle_alpha   90.00000000
_cell_angle_beta   90.00000000
_cell_angle_gamma   120.00000000
_symmetry_Int_Tables_number   1
_chemical_formula_structural   Lu2Ni12P7
_chemical_formula_sum   'Lu2 Ni12 P7'
_cell_volume   258.37611319
_cell_formula_units_Z   1
loop_
 _symmetry_equiv_pos_site_id
 _symmetry_equiv_pos_as_xyz
  1  'x, y, z'
loop_
 _atom_site_type_symbol
 _atom_site_label
 _atom_site_symmetry_multiplicity
 _atom_site_fract_x
 _atom_site_fract_y
 _atom_site_fract_z
 _atom_site_occupancy
  Lu  Lu0  1  0.00000000  0.00000000  0.50000000  1.0
  Lu  Lu1  1  0.66666667  0.33333333  0.00000000  1.0
  Ni  Ni2  1  0.71567834  0.61687811  0.50000000  1.0
  Ni  Ni3  1  0.90119976  0.28432166  0.50000000  1.0
  Ni  Ni4  1  0.38312189  0.09880024  0.50000000  1.0
  Ni  Ni5  1  0.24010053  0.45041999  0.50000000  1.0
  Ni  Ni6  1  0.21031945  0.75989947  0.50000000  1.0
  Ni  Ni7  1  0.54958001  0.78968055  0.50000000  1.0
  Ni  Ni8  1  0.48668862  0.54459571  0.00000000  1.0
  Ni  Ni9  1  0.05790710  0.51331138  0.00000000  1.0
  Ni  Ni10  1  0.45540429  0.94209290  0.00000000  1.0
  Ni  Ni11  1  0.27145399  0.23173634  0.00000000  1.0
  Ni  Ni12  1  0.96028235  0.72854601  0.00000000  1.0
  Ni  Ni13  1  0.76826366  0.03971765  0.00000000  1.0
  P  P14  1  0.44699773  0.37269861  0.50000000  1.0
  P  P15  1  0.92570087  0.55300227  0.50000000  1.0
  P  P16  1  0.62730139  0.07429913  0.50000000  1.0
  P  P17  1  0.03943372  0.25749665  0.00000000  1.0
  P  P18  1  0.21806293  0.96056628  0.00000000  1.0
  P  P19  1  0.74250335  0.78193707  0.00000000  1.0
  P  P20  1  0.33333333  0.66666667  0.00000000  1.0
