# generated using pymatgen
data_BaCoSiO4
_symmetry_space_group_name_H-M   'P 1'
_cell_length_a   9.20749192
_cell_length_b   9.20749192
_cell_length_c   8.72152104
_cell_angle_alpha   90.00000000
_cell_angle_beta   90.00000000
_cell_angle_gamma   120.00000000
_symmetry_Int_Tables_number   1
_chemical_formula_structural   BaCoSiO4
_chemical_formula_sum   'Ba6 Co6 Si6 O24'
_cell_volume   640.33251879
_cell_formula_units_Z   6
loop_
 _symmetry_equiv_pos_site_id
 _symmetry_equiv_pos_as_xyz
  1  'x, y, z'
loop_
 _atom_site_type_symbol
 _atom_site_label
 _atom_site_symmetry_multiplicity
 _atom_site_fract_x
 _atom_site_fract_y
 _atom_site_fract_z
 _atom_site_occupancy
  Ba  Ba0  1  0.33333333  0.66666667  0.03408487  1.0
  Ba  Ba1  1  0.66666667  0.33333333  0.53408487  1.0
  Ba  Ba2  1  0.33333333  0.66666667  0.52869127  1.0
  Ba  Ba3  1  0.66666667  0.33333333  0.02869127  1.0
  Ba  Ba4  1  0.00000000  0.00000000  -0.00300552  1.0
  Ba  Ba5  1  0.00000000  0.00000000  0.49699448  1.0
  Co  Co6  1  0.32867995  0.01317046  0.21768077  1.0
  Co  Co7  1  0.01317046  0.68449050  0.71768077  1.0
  Co  Co8  1  0.68449050  0.67132005  0.21768077  1.0
  Co  Co9  1  0.98682954  0.31550950  0.21768077  1.0
  Co  Co10  1  0.67132005  0.98682954  0.71768077  1.0
  Co  Co11  1  0.31550950  0.32867995  0.71768077  1.0
  Si  Si12  1  0.01336147  0.67197413  0.32007315  1.0
  Si  Si13  1  0.67197413  0.65861266  0.82007315  1.0
  Si  Si14  1  0.65861266  0.98663853  0.32007315  1.0
  Si  Si15  1  0.32802587  0.34138734  0.32007315  1.0
  Si  Si16  1  0.98663853  0.32802587  0.82007315  1.0
  Si  Si17  1  0.34138734  0.01336147  0.82007315  1.0
  O  O18  1  0.34515222  0.07313282  0.99928237  1.0
  O  O19  1  0.07313282  0.72798060  0.49928237  1.0
  O  O20  1  0.72798060  0.65484778  0.99928237  1.0
  O  O21  1  0.92686718  0.27201940  0.99928237  1.0
  O  O22  1  0.65484778  0.92686718  0.49928237  1.0
  O  O23  1  0.27201940  0.34515222  0.49928237  1.0
  O  O24  1  0.46169565  0.90526985  0.26429268  1.0
  O  O25  1  0.90526985  0.44357420  0.76429268  1.0
  O  O26  1  0.44357420  0.53830435  0.26429268  1.0
  O  O27  1  0.09473015  0.55642580  0.26429268  1.0
  O  O28  1  0.53830435  0.09473015  0.76429268  1.0
  O  O29  1  0.55642580  0.46169565  0.76429268  1.0
  O  O30  1  0.08865749  0.84872623  0.22242478  1.0
  O  O31  1  0.84872623  0.76006874  0.72242478  1.0
  O  O32  1  0.76006874  0.91134251  0.22242478  1.0
  O  O33  1  0.15127377  0.23993126  0.22242478  1.0
  O  O34  1  0.91134251  0.15127377  0.72242478  1.0
  O  O35  1  0.23993126  0.08865749  0.72242478  1.0
  O  O36  1  0.80677973  0.56692801  0.30582271  1.0
  O  O37  1  0.56692801  0.76014827  0.80582271  1.0
  O  O38  1  0.76014827  0.19322027  0.30582271  1.0
  O  O39  1  0.43307199  0.23985173  0.30582271  1.0
  O  O40  1  0.19322027  0.43307199  0.80582271  1.0
  O  O41  1  0.23985173  0.80677973  0.80582271  1.0
