# generated using pymatgen
data_Li2Ca3N6
_symmetry_space_group_name_H-M   'P 1'
_cell_length_a   4.91430511
_cell_length_b   14.33837595
_cell_length_c   7.94624472
_cell_angle_alpha   90.00000000
_cell_angle_beta   90.00000000
_cell_angle_gamma   90.00000000
_symmetry_Int_Tables_number   1
_chemical_formula_structural   Li2Ca3N6
_chemical_formula_sum   'Li8 Ca12 N24'
_cell_volume   559.91746677
_cell_formula_units_Z   4
loop_
 _symmetry_equiv_pos_site_id
 _symmetry_equiv_pos_as_xyz
  1  'x, y, z'
loop_
 _atom_site_type_symbol
 _atom_site_label
 _atom_site_symmetry_multiplicity
 _atom_site_fract_x
 _atom_site_fract_y
 _atom_site_fract_z
 _atom_site_occupancy
  Li  Li0  1  0.50000000  0.64861763  0.50000000  1.0
  Li  Li1  1  0.50000000  0.35138237  0.50000000  1.0
  Li  Li2  1  0.00000000  0.64861763  0.50000000  1.0
  Li  Li3  1  0.00000000  0.35138237  0.50000000  1.0
  Li  Li4  1  0.50000000  0.85135140  0.00000000  1.0
  Li  Li5  1  0.50000000  0.14864860  0.00000000  1.0
  Li  Li6  1  0.00000000  0.85135140  0.00000000  1.0
  Li  Li7  1  0.00000000  0.14864860  0.00000000  1.0
  Ca  Ca8  1  0.25000000  0.83463205  0.34527703  1.0
  Ca  Ca9  1  0.25000000  0.16536795  0.34527703  1.0
  Ca  Ca10  1  0.75000000  0.83463205  0.65472297  1.0
  Ca  Ca11  1  0.75000000  0.16536795  0.65472297  1.0
  Ca  Ca12  1  0.25000000  0.66538551  0.84526341  1.0
  Ca  Ca13  1  0.25000000  0.33461449  0.84526341  1.0
  Ca  Ca14  1  0.75000000  0.66538551  0.15473659  1.0
  Ca  Ca15  1  0.75000000  0.33461449  0.15473659  1.0
  Ca  Ca16  1  0.25000000  0.50000000  0.30753905  1.0
  Ca  Ca17  1  0.75000000  0.50000000  0.69246095  1.0
  Ca  Ca18  1  0.25000000  0.00000000  0.80755652  1.0
  Ca  Ca19  1  0.75000000  0.00000000  0.19244348  1.0
  N  N20  1  0.25000000  0.95432623  0.11245727  1.0
  N  N21  1  0.25000000  0.04567377  0.11245727  1.0
  N  N22  1  0.75000000  0.95432623  0.88754273  1.0
  N  N23  1  0.75000000  0.04567377  0.88754273  1.0
  N  N24  1  0.25000000  0.82977706  0.80131270  1.0
  N  N25  1  0.25000000  0.17022294  0.80131270  1.0
  N  N26  1  0.75000000  0.82977706  0.19868730  1.0
  N  N27  1  0.75000000  0.17022294  0.19868730  1.0
  N  N28  1  0.25000000  0.82002845  0.63820378  1.0
  N  N29  1  0.25000000  0.17997155  0.63820378  1.0
  N  N30  1  0.75000000  0.82002845  0.36179622  1.0
  N  N31  1  0.75000000  0.17997155  0.36179622  1.0
  N  N32  1  0.25000000  0.68008833  0.13819443  1.0
  N  N33  1  0.25000000  0.31991167  0.13819443  1.0
  N  N34  1  0.75000000  0.68008833  0.86180557  1.0
  N  N35  1  0.75000000  0.31991167  0.86180557  1.0
  N  N36  1  0.25000000  0.67023889  0.30129222  1.0
  N  N37  1  0.25000000  0.32976111  0.30129222  1.0
  N  N38  1  0.75000000  0.67023889  0.69870778  1.0
  N  N39  1  0.75000000  0.32976111  0.69870778  1.0
  N  N40  1  0.25000000  0.54567589  0.61247798  1.0
  N  N41  1  0.25000000  0.45432411  0.61247798  1.0
  N  N42  1  0.75000000  0.54567589  0.38752202  1.0
  N  N43  1  0.75000000  0.45432411  0.38752202  1.0
