# generated using pymatgen
data_SiO2
_symmetry_space_group_name_H-M   'P 1'
_cell_length_a   6.94238651
_cell_length_b   6.94238651
_cell_length_c   6.94238651
_cell_angle_alpha   131.67252806
_cell_angle_beta   131.67252806
_cell_angle_gamma   70.74672755
_symmetry_Int_Tables_number   1
_chemical_formula_structural   SiO2
_chemical_formula_sum   'Si4 O8'
_cell_volume   182.86720392
_cell_formula_units_Z   4
loop_
 _symmetry_equiv_pos_site_id
 _symmetry_equiv_pos_as_xyz
  1  'x, y, z'
loop_
 _atom_site_type_symbol
 _atom_site_label
 _atom_site_symmetry_multiplicity
 _atom_site_fract_x
 _atom_site_fract_y
 _atom_site_fract_z
 _atom_site_occupancy
  Si  Si0  1  0.87500000  0.26343757  0.88843757  1.0
  Si  Si1  1  0.37500000  0.98656243  1.11156243  1.0
  Si  Si2  1  1.01343757  0.62500000  0.88843757  1.0
  Si  Si3  1  0.73656243  1.12500000  1.11156243  1.0
  O  O4  1  0.63370855  0.13370855  0.50000000  1.0
  O  O5  1  0.11629145  0.11629145  -0.00000000  1.0
  O  O6  1  0.86629145  0.36629145  0.50000000  1.0
  O  O7  1  0.88370855  0.88370855  1.00000000  1.0
  O  O8  1  1.03199195  0.53199195  1.06398391  1.0
  O  O9  1  0.46800805  0.96800805  0.93601609  1.0
  O  O10  1  0.71800805  0.28199195  1.00000000  1.0
  O  O11  1  0.28199195  0.71800805  1.00000000  1.0
