# generated using pymatgen
data_Y12Co5Bi
_symmetry_space_group_name_H-M   'P 1'
_cell_length_a   8.33959166
_cell_length_b   8.33959166
_cell_length_c   8.33959166
_cell_angle_alpha   110.61190748
_cell_angle_beta   110.77874183
_cell_angle_gamma   107.04985629
_symmetry_Int_Tables_number   1
_chemical_formula_structural   Y12Co5Bi
_chemical_formula_sum   'Y12 Co5 Bi1'
_cell_volume   445.89486480
_cell_formula_units_Z   1
loop_
 _symmetry_equiv_pos_site_id
 _symmetry_equiv_pos_as_xyz
  1  'x, y, z'
loop_
 _atom_site_type_symbol
 _atom_site_label
 _atom_site_symmetry_multiplicity
 _atom_site_fract_x
 _atom_site_fract_y
 _atom_site_fract_z
 _atom_site_occupancy
  Co  Co0  1  0.61025969  1.11025969  0.50000000  1.0
  Co  Co1  1  1.38974031  0.88974031  0.50000000  1.0
  Co  Co2  1  0.00000000  0.00000000  0.00000000  1.0
  Co  Co3  1  -0.00000000  0.62003287  0.62003287  1.0
  Co  Co4  1  0.00000000  0.37996713  0.37996713  1.0
  Y  Y5  1  0.71041055  0.81616230  0.52657285  1.0
  Y  Y6  1  1.28958945  0.81616230  1.10575175  1.0
  Y  Y7  1  0.71041055  0.18383770  0.89424825  1.0
  Y  Y8  1  0.28958945  0.18383770  0.47342715  1.0
  Y  Y9  1  0.79466505  0.59994036  0.80527530  1.0
  Y  Y10  1  1.20533495  1.01061025  0.80527530  1.0
  Y  Y11  1  0.79466505  0.98938975  0.19472470  1.0
  Y  Y12  1  0.20533495  0.40005964  0.19472470  1.0
  Y  Y13  1  0.38082960  0.68900317  0.69182642  1.0
  Y  Y14  1  1.00282325  1.31099683  0.69182642  1.0
  Y  Y15  1  0.99717675  0.68900317  0.30817358  1.0
  Y  Y16  1  0.61917040  0.31099683  0.30817358  1.0
  Bi  Bi17  1  0.50000000  0.50000000  0.00000000  1.0
