# generated using pymatgen
data_BaSi2(NO)2
_symmetry_space_group_name_H-M   'P 1'
_cell_length_a   14.52382438
_cell_length_b   5.39933404
_cell_length_c   4.87300442
_cell_angle_alpha   90.00000000
_cell_angle_beta   90.00000000
_cell_angle_gamma   90.00000000
_symmetry_Int_Tables_number   1
_chemical_formula_structural   BaSi2(NO)2
_chemical_formula_sum   'Ba4 Si8 N8 O8'
_cell_volume   382.13603327
_cell_formula_units_Z   4
loop_
 _symmetry_equiv_pos_site_id
 _symmetry_equiv_pos_as_xyz
  1  'x, y, z'
loop_
 _atom_site_type_symbol
 _atom_site_label
 _atom_site_symmetry_multiplicity
 _atom_site_fract_x
 _atom_site_fract_y
 _atom_site_fract_z
 _atom_site_occupancy
  Ba  Ba0  1  0.00000000  0.74639051  0.75000000  1.0
  Ba  Ba1  1  0.00000000  0.25360949  0.25000000  1.0
  Ba  Ba2  1  0.50000000  0.24639051  0.75000000  1.0
  Ba  Ba3  1  0.50000000  0.75360949  0.25000000  1.0
  Si  Si4  1  0.70005565  0.66054092  0.80110283  1.0
  Si  Si5  1  0.70005565  0.33945908  0.30110283  1.0
  Si  Si6  1  0.20005565  0.16054092  0.69889717  1.0
  Si  Si7  1  0.20005565  0.83945908  0.19889717  1.0
  Si  Si8  1  0.29994435  0.66054092  0.69889717  1.0
  Si  Si9  1  0.29994435  0.33945908  0.19889717  1.0
  Si  Si10  1  0.79994435  0.16054092  0.80110283  1.0
  Si  Si11  1  0.79994435  0.83945908  0.30110283  1.0
  N  N12  1  0.77841294  0.86855210  0.65478793  1.0
  N  N13  1  0.77841294  0.13144790  0.15478793  1.0
  N  N14  1  0.27841294  0.36855210  0.84521207  1.0
  N  N15  1  0.27841294  0.63144790  0.34521207  1.0
  N  N16  1  0.22158706  0.86855210  0.84521207  1.0
  N  N17  1  0.22158706  0.13144790  0.34521207  1.0
  N  N18  1  0.72158706  0.36855210  0.65478793  1.0
  N  N19  1  0.72158706  0.63144790  0.15478793  1.0
  O  O20  1  0.59278317  0.73451336  0.74854281  1.0
  O  O21  1  0.59278317  0.26548664  0.24854281  1.0
  O  O22  1  0.09278317  0.23451336  0.75145719  1.0
  O  O23  1  0.09278317  0.76548664  0.25145719  1.0
  O  O24  1  0.40721683  0.73451336  0.75145719  1.0
  O  O25  1  0.40721683  0.26548664  0.25145719  1.0
  O  O26  1  0.90721683  0.23451336  0.74854281  1.0
  O  O27  1  0.90721683  0.76548664  0.24854281  1.0
