# generated using pymatgen
data_Rb2Li2GeO4
_symmetry_space_group_name_H-M   'P 1'
_cell_length_a   5.80442872
_cell_length_b   5.66923443
_cell_length_c   8.96312322
_cell_angle_alpha   74.49347817
_cell_angle_beta   83.33791463
_cell_angle_gamma   85.42071743
_symmetry_Int_Tables_number   1
_chemical_formula_structural   Rb2Li2GeO4
_chemical_formula_sum   'Rb4 Li4 Ge2 O8'
_cell_volume   281.92385470
_cell_formula_units_Z   2
loop_
 _symmetry_equiv_pos_site_id
 _symmetry_equiv_pos_as_xyz
  1  'x, y, z'
loop_
 _atom_site_type_symbol
 _atom_site_label
 _atom_site_symmetry_multiplicity
 _atom_site_fract_x
 _atom_site_fract_y
 _atom_site_fract_z
 _atom_site_occupancy
  Rb  Rb0  1  -0.85025482  -0.96774162  -0.22804360  1.0
  Rb  Rb1  1  -0.14974518  -0.03225838  -0.77195640  1.0
  Rb  Rb2  1  -0.72584421  -0.28785068  -0.51733071  1.0
  Rb  Rb3  1  -0.27415579  -0.71214932  -0.48266929  1.0
  Li  Li4  1  -0.18485308  -0.43274994  -0.93859216  1.0
  Li  Li5  1  -0.81514692  -0.56725006  -0.06140784  1.0
  Li  Li6  1  -0.59071741  -0.19574662  -0.91957535  1.0
  Li  Li7  1  -0.40928259  -0.80425338  -0.08042465  1.0
  Ge  Ge8  1  -0.68632501  -0.64443138  -0.77734549  1.0
  Ge  Ge9  1  -0.31367499  -0.35556862  -0.22265451  1.0
  O  O10  1  -0.64037144  -0.86556827  -0.89183228  1.0
  O  O11  1  -0.35962856  -0.13443173  -0.10816772  1.0
  O  O12  1  -0.79768946  -0.77295728  -0.58385390  1.0
  O  O13  1  -0.20231054  -0.22704272  -0.41614610  1.0
  O  O14  1  -0.43060761  -0.48528942  -0.77805825  1.0
  O  O15  1  -0.56939239  -0.51471058  -0.22194175  1.0
  O  O16  1  -0.86848673  -0.40205729  -0.89134985  1.0
  O  O17  1  -0.13151327  -0.59794271  -0.10865015  1.0
