# generated using pymatgen
data_Rb2VAgS4
_symmetry_space_group_name_H-M   'P 1'
_cell_length_a   13.70421877
_cell_length_b   12.21903498
_cell_length_c   7.45333182
_cell_angle_alpha   84.62843727
_cell_angle_beta   62.58691549
_cell_angle_gamma   32.78464723
_symmetry_Int_Tables_number   1
_chemical_formula_structural   Rb2VAgS4
_chemical_formula_sum   'Rb4 V2 Ag2 S8'
_cell_volume   475.15451661
_cell_formula_units_Z   2
loop_
 _symmetry_equiv_pos_site_id
 _symmetry_equiv_pos_as_xyz
  1  'x, y, z'
loop_
 _atom_site_type_symbol
 _atom_site_label
 _atom_site_symmetry_multiplicity
 _atom_site_fract_x
 _atom_site_fract_y
 _atom_site_fract_z
 _atom_site_occupancy
  Rb  Rb0  1  1.42907057  0.42907057  0.07092943  1.0
  Rb  Rb1  1  0.07092943  0.07092943  1.42907057  1.0
  Rb  Rb2  1  0.82092943  0.82092943  -0.82092943  1.0
  Rb  Rb3  1  0.17907057  1.17907057  -0.17907057  1.0
  V  V4  1  0.00000000  0.00000000  0.00000000  1.0
  V  V5  1  1.25000000  0.25000000  0.25000000  1.0
  Ag  Ag6  1  -0.50000000  0.50000000  0.50000000  1.0
  Ag  Ag7  1  0.75000000  0.75000000  0.75000000  1.0
  S  S8  1  -0.64741345  0.75575729  0.83814435  1.0
  S  S9  1  1.05351182  0.83814435  0.75575729  1.0
  S  S10  1  0.83814435  1.05351182  -0.64741345  1.0
  S  S11  1  0.75575729  -0.64741345  1.05351182  1.0
  S  S12  1  0.89741345  0.49424271  0.41185565  1.0
  S  S13  1  1.19648818  0.41185565  0.49424271  1.0
  S  S14  1  1.41185565  0.19648818  -0.10258655  1.0
  S  S15  1  1.49424271  -0.10258655  0.19648818  1.0
