# generated using pymatgen
data_Cs2YCl5
_symmetry_space_group_name_H-M   'P 1'
_cell_length_a   9.82487040
_cell_length_b   7.57149995
_cell_length_c   15.48966224
_cell_angle_alpha   90.00000000
_cell_angle_beta   90.00000000
_cell_angle_gamma   90.00000000
_symmetry_Int_Tables_number   1
_chemical_formula_structural   Cs2YCl5
_chemical_formula_sum   'Cs8 Y4 Cl20'
_cell_volume   1152.26057284
_cell_formula_units_Z   4
loop_
 _symmetry_equiv_pos_site_id
 _symmetry_equiv_pos_as_xyz
  1  'x, y, z'
loop_
 _atom_site_type_symbol
 _atom_site_label
 _atom_site_symmetry_multiplicity
 _atom_site_fract_x
 _atom_site_fract_y
 _atom_site_fract_z
 _atom_site_occupancy
  Cs  Cs0  1  0.83716131  0.75000000  0.41528185  1.0
  Cs  Cs1  1  0.33716131  0.75000000  0.08471815  1.0
  Cs  Cs2  1  0.16283869  0.25000000  0.58471815  1.0
  Cs  Cs3  1  0.66283869  0.25000000  0.91528185  1.0
  Cs  Cs4  1  0.52726862  0.75000000  0.71275662  1.0
  Cs  Cs5  1  0.02726862  0.75000000  0.78724338  1.0
  Cs  Cs6  1  0.47273138  0.25000000  0.28724338  1.0
  Cs  Cs7  1  0.97273138  0.25000000  0.21275662  1.0
  Y  Y8  1  0.82180405  0.75000000  0.06301582  1.0
  Y  Y9  1  0.32180405  0.75000000  0.43698418  1.0
  Y  Y10  1  0.17819595  0.25000000  0.93698418  1.0
  Y  Y11  1  0.67819595  0.25000000  0.56301582  1.0
  Cl  Cl12  1  0.66549841  0.49763964  0.11456372  1.0
  Cl  Cl13  1  0.66549841  0.00236036  0.11456372  1.0
  Cl  Cl14  1  0.16549841  0.49763964  0.38543628  1.0
  Cl  Cl15  1  0.16549841  0.00236036  0.38543628  1.0
  Cl  Cl16  1  0.33450159  0.99763964  0.88543628  1.0
  Cl  Cl17  1  0.33450159  0.50236036  0.88543628  1.0
  Cl  Cl18  1  0.83450159  0.99763964  0.61456372  1.0
  Cl  Cl19  1  0.83450159  0.50236036  0.61456372  1.0
  Cl  Cl20  1  0.97315186  0.75000000  0.20087074  1.0
  Cl  Cl21  1  0.47315186  0.75000000  0.29912926  1.0
  Cl  Cl22  1  0.02684814  0.25000000  0.79912926  1.0
  Cl  Cl23  1  0.52684814  0.25000000  0.70087074  1.0
  Cl  Cl24  1  0.71821402  0.75000000  0.90469953  1.0
  Cl  Cl25  1  0.21821402  0.75000000  0.59530047  1.0
  Cl  Cl26  1  0.28178598  0.25000000  0.09530047  1.0
  Cl  Cl27  1  0.78178598  0.25000000  0.40469953  1.0
  Cl  Cl28  1  0.00000000  0.00000000  0.00000000  1.0
  Cl  Cl29  1  0.00000000  0.50000000  0.00000000  1.0
  Cl  Cl30  1  0.50000000  0.00000000  0.50000000  1.0
  Cl  Cl31  1  0.50000000  0.50000000  0.50000000  1.0
