# generated using pymatgen
data_AgCSN
_symmetry_space_group_name_H-M   'P 1'
_cell_length_a   7.23005772
_cell_length_b   11.56226696
_cell_length_c   4.23278118
_cell_angle_alpha   90.00000000
_cell_angle_beta   90.00000000
_cell_angle_gamma   90.00000000
_symmetry_Int_Tables_number   1
_chemical_formula_structural   AgCSN
_chemical_formula_sum   'Ag4 C4 S4 N4'
_cell_volume   353.84297240
_cell_formula_units_Z   4
loop_
 _symmetry_equiv_pos_site_id
 _symmetry_equiv_pos_as_xyz
  1  'x, y, z'
loop_
 _atom_site_type_symbol
 _atom_site_label
 _atom_site_symmetry_multiplicity
 _atom_site_fract_x
 _atom_site_fract_y
 _atom_site_fract_z
 _atom_site_occupancy
  Ag  Ag0  1  0.78980108  0.66094650  0.50000000  1.0
  Ag  Ag1  1  0.28980108  0.83905350  0.00000000  1.0
  Ag  Ag2  1  0.21019892  0.33905350  0.50000000  1.0
  Ag  Ag3  1  0.71019892  0.16094650  0.00000000  1.0
  C  C4  1  0.32967876  0.61669750  0.50000000  1.0
  C  C5  1  0.82967876  0.88330250  0.00000000  1.0
  C  C6  1  0.67032124  0.38330250  0.50000000  1.0
  C  C7  1  0.17032124  0.11669750  0.00000000  1.0
  S  S8  1  0.43399433  0.74493131  0.50000000  1.0
  S  S9  1  0.93399433  0.75506869  0.00000000  1.0
  S  S10  1  0.56600567  0.25506869  0.50000000  1.0
  S  S11  1  0.06600567  0.24493131  0.00000000  1.0
  N  N12  1  0.25609466  0.52619474  0.50000000  1.0
  N  N13  1  0.75609466  0.97380526  0.00000000  1.0
  N  N14  1  0.74390534  0.47380526  0.50000000  1.0
  N  N15  1  0.24390534  0.02619474  0.00000000  1.0
