# generated using pymatgen
data_Cs4Zr3Se14
_symmetry_space_group_name_H-M   'P 1'
_cell_length_a   12.42417777
_cell_length_b   12.42417777
_cell_length_c   15.16565893
_cell_angle_alpha   69.13405025
_cell_angle_beta   110.86594975
_cell_angle_gamma   137.28949078
_symmetry_Int_Tables_number   1
_chemical_formula_structural   Cs4Zr3Se14
_chemical_formula_sum   'Cs8 Zr6 Se28'
_cell_volume   1467.15974962
_cell_formula_units_Z   2
loop_
 _symmetry_equiv_pos_site_id
 _symmetry_equiv_pos_as_xyz
  1  'x, y, z'
loop_
 _atom_site_type_symbol
 _atom_site_label
 _atom_site_symmetry_multiplicity
 _atom_site_fract_x
 _atom_site_fract_y
 _atom_site_fract_z
 _atom_site_occupancy
  Cs  Cs0  1  0.62213056  0.01632581  0.39755586  1.0
  Cs  Cs1  1  0.98367419  0.37786944  0.89755586  1.0
  Cs  Cs2  1  1.01632581  0.62213056  0.10244414  1.0
  Cs  Cs3  1  0.37786944  -0.01632581  0.60244414  1.0
  Cs  Cs4  1  0.31739747  0.18419068  0.14825622  1.0
  Cs  Cs5  1  0.81580932  0.68260253  0.64825622  1.0
  Cs  Cs6  1  1.18419068  0.31739747  0.35174378  1.0
  Cs  Cs7  1  0.68260253  -0.18419068  0.85174378  1.0
  Zr  Zr8  1  0.58944752  -0.07491681  0.08601463  1.0
  Zr  Zr9  1  1.07491681  0.41055248  0.58601463  1.0
  Zr  Zr10  1  0.92508319  0.58944752  0.41398537  1.0
  Zr  Zr11  1  0.41055248  0.07491681  0.91398537  1.0
  Zr  Zr12  1  0.75995312  0.75995312  0.25000000  1.0
  Zr  Zr13  1  0.24004688  0.24004688  0.75000000  1.0
  Se  Se14  1  0.79505872  -0.13217124  0.39526228  1.0
  Se  Se15  1  1.13217124  0.20494128  0.89526228  1.0
  Se  Se16  1  0.86782876  0.79505872  0.10473772  1.0
  Se  Se17  1  0.20494128  0.13217124  0.60473772  1.0
  Se  Se18  1  0.53753599  -0.33430043  0.08315875  1.0
  Se  Se19  1  1.33430043  0.46246401  0.58315875  1.0
  Se  Se20  1  0.66569957  0.53753599  0.41684125  1.0
  Se  Se21  1  0.46246401  0.33430043  0.91684125  1.0
  Se  Se22  1  0.90189656  0.06451980  0.13535729  1.0
  Se  Se23  1  0.93548020  0.09810344  0.63535729  1.0
  Se  Se24  1  1.06451980  0.90189656  0.36464271  1.0
  Se  Se25  1  0.09810344  -0.06451980  0.86464271  1.0
  Se  Se26  1  0.54518351  -0.25440265  0.27708523  1.0
  Se  Se27  1  1.25440265  0.45481649  0.77708523  1.0
  Se  Se28  1  0.74559735  0.54518351  0.22291477  1.0
  Se  Se29  1  0.45481649  0.25440265  0.72291477  1.0
  Se  Se30  1  0.43329663  -0.00342396  0.09736563  1.0
  Se  Se31  1  1.00342396  0.56670337  0.59736563  1.0
  Se  Se32  1  0.99657604  0.43329663  0.40263437  1.0
  Se  Se33  1  0.56670337  0.00342396  0.90263437  1.0
  Se  Se34  1  0.19025220  -0.16046541  0.33393103  1.0
  Se  Se35  1  1.16046541  0.80974780  0.83393103  1.0
  Se  Se36  1  0.83953459  0.19025220  0.16606897  1.0
  Se  Se37  1  0.80974780  0.16046541  0.66606897  1.0
  Se  Se38  1  0.60577195  0.31357692  0.38989099  1.0
  Se  Se39  1  0.68642308  0.39422805  0.88989099  1.0
  Se  Se40  1  1.31357692  0.60577195  0.11010901  1.0
  Se  Se41  1  0.39422805  -0.31357692  0.61010901  1.0
