# generated using pymatgen
data_Hf6Fe16Si7
_symmetry_space_group_name_H-M   'P 1'
_cell_length_a   8.06081909
_cell_length_b   8.06081909
_cell_length_c   8.06081909
_cell_angle_alpha   60.00000000
_cell_angle_beta   60.00000000
_cell_angle_gamma   60.00000000
_symmetry_Int_Tables_number   1
_chemical_formula_structural   Hf6Fe16Si7
_chemical_formula_sum   'Hf6 Fe16 Si7'
_cell_volume   370.35867739
_cell_formula_units_Z   1
loop_
 _symmetry_equiv_pos_site_id
 _symmetry_equiv_pos_as_xyz
  1  'x, y, z'
loop_
 _atom_site_type_symbol
 _atom_site_label
 _atom_site_symmetry_multiplicity
 _atom_site_fract_x
 _atom_site_fract_y
 _atom_site_fract_z
 _atom_site_occupancy
  Hf  Hf0  1  -0.70389069  0.70389069  0.70389069  1.0
  Hf  Hf1  1  -0.29610931  0.29610931  0.70389069  1.0
  Hf  Hf2  1  0.70389069  0.70389069  -0.70389069  1.0
  Hf  Hf3  1  0.29610931  1.29610931  -0.29610931  1.0
  Hf  Hf4  1  0.29610931  -0.29610931  1.29610931  1.0
  Hf  Hf5  1  -0.29610931  0.29610931  0.29610931  1.0
  Fe  Fe6  1  0.87895556  0.87895556  -0.12104444  1.0
  Fe  Fe7  1  1.12104444  0.12104444  0.63686669  1.0
  Fe  Fe8  1  1.12104444  0.63686669  0.12104444  1.0
  Fe  Fe9  1  0.36313331  0.87895556  -0.12104444  1.0
  Fe  Fe10  1  1.63686669  0.12104444  0.12104444  1.0
  Fe  Fe11  1  0.87895556  0.36313331  -0.12104444  1.0
  Fe  Fe12  1  0.87895556  0.87895556  -0.63686669  1.0
  Fe  Fe13  1  1.12104444  0.12104444  0.12104444  1.0
  Fe  Fe14  1  0.67564665  0.67564665  -0.32435335  1.0
  Fe  Fe15  1  1.32435335  0.32435335  0.02693996  1.0
  Fe  Fe16  1  1.32435335  0.02693996  0.32435335  1.0
  Fe  Fe17  1  0.97306004  0.67564665  -0.32435335  1.0
  Fe  Fe18  1  1.02693996  0.32435335  0.32435335  1.0
  Fe  Fe19  1  0.67564665  0.97306004  -0.32435335  1.0
  Fe  Fe20  1  0.67564665  0.67564665  -0.02693996  1.0
  Fe  Fe21  1  1.32435335  0.32435335  0.32435335  1.0
  Si  Si22  1  1.50000000  -0.00000000  0.00000000  1.0
  Si  Si23  1  1.00000000  0.50000000  -0.50000000  1.0
  Si  Si24  1  -0.00000000  1.50000000  0.00000000  1.0
  Si  Si25  1  0.50000000  1.00000000  -0.50000000  1.0
  Si  Si26  1  0.00000000  0.00000000  0.50000000  1.0
  Si  Si27  1  0.50000000  -0.50000000  1.00000000  1.0
  Si  Si28  1  0.00000000  0.00000000  0.00000000  1.0
