# generated using pymatgen
data_H2C(N3O)2
_symmetry_space_group_name_H-M   'P 1'
_cell_length_a   10.92193906
_cell_length_b   8.35140341
_cell_length_c   5.92997282
_cell_angle_alpha   90.00000000
_cell_angle_beta   90.00000000
_cell_angle_gamma   90.00000000
_symmetry_Int_Tables_number   1
_chemical_formula_structural   H2C(N3O)2
_chemical_formula_sum   'H8 C4 N24 O8'
_cell_volume   540.89368935
_cell_formula_units_Z   4
loop_
 _symmetry_equiv_pos_site_id
 _symmetry_equiv_pos_as_xyz
  1  'x, y, z'
loop_
 _atom_site_type_symbol
 _atom_site_label
 _atom_site_symmetry_multiplicity
 _atom_site_fract_x
 _atom_site_fract_y
 _atom_site_fract_z
 _atom_site_occupancy
  H  H0  1  0.45286072  0.69970671  0.35504686  1.0
  H  H1  1  0.95286072  0.80029329  0.35504686  1.0
  H  H2  1  0.54713928  0.30029329  0.85504686  1.0
  H  H3  1  0.04713928  0.19970671  0.85504686  1.0
  H  H4  1  0.14990921  0.20189483  0.06670652  1.0
  H  H5  1  0.64990921  0.29810517  0.06670652  1.0
  H  H6  1  0.85009079  0.79810517  0.56670652  1.0
  H  H7  1  0.35009079  0.70189483  0.56670652  1.0
  C  C8  1  0.36881494  0.15117420  0.38180679  1.0
  C  C9  1  0.86881494  0.34882580  0.38180679  1.0
  C  C10  1  0.63118506  0.84882580  0.88180679  1.0
  C  C11  1  0.13118506  0.65117420  0.88180679  1.0
  N  N12  1  0.43413336  0.04357271  0.49440365  1.0
  N  N13  1  0.93413336  0.45642729  0.49440365  1.0
  N  N14  1  0.56586664  0.95642729  0.99440365  1.0
  N  N15  1  0.06586664  0.54357271  0.99440365  1.0
  N  N16  1  0.38306776  0.90957352  0.42236310  1.0
  N  N17  1  0.88306776  0.59042648  0.42236310  1.0
  N  N18  1  0.61693224  0.09042648  0.92236310  1.0
  N  N19  1  0.11693224  0.40957352  0.92236310  1.0
  N  N20  1  0.39019308  0.32212955  0.39716168  1.0
  N  N21  1  0.89019308  0.17787045  0.39716168  1.0
  N  N22  1  0.60980692  0.67787045  0.89716168  1.0
  N  N23  1  0.10980692  0.82212955  0.89716168  1.0
  N  N24  1  0.29118679  0.93223332  0.27452675  1.0
  N  N25  1  0.79118679  0.56776668  0.27452675  1.0
  N  N26  1  0.70881321  0.06776668  0.77452675  1.0
  N  N27  1  0.20881321  0.43223332  0.77452675  1.0
  N  N28  1  0.28179508  0.08734291  0.24838691  1.0
  N  N29  1  0.78179508  0.41265709  0.24838691  1.0
  N  N30  1  0.71820492  0.91265709  0.74838691  1.0
  N  N31  1  0.21820492  0.58734291  0.74838691  1.0
  N  N32  1  0.07702573  0.26171767  0.99380581  1.0
  N  N33  1  0.57702573  0.23828233  0.99380581  1.0
  N  N34  1  0.92297427  0.73828233  0.49380581  1.0
  N  N35  1  0.42297427  0.76171767  0.49380581  1.0
  O  O36  1  0.47149822  0.36860284  0.52564573  1.0
  O  O37  1  0.97149822  0.13139716  0.52564573  1.0
  O  O38  1  0.52850178  0.63139716  0.02564573  1.0
  O  O39  1  0.02850178  0.86860284  0.02564573  1.0
  O  O40  1  0.32534834  0.40830952  0.27904621  1.0
  O  O41  1  0.82534834  0.09169048  0.27904621  1.0
  O  O42  1  0.67465166  0.59169048  0.77904621  1.0
  O  O43  1  0.17465166  0.90830952  0.77904621  1.0
