# generated using pymatgen
data_BaNaPO4
_symmetry_space_group_name_H-M   'P 1'
_cell_length_a   7.96947004
_cell_length_b   5.46927286
_cell_length_c   10.12862582
_cell_angle_alpha   90.00000000
_cell_angle_beta   90.00000000
_cell_angle_gamma   90.00000000
_symmetry_Int_Tables_number   1
_chemical_formula_structural   BaNaPO4
_chemical_formula_sum   'Ba4 Na4 P4 O16'
_cell_volume   441.47850228
_cell_formula_units_Z   4
loop_
 _symmetry_equiv_pos_site_id
 _symmetry_equiv_pos_as_xyz
  1  'x, y, z'
loop_
 _atom_site_type_symbol
 _atom_site_label
 _atom_site_symmetry_multiplicity
 _atom_site_fract_x
 _atom_site_fract_y
 _atom_site_fract_z
 _atom_site_occupancy
  Ba  Ba0  1  0.52309628  0.75000000  0.68901156  1.0
  Ba  Ba1  1  0.02309628  0.75000000  0.81098844  1.0
  Ba  Ba2  1  0.47690372  0.25000000  0.31098844  1.0
  Ba  Ba3  1  0.97690372  0.25000000  0.18901156  1.0
  Na  Na4  1  0.88613972  0.75000000  0.44875718  1.0
  Na  Na5  1  0.38613972  0.75000000  0.05124282  1.0
  Na  Na6  1  0.11386028  0.25000000  0.55124282  1.0
  Na  Na7  1  0.61386028  0.25000000  0.94875718  1.0
  P  P8  1  0.74726630  0.75000000  0.06958929  1.0
  P  P9  1  0.24726630  0.75000000  0.43041071  1.0
  P  P10  1  0.25273370  0.25000000  0.93041071  1.0
  P  P11  1  0.75273370  0.25000000  0.56958929  1.0
  O  O12  1  0.66675606  0.98427277  0.13045836  1.0
  O  O13  1  0.66675606  0.51572723  0.13045836  1.0
  O  O14  1  0.16675606  0.98427277  0.36954164  1.0
  O  O15  1  0.16675606  0.51572723  0.36954164  1.0
  O  O16  1  0.33324394  0.48427277  0.86954164  1.0
  O  O17  1  0.33324394  0.01572723  0.86954164  1.0
  O  O18  1  0.83324394  0.48427277  0.63045836  1.0
  O  O19  1  0.83324394  0.01572723  0.63045836  1.0
  O  O20  1  0.94122083  0.75000000  0.09243134  1.0
  O  O21  1  0.44122083  0.75000000  0.40756866  1.0
  O  O22  1  0.05877917  0.25000000  0.90756866  1.0
  O  O23  1  0.55877917  0.25000000  0.59243134  1.0
  O  O24  1  0.20851692  0.75000000  0.58286396  1.0
  O  O25  1  0.70851692  0.75000000  0.91713604  1.0
  O  O26  1  0.79148308  0.25000000  0.41713604  1.0
  O  O27  1  0.29148308  0.25000000  0.08286396  1.0
