# generated using pymatgen
data_Na6ZnS4
_symmetry_space_group_name_H-M   'P 1'
_cell_length_a   8.98362390
_cell_length_b   8.98362390
_cell_length_c   6.95082668
_cell_angle_alpha   90.00000000
_cell_angle_beta   90.00000000
_cell_angle_gamma   120.00000000
_symmetry_Int_Tables_number   1
_chemical_formula_structural   Na6ZnS4
_chemical_formula_sum   'Na12 Zn2 S8'
_cell_volume   485.81421157
_cell_formula_units_Z   2
loop_
 _symmetry_equiv_pos_site_id
 _symmetry_equiv_pos_as_xyz
  1  'x, y, z'
loop_
 _atom_site_type_symbol
 _atom_site_label
 _atom_site_symmetry_multiplicity
 _atom_site_fract_x
 _atom_site_fract_y
 _atom_site_fract_z
 _atom_site_occupancy
  Na  Na0  1  0.70436634  0.85218317  0.28712258  1.0
  Na  Na1  1  0.85218317  0.70436634  0.78712258  1.0
  Na  Na2  1  0.85218317  0.14781683  0.78712258  1.0
  Na  Na3  1  0.14781683  0.85218317  0.28712258  1.0
  Na  Na4  1  0.14781683  0.29563366  0.28712258  1.0
  Na  Na5  1  0.29563366  0.14781683  0.78712258  1.0
  Na  Na6  1  0.93738337  0.46869169  0.11553671  1.0
  Na  Na7  1  0.46869169  0.93738337  0.61553671  1.0
  Na  Na8  1  0.46869169  0.53130831  0.61553671  1.0
  Na  Na9  1  0.53130831  0.46869169  0.11553671  1.0
  Na  Na10  1  0.53130831  0.06261663  0.11553671  1.0
  Na  Na11  1  0.06261663  0.53130831  0.61553671  1.0
  Zn  Zn12  1  0.33333333  0.66666667  -0.00146571  1.0
  Zn  Zn13  1  0.66666667  0.33333333  0.49853429  1.0
  S  S14  1  0.37568339  0.18784170  0.39157463  1.0
  S  S15  1  0.18784170  0.37568339  0.89157463  1.0
  S  S16  1  0.18784170  0.81215830  0.89157463  1.0
  S  S17  1  0.81215830  0.18784170  0.39157463  1.0
  S  S18  1  0.81215830  0.62431661  0.39157463  1.0
  S  S19  1  0.62431661  0.81215830  0.89157463  1.0
  S  S20  1  0.33333333  0.66666667  0.34276395  1.0
  S  S21  1  0.66666667  0.33333333  0.84276395  1.0
