# generated using pymatgen
data_Mg3AlPt2
_symmetry_space_group_name_H-M   'P 1'
_cell_length_a   8.40680601
_cell_length_b   8.40680601
_cell_length_c   8.40680601
_cell_angle_alpha   60.00000000
_cell_angle_beta   60.00000000
_cell_angle_gamma   60.00000000
_symmetry_Int_Tables_number   1
_chemical_formula_structural   Mg3AlPt2
_chemical_formula_sum   'Mg12 Al4 Pt8'
_cell_volume   420.12456873
_cell_formula_units_Z   4
loop_
 _symmetry_equiv_pos_site_id
 _symmetry_equiv_pos_as_xyz
  1  'x, y, z'
loop_
 _atom_site_type_symbol
 _atom_site_label
 _atom_site_symmetry_multiplicity
 _atom_site_fract_x
 _atom_site_fract_y
 _atom_site_fract_z
 _atom_site_occupancy
  Mg  Mg0  1  0.69742078  0.69742078  -0.69742078  1.0
  Mg  Mg1  1  1.30257922  -0.30257922  0.30257922  1.0
  Mg  Mg2  1  -0.30257922  0.30257922  0.30257922  1.0
  Mg  Mg3  1  0.30257922  0.30257922  -0.30257922  1.0
  Mg  Mg4  1  0.69742078  -0.69742078  0.69742078  1.0
  Mg  Mg5  1  -0.69742078  0.69742078  0.69742078  1.0
  Mg  Mg6  1  0.55257922  0.55257922  0.94742078  1.0
  Mg  Mg7  1  0.94742078  0.55257922  0.94742078  1.0
  Mg  Mg8  1  0.55257922  0.94742078  0.94742078  1.0
  Mg  Mg9  1  0.94742078  0.94742078  0.55257922  1.0
  Mg  Mg10  1  0.55257922  0.94742078  0.55257922  1.0
  Mg  Mg11  1  0.94742078  0.55257922  0.55257922  1.0
  Al  Al12  1  0.12500000  0.12500000  1.62500000  1.0
  Al  Al13  1  0.12500000  0.62500000  1.12500000  1.0
  Al  Al14  1  1.62500000  0.12500000  0.12500000  1.0
  Al  Al15  1  1.12500000  0.12500000  0.12500000  1.0
  Pt  Pt16  1  0.90924722  -0.09075278  0.27225833  1.0
  Pt  Pt17  1  0.90924722  -0.72774167  0.90924722  1.0
  Pt  Pt18  1  0.27225833  0.90924722  0.90924722  1.0
  Pt  Pt19  1  0.90924722  0.90924722  0.90924722  1.0
  Pt  Pt20  1  1.34075278  0.34075278  -0.02225833  1.0
  Pt  Pt21  1  1.34075278  -0.02225833  0.34075278  1.0
  Pt  Pt22  1  0.97774167  0.34075278  0.34075278  1.0
  Pt  Pt23  1  1.34075278  0.34075278  0.34075278  1.0
