# generated using pymatgen
data_BaCeO3
_symmetry_space_group_name_H-M   'P 1'
_cell_length_a   6.27167438
_cell_length_b   6.27167438
_cell_length_c   6.27167438
_cell_angle_alpha   120.04914967
_cell_angle_beta   90.37128436
_cell_angle_gamma   119.52328275
_symmetry_Int_Tables_number   1
_chemical_formula_structural   BaCeO3
_chemical_formula_sum   'Ba2 Ce2 O6'
_cell_volume   174.99086661
_cell_formula_units_Z   2
loop_
 _symmetry_equiv_pos_site_id
 _symmetry_equiv_pos_as_xyz
  1  'x, y, z'
loop_
 _atom_site_type_symbol
 _atom_site_label
 _atom_site_symmetry_multiplicity
 _atom_site_fract_x
 _atom_site_fract_y
 _atom_site_fract_z
 _atom_site_occupancy
  Ba  Ba0  1  1.73892148  1.48892148  1.25000000  1.0
  Ba  Ba1  1  0.26107852  0.51107852  0.75000000  1.0
  Ce  Ce2  1  0.50000000  0.00000000  0.50000000  1.0
  Ce  Ce3  1  0.00000000  0.00000000  0.00000000  1.0
  O  O4  1  1.70235768  1.50000000  1.70235768  1.0
  O  O5  1  1.70235768  1.00000000  1.20235768  1.0
  O  O6  1  0.29764232  1.00000000  0.79764232  1.0
  O  O7  1  0.29764232  0.50000000  0.29764232  1.0
  O  O8  1  1.16608333  0.91608333  0.25000000  1.0
  O  O9  1  0.83391667  0.08391667  0.75000000  1.0
