# generated using pymatgen
data_CoP2(H4O5)2
_symmetry_space_group_name_H-M   'P 1'
_cell_length_a   5.37720855
_cell_length_b   9.98010989
_cell_length_c   8.70872165
_cell_angle_alpha   90.00000000
_cell_angle_beta   123.93612714
_cell_angle_gamma   90.00000000
_symmetry_Int_Tables_number   1
_chemical_formula_structural   CoP2(H4O5)2
_chemical_formula_sum   'Co2 P4 H16 O20'
_cell_volume   387.74570559
_cell_formula_units_Z   2
loop_
 _symmetry_equiv_pos_site_id
 _symmetry_equiv_pos_as_xyz
  1  'x, y, z'
loop_
 _atom_site_type_symbol
 _atom_site_label
 _atom_site_symmetry_multiplicity
 _atom_site_fract_x
 _atom_site_fract_y
 _atom_site_fract_z
 _atom_site_occupancy
  Co  Co0  1  -0.00000000  0.50000000  0.50000000  1.0
  Co  Co1  1  0.00000000  0.00000000  0.00000000  1.0
  P  P2  1  0.91527852  0.71698989  0.16216156  1.0
  P  P3  1  0.91527852  0.78301011  0.66216156  1.0
  P  P4  1  0.08472148  0.21698989  0.33783844  1.0
  P  P5  1  0.08472148  0.28301011  0.83783844  1.0
  H  H6  1  0.87242577  0.22408869  0.49009050  1.0
  H  H7  1  0.87242577  0.27591131  0.99009050  1.0
  H  H8  1  0.12757423  0.72408869  0.00990950  1.0
  H  H9  1  0.12757423  0.77591131  0.50990950  1.0
  H  H10  1  0.57858229  0.04909555  0.26510902  1.0
  H  H11  1  0.57858229  0.45090445  0.76510902  1.0
  H  H12  1  0.42141771  0.54909555  0.23489098  1.0
  H  H13  1  0.42141771  0.95090445  0.73489098  1.0
  H  H14  1  0.41192555  0.42450409  0.34009670  1.0
  H  H15  1  0.41192555  0.07549591  0.84009670  1.0
  H  H16  1  0.58807445  0.92450409  0.15990330  1.0
  H  H17  1  0.58807445  0.57549591  0.65990330  1.0
  H  H18  1  0.43867823  0.38962582  0.09688648  1.0
  H  H19  1  0.43867823  0.11037418  0.59688648  1.0
  H  H20  1  0.56132177  0.88962582  0.40311352  1.0
  H  H21  1  0.56132177  0.61037418  0.90311352  1.0
  O  O22  1  0.97427589  0.17217412  0.14135898  1.0
  O  O23  1  0.97427589  0.32782588  0.64135898  1.0
  O  O24  1  0.02572411  0.67217412  0.35864102  1.0
  O  O25  1  0.02572411  0.82782588  0.85864102  1.0
  O  O26  1  0.84615121  0.16996122  0.38084205  1.0
  O  O27  1  0.84615121  0.33003878  0.88084205  1.0
  O  O28  1  0.15384879  0.66996122  0.11915795  1.0
  O  O29  1  0.15384879  0.83003878  0.61915795  1.0
  O  O30  1  0.86775771  0.86940827  0.13100167  1.0
  O  O31  1  0.86775771  0.63059173  0.63100167  1.0
  O  O32  1  0.13224229  0.36940827  0.36899833  1.0
  O  O33  1  0.13224229  0.13059173  0.86899833  1.0
  O  O34  1  0.53080315  0.46410103  0.29454062  1.0
  O  O35  1  0.53080315  0.03589897  0.79454062  1.0
  O  O36  1  0.46919685  0.96410103  0.20545938  1.0
  O  O37  1  0.46919685  0.53589897  0.70545938  1.0
  O  O38  1  0.38866086  0.13981503  0.47214674  1.0
  O  O39  1  0.38866086  0.36018497  0.97214674  1.0
  O  O40  1  0.61133914  0.63981503  0.02785326  1.0
  O  O41  1  0.61133914  0.86018497  0.52785326  1.0
