# generated using pymatgen
data_K2Pd(NO3)4
_symmetry_space_group_name_H-M   'P 1'
_cell_length_a   7.90930562
_cell_length_b   7.97762911
_cell_length_c   9.76273772
_cell_angle_alpha   90.00000000
_cell_angle_beta   95.88787269
_cell_angle_gamma   90.00000000
_symmetry_Int_Tables_number   1
_chemical_formula_structural   K2Pd(NO3)4
_chemical_formula_sum   'K4 Pd2 N8 O24'
_cell_volume   612.75471030
_cell_formula_units_Z   2
loop_
 _symmetry_equiv_pos_site_id
 _symmetry_equiv_pos_as_xyz
  1  'x, y, z'
loop_
 _atom_site_type_symbol
 _atom_site_label
 _atom_site_symmetry_multiplicity
 _atom_site_fract_x
 _atom_site_fract_y
 _atom_site_fract_z
 _atom_site_occupancy
  K  K0  1  0.19076610  0.07144606  0.34477646  1.0
  K  K1  1  0.19076610  0.42855394  0.84477646  1.0
  K  K2  1  0.80923390  0.57144606  0.15522354  1.0
  K  K3  1  0.80923390  0.92855394  0.65522354  1.0
  Pd  Pd4  1  0.50000000  0.50000000  0.50000000  1.0
  Pd  Pd5  1  0.50000000  0.00000000  -0.00000000  1.0
  N  N6  1  0.81315939  0.32915423  0.45044277  1.0
  N  N7  1  0.81315939  0.17084577  0.95044277  1.0
  N  N8  1  0.18684061  0.82915423  0.04955723  1.0
  N  N9  1  0.18684061  0.67084577  0.54955723  1.0
  N  N10  1  0.65823860  0.94165974  0.27982617  1.0
  N  N11  1  0.65823860  0.55834026  0.77982617  1.0
  N  N12  1  0.34176140  0.44165974  0.22017383  1.0
  N  N13  1  0.34176140  0.05834026  0.72017383  1.0
  O  O14  1  0.93403248  0.30262623  0.38147501  1.0
  O  O15  1  0.93403248  0.19737377  0.88147501  1.0
  O  O16  1  0.06596752  0.80262623  0.11852499  1.0
  O  O17  1  0.06596752  0.69737377  0.61852499  1.0
  O  O18  1  0.78844310  0.24490771  0.05745968  1.0
  O  O19  1  0.78844310  0.25509229  0.55745968  1.0
  O  O20  1  0.21155690  0.74490771  0.44254032  1.0
  O  O21  1  0.21155690  0.75509229  0.94254032  1.0
  O  O22  1  0.76326840  0.86941336  0.36356390  1.0
  O  O23  1  0.76326840  0.63058664  0.86356390  1.0
  O  O24  1  0.23673160  0.36941336  0.13643610  1.0
  O  O25  1  0.23673160  0.13058664  0.63643610  1.0
  O  O26  1  0.70671293  0.44750968  0.40104641  1.0
  O  O27  1  0.70671293  0.05249032  0.90104641  1.0
  O  O28  1  0.29328707  0.94750968  0.09895359  1.0
  O  O29  1  0.29328707  0.55249032  0.59895359  1.0
  O  O30  1  0.56122549  0.05378662  0.30956725  1.0
  O  O31  1  0.56122549  0.44621338  0.80956725  1.0
  O  O32  1  0.43877451  0.55378662  0.19043275  1.0
  O  O33  1  0.43877451  0.94621338  0.69043275  1.0
  O  O34  1  0.34330566  0.38965127  0.34916805  1.0
  O  O35  1  0.34330566  0.11034873  0.84916804  1.0
  O  O36  1  0.65669434  0.88965127  0.15083196  1.0
  O  O37  1  0.65669434  0.61034873  0.65083195  1.0
