# generated using pymatgen
data_CuO4
_symmetry_space_group_name_H-M   'P 1'
_cell_length_a   9.06932429
_cell_length_b   9.06932429
_cell_length_c   9.06932429
_cell_angle_alpha   99.44213610
_cell_angle_beta   99.44213610
_cell_angle_gamma   132.21365223
_symmetry_Int_Tables_number   1
_chemical_formula_structural   CuO4
_chemical_formula_sum   'Cu4 O16'
_cell_volume   505.15467950
_cell_formula_units_Z   4
loop_
 _symmetry_equiv_pos_site_id
 _symmetry_equiv_pos_as_xyz
  1  'x, y, z'
loop_
 _atom_site_type_symbol
 _atom_site_label
 _atom_site_symmetry_multiplicity
 _atom_site_fract_x
 _atom_site_fract_y
 _atom_site_fract_z
 _atom_site_occupancy
  Cu  Cu0  1  0.50000000  0.50000000  1.00000000  1.0
  Cu  Cu1  1  0.25000000  0.75000000  0.50000000  1.0
  Cu  Cu2  1  0.00000000  0.00000000  0.00000000  1.0
  Cu  Cu3  1  0.75000000  0.25000000  0.50000000  1.0
  O  O4  1  0.71392449  0.08865669  0.62526780  1.0
  O  O5  1  0.28661111  0.16134331  0.12526780  1.0
  O  O6  1  0.46338889  0.08865669  0.37473220  1.0
  O  O7  1  1.03607551  0.16134331  0.87473220  1.0
  O  O8  1  0.91134331  0.53661111  0.62526780  1.0
  O  O9  1  0.83865669  0.96392449  1.12526780  1.0
  O  O10  1  0.91134331  1.28607551  1.37473220  1.0
  O  O11  1  0.83865669  0.71338889  0.87473220  1.0
  O  O12  1  1.21364202  0.33920395  0.87443806  1.0
  O  O13  1  1.28523411  0.91079605  1.37443806  1.0
  O  O14  1  0.46476589  0.33920395  0.12556194  1.0
  O  O15  1  0.53635798  0.91079605  0.62556194  1.0
  O  O16  1  0.66079605  0.53523411  0.87443806  1.0
  O  O17  1  0.08920395  0.46364202  0.37443806  1.0
  O  O18  1  0.66079605  0.78635798  1.12556194  1.0
  O  O19  1  0.08920395  0.71476589  0.62556194  1.0
