# generated using pymatgen
data_SbCl3
_symmetry_space_group_name_H-M   'P 1'
_cell_length_a   8.95604877
_cell_length_b   9.34755726
_cell_length_c   6.93856484
_cell_angle_alpha   90.00000000
_cell_angle_beta   90.00000000
_cell_angle_gamma   90.00000000
_symmetry_Int_Tables_number   1
_chemical_formula_structural   SbCl3
_chemical_formula_sum   'Sb4 Cl12'
_cell_volume   580.87707214
_cell_formula_units_Z   4
loop_
 _symmetry_equiv_pos_site_id
 _symmetry_equiv_pos_as_xyz
  1  'x, y, z'
loop_
 _atom_site_type_symbol
 _atom_site_label
 _atom_site_symmetry_multiplicity
 _atom_site_fract_x
 _atom_site_fract_y
 _atom_site_fract_z
 _atom_site_occupancy
  Sb  Sb0  1  0.00093162  0.75000000  0.98929731  1.0
  Sb  Sb1  1  0.50093162  0.75000000  0.51070269  1.0
  Sb  Sb2  1  0.99906838  0.25000000  0.01070269  1.0
  Sb  Sb3  1  0.49906838  0.25000000  0.48929731  1.0
  Cl  Cl4  1  0.33963370  0.93417779  0.63694934  1.0
  Cl  Cl5  1  0.33963370  0.56582221  0.63694934  1.0
  Cl  Cl6  1  0.83963370  0.93417779  0.86305066  1.0
  Cl  Cl7  1  0.83963370  0.56582221  0.86305066  1.0
  Cl  Cl8  1  0.66036630  0.43417779  0.36305066  1.0
  Cl  Cl9  1  0.66036630  0.06582221  0.36305066  1.0
  Cl  Cl10  1  0.16036630  0.43417779  0.13694934  1.0
  Cl  Cl11  1  0.16036630  0.06582221  0.13694934  1.0
  Cl  Cl12  1  0.40300816  0.75000000  0.19201777  1.0
  Cl  Cl13  1  0.90300816  0.75000000  0.30798223  1.0
  Cl  Cl14  1  0.59699184  0.25000000  0.80798223  1.0
  Cl  Cl15  1  0.09699184  0.25000000  0.69201777  1.0
