# generated using pymatgen
data_Co2PClO4
_symmetry_space_group_name_H-M   'P 1'
_cell_length_a   8.15165451
_cell_length_b   8.15165451
_cell_length_c   9.31088719
_cell_angle_alpha   55.84185596
_cell_angle_beta   124.15814404
_cell_angle_gamma   111.42854573
_symmetry_Int_Tables_number   1
_chemical_formula_structural   Co2PClO4
_chemical_formula_sum   'Co8 P4 Cl4 O16'
_cell_volume   422.51719133
_cell_formula_units_Z   4
loop_
 _symmetry_equiv_pos_site_id
 _symmetry_equiv_pos_as_xyz
  1  'x, y, z'
loop_
 _atom_site_type_symbol
 _atom_site_label
 _atom_site_symmetry_multiplicity
 _atom_site_fract_x
 _atom_site_fract_y
 _atom_site_fract_z
 _atom_site_occupancy
  Co  Co0  1  0.56043899  -0.07748242  0.82644165  1.0
  Co  Co1  1  1.07748242  0.43956101  0.32644165  1.0
  Co  Co2  1  0.92251758  0.56043899  0.67355835  1.0
  Co  Co3  1  0.43956101  0.07748242  0.17355835  1.0
  Co  Co4  1  0.00000000  0.00000000  0.00000000  1.0
  Co  Co5  1  -0.00000000  0.00000000  0.50000000  1.0
  Co  Co6  1  0.73081955  -0.26918045  0.75000000  1.0
  Co  Co7  1  0.26918045  0.26918045  0.25000000  1.0
  O  O8  1  0.41554869  -0.22049445  0.97590547  1.0
  O  O9  1  1.22049445  0.58445131  0.47590547  1.0
  O  O10  1  0.77950555  0.41554869  0.52409453  1.0
  O  O11  1  0.58445131  0.22049445  0.02409453  1.0
  O  O12  1  0.77556122  0.03353849  0.70766501  1.0
  O  O13  1  0.96646151  0.22443878  0.20766501  1.0
  O  O14  1  1.03353849  0.77556122  0.79233499  1.0
  O  O15  1  0.22443878  -0.03353849  0.29233499  1.0
  O  O16  1  0.45142489  -0.22416888  0.66494276  1.0
  O  O17  1  1.22416888  -0.45142489  0.16494276  1.0
  O  O18  1  0.77583112  -0.54857511  0.83505724  1.0
  O  O19  1  0.54857511  0.22416888  0.33505724  1.0
  O  O20  1  1.77308709  0.07692012  0.97566827  1.0
  O  O21  1  0.92307988  0.22691291  0.47566827  1.0
  O  O22  1  1.07692012  0.77308709  0.52433173  1.0
  O  O23  1  1.22691291  -0.07692012  0.02433173  1.0
  Cl  Cl24  1  1.17677675  0.33465044  0.92599963  1.0
  Cl  Cl25  1  1.66534956  -0.17677675  0.42599963  1.0
  Cl  Cl26  1  1.33465044  0.17677675  0.57400037  1.0
  Cl  Cl27  1  0.82322325  0.66534956  0.07400037  1.0
  P  P28  1  0.75703747  0.23063133  0.51027420  1.0
  P  P29  1  0.76936867  0.24296253  0.01027420  1.0
  P  P30  1  1.23063133  0.75703747  0.98972580  1.0
  P  P31  1  0.24296253  -0.23063133  0.48972580  1.0
