# generated using pymatgen
data_BaYZn3GaO7
_symmetry_space_group_name_H-M   'P 1'
_cell_length_a   6.39761492
_cell_length_b   6.39761492
_cell_length_c   10.43896356
_cell_angle_alpha   90.00000000
_cell_angle_beta   90.00000000
_cell_angle_gamma   120.00000000
_symmetry_Int_Tables_number   1
_chemical_formula_structural   BaYZn3GaO7
_chemical_formula_sum   'Ba2 Y2 Zn6 Ga2 O14'
_cell_volume   370.01915322
_cell_formula_units_Z   2
loop_
 _symmetry_equiv_pos_site_id
 _symmetry_equiv_pos_as_xyz
  1  'x, y, z'
loop_
 _atom_site_type_symbol
 _atom_site_label
 _atom_site_symmetry_multiplicity
 _atom_site_fract_x
 _atom_site_fract_y
 _atom_site_fract_z
 _atom_site_occupancy
  Ba  Ba0  1  0.33333333  0.66666667  0.02232195  1.0
  Ba  Ba1  1  0.66666667  0.33333333  0.52232195  1.0
  Y  Y2  1  0.33333333  0.66666667  0.36725427  1.0
  Y  Y3  1  0.66666667  0.33333333  0.86725427  1.0
  Zn  Zn4  1  0.82875282  0.65750565  0.18276983  1.0
  Zn  Zn5  1  0.34249435  0.17124718  0.18276983  1.0
  Zn  Zn6  1  0.82875282  0.17124718  0.18276983  1.0
  Zn  Zn7  1  0.17124718  0.34249435  0.68276983  1.0
  Zn  Zn8  1  0.65750565  0.82875282  0.68276983  1.0
  Zn  Zn9  1  0.17124718  0.82875282  0.68276983  1.0
  Ga  Ga10  1  0.00000000  0.00000000  0.93240434  1.0
  Ga  Ga11  1  0.00000000  -0.00000000  0.43240434  1.0
  O  O12  1  0.49136672  0.98273343  0.23216855  1.0
  O  O13  1  0.01726657  0.50863328  0.23216855  1.0
  O  O14  1  0.49136672  0.50863328  0.23216855  1.0
  O  O15  1  0.50863328  0.01726657  0.73216855  1.0
  O  O16  1  0.98273343  0.49136672  0.73216855  1.0
  O  O17  1  0.50863328  0.49136672  0.73216855  1.0
  O  O18  1  -0.00000000  -0.00000000  0.75109018  1.0
  O  O19  1  -0.00000000  -0.00000000  0.25109018  1.0
  O  O20  1  0.84020569  0.68041138  0.98962136  1.0
  O  O21  1  0.31958862  0.15979431  0.98962136  1.0
  O  O22  1  0.84020569  0.15979431  0.98962136  1.0
  O  O23  1  0.15979431  0.31958862  0.48962136  1.0
  O  O24  1  0.68041138  0.84020569  0.48962136  1.0
  O  O25  1  0.15979431  0.84020569  0.48962136  1.0
