# generated using pymatgen
data_LaSe
_symmetry_space_group_name_H-M   'P 1'
_cell_length_a   17.84959533
_cell_length_b   4.22352523
_cell_length_c   4.22339312
_cell_angle_alpha   90.01975598
_cell_angle_beta   87.29254597
_cell_angle_gamma   88.23417087
_symmetry_Int_Tables_number   1
_chemical_formula_structural   LaSe
_chemical_formula_sum   'La2 Se2'
_cell_volume   317.88711428
_cell_formula_units_Z   2
loop_
 _symmetry_equiv_pos_site_id
 _symmetry_equiv_pos_as_xyz
  1  'x, y, z'
loop_
 _atom_site_type_symbol
 _atom_site_label
 _atom_site_symmetry_multiplicity
 _atom_site_fract_x
 _atom_site_fract_y
 _atom_site_fract_z
 _atom_site_occupancy
  La  La0  1  -0.42770086  -0.75931763  -0.76431063  1.0
  La  La1  1  -0.57229914  -0.24068237  -0.23568937  1.0
  Se  Se2  1  -0.40058540  -0.26290898  -0.26977713  1.0
  Se  Se3  1  -0.59941460  -0.73709102  -0.73022287  1.0
