# generated using pymatgen
data_FeP3(HO)6
_symmetry_space_group_name_H-M   'P 1'
_cell_length_a   7.72039462
_cell_length_b   7.72039462
_cell_length_c   7.72039462
_cell_angle_alpha   103.24823530
_cell_angle_beta   103.24823530
_cell_angle_gamma   103.24823530
_symmetry_Int_Tables_number   1
_chemical_formula_structural   FeP3(HO)6
_chemical_formula_sum   'Fe2 P6 H12 O12'
_cell_volume   416.28776757
_cell_formula_units_Z   2
loop_
 _symmetry_equiv_pos_site_id
 _symmetry_equiv_pos_as_xyz
  1  'x, y, z'
loop_
 _atom_site_type_symbol
 _atom_site_label
 _atom_site_symmetry_multiplicity
 _atom_site_fract_x
 _atom_site_fract_y
 _atom_site_fract_z
 _atom_site_occupancy
  Fe  Fe0  1  0.50000000  0.50000000  0.50000000  1.0
  Fe  Fe1  1  0.00000000  0.00000000  0.00000000  1.0
  P  P2  1  1.74656917  0.57435347  -0.05876562  1.0
  P  P3  1  0.42564653  1.05876562  -0.74656917  1.0
  P  P4  1  1.05876562  0.25343083  -0.57435347  1.0
  P  P5  1  0.25343083  0.42564653  0.05876562  1.0
  P  P6  1  1.57435347  -0.05876562  0.74656917  1.0
  P  P7  1  0.94123438  0.74656917  0.57435347  1.0
  H  H8  1  0.62212744  0.65404314  0.01761942  1.0
  H  H9  1  1.34595686  -0.01761942  0.37787256  1.0
  H  H10  1  0.98238058  0.37787256  0.34595686  1.0
  H  H11  1  1.37787256  0.34595686  -0.01761942  1.0
  H  H12  1  0.65404314  1.01761942  -0.37787256  1.0
  H  H13  1  1.01761942  0.62212744  -0.34595686  1.0
  H  H14  1  0.44411749  1.03728735  -0.21894985  1.0
  H  H15  1  0.96271265  0.21894985  0.55588251  1.0
  H  H16  1  1.21894985  0.55588251  -0.03728735  1.0
  H  H17  1  1.55588251  -0.03728735  0.21894985  1.0
  H  H18  1  1.03728735  0.78105015  -0.55588251  1.0
  H  H19  1  0.78105015  0.44411749  0.03728735  1.0
  O  O20  1  0.65076197  1.46433204  -0.26478742  1.0
  O  O21  1  0.53566796  0.26478742  0.34923803  1.0
  O  O22  1  1.26478742  0.34923803  -0.46433204  1.0
  O  O23  1  1.34923803  -0.46433204  0.26478742  1.0
  O  O24  1  1.46433204  0.73521258  -0.34923803  1.0
  O  O25  1  0.73521258  0.65076197  0.46433204  1.0
  O  O26  1  1.72647251  0.98853183  -0.06764301  1.0
  O  O27  1  1.01146817  0.06764301  -0.72647251  1.0
  O  O28  1  1.06764301  -0.72647251  0.01146817  1.0
  O  O29  1  0.27352749  0.01146817  0.06764301  1.0
  O  O30  1  0.98853183  0.93235699  0.72647251  1.0
  O  O31  1  0.93235699  1.72647251  -0.01146817  1.0
