# generated using pymatgen
data_CSO
_symmetry_space_group_name_H-M   'P 1'
_cell_length_a   4.51227638
_cell_length_b   4.51227638
_cell_length_c   4.51227638
_cell_angle_alpha   101.15710293
_cell_angle_beta   101.15710293
_cell_angle_gamma   101.15710293
_symmetry_Int_Tables_number   1
_chemical_formula_structural   CSO
_chemical_formula_sum   'C1 S1 O1'
_cell_volume   85.84989839
_cell_formula_units_Z   1
loop_
 _symmetry_equiv_pos_site_id
 _symmetry_equiv_pos_as_xyz
  1  'x, y, z'
loop_
 _atom_site_type_symbol
 _atom_site_label
 _atom_site_symmetry_multiplicity
 _atom_site_fract_x
 _atom_site_fract_y
 _atom_site_fract_z
 _atom_site_occupancy
  C  C0  1  0.20147409  0.20147409  0.20147409  1.0
  S  S1  1  0.45726129  0.45726129  0.45726129  1.0
  O  O2  1  0.01006463  0.01006463  0.01006463  1.0
