# generated using pymatgen
data_Mn7FeCl3O10
_symmetry_space_group_name_H-M   'P 1'
_cell_length_a   9.36174481
_cell_length_b   9.36174481
_cell_length_c   9.36174481
_cell_angle_alpha   60.00000000
_cell_angle_beta   60.00000000
_cell_angle_gamma   60.00000000
_symmetry_Int_Tables_number   1
_chemical_formula_structural   Mn7FeCl3O10
_chemical_formula_sum   'Mn14 Fe2 Cl6 O20'
_cell_volume   580.17017257
_cell_formula_units_Z   2
loop_
 _symmetry_equiv_pos_site_id
 _symmetry_equiv_pos_as_xyz
  1  'x, y, z'
loop_
 _atom_site_type_symbol
 _atom_site_label
 _atom_site_symmetry_multiplicity
 _atom_site_fract_x
 _atom_site_fract_y
 _atom_site_fract_z
 _atom_site_occupancy
  Cl  Cl0  1  -0.69596319  0.69596319  0.69596319  1.0
  Cl  Cl1  1  -0.30403681  0.30403681  0.69596319  1.0
  Cl  Cl2  1  0.69596319  0.69596319  -0.69596319  1.0
  Cl  Cl3  1  0.30403681  1.30403681  -0.30403681  1.0
  Cl  Cl4  1  0.30403681  -0.30403681  1.30403681  1.0
  Cl  Cl5  1  -0.30403681  0.30403681  0.30403681  1.0
  Fe  Fe6  1  0.75000000  0.75000000  -0.25000000  1.0
  Fe  Fe7  1  1.25000000  0.25000000  0.25000000  1.0
  O  O8  1  0.89980391  0.89980391  -0.10019609  1.0
  O  O9  1  1.10019609  0.10019609  0.69941174  1.0
  O  O10  1  1.10019609  0.69941174  0.10019609  1.0
  O  O11  1  0.30058826  0.89980391  -0.10019609  1.0
  O  O12  1  1.69941174  0.10019609  0.10019609  1.0
  O  O13  1  0.89980391  0.30058826  -0.10019609  1.0
  O  O14  1  0.89980391  0.89980391  -0.69941174  1.0
  O  O15  1  1.10019609  0.10019609  0.10019609  1.0
  O  O16  1  0.59550001  0.90449999  -0.09550001  1.0
  O  O17  1  1.09550001  0.40449999  0.40449999  1.0
  O  O18  1  0.90449999  0.59550001  -0.09550001  1.0
  O  O19  1  1.40449999  0.09550001  0.40449999  1.0
  O  O20  1  0.90449999  0.90449999  -0.40449999  1.0
  O  O21  1  1.09550001  0.09550001  0.40449999  1.0
  O  O22  1  1.09550001  0.40449999  0.09550001  1.0
  O  O23  1  0.59550001  0.90449999  -0.40449999  1.0
  O  O24  1  1.40449999  0.40449999  0.09550001  1.0
  O  O25  1  0.59550001  0.59550001  -0.09550001  1.0
  O  O26  1  1.40449999  0.09550001  0.09550001  1.0
  O  O27  1  0.90449999  0.59550001  -0.40449999  1.0
  Mn  Mn28  1  -0.50000000  0.50000000  0.50000000  1.0
  Mn  Mn29  1  0.00000000  0.00000000  0.00000000  1.0
  Mn  Mn30  1  1.64857157  0.00000000  -0.00000000  1.0
  Mn  Mn31  1  1.00000000  0.35142843  -0.35142843  1.0
  Mn  Mn32  1  1.00000000  0.64857157  -0.64857157  1.0
  Mn  Mn33  1  1.35142843  -0.00000000  0.00000000  1.0
  Mn  Mn34  1  0.00000000  1.64857157  -0.00000000  1.0
  Mn  Mn35  1  0.35142843  1.00000000  -0.35142843  1.0
  Mn  Mn36  1  0.00000000  -0.00000000  0.64857157  1.0
  Mn  Mn37  1  0.35142843  -0.35142843  1.00000000  1.0
  Mn  Mn38  1  0.64857157  1.00000000  -0.64857157  1.0
  Mn  Mn39  1  -0.00000000  1.35142843  0.00000000  1.0
  Mn  Mn40  1  0.64857157  -0.64857157  1.00000000  1.0
  Mn  Mn41  1  0.00000000  -0.00000000  0.35142843  1.0
