# generated using pymatgen
data_CaBi2(CO4)2
_symmetry_space_group_name_H-M   'P 1'
_cell_length_a   11.45652612
_cell_length_b   11.45652612
_cell_length_c   11.45652612
_cell_angle_alpha   163.03821954
_cell_angle_beta   156.83240400
_cell_angle_gamma   28.85336935
_symmetry_Int_Tables_number   1
_chemical_formula_structural   CaBi2(CO4)2
_chemical_formula_sum   'Ca1 Bi2 C2 O8'
_cell_volume   172.50481345
_cell_formula_units_Z   1
loop_
 _symmetry_equiv_pos_site_id
 _symmetry_equiv_pos_as_xyz
  1  'x, y, z'
loop_
 _atom_site_type_symbol
 _atom_site_label
 _atom_site_symmetry_multiplicity
 _atom_site_fract_x
 _atom_site_fract_y
 _atom_site_fract_z
 _atom_site_occupancy
  Ca  Ca0  1  0.00000000  0.00000000  0.00000000  1.0
  Bi  Bi1  1  0.80938060  0.80938060  1.00000000  1.0
  Bi  Bi2  1  0.19061940  0.19061940  0.00000000  1.0
  C  C3  1  0.59162329  0.59162329  1.00000000  1.0
  C  C4  1  0.40837671  0.40837671  0.00000000  1.0
  O  O5  1  0.32072260  0.56399782  0.75672478  1.0
  O  O6  1  1.19272695  0.43600218  0.75672478  1.0
  O  O7  1  0.80727305  0.56399782  1.24327522  1.0
  O  O8  1  0.67927740  0.43600218  0.24327522  1.0
  O  O9  1  0.74685427  0.24685427  0.50000000  1.0
  O  O10  1  0.25314573  0.75314573  0.50000000  1.0
  O  O11  1  0.65118123  0.65118123  1.00000000  1.0
  O  O12  1  0.34881877  0.34881877  0.00000000  1.0
