# generated using pymatgen
data_CeFeAsO
_symmetry_space_group_name_H-M   'P 1'
_cell_length_a   3.89114031
_cell_length_b   3.89114031
_cell_length_c   8.68771447
_cell_angle_alpha   90.00000000
_cell_angle_beta   90.00000000
_cell_angle_gamma   90.00000000
_symmetry_Int_Tables_number   1
_chemical_formula_structural   CeFeAsO
_chemical_formula_sum   'Ce2 Fe2 As2 O2'
_cell_volume   131.54044956
_cell_formula_units_Z   2
loop_
 _symmetry_equiv_pos_site_id
 _symmetry_equiv_pos_as_xyz
  1  'x, y, z'
loop_
 _atom_site_type_symbol
 _atom_site_label
 _atom_site_symmetry_multiplicity
 _atom_site_fract_x
 _atom_site_fract_y
 _atom_site_fract_z
 _atom_site_occupancy
  Ce  Ce0  1  0.50000000  0.00000000  0.64716031  1.0
  Ce  Ce1  1  0.00000000  0.50000000  0.35283969  1.0
  Fe  Fe2  1  0.00000000  0.00000000  0.00000000  1.0
  Fe  Fe3  1  0.50000000  0.50000000  0.00000000  1.0
  As  As4  1  0.50000000  0.00000000  0.17338026  1.0
  As  As5  1  0.00000000  0.50000000  0.82661974  1.0
  O  O6  1  0.00000000  0.00000000  0.50000000  1.0
  O  O7  1  0.50000000  0.50000000  0.50000000  1.0
