# generated using pymatgen
data_La3BeInS7
_symmetry_space_group_name_H-M   'P 1'
_cell_length_a   10.20873724
_cell_length_b   10.20873724
_cell_length_c   6.24499315
_cell_angle_alpha   90.00000000
_cell_angle_beta   90.00000000
_cell_angle_gamma   120.00000000
_symmetry_Int_Tables_number   1
_chemical_formula_structural   La3BeInS7
_chemical_formula_sum   'La6 Be2 In2 S14'
_cell_volume   563.64628587
_cell_formula_units_Z   2
loop_
 _symmetry_equiv_pos_site_id
 _symmetry_equiv_pos_as_xyz
  1  'x, y, z'
loop_
 _atom_site_type_symbol
 _atom_site_label
 _atom_site_symmetry_multiplicity
 _atom_site_fract_x
 _atom_site_fract_y
 _atom_site_fract_z
 _atom_site_occupancy
  La  La0  1  0.74682294  0.60510455  0.22061470  1.0
  La  La1  1  0.60510455  0.85828161  0.72061470  1.0
  La  La2  1  0.85828161  0.25317706  0.22061470  1.0
  La  La3  1  0.39489545  0.14171839  0.22061470  1.0
  La  La4  1  0.25317706  0.39489545  0.72061470  1.0
  La  La5  1  0.14171839  0.74682294  0.72061470  1.0
  Be  Be6  1  0.33333333  0.66666667  0.13226829  1.0
  Be  Be7  1  0.66666667  0.33333333  0.63226829  1.0
  In  In8  1  0.00000000  0.00000000  0.01849593  1.0
  In  In9  1  0.00000000  0.00000000  0.51849593  1.0
  S  S10  1  0.40767453  0.88630156  0.00186767  1.0
  S  S11  1  0.88630156  0.47862703  0.50186767  1.0
  S  S12  1  0.47862703  0.59232547  0.00186767  1.0
  S  S13  1  0.11369844  0.52137297  0.00186767  1.0
  S  S14  1  0.59232547  0.11369844  0.50186767  1.0
  S  S15  1  0.52137297  0.40767453  0.50186767  1.0
  S  S16  1  0.08856606  0.85011235  0.27791736  1.0
  S  S17  1  0.85011235  0.76154629  0.77791736  1.0
  S  S18  1  0.76154629  0.91143394  0.27791736  1.0
  S  S19  1  0.14988765  0.23845371  0.27791736  1.0
  S  S20  1  0.91143394  0.14988765  0.77791736  1.0
  S  S21  1  0.23845371  0.08856606  0.77791736  1.0
  S  S22  1  0.33333333  0.66666667  0.47903660  1.0
  S  S23  1  0.66666667  0.33333333  -0.02096340  1.0
