# generated using pymatgen
data_InNi3As
_symmetry_space_group_name_H-M   'P 1'
_cell_length_a   6.57862612
_cell_length_b   5.35844569
_cell_length_c   8.16228368
_cell_angle_alpha   90.00000000
_cell_angle_beta   94.00909701
_cell_angle_gamma   90.00000000
_symmetry_Int_Tables_number   1
_chemical_formula_structural   InNi3As
_chemical_formula_sum   'In4 Ni12 As4'
_cell_volume   287.02629572
_cell_formula_units_Z   4
loop_
 _symmetry_equiv_pos_site_id
 _symmetry_equiv_pos_as_xyz
  1  'x, y, z'
loop_
 _atom_site_type_symbol
 _atom_site_label
 _atom_site_symmetry_multiplicity
 _atom_site_fract_x
 _atom_site_fract_y
 _atom_site_fract_z
 _atom_site_occupancy
  In  In0  1  0.05946562  0.75000000  0.34651742  1.0
  In  In1  1  0.94053438  0.25000000  0.65348258  1.0
  In  In2  1  0.60465158  0.75000000  0.14440684  1.0
  In  In3  1  0.39534842  0.25000000  0.85559316  1.0
  Ni  Ni4  1  0.74836349  0.99234490  0.87995392  1.0
  Ni  Ni5  1  0.25163651  0.49234490  0.12004608  1.0
  Ni  Ni6  1  0.25163651  0.00765510  0.12004608  1.0
  Ni  Ni7  1  0.74836349  0.50765510  0.87995392  1.0
  Ni  Ni8  1  0.71285425  0.00095758  0.42050688  1.0
  Ni  Ni9  1  0.28714575  0.50095758  0.57949312  1.0
  Ni  Ni10  1  0.28714575  0.99904242  0.57949312  1.0
  Ni  Ni11  1  0.71285425  0.49904242  0.42050688  1.0
  Ni  Ni12  1  0.37965109  0.75000000  0.85417334  1.0
  Ni  Ni13  1  0.62034891  0.25000000  0.14582666  1.0
  Ni  Ni14  1  0.95254130  0.75000000  0.65266995  1.0
  Ni  Ni15  1  0.04745870  0.25000000  0.34733005  1.0
  As  As16  1  0.05225515  0.75000000  0.93277195  1.0
  As  As17  1  0.94774485  0.25000000  0.06722805  1.0
  As  As18  1  0.58812614  0.75000000  0.63267714  1.0
  As  As19  1  0.41187386  0.25000000  0.36732286  1.0
