# generated using pymatgen
data_Sr2CuCO5
_symmetry_space_group_name_H-M   'P 1'
_cell_length_a   9.44900559
_cell_length_b   9.44900559
_cell_length_c   9.44900559
_cell_angle_alpha   130.81750521
_cell_angle_beta   130.81750521
_cell_angle_gamma   72.10318578
_symmetry_Int_Tables_number   1
_chemical_formula_structural   Sr2CuCO5
_chemical_formula_sum   'Sr8 Cu4 C4 O20'
_cell_volume   472.47020991
_cell_formula_units_Z   4
loop_
 _symmetry_equiv_pos_site_id
 _symmetry_equiv_pos_as_xyz
  1  'x, y, z'
loop_
 _atom_site_type_symbol
 _atom_site_label
 _atom_site_symmetry_multiplicity
 _atom_site_fract_x
 _atom_site_fract_y
 _atom_site_fract_z
 _atom_site_occupancy
  Sr  Sr0  1  0.11417779  0.11417779  -0.00000000  1.0
  Sr  Sr1  1  0.88582221  0.88582221  1.00000000  1.0
  Sr  Sr2  1  0.12069670  0.62069670  0.50000000  1.0
  Sr  Sr3  1  0.37930330  0.87930330  0.50000000  1.0
  Sr  Sr4  1  0.60179276  0.10179276  0.50000000  1.0
  Sr  Sr5  1  0.89820724  0.39820724  0.50000000  1.0
  Sr  Sr6  1  0.38576831  0.38576831  0.00000000  1.0
  Sr  Sr7  1  0.61423169  0.61423169  1.00000000  1.0
  Cu  Cu8  1  0.25001245  0.74999332  1.00001362  1.0
  Cu  Cu9  1  1.25000668  1.25002029  1.50001913  1.0
  Cu  Cu10  1  0.74997971  0.24999883  0.99998638  1.0
  Cu  Cu11  1  0.75000117  0.74998755  0.49998087  1.0
  C  C12  1  0.50068371  1.01277419  1.01350653  1.0
  C  C13  1  0.98722581  1.00073233  1.48790952  1.0
  C  C14  1  0.99926767  0.48717719  0.98649347  1.0
  C  C15  1  0.51282281  0.49931629  0.51209048  1.0
  O  O16  1  0.01088032  0.76025008  0.74962859  1.0
  O  O17  1  1.23974992  0.98937850  1.25063024  1.0
  O  O18  1  1.01062150  0.26125173  1.25037141  1.0
  O  O19  1  0.73874827  0.98911968  0.74936976  1.0
  O  O20  1  0.33458973  1.01596973  0.85094008  1.0
  O  O21  1  0.98403027  0.83497036  1.31862000  1.0
  O  O22  1  1.16502964  0.48364965  1.14905992  1.0
  O  O23  1  0.51635035  0.66541027  0.68138000  1.0
  O  O24  1  0.26039293  0.51077003  0.74940528  1.0
  O  O25  1  1.48922997  1.23863525  1.74962290  1.0
  O  O26  1  0.76136475  0.51098765  1.25059472  1.0
  O  O27  1  0.48901235  0.73960707  0.25037710  1.0
  O  O28  1  0.65536050  1.08465788  1.09265158  1.0
  O  O29  1  0.91534212  1.00799371  1.57070262  1.0
  O  O30  1  0.99200629  0.56270892  0.90734842  1.0
  O  O31  1  0.43729108  0.34463950  0.42929738  1.0
  O  O32  1  0.50864200  0.93743840  1.09322922  1.0
  O  O33  1  1.06256160  1.15579082  1.57120360  1.0
  O  O34  1  0.84420918  0.41541278  0.90677078  1.0
  O  O35  1  0.58458722  0.49135800  0.42879640  1.0
