# generated using pymatgen
data_FeHO2
_symmetry_space_group_name_H-M   'P 1'
_cell_length_a   8.24823367
_cell_length_b   8.24823367
_cell_length_c   3.99182384
_cell_angle_alpha   90.00000000
_cell_angle_beta   90.00000000
_cell_angle_gamma   162.88780553
_symmetry_Int_Tables_number   1
_chemical_formula_structural   FeHO2
_chemical_formula_sum   'Fe2 H2 O4'
_cell_volume   79.90988704
_cell_formula_units_Z   2
loop_
 _symmetry_equiv_pos_site_id
 _symmetry_equiv_pos_as_xyz
  1  'x, y, z'
loop_
 _atom_site_type_symbol
 _atom_site_label
 _atom_site_symmetry_multiplicity
 _atom_site_fract_x
 _atom_site_fract_y
 _atom_site_fract_z
 _atom_site_occupancy
  Fe  Fe0  1  -0.30390330  1.30390330  0.19550976  1.0
  Fe  Fe1  1  -0.69609670  0.69609670  0.69550976  1.0
  H  H2  1  -0.42450069  1.42450069  0.19547763  1.0
  H  H3  1  -0.57549931  0.57549931  0.69547763  1.0
  O  O4  1  -0.71779609  0.71779609  0.19551676  1.0
  O  O5  1  -0.28220391  1.28220391  0.69551676  1.0
  O  O6  1  -0.90197239  0.90197239  0.19549585  1.0
  O  O7  1  -0.09802761  1.09802761  0.69549585  1.0
