# generated using pymatgen
data_Ta2Ga5
_symmetry_space_group_name_H-M   'P 1'
_cell_length_a   15.95107181
_cell_length_b   15.95107181
_cell_length_c   3.78840947
_cell_angle_alpha   90.00000000
_cell_angle_beta   90.00000000
_cell_angle_gamma   166.38886100
_symmetry_Int_Tables_number   1
_chemical_formula_structural   Ta2Ga5
_chemical_formula_sum   'Ta4 Ga10'
_cell_volume   226.83805937
_cell_formula_units_Z   2
loop_
 _symmetry_equiv_pos_site_id
 _symmetry_equiv_pos_as_xyz
  1  'x, y, z'
loop_
 _atom_site_type_symbol
 _atom_site_label
 _atom_site_symmetry_multiplicity
 _atom_site_fract_x
 _atom_site_fract_y
 _atom_site_fract_z
 _atom_site_occupancy
  Ta  Ta0  1  -0.95728656  0.95728656  0.25000000  1.0
  Ta  Ta1  1  -0.04271344  1.04271344  0.75000000  1.0
  Ta  Ta2  1  -0.68098333  0.68098333  0.25000000  1.0
  Ta  Ta3  1  -0.31901667  1.31901667  0.75000000  1.0
  Ga  Ga4  1  -0.82228898  0.82228898  0.25000000  1.0
  Ga  Ga5  1  -0.17771102  1.17771102  0.75000000  1.0
  Ga  Ga6  1  -0.52809762  0.52809762  0.25000000  1.0
  Ga  Ga7  1  -0.47190238  1.47190238  0.75000000  1.0
  Ga  Ga8  1  -0.39047551  1.39047551  0.25000000  1.0
  Ga  Ga9  1  -0.60952449  0.60952449  0.75000000  1.0
  Ga  Ga10  1  -0.25024285  1.25024285  0.25000000  1.0
  Ga  Ga11  1  -0.74975715  0.74975715  0.75000000  1.0
  Ga  Ga12  1  -0.10860190  1.10860190  0.25000000  1.0
  Ga  Ga13  1  -0.89139810  0.89139810  0.75000000  1.0
