# generated using pymatgen
data_Sr11Ga4Sn3
_symmetry_space_group_name_H-M   'P 1'
_cell_length_a   12.22240368
_cell_length_b   12.22240368
_cell_length_c   12.22240368
_cell_angle_alpha   60.00000000
_cell_angle_beta   60.00000000
_cell_angle_gamma   60.00000000
_symmetry_Int_Tables_number   1
_chemical_formula_structural   Sr11Ga4Sn3
_chemical_formula_sum   'Sr22 Ga8 Sn6'
_cell_volume   1291.08510950
_cell_formula_units_Z   2
loop_
 _symmetry_equiv_pos_site_id
 _symmetry_equiv_pos_as_xyz
  1  'x, y, z'
loop_
 _atom_site_type_symbol
 _atom_site_label
 _atom_site_symmetry_multiplicity
 _atom_site_fract_x
 _atom_site_fract_y
 _atom_site_fract_z
 _atom_site_occupancy
  Sr  Sr0  1  1.66507676  0.00000000  -0.00000000  1.0
  Sr  Sr1  1  1.00000000  0.33492324  -0.33492324  1.0
  Sr  Sr2  1  1.00000000  0.66507676  -0.66507676  1.0
  Sr  Sr3  1  1.33492324  0.00000000  -0.00000000  1.0
  Sr  Sr4  1  0.00000000  1.66507676  -0.00000000  1.0
  Sr  Sr5  1  0.33492324  1.00000000  -0.33492324  1.0
  Sr  Sr6  1  0.00000000  0.00000000  0.66507676  1.0
  Sr  Sr7  1  0.33492324  -0.33492324  1.00000000  1.0
  Sr  Sr8  1  0.66507676  1.00000000  -0.66507676  1.0
  Sr  Sr9  1  0.00000000  1.33492324  -0.00000000  1.0
  Sr  Sr10  1  0.66507676  -0.66507676  1.00000000  1.0
  Sr  Sr11  1  0.00000000  -0.00000000  0.33492324  1.0
  Sr  Sr12  1  0.63075541  0.63075541  -0.36924459  1.0
  Sr  Sr13  1  0.36924459  1.36924459  -0.10773378  1.0
  Sr  Sr14  1  1.36924459  -0.10773378  0.36924459  1.0
  Sr  Sr15  1  1.10773378  0.63075541  0.63075541  1.0
  Sr  Sr16  1  -0.10773378  1.36924459  0.36924459  1.0
  Sr  Sr17  1  0.63075541  1.10773378  -0.36924459  1.0
  Sr  Sr18  1  0.63075541  0.63075541  1.10773378  1.0
  Sr  Sr19  1  1.36924459  0.36924459  0.36924459  1.0
  Sr  Sr20  1  -0.50000000  0.50000000  0.50000000  1.0
  Sr  Sr21  1  0.00000000  0.00000000  0.00000000  1.0
  Ga  Ga22  1  0.80633520  0.80633520  -0.19366480  1.0
  Ga  Ga23  1  1.19366480  0.19366480  0.41900559  1.0
  Ga  Ga24  1  1.19366480  0.41900559  0.19366480  1.0
  Ga  Ga25  1  0.58099441  0.80633520  -0.19366480  1.0
  Ga  Ga26  1  1.41900559  0.19366480  0.19366480  1.0
  Ga  Ga27  1  0.80633520  0.58099441  -0.19366480  1.0
  Ga  Ga28  1  0.80633520  0.80633520  -0.41900559  1.0
  Ga  Ga29  1  1.19366480  0.19366480  0.19366480  1.0
  Sn  Sn30  1  -0.71705159  0.71705159  0.71705159  1.0
  Sn  Sn31  1  -0.28294841  0.28294841  0.71705159  1.0
  Sn  Sn32  1  0.71705159  0.71705159  -0.71705159  1.0
  Sn  Sn33  1  0.28294841  1.28294841  -0.28294841  1.0
  Sn  Sn34  1  0.28294841  -0.28294841  1.28294841  1.0
  Sn  Sn35  1  -0.28294841  0.28294841  0.28294841  1.0
