# generated using pymatgen
data_ReBr3
_symmetry_space_group_name_H-M   'P 1'
_cell_length_a   10.37864010
_cell_length_b   10.37864010
_cell_length_c   10.37864010
_cell_angle_alpha   62.52527315
_cell_angle_beta   62.52527315
_cell_angle_gamma   62.52527315
_symmetry_Int_Tables_number   1
_chemical_formula_structural   ReBr3
_chemical_formula_sum   'Re6 Br18'
_cell_volume   834.98666897
_cell_formula_units_Z   6
loop_
 _symmetry_equiv_pos_site_id
 _symmetry_equiv_pos_as_xyz
  1  'x, y, z'
loop_
 _atom_site_type_symbol
 _atom_site_label
 _atom_site_symmetry_multiplicity
 _atom_site_fract_x
 _atom_site_fract_y
 _atom_site_fract_z
 _atom_site_occupancy
  Re  Re0  1  1.35737744  1.35737744  0.12915314  1.0
  Re  Re1  1  1.35737744  1.12915314  0.35737744  1.0
  Re  Re2  1  0.87084686  0.64262256  -0.35737744  1.0
  Re  Re3  1  0.64262256  0.87084686  -0.35737744  1.0
  Re  Re4  1  0.64262256  0.64262256  -0.12915314  1.0
  Re  Re5  1  1.12915314  1.35737744  0.35737744  1.0
  Br  Br6  1  0.29303679  0.29303679  -0.02574952  1.0
  Br  Br7  1  0.29303679  0.97425048  -0.70696321  1.0
  Br  Br8  1  1.02574952  -0.29303679  -0.29303679  1.0
  Br  Br9  1  0.70696321  0.02574952  -0.29303679  1.0
  Br  Br10  1  0.70696321  -0.29303679  0.02574952  1.0
  Br  Br11  1  0.97425048  0.29303679  -0.70696321  1.0
  Br  Br12  1  0.51255589  0.51255589  -0.16858499  1.0
  Br  Br13  1  0.51255589  0.83141501  -0.48744411  1.0
  Br  Br14  1  0.16858499  0.48744411  -0.51255589  1.0
  Br  Br15  1  0.48744411  0.16858499  -0.51255589  1.0
  Br  Br16  1  0.48744411  0.48744411  -0.83141501  1.0
  Br  Br17  1  0.83141501  0.51255589  -0.48744411  1.0
  Br  Br18  1  1.12349599  1.12349599  0.60025090  1.0
  Br  Br19  1  1.12349599  1.60025090  0.12349599  1.0
  Br  Br20  1  0.39974910  0.87650401  -0.12349599  1.0
  Br  Br21  1  0.87650401  0.39974910  -0.12349599  1.0
  Br  Br22  1  0.87650401  0.87650401  -0.60025090  1.0
  Br  Br23  1  1.60025090  1.12349599  0.12349599  1.0
