# generated using pymatgen
data_Zr2V3Ru
_symmetry_space_group_name_H-M   'P 1'
_cell_length_a   5.28443546
_cell_length_b   5.28443546
_cell_length_c   8.21456209
_cell_angle_alpha   90.00000000
_cell_angle_beta   90.00000000
_cell_angle_gamma   120.00000000
_symmetry_Int_Tables_number   1
_chemical_formula_structural   Zr2V3Ru
_chemical_formula_sum   'Zr4 V6 Ru2'
_cell_volume   198.66082909
_cell_formula_units_Z   2
loop_
 _symmetry_equiv_pos_site_id
 _symmetry_equiv_pos_as_xyz
  1  'x, y, z'
loop_
 _atom_site_type_symbol
 _atom_site_label
 _atom_site_symmetry_multiplicity
 _atom_site_fract_x
 _atom_site_fract_y
 _atom_site_fract_z
 _atom_site_occupancy
  Zr  Zr0  1  0.33333333  0.66666667  0.44024424  1.0
  Zr  Zr1  1  0.66666667  0.33333333  0.55975576  1.0
  Zr  Zr2  1  0.66666667  0.33333333  0.94024424  1.0
  Zr  Zr3  1  0.33333333  0.66666667  0.05975576  1.0
  V  V4  1  0.83102897  0.16897103  0.25000000  1.0
  V  V5  1  0.83102897  0.66205793  0.25000000  1.0
  V  V6  1  0.33794207  0.16897103  0.25000000  1.0
  V  V7  1  0.16897103  0.83102897  0.75000000  1.0
  V  V8  1  0.16897103  0.33794207  0.75000000  1.0
  V  V9  1  0.66205793  0.83102897  0.75000000  1.0
  Ru  Ru10  1  0.00000000  0.00000000  0.50000000  1.0
  Ru  Ru11  1  -0.00000000  -0.00000000  -0.00000000  1.0
