# generated using pymatgen
data_Sr6Cu3N5
_symmetry_space_group_name_H-M   'P 1'
_cell_length_a   8.68480813
_cell_length_b   8.68480813
_cell_length_c   7.36634568
_cell_angle_alpha   90.00000000
_cell_angle_beta   90.00000000
_cell_angle_gamma   90.00000000
_symmetry_Int_Tables_number   1
_chemical_formula_structural   Sr6Cu3N5
_chemical_formula_sum   'Sr12 Cu6 N10'
_cell_volume   555.61319545
_cell_formula_units_Z   2
loop_
 _symmetry_equiv_pos_site_id
 _symmetry_equiv_pos_as_xyz
  1  'x, y, z'
loop_
 _atom_site_type_symbol
 _atom_site_label
 _atom_site_symmetry_multiplicity
 _atom_site_fract_x
 _atom_site_fract_y
 _atom_site_fract_z
 _atom_site_occupancy
  Sr  Sr0  1  0.73291666  0.69747003  0.21261731  1.0
  Sr  Sr1  1  0.73291666  0.30252997  0.21261731  1.0
  Sr  Sr2  1  0.69747003  0.73291666  0.71261731  1.0
  Sr  Sr3  1  0.69747003  0.26708334  0.71261731  1.0
  Sr  Sr4  1  0.26708334  0.69747003  0.21261731  1.0
  Sr  Sr5  1  0.26708334  0.30252997  0.21261731  1.0
  Sr  Sr6  1  0.30252997  0.73291666  0.71261731  1.0
  Sr  Sr7  1  0.30252997  0.26708334  0.71261731  1.0
  Sr  Sr8  1  0.00000000  0.50000000  0.52324752  1.0
  Sr  Sr9  1  0.50000000  0.00000000  0.02324752  1.0
  Sr  Sr10  1  0.00000000  0.00000000  0.00506709  1.0
  Sr  Sr11  1  0.00000000  0.00000000  0.50506709  1.0
  Cu  Cu12  1  0.64132464  0.00000000  0.43470077  1.0
  Cu  Cu13  1  0.00000000  0.64132464  0.93470077  1.0
  Cu  Cu14  1  0.00000000  0.35867536  0.93470077  1.0
  Cu  Cu15  1  0.35867536  0.00000000  0.43470077  1.0
  Cu  Cu16  1  0.50000000  0.50000000  0.47401290  1.0
  Cu  Cu17  1  0.50000000  0.50000000  0.97401290  1.0
  N  N18  1  0.71269625  0.50000000  0.48503728  1.0
  N  N19  1  0.50000000  0.71269625  0.98503728  1.0
  N  N20  1  0.50000000  0.28730375  0.98503728  1.0
  N  N21  1  0.28730375  0.50000000  0.48503728  1.0
  N  N22  1  0.78033888  0.00000000  0.24061485  1.0
  N  N23  1  0.00000000  0.78033888  0.74061485  1.0
  N  N24  1  0.00000000  0.21966112  0.74061485  1.0
  N  N25  1  0.21966112  0.00000000  0.24061485  1.0
  N  N26  1  0.00000000  0.50000000  0.13219744  1.0
  N  N27  1  0.50000000  0.00000000  0.63219744  1.0
