# generated using pymatgen
data_Mn2Sn3S4
_symmetry_space_group_name_H-M   'P 1'
_cell_length_a   6.88814065
_cell_length_b   7.21539558
_cell_length_c   11.15240173
_cell_angle_alpha   90.00000000
_cell_angle_beta   90.00000000
_cell_angle_gamma   90.00000000
_symmetry_Int_Tables_number   1
_chemical_formula_structural   Mn2Sn3S4
_chemical_formula_sum   'Mn4 Sn6 S8'
_cell_volume   554.28172209
_cell_formula_units_Z   2
loop_
 _symmetry_equiv_pos_site_id
 _symmetry_equiv_pos_as_xyz
  1  'x, y, z'
loop_
 _atom_site_type_symbol
 _atom_site_label
 _atom_site_symmetry_multiplicity
 _atom_site_fract_x
 _atom_site_fract_y
 _atom_site_fract_z
 _atom_site_occupancy
  Mn  Mn0  1  0.25000000  0.50000000  -0.06418814  1.0
  Mn  Mn1  1  0.75000000  0.50000000  1.06418814  1.0
  Mn  Mn2  1  0.25000000  0.00000000  0.40895653  1.0
  Mn  Mn3  1  0.75000000  0.00000000  0.59104347  1.0
  Sn  Sn4  1  0.50000000  0.00000000  0.00000000  1.0
  Sn  Sn5  1  0.00000000  0.00000000  0.00000000  1.0
  Sn  Sn6  1  0.25000000  0.74678060  0.71999303  1.0
  Sn  Sn7  1  0.75000000  0.74678060  0.28000697  1.0
  Sn  Sn8  1  0.25000000  0.25321940  0.71999303  1.0
  Sn  Sn9  1  0.75000000  0.25321940  0.28000697  1.0
  S  S10  1  0.51119969  0.00000000  0.74565333  1.0
  S  S11  1  1.01119969  -0.00000000  0.25434667  1.0
  S  S12  1  0.48880031  -0.00000000  0.25434667  1.0
  S  S13  1  -0.01119969  0.00000000  0.74565333  1.0
  S  S14  1  0.25000000  0.72462717  0.49965078  1.0
  S  S15  1  0.75000000  0.72462717  0.50034922  1.0
  S  S16  1  0.25000000  0.27537283  0.49965078  1.0
  S  S17  1  0.75000000  0.27537283  0.50034922  1.0
