# generated using pymatgen
data_VAgHgO4
_symmetry_space_group_name_H-M   'P 1'
_cell_length_a   5.96772433
_cell_length_b   5.96772433
_cell_length_c   7.23333012
_cell_angle_alpha   81.29652630
_cell_angle_beta   98.70347370
_cell_angle_gamma   124.31285272
_symmetry_Int_Tables_number   1
_chemical_formula_structural   VAgHgO4
_chemical_formula_sum   'V2 Ag2 Hg2 O8'
_cell_volume   209.63632413
_cell_formula_units_Z   2
loop_
 _symmetry_equiv_pos_site_id
 _symmetry_equiv_pos_as_xyz
  1  'x, y, z'
loop_
 _atom_site_type_symbol
 _atom_site_label
 _atom_site_symmetry_multiplicity
 _atom_site_fract_x
 _atom_site_fract_y
 _atom_site_fract_z
 _atom_site_occupancy
  V  V0  1  1.30945326  0.68249782  0.77054793  1.0
  V  V1  1  0.68249782  0.30945326  0.22945207  1.0
  Ag  Ag2  1  1.37787438  0.64921271  0.27871532  1.0
  Ag  Ag3  1  0.64921271  0.37787438  0.72128468  1.0
  Hg  Hg4  1  0.03286122  0.03286122  0.50000000  1.0
  Hg  Hg5  1  -0.01002507  -0.01002507  -0.00000000  1.0
  O  O6  1  1.05028629  0.33898941  0.79307974  1.0
  O  O7  1  0.33898941  0.05028629  0.20692026  1.0
  O  O8  1  0.19251979  -0.08741908  0.72947146  1.0
  O  O9  1  0.91258092  0.19251979  0.27052854  1.0
  O  O10  1  0.72915187  0.49228054  0.40478911  1.0
  O  O11  1  0.49228054  -0.27084813  0.59521089  1.0
  O  O12  1  0.51361014  -0.21949328  0.97298833  1.0
  O  O13  1  0.78050672  0.51361014  0.02701167  1.0
