# generated using pymatgen
data_TlP(HO2)2
_symmetry_space_group_name_H-M   'P 1'
_cell_length_a   4.51214938
_cell_length_b   14.82921142
_cell_length_c   6.53046493
_cell_angle_alpha   90.00000000
_cell_angle_beta   90.00000000
_cell_angle_gamma   90.00000000
_symmetry_Int_Tables_number   1
_chemical_formula_structural   TlP(HO2)2
_chemical_formula_sum   'Tl4 P4 H8 O16'
_cell_volume   436.96396899
_cell_formula_units_Z   4
loop_
 _symmetry_equiv_pos_site_id
 _symmetry_equiv_pos_as_xyz
  1  'x, y, z'
loop_
 _atom_site_type_symbol
 _atom_site_label
 _atom_site_symmetry_multiplicity
 _atom_site_fract_x
 _atom_site_fract_y
 _atom_site_fract_z
 _atom_site_occupancy
  Tl  Tl0  1  0.50000000  0.13762873  0.25000000  1.0
  Tl  Tl1  1  0.50000000  0.86237127  0.75000000  1.0
  Tl  Tl2  1  0.00000000  0.63762873  0.25000000  1.0
  Tl  Tl3  1  0.00000000  0.36237127  0.75000000  1.0
  P  P4  1  0.50000000  0.37780835  0.25000000  1.0
  P  P5  1  0.50000000  0.62219165  0.75000000  1.0
  P  P6  1  0.00000000  0.87780835  0.25000000  1.0
  P  P7  1  0.00000000  0.12219165  0.75000000  1.0
  H  H8  1  0.50000000  0.81980101  0.25000000  1.0
  H  H9  1  0.50000000  0.18019899  0.75000000  1.0
  H  H10  1  0.00000000  0.31980101  0.25000000  1.0
  H  H11  1  0.00000000  0.68019899  0.75000000  1.0
  H  H12  1  0.50000000  0.50000000  0.00000000  1.0
  H  H13  1  0.50000000  0.50000000  0.50000000  1.0
  H  H14  1  0.00000000  0.00000000  0.50000000  1.0
  H  H15  1  0.00000000  0.00000000  0.00000000  1.0
  O  O16  1  0.37239567  0.43641871  0.07265293  1.0
  O  O17  1  0.37239567  0.56358129  0.57265293  1.0
  O  O18  1  0.87239567  0.93641871  0.42734707  1.0
  O  O19  1  0.87239567  0.06358129  0.92734707  1.0
  O  O20  1  0.62760433  0.43641871  0.42734707  1.0
  O  O21  1  0.62760433  0.56358129  0.92734707  1.0
  O  O22  1  0.12760433  0.93641871  0.07265293  1.0
  O  O23  1  0.12760433  0.06358129  0.57265293  1.0
  O  O24  1  0.24274078  0.31584788  0.32809567  1.0
  O  O25  1  0.24274078  0.68415212  0.82809567  1.0
  O  O26  1  0.74274078  0.81584788  0.17190433  1.0
  O  O27  1  0.74274078  0.18415212  0.67190433  1.0
  O  O28  1  0.75725922  0.31584788  0.17190433  1.0
  O  O29  1  0.75725922  0.68415212  0.67190433  1.0
  O  O30  1  0.25725922  0.81584788  0.32809567  1.0
  O  O31  1  0.25725922  0.18415212  0.82809567  1.0
