# generated using pymatgen
data_CaSiO3
_symmetry_space_group_name_H-M   'P 1'
_cell_length_a   6.24882247
_cell_length_b   6.24882247
_cell_length_c   6.24882247
_cell_angle_alpha   109.38454572
_cell_angle_beta   109.38454572
_cell_angle_gamma   109.64470989
_symmetry_Int_Tables_number   1
_chemical_formula_structural   CaSiO3
_chemical_formula_sum   'Ca4 Si4 O12'
_cell_volume   187.83204298
_cell_formula_units_Z   4
loop_
 _symmetry_equiv_pos_site_id
 _symmetry_equiv_pos_as_xyz
  1  'x, y, z'
loop_
 _atom_site_type_symbol
 _atom_site_label
 _atom_site_symmetry_multiplicity
 _atom_site_fract_x
 _atom_site_fract_y
 _atom_site_fract_z
 _atom_site_occupancy
  Ca  Ca0  1  -0.00000000  -0.00000000  -0.00000000  1.0
  Ca  Ca1  1  0.50000000  0.50000000  -0.00000000  1.0
  Ca  Ca2  1  -0.00000000  0.50000000  0.50000000  1.0
  Ca  Ca3  1  0.50000000  0.00000000  0.50000000  1.0
  Si  Si4  1  1.00000000  1.00000000  0.50000000  1.0
  Si  Si5  1  0.50000000  0.50000000  0.50000000  1.0
  Si  Si6  1  1.00000000  1.50000000  1.00000000  1.0
  Si  Si7  1  1.50000000  1.00000000  1.00000000  1.0
  O  O8  1  0.23743869  0.23743869  0.47487738  1.0
  O  O9  1  0.76256131  0.76256131  0.52512262  1.0
  O  O10  1  1.23743869  0.76256131  1.00000000  1.0
  O  O11  1  0.76256131  1.23743869  1.00000000  1.0
  O  O12  1  0.73727079  0.98754327  0.25027247  1.0
  O  O13  1  0.73727079  0.48699832  0.74972753  1.0
  O  O14  1  0.98754327  0.73727079  0.25027247  1.0
  O  O15  1  0.48699832  0.73727079  0.74972753  1.0
  O  O16  1  1.26272921  1.01245673  0.74972753  1.0
  O  O17  1  0.26272921  0.51300168  0.25027247  1.0
  O  O18  1  1.01245673  1.26272921  0.74972753  1.0
  O  O19  1  0.51300168  0.26272921  0.25027247  1.0
