# generated using pymatgen
data_PH8C2SNO2
_symmetry_space_group_name_H-M   'P 1'
_cell_length_a   5.50448906
_cell_length_b   9.62062102
_cell_length_c   14.47803251
_cell_angle_alpha   90.00000000
_cell_angle_beta   101.33692821
_cell_angle_gamma   90.00000000
_symmetry_Int_Tables_number   1
_chemical_formula_structural   PH8C2SNO2
_chemical_formula_sum   'P4 H32 C8 S4 N4 O8'
_cell_volume   751.74755311
_cell_formula_units_Z   4
loop_
 _symmetry_equiv_pos_site_id
 _symmetry_equiv_pos_as_xyz
  1  'x, y, z'
loop_
 _atom_site_type_symbol
 _atom_site_label
 _atom_site_symmetry_multiplicity
 _atom_site_fract_x
 _atom_site_fract_y
 _atom_site_fract_z
 _atom_site_occupancy
  P  P0  1  0.09943704  0.63809301  0.12750542  1.0
  P  P1  1  0.09943704  0.86190699  0.62750542  1.0
  P  P2  1  0.90056296  0.36190699  0.87249458  1.0
  P  P3  1  0.90056296  0.13809301  0.37249458  1.0
  H  H4  1  0.49422339  0.56716607  0.10987776  1.0
  H  H5  1  0.49422339  0.93283393  0.60987776  1.0
  H  H6  1  0.50577661  0.43283393  0.89012224  1.0
  H  H7  1  0.50577661  0.06716607  0.39012224  1.0
  H  H8  1  0.25865459  0.50090447  0.02648489  1.0
  H  H9  1  0.25865459  0.99909553  0.52648489  1.0
  H  H10  1  0.74134541  0.49909553  0.97351511  1.0
  H  H11  1  0.74134541  0.00090447  0.47351511  1.0
  H  H12  1  0.52854634  0.83513960  0.08913168  1.0
  H  H13  1  0.52854634  0.66486040  0.58913168  1.0
  H  H14  1  0.47145366  0.16486040  0.91086832  1.0
  H  H15  1  0.47145366  0.33513960  0.41086832  1.0
  H  H16  1  0.40567968  1.00731056  0.08689556  1.0
  H  H17  1  0.40567968  0.49268944  0.58689556  1.0
  H  H18  1  0.59432032  -0.00731056  0.91310444  1.0
  H  H19  1  0.59432032  0.50731056  0.41310444  1.0
  H  H20  1  0.44827546  0.90898900  0.19323754  1.0
  H  H21  1  0.44827546  0.59101100  0.69323754  1.0
  H  H22  1  0.55172454  0.09101100  0.80676246  1.0
  H  H23  1  0.55172454  0.40898900  0.30676246  1.0
  H  H24  1  0.09971646  0.83901117  0.28631614  1.0
  H  H25  1  0.09971646  0.66098883  0.78631614  1.0
  H  H26  1  0.90028354  0.16098883  0.71368386  1.0
  H  H27  1  0.90028354  0.33901117  0.21368386  1.0
  H  H28  1  0.88256684  0.69944406  0.28581640  1.0
  H  H29  1  0.88256684  0.80055594  0.78581640  1.0
  H  H30  1  0.11743316  0.30055594  0.71418360  1.0
  H  H31  1  0.11743316  0.19944406  0.21418360  1.0
  H  H32  1  0.16549804  0.70140382  0.37117162  1.0
  H  H33  1  0.16549804  0.79859618  0.87117162  1.0
  H  H34  1  0.83450196  0.29859618  0.62882838  1.0
  H  H35  1  0.83450196  0.20140382  0.12882838  1.0
  C  C36  1  0.39854646  0.90274709  0.11631579  1.0
  C  C37  1  0.39854646  0.59725291  0.61631579  1.0
  C  C38  1  0.60145354  0.09725291  0.88368421  1.0
  C  C39  1  0.60145354  0.40274709  0.38368421  1.0
  C  C40  1  0.07967262  0.72743917  0.29851386  1.0
  C  C41  1  0.07967262  0.77256083  0.79851386  1.0
  C  C42  1  0.92032738  0.27256083  0.70148614  1.0
  C  C43  1  0.92032738  0.22743917  0.20148614  1.0
  S  S44  1  0.07993495  0.84370898  0.07712783  1.0
  S  S45  1  0.07993495  0.65629102  0.57712783  1.0
  S  S46  1  0.92006505  0.15629102  0.92287217  1.0
  S  S47  1  0.92006505  0.34370898  0.42287217  1.0
  N  N48  1  0.30991066  0.54095559  0.09349099  1.0
  N  N49  1  0.30991066  0.95904441  0.59349099  1.0
  N  N50  1  0.69008934  0.45904441  0.90650901  1.0
  N  N51  1  0.69008934  0.04095559  0.40650901  1.0
  O  O52  1  0.84128125  0.58117011  0.09810766  1.0
  O  O53  1  0.84128125  0.91882989  0.59810766  1.0
  O  O54  1  0.15871875  0.41882989  0.90189234  1.0
  O  O55  1  0.15871875  0.08117011  0.40189234  1.0
  O  O56  1  0.20858097  0.64615493  0.23878096  1.0
  O  O57  1  0.20858097  0.85384507  0.73878096  1.0
  O  O58  1  0.79141903  0.35384507  0.76121904  1.0
  O  O59  1  0.79141903  0.14615493  0.26121904  1.0
