# generated using pymatgen
data_ZnS
_symmetry_space_group_name_H-M   'P 1'
_cell_length_a   22.15715274
_cell_length_b   22.15715274
_cell_length_c   22.15715274
_cell_angle_alpha   9.96337809
_cell_angle_beta   9.96337809
_cell_angle_gamma   9.96337809
_symmetry_Int_Tables_number   1
_chemical_formula_structural   ZnS
_chemical_formula_sum   'Zn7 S7'
_cell_volume   282.71670221
_cell_formula_units_Z   7
loop_
 _symmetry_equiv_pos_site_id
 _symmetry_equiv_pos_as_xyz
  1  'x, y, z'
loop_
 _atom_site_type_symbol
 _atom_site_label
 _atom_site_symmetry_multiplicity
 _atom_site_fract_x
 _atom_site_fract_y
 _atom_site_fract_z
 _atom_site_occupancy
  Zn  Zn0  1  0.00003646  0.00003646  0.00003646  1.0
  Zn  Zn1  1  0.71424108  -0.28575892  -0.28575892  1.0
  Zn  Zn2  1  0.42851567  0.42851567  -0.57148433  1.0
  Zn  Zn3  1  0.80953500  -0.19046500  -0.19046500  1.0
  Zn  Zn4  1  0.52386953  0.52386953  -0.47613047  1.0
  Zn  Zn5  1  0.90480863  -0.09519137  -0.09519137  1.0
  Zn  Zn6  1  0.28574803  0.28574803  0.28574803  1.0
  S  S7  1  0.03568928  0.03568928  0.03568928  1.0
  S  S8  1  0.74989919  -0.25010081  -0.25010081  1.0
  S  S9  1  0.46423623  0.46423623  -0.53576377  1.0
  S  S10  1  0.84524277  -0.15475723  -0.15475723  1.0
  S  S11  1  0.55958041  0.55958041  -0.44041959  1.0
  S  S12  1  0.94046037  -0.05953963  -0.05953963  1.0
  S  S13  1  0.32147067  0.32147067  0.32147067  1.0
