# generated using pymatgen
data_NbFeAs
_symmetry_space_group_name_H-M   'P 1'
_cell_length_a   6.33235486
_cell_length_b   3.75778804
_cell_length_c   7.12707226
_cell_angle_alpha   90.00000000
_cell_angle_beta   90.00000000
_cell_angle_gamma   90.00000000
_symmetry_Int_Tables_number   1
_chemical_formula_structural   NbFeAs
_chemical_formula_sum   'Nb4 Fe4 As4'
_cell_volume   169.59329834
_cell_formula_units_Z   4
loop_
 _symmetry_equiv_pos_site_id
 _symmetry_equiv_pos_as_xyz
  1  'x, y, z'
loop_
 _atom_site_type_symbol
 _atom_site_label
 _atom_site_symmetry_multiplicity
 _atom_site_fract_x
 _atom_site_fract_y
 _atom_site_fract_z
 _atom_site_occupancy
  Nb  Nb0  1  0.97873029  0.75000000  0.67974794  1.0
  Nb  Nb1  1  0.47873029  0.75000000  0.82025206  1.0
  Nb  Nb2  1  0.02126971  0.25000000  0.32025206  1.0
  Nb  Nb3  1  0.52126971  0.25000000  0.17974794  1.0
  Fe  Fe4  1  0.85925463  0.75000000  0.06225453  1.0
  Fe  Fe5  1  0.35925463  0.75000000  0.43774547  1.0
  Fe  Fe6  1  0.14074537  0.25000000  0.93774547  1.0
  Fe  Fe7  1  0.64074537  0.25000000  0.56225453  1.0
  As  As8  1  0.72739745  0.75000000  0.38020422  1.0
  As  As9  1  0.22739745  0.75000000  0.11979578  1.0
  As  As10  1  0.27260255  0.25000000  0.61979578  1.0
  As  As11  1  0.77260255  0.25000000  0.88020422  1.0
