# generated using pymatgen
data_RbReCl4
_symmetry_space_group_name_H-M   'P 1'
_cell_length_a   9.26430851
_cell_length_b   9.26430851
_cell_length_c   12.67476476
_cell_angle_alpha   90.00000000
_cell_angle_beta   90.00000000
_cell_angle_gamma   107.08398084
_symmetry_Int_Tables_number   1
_chemical_formula_structural   RbReCl4
_chemical_formula_sum   'Rb6 Re6 Cl24'
_cell_volume   1039.84142383
_cell_formula_units_Z   6
loop_
 _symmetry_equiv_pos_site_id
 _symmetry_equiv_pos_as_xyz
  1  'x, y, z'
loop_
 _atom_site_type_symbol
 _atom_site_label
 _atom_site_symmetry_multiplicity
 _atom_site_fract_x
 _atom_site_fract_y
 _atom_site_fract_z
 _atom_site_occupancy
  Rb  Rb0  1  0.75991707  0.75991707  0.50000000  1.0
  Rb  Rb1  1  0.75991707  0.75991707  0.00000000  1.0
  Rb  Rb2  1  0.24008293  0.24008293  0.50000000  1.0
  Rb  Rb3  1  0.24008293  0.24008293  0.00000000  1.0
  Rb  Rb4  1  -0.24641573  1.24641573  0.25000000  1.0
  Rb  Rb5  1  0.24641573  0.75358427  0.75000000  1.0
  Re  Re6  1  0.21772796  0.78227204  0.34755254  1.0
  Re  Re7  1  0.21772796  0.78227204  0.15244746  1.0
  Re  Re8  1  -0.21772796  1.21772796  0.84755254  1.0
  Re  Re9  1  -0.21772796  1.21772796  0.65244746  1.0
  Re  Re10  1  0.36009549  0.63990451  0.25000000  1.0
  Re  Re11  1  -0.36009549  1.36009549  0.75000000  1.0
  Cl  Cl12  1  -0.00455928  1.59096869  0.37604121  1.0
  Cl  Cl13  1  -0.00455928  1.59096869  0.12395879  1.0
  Cl  Cl14  1  0.59096869  0.99544072  0.87604121  1.0
  Cl  Cl15  1  0.59096869  0.99544072  0.62395879  1.0
  Cl  Cl16  1  -0.59096869  1.00455928  0.37604121  1.0
  Cl  Cl17  1  -0.59096869  1.00455928  0.12395879  1.0
  Cl  Cl18  1  0.00455928  0.40903131  0.87604121  1.0
  Cl  Cl19  1  0.00455928  0.40903131  0.62395879  1.0
  Cl  Cl20  1  0.18099616  0.40148220  0.25000000  1.0
  Cl  Cl21  1  -0.59851780  1.18099616  0.75000000  1.0
  Cl  Cl22  1  0.59851780  0.81900384  0.25000000  1.0
  Cl  Cl23  1  -0.18099616  1.59851780  0.75000000  1.0
  Cl  Cl24  1  0.13128891  0.86871109  0.97189498  1.0
  Cl  Cl25  1  0.13128891  0.86871109  0.52810502  1.0
  Cl  Cl26  1  -0.13128891  1.13128891  0.47189498  1.0
  Cl  Cl27  1  -0.13128891  1.13128891  0.02810502  1.0
  Cl  Cl28  1  0.35989128  0.64010872  0.44231654  1.0
  Cl  Cl29  1  0.35989128  0.64010872  0.05768346  1.0
  Cl  Cl30  1  -0.35989128  1.35989128  0.94231654  1.0
  Cl  Cl31  1  -0.35989128  1.35989128  0.55768346  1.0
  Cl  Cl32  1  0.07779654  0.92220346  0.25000000  1.0
  Cl  Cl33  1  -0.07779654  1.07779654  0.75000000  1.0
  Cl  Cl34  1  -0.46584422  1.46584422  0.25000000  1.0
  Cl  Cl35  1  0.46584422  0.53415578  0.75000000  1.0
