# generated using pymatgen
data_Cr2CdH14(NO2)4
_symmetry_space_group_name_H-M   'P 1'
_cell_length_a   6.27938253
_cell_length_b   7.84568856
_cell_length_c   7.12943084
_cell_angle_alpha   109.59758318
_cell_angle_beta   117.17584977
_cell_angle_gamma   90.77046144
_symmetry_Int_Tables_number   1
_chemical_formula_structural   Cr2CdH14(NO2)4
_chemical_formula_sum   'Cr2 Cd1 H14 N4 O8'
_cell_volume   288.48736906
_cell_formula_units_Z   1
loop_
 _symmetry_equiv_pos_site_id
 _symmetry_equiv_pos_as_xyz
  1  'x, y, z'
loop_
 _atom_site_type_symbol
 _atom_site_label
 _atom_site_symmetry_multiplicity
 _atom_site_fract_x
 _atom_site_fract_y
 _atom_site_fract_z
 _atom_site_occupancy
  Cr  Cr0  1  -0.82396304  -0.77376523  -0.67051779  1.0
  Cr  Cr1  1  -0.17603696  -0.22623477  -0.32948221  1.0
  Cd  Cd2  1  -0.50000000  -0.00000000  -0.00000000  1.0
  H  H3  1  -0.92427425  -0.24230497  -0.80843111  1.0
  H  H4  1  -0.07572575  -0.75769503  -0.19156889  1.0
  H  H5  1  -0.93021263  -0.21836444  -0.56353615  1.0
  H  H6  1  -0.06978737  -0.78163556  -0.43646385  1.0
  H  H7  1  -0.86837170  -0.41537852  -0.71372853  1.0
  H  H8  1  -0.13162830  -0.58462148  -0.28627147  1.0
  H  H9  1  -0.47700241  -0.62248968  -0.87010506  1.0
  H  H10  1  -0.52299759  -0.37751032  -0.12989494  1.0
  H  H11  1  -0.55788907  -0.70351328  -1.14739455  1.0
  H  H12  1  -0.44211093  -0.29648672  0.14739455  1.0
  H  H13  1  -0.33662526  -0.79068304  -0.44283093  1.0
  H  H14  1  -0.66337474  -0.20931696  -0.55716907  1.0
  H  H15  1  -0.27281200  -0.68569743  -0.94940168  1.0
  H  H16  1  -0.72718800  -0.31430257  -0.05059832  1.0
  N  N17  1  -0.84799094  -0.27177366  -0.66280367  1.0
  N  N18  1  -0.15200906  -0.72822634  -0.33719633  1.0
  N  N19  1  -0.54603686  -0.28152867  -1.00490694  1.0
  N  N20  1  -0.45396314  -0.71847133  0.00490694  1.0
  O  O21  1  -0.92379141  -0.66419574  -0.84897458  1.0
  O  O22  1  -0.07620859  -0.33580426  -0.15102542  1.0
  O  O23  1  -0.68609383  -0.62339236  -0.40658322  1.0
  O  O24  1  -0.31390617  -0.37660764  -0.59341678  1.0
  O  O25  1  -0.62514909  -0.89909631  -0.71073568  1.0
  O  O26  1  -0.37485091  -0.10090369  -0.28926433  1.0
  O  O27  1  -0.06077010  -0.90689214  -0.70903419  1.0
  O  O28  1  -0.93922990  -0.09310786  -0.29096581  1.0
