# generated using pymatgen
data_La2GeS5
_symmetry_space_group_name_H-M   'P 1'
_cell_length_a   8.19363640
_cell_length_b   8.68312727
_cell_length_c   11.88514124
_cell_angle_alpha   90.00000000
_cell_angle_beta   80.74614205
_cell_angle_gamma   90.00000000
_symmetry_Int_Tables_number   1
_chemical_formula_structural   La2GeS5
_chemical_formula_sum   'La8 Ge4 S20'
_cell_volume   834.58003634
_cell_formula_units_Z   4
loop_
 _symmetry_equiv_pos_site_id
 _symmetry_equiv_pos_as_xyz
  1  'x, y, z'
loop_
 _atom_site_type_symbol
 _atom_site_label
 _atom_site_symmetry_multiplicity
 _atom_site_fract_x
 _atom_site_fract_y
 _atom_site_fract_z
 _atom_site_occupancy
  La  La0  1  0.39501526  0.88877146  0.84580716  1.0
  La  La1  1  0.60498474  0.38877146  0.65419284  1.0
  La  La2  1  0.60498474  0.11122854  0.15419284  1.0
  La  La3  1  0.39501526  0.61122854  0.34580716  1.0
  La  La4  1  0.23970224  0.06177094  0.50959363  1.0
  La  La5  1  0.76029776  0.56177094  -0.00959363  1.0
  La  La6  1  0.76029776  0.93822906  0.49040637  1.0
  La  La7  1  0.23970224  0.43822906  1.00959363  1.0
  Ge  Ge8  1  0.87064129  0.42424808  0.35237291  1.0
  Ge  Ge9  1  0.12935871  -0.07575192  0.14762709  1.0
  Ge  Ge10  1  0.12935871  0.57575192  0.64762709  1.0
  Ge  Ge11  1  0.87064129  1.07575192  0.85237291  1.0
  S  S12  1  0.45278292  0.86049535  0.60153282  1.0
  S  S13  1  0.54721708  0.36049535  0.89846718  1.0
  S  S14  1  0.54721708  0.13950465  0.39846718  1.0
  S  S15  1  0.45278292  0.63950465  0.10153282  1.0
  S  S16  1  0.09739092  0.75386749  0.00872315  1.0
  S  S17  1  0.90260908  0.25386749  0.49127685  1.0
  S  S18  1  0.90260908  0.24613251  0.99127685  1.0
  S  S19  1  0.09739092  0.74613251  0.50872315  1.0
  S  S20  1  0.30691967  0.92150270  0.27834182  1.0
  S  S21  1  0.69308033  0.42150270  0.22165818  1.0
  S  S22  1  0.69308033  0.07849730  0.72165818  1.0
  S  S23  1  0.30691967  0.57849730  0.77834182  1.0
  S  S24  1  0.29386104  0.39779769  0.54088194  1.0
  S  S25  1  0.70613896  0.89779769  -0.04088194  1.0
  S  S26  1  0.70613896  0.60220231  0.45911806  1.0
  S  S27  1  0.29386104  0.10220231  1.04088194  1.0
  S  S28  1  0.11929511  0.02160113  0.75523483  1.0
  S  S29  1  0.88070489  0.52160113  0.74476517  1.0
  S  S30  1  0.88070489  0.97839887  0.24476517  1.0
  S  S31  1  0.11929511  0.47839887  0.25523483  1.0
