# generated using pymatgen
data_SrGd2Sc2O7
_symmetry_space_group_name_H-M   'P 1'
_cell_length_a   10.55205392
_cell_length_b   10.55217302
_cell_length_c   4.05282772
_cell_angle_alpha   78.92656486
_cell_angle_beta   78.92986968
_cell_angle_gamma   22.14356545
_symmetry_Int_Tables_number   1
_chemical_formula_structural   SrGd2Sc2O7
_chemical_formula_sum   'Sr1 Gd2 Sc2 O7'
_cell_volume   166.80844628
_cell_formula_units_Z   1
loop_
 _symmetry_equiv_pos_site_id
 _symmetry_equiv_pos_as_xyz
  1  'x, y, z'
loop_
 _atom_site_type_symbol
 _atom_site_label
 _atom_site_symmetry_multiplicity
 _atom_site_fract_x
 _atom_site_fract_y
 _atom_site_fract_z
 _atom_site_occupancy
  Sr  Sr0  1  -0.50000000  0.50000000  0.50000000  1.0
  Gd  Gd1  1  0.68312085  0.68312085  -0.68312085  1.0
  Gd  Gd2  1  0.31687915  1.31687915  -0.31687915  1.0
  Sc  Sc3  1  0.89812070  0.89812070  -0.89812070  1.0
  Sc  Sc4  1  0.10187930  1.10187930  -0.10187930  1.0
  O  O5  1  0.00000000  0.00000000  0.00000000  1.0
  O  O6  1  0.78897925  0.78897925  -0.78897925  1.0
  O  O7  1  0.21102075  1.21102075  -0.21102075  1.0
  O  O8  1  1.38754087  0.38754087  0.11245913  1.0
  O  O9  1  1.11245913  0.11245913  0.38754087  1.0
  O  O10  1  0.61245913  0.61245913  -0.11245913  1.0
  O  O11  1  0.88754087  0.88754087  -0.38754087  1.0
