# generated using pymatgen
data_Mg4H2O5
_symmetry_space_group_name_H-M   'P 1'
_cell_length_a   3.05257476
_cell_length_b   3.05257476
_cell_length_c   12.19482079
_cell_angle_alpha   90.00000000
_cell_angle_beta   90.00000000
_cell_angle_gamma   120.00000000
_symmetry_Int_Tables_number   1
_chemical_formula_structural   Mg4H2O5
_chemical_formula_sum   'Mg4 H2 O5'
_cell_volume   98.40987321
_cell_formula_units_Z   1
loop_
 _symmetry_equiv_pos_site_id
 _symmetry_equiv_pos_as_xyz
  1  'x, y, z'
loop_
 _atom_site_type_symbol
 _atom_site_label
 _atom_site_symmetry_multiplicity
 _atom_site_fract_x
 _atom_site_fract_y
 _atom_site_fract_z
 _atom_site_occupancy
  Mg  Mg0  1  0.00000000  0.00000000  0.30069755  1.0
  Mg  Mg1  1  0.00000000  0.00000000  0.69930245  1.0
  Mg  Mg2  1  0.33333333  0.66666667  0.09991977  1.0
  Mg  Mg3  1  0.66666667  0.33333333  0.90008023  1.0
  H  H4  1  0.66666667  0.33333333  0.53282767  1.0
  H  H5  1  0.33333333  0.66666667  0.46717233  1.0
  O  O6  1  0.66666667  0.33333333  0.61216438  1.0
  O  O7  1  0.33333333  0.66666667  0.38783562  1.0
  O  O8  1  0.00000000  0.00000000  0.00000000  1.0
  O  O9  1  0.33333333  0.66666667  0.79994903  1.0
  O  O10  1  0.66666667  0.33333333  0.20005097  1.0
