# generated using pymatgen
data_LuCuPbSe3
_symmetry_space_group_name_H-M   'P 1'
_cell_length_a   10.49398025
_cell_length_b   4.02614653
_cell_length_c   13.65094159
_cell_angle_alpha   90.00000000
_cell_angle_beta   90.00000000
_cell_angle_gamma   90.00000000
_symmetry_Int_Tables_number   1
_chemical_formula_structural   LuCuPbSe3
_chemical_formula_sum   'Lu4 Cu4 Pb4 Se12'
_cell_volume   576.75640749
_cell_formula_units_Z   4
loop_
 _symmetry_equiv_pos_site_id
 _symmetry_equiv_pos_as_xyz
  1  'x, y, z'
loop_
 _atom_site_type_symbol
 _atom_site_label
 _atom_site_symmetry_multiplicity
 _atom_site_fract_x
 _atom_site_fract_y
 _atom_site_fract_z
 _atom_site_occupancy
  Lu  Lu0  1  0.97877325  0.75000000  0.75511136  1.0
  Lu  Lu1  1  0.47877325  0.75000000  0.74488864  1.0
  Lu  Lu2  1  0.02122675  0.25000000  0.24488864  1.0
  Lu  Lu3  1  0.52122675  0.25000000  0.25511136  1.0
  Cu  Cu4  1  0.76314042  0.75000000  0.27964264  1.0
  Cu  Cu5  1  0.26314042  0.75000000  0.22035736  1.0
  Cu  Cu6  1  0.23685958  0.25000000  0.72035736  1.0
  Cu  Cu7  1  0.73685958  0.25000000  0.77964264  1.0
  Pb  Pb8  1  0.72535795  0.75000000  0.99321477  1.0
  Pb  Pb9  1  0.22535795  0.75000000  0.50678523  1.0
  Pb  Pb10  1  0.27464205  0.25000000  0.00678523  1.0
  Pb  Pb11  1  0.77464205  0.25000000  0.49321477  1.0
  Se  Se12  1  0.95720348  0.75000000  0.38408442  1.0
  Se  Se13  1  0.45720348  0.75000000  0.11591558  1.0
  Se  Se14  1  0.04279652  0.25000000  0.61591558  1.0
  Se  Se15  1  0.54279652  0.25000000  0.88408442  1.0
  Se  Se16  1  0.73169240  0.75000000  0.67047108  1.0
  Se  Se17  1  0.23169240  0.75000000  0.82952892  1.0
  Se  Se18  1  0.26830760  0.25000000  0.32952892  1.0
  Se  Se19  1  0.76830760  0.25000000  0.17047108  1.0
  Se  Se20  1  0.58189271  0.75000000  0.39143893  1.0
  Se  Se21  1  0.08189271  0.75000000  0.10856107  1.0
  Se  Se22  1  0.41810729  0.25000000  0.60856107  1.0
  Se  Se23  1  0.91810729  0.25000000  0.89143893  1.0
