# generated using pymatgen
data_Ag4Te(ClO4)2
_symmetry_space_group_name_H-M   'P 1'
_cell_length_a   10.18396772
_cell_length_b   10.18396772
_cell_length_c   10.18396772
_cell_angle_alpha   90.00000000
_cell_angle_beta   90.00000000
_cell_angle_gamma   90.00000000
_symmetry_Int_Tables_number   1
_chemical_formula_structural   Ag4Te(ClO4)2
_chemical_formula_sum   'Ag16 Te4 Cl8 O32'
_cell_volume   1056.21186710
_cell_formula_units_Z   4
loop_
 _symmetry_equiv_pos_site_id
 _symmetry_equiv_pos_as_xyz
  1  'x, y, z'
loop_
 _atom_site_type_symbol
 _atom_site_label
 _atom_site_symmetry_multiplicity
 _atom_site_fract_x
 _atom_site_fract_y
 _atom_site_fract_z
 _atom_site_occupancy
  Ag  Ag0  1  0.48998649  -0.01001351  0.51001351  1.0
  Ag  Ag1  1  -0.01001351  0.51001351  0.48998649  1.0
  Ag  Ag2  1  0.51001351  0.48998649  -0.01001351  1.0
  Ag  Ag3  1  1.01001351  1.01001351  1.01001351  1.0
  Ag  Ag4  1  0.24379097  0.97843107  0.63051739  1.0
  Ag  Ag5  1  0.36948261  0.74379097  0.52156893  1.0
  Ag  Ag6  1  0.47843107  0.86948261  0.75620903  1.0
  Ag  Ag7  1  0.74379097  0.52156893  0.36948261  1.0
  Ag  Ag8  1  0.86948261  0.75620903  0.47843107  1.0
  Ag  Ag9  1  0.97843107  0.63051739  0.24379097  1.0
  Ag  Ag10  1  0.75620903  0.47843107  0.86948261  1.0
  Ag  Ag11  1  0.63051739  0.24379097  0.97843107  1.0
  Ag  Ag12  1  0.52156893  0.36948261  0.74379097  1.0
  Ag  Ag13  1  0.25620903  0.02156893  0.13051739  1.0
  Ag  Ag14  1  0.13051739  0.25620903  0.02156893  1.0
  Ag  Ag15  1  0.02156893  0.13051739  0.25620903  1.0
  Te  Te16  1  0.91483384  0.41483384  0.08516616  1.0
  Te  Te17  1  0.41483384  0.08516616  0.91483384  1.0
  Te  Te18  1  0.08516616  0.91483384  0.41483384  1.0
  Te  Te19  1  0.58516616  0.58516616  0.58516616  1.0
  Cl  Cl20  1  0.70157510  0.20157510  0.29842490  1.0
  Cl  Cl21  1  0.20157510  0.29842490  0.70157510  1.0
  Cl  Cl22  1  0.29842490  0.70157510  0.20157510  1.0
  Cl  Cl23  1  0.79842490  0.79842490  0.79842490  1.0
  Cl  Cl24  1  0.19780401  0.69780401  0.80219599  1.0
  Cl  Cl25  1  0.69780401  0.80219599  0.19780401  1.0
  Cl  Cl26  1  0.80219599  0.19780401  0.69780401  1.0
  Cl  Cl27  1  0.30219599  0.30219599  0.30219599  1.0
  O  O28  1  0.72529869  0.13576465  0.17167629  1.0
  O  O29  1  0.82832371  0.22529869  0.36423535  1.0
  O  O30  1  0.63576465  0.32832371  0.27470131  1.0
  O  O31  1  0.22529869  0.36423535  0.82832371  1.0
  O  O32  1  0.32832371  0.27470131  0.63576465  1.0
  O  O33  1  0.13576465  0.17167629  0.72529869  1.0
  O  O34  1  0.27470131  0.63576465  0.32832371  1.0
  O  O35  1  0.17167629  0.72529869  0.13576465  1.0
  O  O36  1  0.36423535  0.82832371  0.22529869  1.0
  O  O37  1  0.77470131  0.86423535  0.67167629  1.0
  O  O38  1  0.67167629  0.77470131  0.86423535  1.0
  O  O39  1  0.86423535  0.67167629  0.77470131  1.0
  O  O40  1  0.33883569  0.68018527  0.83588036  1.0
  O  O41  1  0.16411964  0.83883569  0.81981473  1.0
  O  O42  1  0.18018527  0.66411964  0.66116431  1.0
  O  O43  1  0.83883569  0.81981473  0.16411964  1.0
  O  O44  1  0.66411964  0.66116431  0.18018527  1.0
  O  O45  1  0.68018527  0.83588036  0.33883569  1.0
  O  O46  1  0.66116431  0.18018527  0.66411964  1.0
  O  O47  1  0.83588036  0.33883569  0.68018527  1.0
  O  O48  1  0.81981473  0.16411964  0.83883569  1.0
  O  O49  1  0.16116431  0.31981473  0.33588036  1.0
  O  O50  1  0.33588036  0.16116431  0.31981473  1.0
  O  O51  1  0.31981473  0.33588036  0.16116431  1.0
  O  O52  1  0.61923134  0.11923134  0.38076866  1.0
  O  O53  1  0.11923134  0.38076866  0.61923134  1.0
  O  O54  1  0.38076866  0.61923134  0.11923134  1.0
  O  O55  1  0.88076866  0.88076866  0.88076866  1.0
  O  O56  1  0.11640921  0.61640921  0.88359079  1.0
  O  O57  1  0.61640921  0.88359079  0.11640921  1.0
  O  O58  1  0.88359079  0.11640921  0.61640921  1.0
  O  O59  1  0.38359079  0.38359079  0.38359079  1.0
