# generated using pymatgen
data_AgClO2
_symmetry_space_group_name_H-M   'P 1'
_cell_length_a   4.81090144
_cell_length_b   4.81090144
_cell_length_c   7.02946063
_cell_angle_alpha   90.00000000
_cell_angle_beta   90.00000000
_cell_angle_gamma   90.11202819
_symmetry_Int_Tables_number   1
_chemical_formula_structural   AgClO2
_chemical_formula_sum   'Ag2 Cl2 O4'
_cell_volume   162.69495759
_cell_formula_units_Z   2
loop_
 _symmetry_equiv_pos_site_id
 _symmetry_equiv_pos_as_xyz
  1  'x, y, z'
loop_
 _atom_site_type_symbol
 _atom_site_label
 _atom_site_symmetry_multiplicity
 _atom_site_fract_x
 _atom_site_fract_y
 _atom_site_fract_z
 _atom_site_occupancy
  Ag  Ag0  1  -0.75000000  0.75000000  0.90302407  1.0
  Ag  Ag1  1  -0.25000000  1.25000000  0.09697593  1.0
  Cl  Cl2  1  -0.75000000  0.75000000  0.34392371  1.0
  Cl  Cl3  1  -0.25000000  1.25000000  0.65607629  1.0
  O  O4  1  -0.93295449  0.93295449  0.20026127  1.0
  O  O5  1  -0.43295449  1.43295449  0.79973873  1.0
  O  O6  1  -0.56704551  0.56704551  0.20026127  1.0
  O  O7  1  -0.06704551  1.06704551  0.79973873  1.0
