# generated using pymatgen
data_Al9Cr3Si
_symmetry_space_group_name_H-M   'P 1'
_cell_length_a   7.51097679
_cell_length_b   7.51097679
_cell_length_c   7.82796300
_cell_angle_alpha   90.00000000
_cell_angle_beta   90.00000000
_cell_angle_gamma   120.00000000
_symmetry_Int_Tables_number   1
_chemical_formula_structural   Al9Cr3Si
_chemical_formula_sum   'Al18 Cr6 Si2'
_cell_volume   382.44786061
_cell_formula_units_Z   2
loop_
 _symmetry_equiv_pos_site_id
 _symmetry_equiv_pos_as_xyz
  1  'x, y, z'
loop_
 _atom_site_type_symbol
 _atom_site_label
 _atom_site_symmetry_multiplicity
 _atom_site_fract_x
 _atom_site_fract_y
 _atom_site_fract_z
 _atom_site_occupancy
  Al  Al0  1  0.20153022  0.79846978  0.93768304  1.0
  Al  Al1  1  0.20153022  0.79846978  0.56231696  1.0
  Al  Al2  1  0.20153022  0.40306044  0.93768304  1.0
  Al  Al3  1  0.20153022  0.40306044  0.56231696  1.0
  Al  Al4  1  0.79846978  0.20153022  0.43768304  1.0
  Al  Al5  1  0.79846978  0.20153022  0.06231696  1.0
  Al  Al6  1  0.79846978  0.59693956  0.43768304  1.0
  Al  Al7  1  0.79846978  0.59693956  0.06231696  1.0
  Al  Al8  1  0.59693956  0.79846978  0.93768304  1.0
  Al  Al9  1  0.59693956  0.79846978  0.56231696  1.0
  Al  Al10  1  0.40306044  0.20153022  0.43768304  1.0
  Al  Al11  1  0.40306044  0.20153022  0.06231696  1.0
  Al  Al12  1  0.45711255  0.54288745  0.25000000  1.0
  Al  Al13  1  0.45711255  0.91422510  0.25000000  1.0
  Al  Al14  1  0.54288745  0.45711255  0.75000000  1.0
  Al  Al15  1  0.54288745  0.08577490  0.75000000  1.0
  Al  Al16  1  0.08577490  0.54288745  0.25000000  1.0
  Al  Al17  1  0.91422510  0.45711255  0.75000000  1.0
  Cr  Cr18  1  0.11563584  0.88436416  0.25000000  1.0
  Cr  Cr19  1  0.11563584  0.23127168  0.25000000  1.0
  Cr  Cr20  1  0.88436416  0.11563584  0.75000000  1.0
  Cr  Cr21  1  0.88436416  0.76872832  0.75000000  1.0
  Cr  Cr22  1  0.76872832  0.88436416  0.25000000  1.0
  Cr  Cr23  1  0.23127168  0.11563584  0.75000000  1.0
  Si  Si24  1  0.00000000  0.00000000  0.50000000  1.0
  Si  Si25  1  0.00000000  0.00000000  0.00000000  1.0
