# generated using pymatgen
data_In2O3
_symmetry_space_group_name_H-M   'P 1'
_cell_length_a   5.58691824
_cell_length_b   5.78060943
_cell_length_c   16.16662801
_cell_angle_alpha   90.00000000
_cell_angle_beta   90.00000000
_cell_angle_gamma   90.00000000
_symmetry_Int_Tables_number   1
_chemical_formula_structural   In2O3
_chemical_formula_sum   'In16 O24'
_cell_volume   522.11405937
_cell_formula_units_Z   8
loop_
 _symmetry_equiv_pos_site_id
 _symmetry_equiv_pos_as_xyz
  1  'x, y, z'
loop_
 _atom_site_type_symbol
 _atom_site_label
 _atom_site_symmetry_multiplicity
 _atom_site_fract_x
 _atom_site_fract_y
 _atom_site_fract_z
 _atom_site_occupancy
  In  In0  1  0.50248982  0.75562002  0.68182282  1.0
  In  In1  1  0.50248982  0.74437998  0.18182282  1.0
  In  In2  1  0.00248982  0.75562002  0.81817718  1.0
  In  In3  1  0.00248982  0.74437998  0.31817718  1.0
  In  In4  1  0.49751018  0.25562002  0.81817718  1.0
  In  In5  1  0.49751018  0.24437998  0.31817718  1.0
  In  In6  1  0.99751018  0.25562002  0.68182282  1.0
  In  In7  1  0.99751018  0.24437998  0.18182282  1.0
  In  In8  1  0.50008716  0.70247204  0.92931503  1.0
  In  In9  1  0.50008716  0.79752796  0.42931503  1.0
  In  In10  1  1.00008716  0.70247204  0.57068497  1.0
  In  In11  1  1.00008716  0.79752796  0.07068497  1.0
  In  In12  1  0.49991284  0.20247204  0.57068497  1.0
  In  In13  1  0.49991284  0.29752796  0.07068497  1.0
  In  In14  1  -0.00008716  0.20247204  0.92931503  1.0
  In  In15  1  -0.00008716  0.29752796  0.42931503  1.0
  O  O16  1  0.35320174  0.84119003  0.55232033  1.0
  O  O17  1  0.35320174  0.65880997  0.05232033  1.0
  O  O18  1  0.85320174  0.84119003  0.94767967  1.0
  O  O19  1  0.85320174  0.65880997  0.44767967  1.0
  O  O20  1  0.64679826  0.34119003  0.94767967  1.0
  O  O21  1  0.64679826  0.15880997  0.44767967  1.0
  O  O22  1  0.14679826  0.34119003  0.55232033  1.0
  O  O23  1  0.14679826  0.15880997  0.05232033  1.0
  O  O24  1  0.29333143  0.97432074  0.87510780  1.0
  O  O25  1  0.29333143  0.52567926  0.37510780  1.0
  O  O26  1  0.79333143  0.97432074  0.62489220  1.0
  O  O27  1  0.79333143  0.52567926  0.12489220  1.0
  O  O28  1  0.70666857  0.47432074  0.62489220  1.0
  O  O29  1  0.70666857  0.02567926  0.12489220  1.0
  O  O30  1  0.20666857  0.47432074  0.87510780  1.0
  O  O31  1  0.20666857  0.02567926  0.37510780  1.0
  O  O32  1  0.14080148  0.62209602  0.70169335  1.0
  O  O33  1  0.14080148  0.87790398  0.20169335  1.0
  O  O34  1  0.64080148  0.62209602  0.79830665  1.0
  O  O35  1  0.64080148  0.87790398  0.29830665  1.0
  O  O36  1  0.85919852  0.12209602  0.79830665  1.0
  O  O37  1  0.85919852  0.37790398  0.29830665  1.0
  O  O38  1  0.35919852  0.12209602  0.70169335  1.0
  O  O39  1  0.35919852  0.37790398  0.20169335  1.0
