# generated using pymatgen
data_S
_symmetry_space_group_name_H-M   'P 1'
_cell_length_a   11.04279227
_cell_length_b   8.52914715
_cell_length_c   10.21736309
_cell_angle_alpha   90.00000000
_cell_angle_beta   96.24593695
_cell_angle_gamma   90.00000000
_symmetry_Int_Tables_number   1
_chemical_formula_structural   S
_chemical_formula_sum   S28
_cell_volume   956.61614624
_cell_formula_units_Z   28
loop_
 _symmetry_equiv_pos_site_id
 _symmetry_equiv_pos_as_xyz
  1  'x, y, z'
loop_
 _atom_site_type_symbol
 _atom_site_label
 _atom_site_symmetry_multiplicity
 _atom_site_fract_x
 _atom_site_fract_y
 _atom_site_fract_z
 _atom_site_occupancy
  S  S0  1  0.92658988  0.57005256  0.75146165  1.0
  S  S1  1  0.92658988  0.92994744  0.25146165  1.0
  S  S2  1  0.07341012  0.07005256  0.74853835  1.0
  S  S3  1  0.07341012  0.42994744  0.24853835  1.0
  S  S4  1  0.90758136  0.70521931  0.90647530  1.0
  S  S5  1  0.90758136  0.79478069  0.40647530  1.0
  S  S6  1  0.09241864  0.20521931  0.59352470  1.0
  S  S7  1  0.09241864  0.29478069  0.09352470  1.0
  S  S8  1  0.77541957  0.39446213  0.73614709  1.0
  S  S9  1  0.77541957  0.10553787  0.23614709  1.0
  S  S10  1  0.22458043  0.89446213  0.76385291  1.0
  S  S11  1  0.22458043  0.60553787  0.26385291  1.0
  S  S12  1  0.77582436  0.88121175  0.84425061  1.0
  S  S13  1  0.77582436  0.61878825  0.34425061  1.0
  S  S14  1  0.22417564  0.38121175  0.65574939  1.0
  S  S15  1  0.22417564  0.11878825  0.15574939  1.0
  S  S16  1  0.67516597  0.43514089  0.88271840  1.0
  S  S17  1  0.67516597  0.06485911  0.38271840  1.0
  S  S18  1  0.32483403  0.93514089  0.61728160  1.0
  S  S19  1  0.32483403  0.56485911  0.11728160  1.0
  S  S20  1  0.62562985  0.80817097  0.93016142  1.0
  S  S21  1  0.62562985  0.69182903  0.43016142  1.0
  S  S22  1  0.37437015  0.30817097  0.56983858  1.0
  S  S23  1  0.37437015  0.19182903  0.06983858  1.0
  S  S24  1  0.55225587  0.62145484  0.82132816  1.0
  S  S25  1  0.55225587  0.87854516  0.32132816  1.0
  S  S26  1  0.44774413  0.12145484  0.67867184  1.0
  S  S27  1  0.44774413  0.37854516  0.17867184  1.0
