# generated using pymatgen
data_Rb2Sr(SeO4)2
_symmetry_space_group_name_H-M   'P 1'
_cell_length_a   8.21066731
_cell_length_b   8.21066731
_cell_length_c   8.21066731
_cell_angle_alpha   41.91093921
_cell_angle_beta   41.91093921
_cell_angle_gamma   41.91093921
_symmetry_Int_Tables_number   1
_chemical_formula_structural   Rb2Sr(SeO4)2
_chemical_formula_sum   'Rb2 Sr1 Se2 O8'
_cell_volume   223.36767983
_cell_formula_units_Z   1
loop_
 _symmetry_equiv_pos_site_id
 _symmetry_equiv_pos_as_xyz
  1  'x, y, z'
loop_
 _atom_site_type_symbol
 _atom_site_label
 _atom_site_symmetry_multiplicity
 _atom_site_fract_x
 _atom_site_fract_y
 _atom_site_fract_z
 _atom_site_occupancy
  Rb  Rb0  1  0.80002693  0.80002693  0.80002693  1.0
  Rb  Rb1  1  1.19997307  1.19997307  0.19997307  1.0
  Sr  Sr2  1  0.00000000  0.00000000  0.00000000  1.0
  Se  Se3  1  1.60357296  0.60357296  0.60357296  1.0
  Se  Se4  1  1.39642704  0.39642704  0.39642704  1.0
  O  O5  1  1.26534455  0.26534455  0.73247321  1.0
  O  O6  1  1.26534455  0.73247321  0.26534455  1.0
  O  O7  1  1.26752679  0.73465545  0.73465545  1.0
  O  O8  1  1.73465545  0.26752679  0.73465545  1.0
  O  O9  1  1.73465545  0.73465545  0.26752679  1.0
  O  O10  1  1.73247321  0.26534455  0.26534455  1.0
  O  O11  1  0.67740664  0.67740664  0.67740664  1.0
  O  O12  1  1.32259336  1.32259336  0.32259336  1.0
