# generated using pymatgen
data_RbCa(H2N)3
_symmetry_space_group_name_H-M   'P 1'
_cell_length_a   7.08777179
_cell_length_b   7.08777179
_cell_length_c   6.61655593
_cell_angle_alpha   78.57779342
_cell_angle_beta   101.42220658
_cell_angle_gamma   64.70444280
_symmetry_Int_Tables_number   1
_chemical_formula_structural   RbCa(H2N)3
_chemical_formula_sum   'Rb2 Ca2 H12 N6'
_cell_volume   279.18457151
_cell_formula_units_Z   2
loop_
 _symmetry_equiv_pos_site_id
 _symmetry_equiv_pos_as_xyz
  1  'x, y, z'
loop_
 _atom_site_type_symbol
 _atom_site_label
 _atom_site_symmetry_multiplicity
 _atom_site_fract_x
 _atom_site_fract_y
 _atom_site_fract_z
 _atom_site_occupancy
  Rb  Rb0  1  1.28686382  0.28686382  0.25000000  1.0
  Rb  Rb1  1  0.71313618  -0.28686382  0.75000000  1.0
  Ca  Ca2  1  0.00000000  -0.00000000  0.50000000  1.0
  Ca  Ca3  1  0.00000000  0.00000000  0.00000000  1.0
  H  H4  1  0.67473883  -0.09795909  0.19468720  1.0
  H  H5  1  1.09795909  0.32526117  0.69468720  1.0
  H  H6  1  0.90204091  -0.32526117  0.30531280  1.0
  H  H7  1  1.32526117  0.09795909  0.80531280  1.0
  H  H8  1  0.44256863  -0.18337800  0.29571867  1.0
  H  H9  1  1.18337800  0.55743137  0.79571867  1.0
  H  H10  1  0.81662200  -0.55743137  0.20428133  1.0
  H  H11  1  1.55743137  0.18337800  0.70428133  1.0
  H  H12  1  0.34889931  -0.32542681  0.41600860  1.0
  H  H13  1  1.32542681  0.65110069  0.91600860  1.0
  H  H14  1  0.67457319  -0.65110069  0.08399140  1.0
  H  H15  1  1.65110069  0.32542681  0.58399140  1.0
  N  N16  1  0.31209166  -0.16456463  0.35128125  1.0
  N  N17  1  1.16456463  0.68790834  0.85128125  1.0
  N  N18  1  0.83543537  -0.68790834  0.14871875  1.0
  N  N19  1  1.68790834  0.16456463  0.64871875  1.0
  N  N20  1  0.84194530  -0.15805470  0.25000000  1.0
  N  N21  1  1.15805470  0.15805470  0.75000000  1.0
