# generated using pymatgen
data_Cs6Cr2O7
_symmetry_space_group_name_H-M   'P 1'
_cell_length_a   7.32864698
_cell_length_b   9.85389723
_cell_length_c   12.35598155
_cell_angle_alpha   90.00000000
_cell_angle_beta   125.56405507
_cell_angle_gamma   90.00000000
_symmetry_Int_Tables_number   1
_chemical_formula_structural   Cs6Cr2O7
_chemical_formula_sum   'Cs12 Cr4 O14'
_cell_volume   725.85250626
_cell_formula_units_Z   2
loop_
 _symmetry_equiv_pos_site_id
 _symmetry_equiv_pos_as_xyz
  1  'x, y, z'
loop_
 _atom_site_type_symbol
 _atom_site_label
 _atom_site_symmetry_multiplicity
 _atom_site_fract_x
 _atom_site_fract_y
 _atom_site_fract_z
 _atom_site_occupancy
  Cs  Cs0  1  0.90773217  0.71168197  0.27970558  1.0
  Cs  Cs1  1  0.90773217  0.78831803  0.77970558  1.0
  Cs  Cs2  1  0.09226783  0.21168197  0.22029442  1.0
  Cs  Cs3  1  0.09226783  0.28831803  0.72029442  1.0
  Cs  Cs4  1  0.70380910  0.02885115  0.45088421  1.0
  Cs  Cs5  1  0.70380910  0.47114885  0.95088421  1.0
  Cs  Cs6  1  0.29619090  0.52885115  0.04911579  1.0
  Cs  Cs7  1  0.29619090  0.97114885  0.54911579  1.0
  Cs  Cs8  1  0.45051906  0.14404958  0.08351829  1.0
  Cs  Cs9  1  0.45051906  0.35595042  0.58351829  1.0
  Cs  Cs10  1  0.54948094  0.64404958  0.41648171  1.0
  Cs  Cs11  1  0.54948094  0.85595042  0.91648171  1.0
  Cr  Cr12  1  0.82717481  0.36627834  0.37296067  1.0
  Cr  Cr13  1  0.82717481  0.13372166  0.87296067  1.0
  Cr  Cr14  1  0.17282519  0.86627834  0.12703933  1.0
  Cr  Cr15  1  0.17282519  0.63372166  0.62703933  1.0
  O  O16  1  0.99893709  0.21878120  0.43173975  1.0
  O  O17  1  0.99893709  0.28121880  0.93173975  1.0
  O  O18  1  0.00106291  0.71878120  0.06826025  1.0
  O  O19  1  0.00106291  0.78121880  0.56826025  1.0
  O  O20  1  0.76484545  0.41597405  0.21760671  1.0
  O  O21  1  0.76484545  0.08402595  0.71760671  1.0
  O  O22  1  0.23515455  0.91597405  0.28239329  1.0
  O  O23  1  0.23515455  0.58402595  0.78239329  1.0
  O  O24  1  0.57984032  0.33773269  0.36313720  1.0
  O  O25  1  0.57984032  0.16226731  0.86313720  1.0
  O  O26  1  0.42015968  0.83773269  0.13686280  1.0
  O  O27  1  0.42015968  0.66226731  0.63686280  1.0
  O  O28  1  0.00000000  0.50000000  0.50000000  1.0
  O  O29  1  0.00000000  0.00000000  0.00000000  1.0
