# generated using pymatgen
data_MnV2O6
_symmetry_space_group_name_H-M   'P 1'
_cell_length_a   5.30396651
_cell_length_b   5.30396651
_cell_length_c   7.03171686
_cell_angle_alpha   83.59522640
_cell_angle_beta   96.40477360
_cell_angle_gamma   141.70355350
_symmetry_Int_Tables_number   1
_chemical_formula_structural   MnV2O6
_chemical_formula_sum   'Mn1 V2 O6'
_cell_volume   121.73528261
_cell_formula_units_Z   1
loop_
 _symmetry_equiv_pos_site_id
 _symmetry_equiv_pos_as_xyz
  1  'x, y, z'
loop_
 _atom_site_type_symbol
 _atom_site_label
 _atom_site_symmetry_multiplicity
 _atom_site_fract_x
 _atom_site_fract_y
 _atom_site_fract_z
 _atom_site_occupancy
  Mn  Mn0  1  0.50000000  0.50000000  0.00000000  1.0
  V  V1  1  0.76111608  0.23888392  0.69004989  1.0
  V  V2  1  0.23888392  -0.23888392  0.30995011  1.0
  O  O3  1  0.71263183  0.28736817  0.39504301  1.0
  O  O4  1  0.28736817  -0.28736817  0.60495699  1.0
  O  O5  1  0.89210259  0.10789741  0.87040478  1.0
  O  O6  1  0.10789741  -0.10789741  0.12959522  1.0
  O  O7  1  0.61991350  0.38008650  0.78955063  1.0
  O  O8  1  0.38008650  -0.38008650  0.21044937  1.0
