# generated using pymatgen
data_MgB4
_symmetry_space_group_name_H-M   'P 1'
_cell_length_a   5.47919911
_cell_length_b   4.39021874
_cell_length_c   7.41057681
_cell_angle_alpha   90.00000000
_cell_angle_beta   90.00000000
_cell_angle_gamma   90.00000000
_symmetry_Int_Tables_number   1
_chemical_formula_structural   MgB4
_chemical_formula_sum   'Mg4 B16'
_cell_volume   178.26055538
_cell_formula_units_Z   4
loop_
 _symmetry_equiv_pos_site_id
 _symmetry_equiv_pos_as_xyz
  1  'x, y, z'
loop_
 _atom_site_type_symbol
 _atom_site_label
 _atom_site_symmetry_multiplicity
 _atom_site_fract_x
 _atom_site_fract_y
 _atom_site_fract_z
 _atom_site_occupancy
  Mg  Mg0  1  0.95485095  0.75000000  0.36203830  1.0
  Mg  Mg1  1  0.45485095  0.75000000  0.13796170  1.0
  Mg  Mg2  1  0.04514905  0.25000000  0.63796170  1.0
  Mg  Mg3  1  0.54514905  0.25000000  0.86203830  1.0
  B  B4  1  0.86753799  0.94197238  0.06310036  1.0
  B  B5  1  0.86753799  0.55802762  0.06310036  1.0
  B  B6  1  0.36753799  0.94197238  0.43689964  1.0
  B  B7  1  0.36753799  0.55802762  0.43689964  1.0
  B  B8  1  0.13246201  0.44197238  0.93689964  1.0
  B  B9  1  0.13246201  0.05802762  0.93689964  1.0
  B  B10  1  0.63246201  0.44197238  0.56310036  1.0
  B  B11  1  0.63246201  0.05802762  0.56310036  1.0
  B  B12  1  0.77798265  0.75000000  0.65339691  1.0
  B  B13  1  0.27798265  0.75000000  0.84660309  1.0
  B  B14  1  0.22201735  0.25000000  0.34660309  1.0
  B  B15  1  0.72201735  0.25000000  0.15339691  1.0
  B  B16  1  0.44707002  0.75000000  0.64721138  1.0
  B  B17  1  0.94707002  0.75000000  0.85278861  1.0
  B  B18  1  0.55292998  0.25000000  0.35278862  1.0
  B  B19  1  0.05292998  0.25000000  0.14721138  1.0
