# generated using pymatgen
data_CaAl2Si3(HO3)4
_symmetry_space_group_name_H-M   'P 1'
_cell_length_a   9.74544519
_cell_length_b   9.74544519
_cell_length_c   10.03939667
_cell_angle_alpha   83.70382474
_cell_angle_beta   96.29617526
_cell_angle_gamma   39.46801792
_symmetry_Int_Tables_number   1
_chemical_formula_structural   CaAl2Si3(HO3)4
_chemical_formula_sum   'Ca2 Al4 Si6 H8 O24'
_cell_volume   573.21771278
_cell_formula_units_Z   2
loop_
 _symmetry_equiv_pos_site_id
 _symmetry_equiv_pos_as_xyz
  1  'x, y, z'
loop_
 _atom_site_type_symbol
 _atom_site_label
 _atom_site_symmetry_multiplicity
 _atom_site_fract_x
 _atom_site_fract_y
 _atom_site_fract_z
 _atom_site_occupancy
  Ca  Ca0  1  0.67658166  -0.38752089  0.74750297  1.0
  Ca  Ca1  1  1.38752089  0.32341834  0.24750297  1.0
  Al  Al2  1  0.93917230  0.73910867  0.87681512  1.0
  Al  Al3  1  0.26089133  0.06082770  0.37681512  1.0
  Al  Al4  1  1.00377661  -0.83774596  0.01356279  1.0
  Al  Al5  1  1.83774596  -0.00377661  0.51356279  1.0
  Si  Si6  1  1.50791552  0.04902237  0.61382938  1.0
  Si  Si7  1  0.95097763  -0.50791552  0.11382938  1.0
  Si  Si8  1  1.77215040  0.16747804  0.77083225  1.0
  Si  Si9  1  0.83252196  -0.77215040  0.27083225  1.0
  Si  Si10  1  1.26314544  0.48429477  0.67804463  1.0
  Si  Si11  1  0.51570523  -0.26314544  0.17804463  1.0
  H  H12  1  1.40026444  0.32583804  0.96373086  1.0
  H  H13  1  0.67416196  -0.40026444  0.46373086  1.0
  H  H14  1  1.10870450  0.79986734  0.23651120  1.0
  H  H15  1  0.20013266  -0.10870450  0.73651120  1.0
  H  H16  1  1.14473088  0.67840342  0.38253801  1.0
  H  H17  1  0.32159658  -0.14473088  0.88253801  1.0
  H  H18  1  1.66392892  0.11219378  0.03726543  1.0
  H  H19  1  0.88780622  -0.66392892  0.53726543  1.0
  O  O20  1  1.59091576  0.08719179  0.49863823  1.0
  O  O21  1  0.91280821  -0.59091576  -0.00136177  1.0
  O  O22  1  1.71730150  -0.17161992  0.75559183  1.0
  O  O23  1  1.17161992  -0.71730150  0.25559183  1.0
  O  O24  1  1.01844829  0.58829701  0.04810692  1.0
  O  O25  1  0.41170299  -0.01844829  0.54810692  1.0
  O  O26  1  0.78566845  -0.51899405  0.55708144  1.0
  O  O27  1  1.51899405  0.21433155  0.05708144  1.0
  O  O28  1  1.84631454  -0.02270990  0.89097728  1.0
  O  O29  1  1.02270990  -0.84631454  0.39097728  1.0
  O  O30  1  1.17863114  0.54684548  0.81688544  1.0
  O  O31  1  0.45315452  -0.17863114  0.31688544  1.0
  O  O32  1  1.18524849  0.65577157  0.29332203  1.0
  O  O33  1  0.34422843  -0.18524849  0.79332203  1.0
  O  O34  1  0.84813160  -0.74766770  0.84079717  1.0
  O  O35  1  1.74766770  0.15186840  0.34079717  1.0
  O  O36  1  1.31574523  0.28294227  0.65662292  1.0
  O  O37  1  0.71705773  -0.31574523  0.15662292  1.0
  O  O38  1  1.49529204  0.39253406  0.70033601  1.0
  O  O39  1  0.60746594  -0.49529204  0.20033601  1.0
  O  O40  1  0.93965372  -0.89325214  0.14900524  1.0
  O  O41  1  1.89325214  0.06034628  0.64900524  1.0
  O  O42  1  1.07579396  0.70363733  0.53660281  1.0
  O  O43  1  0.29636267  -0.07579396  0.03660281  1.0
