# generated using pymatgen
data_SmCrTeO6
_symmetry_space_group_name_H-M   'P 1'
_cell_length_a   5.49935368
_cell_length_b   5.49935368
_cell_length_c   8.58938030
_cell_angle_alpha   90.00000000
_cell_angle_beta   90.00000000
_cell_angle_gamma   120.00000000
_symmetry_Int_Tables_number   1
_chemical_formula_structural   SmCrTeO6
_chemical_formula_sum   'Sm2 Cr2 Te2 O12'
_cell_volume   224.96541999
_cell_formula_units_Z   2
loop_
 _symmetry_equiv_pos_site_id
 _symmetry_equiv_pos_as_xyz
  1  'x, y, z'
loop_
 _atom_site_type_symbol
 _atom_site_label
 _atom_site_symmetry_multiplicity
 _atom_site_fract_x
 _atom_site_fract_y
 _atom_site_fract_z
 _atom_site_occupancy
  Sm  Sm0  1  0.66666667  0.33333333  0.25000000  1.0
  Sm  Sm1  1  0.33333333  0.66666667  0.75000000  1.0
  Cr  Cr2  1  0.00000000  0.00000000  0.00000000  1.0
  Cr  Cr3  1  0.00000000  0.00000000  0.50000000  1.0
  Te  Te4  1  0.33333333  0.66666667  0.25000000  1.0
  Te  Te5  1  0.66666667  0.33333333  0.75000000  1.0
  O  O6  1  0.29967257  0.95816715  0.11834964  1.0
  O  O7  1  0.29967257  0.34150542  0.38165036  1.0
  O  O8  1  0.95816715  0.29967257  0.61834964  1.0
  O  O9  1  0.95816715  0.65849458  0.88165036  1.0
  O  O10  1  0.65849458  0.95816715  0.38165036  1.0
  O  O11  1  0.65849458  0.70032743  0.11834964  1.0
  O  O12  1  0.04183285  0.70032743  0.38165036  1.0
  O  O13  1  0.04183285  0.34150542  0.11834964  1.0
  O  O14  1  0.70032743  0.65849458  0.61834964  1.0
  O  O15  1  0.70032743  0.04183285  0.88165036  1.0
  O  O16  1  0.34150542  0.29967257  0.88165036  1.0
  O  O17  1  0.34150542  0.04183285  0.61834964  1.0
