# generated using pymatgen
data_Ba2YInTe5
_symmetry_space_group_name_H-M   'P 1'
_cell_length_a   10.53262709
_cell_length_b   10.53262709
_cell_length_c   14.28914119
_cell_angle_alpha   90.00000000
_cell_angle_beta   90.00000000
_cell_angle_gamma   154.89003477
_symmetry_Int_Tables_number   1
_chemical_formula_structural   Ba2YInTe5
_chemical_formula_sum   'Ba4 Y2 In2 Te10'
_cell_volume   672.68358663
_cell_formula_units_Z   2
loop_
 _symmetry_equiv_pos_site_id
 _symmetry_equiv_pos_as_xyz
  1  'x, y, z'
loop_
 _atom_site_type_symbol
 _atom_site_label
 _atom_site_symmetry_multiplicity
 _atom_site_fract_x
 _atom_site_fract_y
 _atom_site_fract_z
 _atom_site_occupancy
  Ba  Ba0  1  0.12030334  0.87969666  0.86983953  1.0
  Ba  Ba1  1  -0.12030334  0.12030334  0.36983953  1.0
  Ba  Ba2  1  0.12962105  0.87037895  0.23583616  1.0
  Ba  Ba3  1  -0.12962105  0.12962105  0.73583616  1.0
  Y  Y4  1  0.20885299  0.79114701  0.53299320  1.0
  Y  Y5  1  -0.20885299  0.20885299  0.03299320  1.0
  In  In6  1  -0.44229767  0.44229767  0.61655062  1.0
  In  In7  1  0.44229767  0.55770233  0.11655062  1.0
  Te  Te8  1  0.05113781  0.94886219  0.49740700  1.0
  Te  Te9  1  -0.05113781  0.05113781  -0.00259300  1.0
  Te  Te10  1  0.29190787  0.70809213  0.88960955  1.0
  Te  Te11  1  -0.29190787  0.29190787  0.38960955  1.0
  Te  Te12  1  0.35466112  0.64533888  0.55037161  1.0
  Te  Te13  1  -0.35466112  0.35466112  0.05037161  1.0
  Te  Te14  1  0.49672158  0.50327842  0.78930763  1.0
  Te  Te15  1  -0.49672158  0.49672158  0.28930763  1.0
  Te  Te16  1  -0.30913681  0.30913681  0.68568472  1.0
  Te  Te17  1  0.30913681  0.69086319  0.18568472  1.0
