# generated using pymatgen
data_ZnS
_symmetry_space_group_name_H-M   'P 1'
_cell_length_a   3.85006050
_cell_length_b   3.85006050
_cell_length_c   62.92587741
_cell_angle_alpha   90.00000000
_cell_angle_beta   90.00000000
_cell_angle_gamma   120.00000000
_symmetry_Int_Tables_number   1
_chemical_formula_structural   ZnS
_chemical_formula_sum   'Zn20 S20'
_cell_volume   807.78357588
_cell_formula_units_Z   20
loop_
 _symmetry_equiv_pos_site_id
 _symmetry_equiv_pos_as_xyz
  1  'x, y, z'
loop_
 _atom_site_type_symbol
 _atom_site_label
 _atom_site_symmetry_multiplicity
 _atom_site_fract_x
 _atom_site_fract_y
 _atom_site_fract_z
 _atom_site_occupancy
  Zn  Zn0  1  -0.00000000  -0.00000000  0.00004576  1.0
  Zn  Zn1  1  0.33333333  0.66666667  0.05001129  1.0
  Zn  Zn2  1  0.66666667  0.33333333  0.10000525  1.0
  Zn  Zn3  1  -0.00000000  -0.00000000  0.15000374  1.0
  Zn  Zn4  1  0.33333333  0.66666667  0.19999745  1.0
  Zn  Zn5  1  0.66666667  0.33333333  0.24996832  1.0
  Zn  Zn6  1  0.00000000  0.00000000  0.30000479  1.0
  Zn  Zn7  1  0.66666667  0.33333333  0.35004511  1.0
  Zn  Zn8  1  0.33333333  0.66666667  0.40001092  1.0
  Zn  Zn9  1  0.00000000  0.00000000  0.45000471  1.0
  Zn  Zn10  1  0.66666667  0.33333333  0.49999703  1.0
  Zn  Zn11  1  0.33333333  0.66666667  0.54996769  1.0
  Zn  Zn12  1  -0.00000000  -0.00000000  0.60000374  1.0
  Zn  Zn13  1  0.33333333  0.66666667  0.65003726  1.0
  Zn  Zn14  1  0.66666667  0.33333333  0.69997323  1.0
  Zn  Zn15  1  0.00000000  0.00000000  0.75000464  1.0
  Zn  Zn16  1  0.66666667  0.33333333  0.80004449  1.0
  Zn  Zn17  1  0.33333333  0.66666667  0.85000340  1.0
  Zn  Zn18  1  -0.00000000  -0.00000000  0.89996856  1.0
  Zn  Zn19  1  0.66666667  0.33333333  0.95000477  1.0
  S  S20  1  0.00000000  0.00000000  0.03751436  1.0
  S  S21  1  0.33333333  0.66666667  0.08749797  1.0
  S  S22  1  0.66666667  0.33333333  0.13749487  1.0
  S  S23  1  -0.00000000  -0.00000000  0.18749229  1.0
  S  S24  1  0.33333333  0.66666667  0.23747879  1.0
  S  S25  1  0.66666667  0.33333333  0.28744233  1.0
  S  S26  1  0.00000000  0.00000000  0.33754559  1.0
  S  S27  1  0.66666667  0.33333333  0.38751369  1.0
  S  S28  1  0.33333333  0.66666667  0.43749777  1.0
  S  S29  1  -0.00000000  -0.00000000  0.48749252  1.0
  S  S30  1  0.66666667  0.33333333  0.53747791  1.0
  S  S31  1  0.33333333  0.66666667  0.58744180  1.0
  S  S32  1  0.00000000  0.00000000  0.63754310  1.0
  S  S33  1  0.33333333  0.66666667  0.68749678  1.0
  S  S34  1  0.66666667  0.33333333  0.73744384  1.0
  S  S35  1  0.00000000  0.00000000  0.78754527  1.0
  S  S36  1  0.66666667  0.33333333  0.83751107  1.0
  S  S37  1  0.33333333  0.66666667  0.88748060  1.0
  S  S38  1  -0.00000000  -0.00000000  0.93744166  1.0
  S  S39  1  0.66666667  0.33333333  0.98754562  1.0
