# generated using pymatgen
data_Ba3(CdSb2)2
_symmetry_space_group_name_H-M   'P 1'
_cell_length_a   9.38336212
_cell_length_b   9.38336212
_cell_length_c   7.81980357
_cell_angle_alpha   68.74413303
_cell_angle_beta   111.25586697
_cell_angle_gamma   149.61542502
_symmetry_Int_Tables_number   1
_chemical_formula_structural   Ba3(CdSb2)2
_chemical_formula_sum   'Ba3 Cd2 Sb4'
_cell_volume   322.74436185
_cell_formula_units_Z   1
loop_
 _symmetry_equiv_pos_site_id
 _symmetry_equiv_pos_as_xyz
  1  'x, y, z'
loop_
 _atom_site_type_symbol
 _atom_site_label
 _atom_site_symmetry_multiplicity
 _atom_site_fract_x
 _atom_site_fract_y
 _atom_site_fract_z
 _atom_site_occupancy
  Ba  Ba0  1  0.85774846  -0.85774846  0.40769027  1.0
  Ba  Ba1  1  1.14225154  -0.14225154  0.59230973  1.0
  Ba  Ba2  1  0.00000000  0.00000000  0.00000000  1.0
  Cd  Cd3  1  0.66807371  -0.66807371  0.97089577  1.0
  Cd  Cd4  1  1.33192629  -0.33192629  0.02910423  1.0
  Sb  Sb5  1  0.79291720  -0.79291720  0.80283298  1.0
  Sb  Sb6  1  1.20708280  -0.20708280  0.19716702  1.0
  Sb  Sb7  1  0.50212336  -0.50212336  0.68499320  1.0
  Sb  Sb8  1  1.49787664  -0.49787664  0.31500680  1.0
