# generated using pymatgen
data_Bi3I4O13F3
_symmetry_space_group_name_H-M   'P 1'
_cell_length_a   11.22871414
_cell_length_b   11.22871414
_cell_length_c   7.08339446
_cell_angle_alpha   90.00000000
_cell_angle_beta   90.00000000
_cell_angle_gamma   120.00000000
_symmetry_Int_Tables_number   1
_chemical_formula_structural   Bi3I4O13F3
_chemical_formula_sum   'Bi6 I8 O26 F6'
_cell_volume   773.44976312
_cell_formula_units_Z   2
loop_
 _symmetry_equiv_pos_site_id
 _symmetry_equiv_pos_as_xyz
  1  'x, y, z'
loop_
 _atom_site_type_symbol
 _atom_site_label
 _atom_site_symmetry_multiplicity
 _atom_site_fract_x
 _atom_site_fract_y
 _atom_site_fract_z
 _atom_site_occupancy
  Bi  Bi0  1  0.44609425  0.89218849  0.03033958  1.0
  Bi  Bi1  1  0.10781151  0.55390575  0.03033958  1.0
  Bi  Bi2  1  0.44609425  0.55390575  0.03033958  1.0
  Bi  Bi3  1  0.55390575  0.10781151  0.53033958  1.0
  Bi  Bi4  1  0.89218849  0.44609425  0.53033958  1.0
  Bi  Bi5  1  0.55390575  0.44609425  0.53033958  1.0
  I  I6  1  0.71322060  0.85661030  0.76267525  1.0
  I  I7  1  0.14338970  0.85661030  0.76267525  1.0
  I  I8  1  0.14338970  0.28677940  0.76267525  1.0
  I  I9  1  0.28677940  0.14338970  0.26267525  1.0
  I  I10  1  0.85661030  0.14338970  0.26267525  1.0
  I  I11  1  0.85661030  0.71322060  0.26267525  1.0
  I  I12  1  0.33333333  0.66666667  0.48812248  1.0
  I  I13  1  0.66666667  0.33333333  0.98812248  1.0
  O  O14  1  0.33333333  0.66666667  0.97156679  1.0
  O  O15  1  0.66666667  0.33333333  0.47156679  1.0
  O  O16  1  0.78573801  0.89286900  0.52062008  1.0
  O  O17  1  0.10713100  0.89286900  0.52062008  1.0
  O  O18  1  0.10713100  0.21426199  0.52062008  1.0
  O  O19  1  0.21426199  0.10713100  0.02062008  1.0
  O  O20  1  0.89286900  0.10713100  0.02062008  1.0
  O  O21  1  0.89286900  0.78573801  0.02062008  1.0
  O  O22  1  0.41941434  0.83882869  0.36721760  1.0
  O  O23  1  0.16117131  0.58058566  0.36721760  1.0
  O  O24  1  0.41941434  0.58058566  0.36721760  1.0
  O  O25  1  0.58058566  0.16117131  0.86721760  1.0
  O  O26  1  0.83882869  0.41941434  0.86721760  1.0
  O  O27  1  0.58058566  0.41941434  0.86721760  1.0
  O  O28  1  0.58159479  0.91724997  0.74408014  1.0
  O  O29  1  0.08275003  0.66434481  0.74408014  1.0
  O  O30  1  0.33565519  0.41840521  0.74408014  1.0
  O  O31  1  0.08275003  0.41840521  0.74408014  1.0
  O  O32  1  0.33565519  0.91724997  0.74408014  1.0
  O  O33  1  0.58159479  0.66434481  0.74408014  1.0
  O  O34  1  0.41840521  0.08275003  0.24408014  1.0
  O  O35  1  0.91724997  0.33565519  0.24408014  1.0
  O  O36  1  0.66434481  0.58159479  0.24408014  1.0
  O  O37  1  0.91724997  0.58159479  0.24408014  1.0
  O  O38  1  0.66434481  0.08275003  0.24408014  1.0
  O  O39  1  0.41840521  0.33565519  0.24408014  1.0
  F  F40  1  0.20033304  0.79966696  0.07880747  1.0
  F  F41  1  0.20033304  0.40066609  0.07880747  1.0
  F  F42  1  0.59933391  0.79966696  0.07880747  1.0
  F  F43  1  0.79966696  0.20033304  0.57880747  1.0
  F  F44  1  0.79966696  0.59933391  0.57880747  1.0
  F  F45  1  0.40066609  0.20033304  0.57880747  1.0
