# generated using pymatgen
data_SrAs3
_symmetry_space_group_name_H-M   'P 1'
_cell_length_a   6.21630801
_cell_length_b   6.21630801
_cell_length_c   5.93730734
_cell_angle_alpha   72.25397626
_cell_angle_beta   107.74602374
_cell_angle_gamma   103.08298839
_symmetry_Int_Tables_number   1
_chemical_formula_structural   SrAs3
_chemical_formula_sum   'Sr2 As6'
_cell_volume   205.85273382
_cell_formula_units_Z   2
loop_
 _symmetry_equiv_pos_site_id
 _symmetry_equiv_pos_as_xyz
  1  'x, y, z'
loop_
 _atom_site_type_symbol
 _atom_site_label
 _atom_site_symmetry_multiplicity
 _atom_site_fract_x
 _atom_site_fract_y
 _atom_site_fract_z
 _atom_site_occupancy
  Sr  Sr0  1  0.83535755  0.16464245  0.66902327  1.0
  Sr  Sr1  1  1.16464245  -0.16464245  0.33097673  1.0
  As  As2  1  0.36895552  0.09235017  0.80444154  1.0
  As  As3  1  0.90764983  0.63104448  0.80444154  1.0
  As  As4  1  1.09235017  -0.63104448  0.19555846  1.0
  As  As5  1  1.63104448  -0.09235017  0.19555846  1.0
  As  As6  1  1.49457371  -0.49457371  0.78469952  1.0
  As  As7  1  0.50542629  0.49457371  0.21530048  1.0
