# generated using pymatgen
data_Cs2CO3
_symmetry_space_group_name_H-M   'P 1'
_cell_length_a   6.25205273
_cell_length_b   10.56098347
_cell_length_c   8.23747789
_cell_angle_alpha   90.00000000
_cell_angle_beta   93.96121273
_cell_angle_gamma   90.00000000
_symmetry_Int_Tables_number   1
_chemical_formula_structural   Cs2CO3
_chemical_formula_sum   'Cs8 C4 O12'
_cell_volume   542.60339291
_cell_formula_units_Z   4
loop_
 _symmetry_equiv_pos_site_id
 _symmetry_equiv_pos_as_xyz
  1  'x, y, z'
loop_
 _atom_site_type_symbol
 _atom_site_label
 _atom_site_symmetry_multiplicity
 _atom_site_fract_x
 _atom_site_fract_y
 _atom_site_fract_z
 _atom_site_occupancy
  Cs  Cs0  1  0.75534116  0.41652372  0.33011235  1.0
  Cs  Cs1  1  0.75534116  0.08347628  0.83011235  1.0
  Cs  Cs2  1  0.24465884  0.91652372  0.16988765  1.0
  Cs  Cs3  1  0.24465884  0.58347628  0.66988765  1.0
  Cs  Cs4  1  0.74497534  0.78499759  0.48312529  1.0
  Cs  Cs5  1  0.74497534  0.71500241  0.98312529  1.0
  Cs  Cs6  1  0.25502466  0.28499759  0.01687471  1.0
  Cs  Cs7  1  0.25502466  0.21500241  0.51687471  1.0
  C  C8  1  0.74908928  0.08274339  0.23337421  1.0
  C  C9  1  0.74908928  0.41725661  0.73337421  1.0
  C  C10  1  0.25091072  0.58274339  0.26662579  1.0
  C  C11  1  0.25091072  0.91725661  0.76662579  1.0
  O  O12  1  0.92548373  0.14816518  0.22618721  1.0
  O  O13  1  0.92548373  0.35183482  0.72618721  1.0
  O  O14  1  0.07451627  0.64816518  0.27381279  1.0
  O  O15  1  0.07451627  0.85183482  0.77381279  1.0
  O  O16  1  0.74623864  0.96336160  0.19073560  1.0
  O  O17  1  0.74623864  0.53663840  0.69073560  1.0
  O  O18  1  0.25376136  0.46336160  0.30926440  1.0
  O  O19  1  0.25376136  0.03663840  0.80926440  1.0
  O  O20  1  0.57553607  0.13622912  0.27956472  1.0
  O  O21  1  0.57553607  0.36377088  0.77956472  1.0
  O  O22  1  0.42446393  0.63622912  0.22043528  1.0
  O  O23  1  0.42446393  0.86377088  0.72043528  1.0
