# generated using pymatgen
data_LiCoSO4F
_symmetry_space_group_name_H-M   'P 1'
_cell_length_a   5.46268030
_cell_length_b   5.21963911
_cell_length_c   7.31375186
_cell_angle_alpha   108.01136587
_cell_angle_beta   106.76070396
_cell_angle_gamma   98.63756268
_symmetry_Int_Tables_number   1
_chemical_formula_structural   LiCoSO4F
_chemical_formula_sum   'Li2 Co2 S2 O8 F2'
_cell_volume   183.21676695
_cell_formula_units_Z   2
loop_
 _symmetry_equiv_pos_site_id
 _symmetry_equiv_pos_as_xyz
  1  'x, y, z'
loop_
 _atom_site_type_symbol
 _atom_site_label
 _atom_site_symmetry_multiplicity
 _atom_site_fract_x
 _atom_site_fract_y
 _atom_site_fract_z
 _atom_site_occupancy
  Li  Li0  1  -0.85443482  -0.72203034  -0.19812873  1.0
  Li  Li1  1  -0.14556518  -0.27796966  -0.80187127  1.0
  Co  Co2  1  -0.50000000  -0.00000000  -0.50000000  1.0
  Co  Co3  1  -0.50000000  0.00000000  0.00000000  1.0
  S  S4  1  -0.85774476  -0.67734121  -0.75023789  1.0
  S  S5  1  -0.14225524  -0.32265879  -0.24976211  1.0
  O  O6  1  -0.85147630  -0.90860634  -0.66917268  1.0
  O  O7  1  -0.14852370  -0.09139366  -0.33082732  1.0
  O  O8  1  -0.73446544  -0.40155939  -0.58014300  1.0
  O  O9  1  -0.26553456  -0.59844061  -0.41985700  1.0
  O  O10  1  -0.72213339  -0.71716598  -0.90488304  1.0
  O  O11  1  -0.27786661  -0.28283402  -0.09511696  1.0
  O  O12  1  -0.14180838  -0.68102795  -0.85549872  1.0
  O  O13  1  -0.85819162  -0.31897205  -0.14450128  1.0
  F  F14  1  -0.58565360  -0.87808451  -0.24550381  1.0
  F  F15  1  -0.41434640  -0.12191549  -0.75449619  1.0
