# generated using pymatgen
data_KVH2SeO7
_symmetry_space_group_name_H-M   'P 1'
_cell_length_a   7.46713174
_cell_length_b   10.78779276
_cell_length_c   10.38679878
_cell_angle_alpha   90.00000000
_cell_angle_beta   131.54011030
_cell_angle_gamma   90.00000000
_symmetry_Int_Tables_number   1
_chemical_formula_structural   KVH2SeO7
_chemical_formula_sum   'K4 V4 H8 Se4 O28'
_cell_volume   626.26060788
_cell_formula_units_Z   4
loop_
 _symmetry_equiv_pos_site_id
 _symmetry_equiv_pos_as_xyz
  1  'x, y, z'
loop_
 _atom_site_type_symbol
 _atom_site_label
 _atom_site_symmetry_multiplicity
 _atom_site_fract_x
 _atom_site_fract_y
 _atom_site_fract_z
 _atom_site_occupancy
  K  K0  1  0.83580226  0.07061407  0.25729283  1.0
  K  K1  1  0.83580226  0.42938593  0.75729283  1.0
  K  K2  1  0.16419774  0.57061407  0.24270717  1.0
  K  K3  1  0.16419774  0.92938593  0.74270717  1.0
  V  V4  1  0.57758260  0.41233417  0.24800943  1.0
  V  V5  1  0.57758260  0.08766583  0.74800943  1.0
  V  V6  1  0.42241740  0.91233417  0.25199057  1.0
  V  V7  1  0.42241740  0.58766583  0.75199057  1.0
  H  H8  1  0.95368194  0.83310986  0.12316427  1.0
  H  H9  1  0.95368194  0.66689014  0.62316427  1.0
  H  H10  1  0.04631806  0.33310986  0.37683573  1.0
  H  H11  1  0.04631806  0.16689014  0.87683573  1.0
  H  H12  1  0.94328403  0.88135205  0.97373876  1.0
  H  H13  1  0.94328403  0.61864795  0.47373876  1.0
  H  H14  1  0.05671597  0.38135205  0.52626124  1.0
  H  H15  1  0.05671597  0.11864795  0.02626124  1.0
  Se  Se16  1  0.39890076  0.19753637  0.36065782  1.0
  Se  Se17  1  0.39890076  0.30246363  0.86065782  1.0
  Se  Se18  1  0.60109924  0.69753637  0.13934218  1.0
  Se  Se19  1  0.60109924  0.80246363  0.63934218  1.0
  O  O20  1  0.95020175  0.34506719  0.41037352  1.0
  O  O21  1  0.95020175  0.15493281  0.91037352  1.0
  O  O22  1  0.04979825  0.84506719  0.08962648  1.0
  O  O23  1  0.04979825  0.65493281  0.58962648  1.0
  O  O24  1  0.81471865  0.79436032  0.19997674  1.0
  O  O25  1  0.81471865  0.70563968  0.69997674  1.0
  O  O26  1  0.18528135  0.29436032  0.30002326  1.0
  O  O27  1  0.18528135  0.20563968  0.80002326  1.0
  O  O28  1  0.69739129  0.95240694  0.41565163  1.0
  O  O29  1  0.69739129  0.54759306  0.91565163  1.0
  O  O30  1  0.30260871  0.45240694  0.08434837  1.0
  O  O31  1  0.30260871  0.04759306  0.58434837  1.0
  O  O32  1  0.62506703  0.46156191  0.41675492  1.0
  O  O33  1  0.62506703  0.03843809  0.91675492  1.0
  O  O34  1  0.37493297  0.96156191  0.08324508  1.0
  O  O35  1  0.37493297  0.53843809  0.58324508  1.0
  O  O36  1  0.61680139  0.31502877  0.07243169  1.0
  O  O37  1  0.61680139  0.18497123  0.57243169  1.0
  O  O38  1  0.38319861  0.81502877  0.42756831  1.0
  O  O39  1  0.38319861  0.68497123  0.92756831  1.0
  O  O40  1  0.51769639  0.23467180  0.27198706  1.0
  O  O41  1  0.51769639  0.26532820  0.77198706  1.0
  O  O42  1  0.48230361  0.73467180  0.22801294  1.0
  O  O43  1  0.48230361  0.76532820  0.72801294  1.0
  O  O44  1  0.25910924  0.05959259  0.26416026  1.0
  O  O45  1  0.25910924  0.44040741  0.76416026  1.0
  O  O46  1  0.74089076  0.55959259  0.23583974  1.0
  O  O47  1  0.74089076  0.94040741  0.73583974  1.0
