# generated using pymatgen
data_Rb2CuH12(SeO7)2
_symmetry_space_group_name_H-M   'P 1'
_cell_length_a   6.42375265
_cell_length_b   12.76391095
_cell_length_c   9.53264354
_cell_angle_alpha   90.00000000
_cell_angle_beta   104.01427094
_cell_angle_gamma   90.00000000
_symmetry_Int_Tables_number   1
_chemical_formula_structural   Rb2CuH12(SeO7)2
_chemical_formula_sum   'Rb4 Cu2 H24 Se4 O28'
_cell_volume   758.33842548
_cell_formula_units_Z   2
loop_
 _symmetry_equiv_pos_site_id
 _symmetry_equiv_pos_as_xyz
  1  'x, y, z'
loop_
 _atom_site_type_symbol
 _atom_site_label
 _atom_site_symmetry_multiplicity
 _atom_site_fract_x
 _atom_site_fract_y
 _atom_site_fract_z
 _atom_site_occupancy
  Rb  Rb0  1  0.84386101  0.64882376  0.11708810  1.0
  Rb  Rb1  1  0.84386101  0.85117624  0.61708810  1.0
  Rb  Rb2  1  0.15613899  0.14882376  0.38291190  1.0
  Rb  Rb3  1  0.15613899  0.35117624  0.88291190  1.0
  Cu  Cu4  1  0.50000000  0.50000000  0.50000000  1.0
  Cu  Cu5  1  0.50000000  0.00000000  -0.00000000  1.0
  H  H6  1  0.80847397  0.91031246  0.18515922  1.0
  H  H7  1  0.80847397  0.58968754  0.68515922  1.0
  H  H8  1  0.19152603  0.41031246  0.31484078  1.0
  H  H9  1  0.19152603  0.08968754  0.81484078  1.0
  H  H10  1  0.82143946  0.43979579  0.40386059  1.0
  H  H11  1  0.82143946  0.06020421  0.90386059  1.0
  H  H12  1  0.17856054  0.93979579  0.09613941  1.0
  H  H13  1  0.17856054  0.56020421  0.59613941  1.0
  H  H14  1  0.80786559  0.13474186  0.03674444  1.0
  H  H15  1  0.80786559  0.36525814  0.53674444  1.0
  H  H16  1  0.19213441  0.63474186  0.46325556  1.0
  H  H17  1  0.19213441  0.86525814  0.96325556  1.0
  H  H18  1  0.57926040  0.10153577  0.29495507  1.0
  H  H19  1  0.57926040  0.39846423  0.79495507  1.0
  H  H20  1  0.42073960  0.60153577  0.20504493  1.0
  H  H21  1  0.42073960  0.89846423  0.70504493  1.0
  H  H22  1  0.50083453  0.18865065  0.17757478  1.0
  H  H23  1  0.50083453  0.31134935  0.67757478  1.0
  H  H24  1  0.49916547  0.68865065  0.32242522  1.0
  H  H25  1  0.49916547  0.81134935  0.82242522  1.0
  H  H26  1  0.41477229  0.37579931  0.27810485  1.0
  H  H27  1  0.41477229  0.12420069  0.77810485  1.0
  H  H28  1  0.58522771  0.87579931  0.22189515  1.0
  H  H29  1  0.58522771  0.62420069  0.72189515  1.0
  Se  Se30  1  0.77341606  0.35779884  0.11649119  1.0
  Se  Se31  1  0.77341606  0.14220116  0.61649119  1.0
  Se  Se32  1  0.22658394  0.85779884  0.38350881  1.0
  Se  Se33  1  0.22658394  0.64220116  0.88350881  1.0
  O  O34  1  0.91375624  0.24889258  0.10687762  1.0
  O  O35  1  0.91375624  0.25110742  0.60687762  1.0
  O  O36  1  0.08624376  0.74889258  0.39312238  1.0
  O  O37  1  0.08624376  0.75110742  0.89312238  1.0
  O  O38  1  0.91255276  0.43031495  0.25515458  1.0
  O  O39  1  0.91255276  0.06968505  0.75515458  1.0
  O  O40  1  0.08744724  0.93031495  0.24484542  1.0
  O  O41  1  0.08744724  0.56968505  0.74484542  1.0
  O  O42  1  0.77977802  0.43840952  0.49878289  1.0
  O  O43  1  0.77977802  0.06159048  0.99878289  1.0
  O  O44  1  0.22022198  0.93840952  0.00121711  1.0
  O  O45  1  0.22022198  0.56159048  0.50121711  1.0
  O  O46  1  0.74804869  0.07199668  0.46637286  1.0
  O  O47  1  0.74804869  0.42800332  0.96637286  1.0
  O  O48  1  0.25195131  0.57199668  0.03362714  1.0
  O  O49  1  0.25195131  0.92800332  0.53362714  1.0
  O  O50  1  0.53249657  0.32667445  0.14392699  1.0
  O  O51  1  0.53249657  0.17332555  0.64392699  1.0
  O  O52  1  0.46750343  0.82667445  0.35607301  1.0
  O  O53  1  0.46750343  0.67332555  0.85607301  1.0
  O  O54  1  0.47262441  0.11576805  0.20286057  1.0
  O  O55  1  0.47262441  0.38423195  0.70286057  1.0
  O  O56  1  0.52737559  0.61576805  0.29713943  1.0
  O  O57  1  0.52737559  0.88423195  0.79713943  1.0
  O  O58  1  0.34334195  0.38941551  0.35829620  1.0
  O  O59  1  0.34334195  0.11058449  0.85829620  1.0
  O  O60  1  0.65665805  0.88941551  0.14170380  1.0
  O  O61  1  0.65665805  0.61058449  0.64170380  1.0
