# generated using pymatgen
data_MnCu2GeTe4
_symmetry_space_group_name_H-M   'P 1'
_cell_length_a   7.45572069
_cell_length_b   7.45572069
_cell_length_c   7.45572069
_cell_angle_alpha   131.34134171
_cell_angle_beta   131.34134171
_cell_angle_gamma   71.27131676
_symmetry_Int_Tables_number   1
_chemical_formula_structural   MnCu2GeTe4
_chemical_formula_sum   'Mn1 Cu2 Ge1 Te4'
_cell_volume   228.68288379
_cell_formula_units_Z   1
loop_
 _symmetry_equiv_pos_site_id
 _symmetry_equiv_pos_as_xyz
  1  'x, y, z'
loop_
 _atom_site_type_symbol
 _atom_site_label
 _atom_site_symmetry_multiplicity
 _atom_site_fract_x
 _atom_site_fract_y
 _atom_site_fract_z
 _atom_site_occupancy
  Mn  Mn0  1  -0.00000000  -0.00000000  -0.00000000  1.0
  Cu  Cu1  1  0.25000000  0.75000000  0.50000000  1.0
  Cu  Cu2  1  0.75000000  0.25000000  0.50000000  1.0
  Ge  Ge3  1  0.50000000  0.50000000  1.00000000  1.0
  Te  Te4  1  0.38388528  0.88240300  1.00000000  1.0
  Te  Te5  1  1.11759700  1.11759700  1.50148228  1.0
  Te  Te6  1  0.61611472  0.61611472  0.49851772  1.0
  Te  Te7  1  0.88240300  0.38388528  1.00000000  1.0
