# generated using pymatgen
data_Eu(ZnSn)2
_symmetry_space_group_name_H-M   'P 1'
_cell_length_a   4.67195095
_cell_length_b   4.56827435
_cell_length_c   11.28903861
_cell_angle_alpha   90.00000000
_cell_angle_beta   90.80487761
_cell_angle_gamma   90.00000000
_symmetry_Int_Tables_number   1
_chemical_formula_structural   Eu(ZnSn)2
_chemical_formula_sum   'Eu2 Zn4 Sn4'
_cell_volume   240.91539761
_cell_formula_units_Z   2
loop_
 _symmetry_equiv_pos_site_id
 _symmetry_equiv_pos_as_xyz
  1  'x, y, z'
loop_
 _atom_site_type_symbol
 _atom_site_label
 _atom_site_symmetry_multiplicity
 _atom_site_fract_x
 _atom_site_fract_y
 _atom_site_fract_z
 _atom_site_occupancy
  Eu  Eu0  1  0.27450913  0.49366117  0.25239160  1.0
  Eu  Eu1  1  0.72549087  0.99366117  0.74760840  1.0
  Zn  Zn2  1  0.25190109  0.49334505  0.86042680  1.0
  Zn  Zn3  1  0.74809891  -0.00665495  0.13957320  1.0
  Zn  Zn4  1  0.30077257  0.99390027  0.49896926  1.0
  Zn  Zn5  1  0.69922743  0.49390027  0.50103074  1.0
  Sn  Sn6  1  0.19932587  0.49384176  0.63057445  1.0
  Sn  Sn7  1  0.80067413  0.99384176  0.36942555  1.0
  Sn  Sn8  1  0.24649412  0.99335175  0.00183933  1.0
  Sn  Sn9  1  0.75350588  0.49335175  0.99816067  1.0
