# generated using pymatgen
data_Cu12Sb4S13
_symmetry_space_group_name_H-M   'P 1'
_cell_length_a   8.99281883
_cell_length_b   8.99281883
_cell_length_c   8.99281883
_cell_angle_alpha   109.47122063
_cell_angle_beta   109.47122063
_cell_angle_gamma   109.47122063
_symmetry_Int_Tables_number   1
_chemical_formula_structural   Cu12Sb4S13
_chemical_formula_sum   'Cu12 Sb4 S13'
_cell_volume   559.84221222
_cell_formula_units_Z   1
loop_
 _symmetry_equiv_pos_site_id
 _symmetry_equiv_pos_as_xyz
  1  'x, y, z'
loop_
 _atom_site_type_symbol
 _atom_site_label
 _atom_site_symmetry_multiplicity
 _atom_site_fract_x
 _atom_site_fract_y
 _atom_site_fract_z
 _atom_site_occupancy
  Cu  Cu0  1  0.77740365  0.77740365  -0.00000000  1.0
  Cu  Cu1  1  0.77740365  -0.00000000  0.77740365  1.0
  Cu  Cu2  1  0.00000000  0.77740365  0.77740365  1.0
  Cu  Cu3  1  0.22259635  -0.00000000  0.22259635  1.0
  Cu  Cu4  1  0.00000000  0.22259635  0.22259635  1.0
  Cu  Cu5  1  0.22259635  0.22259635  -0.00000000  1.0
  Cu  Cu6  1  0.25000000  0.75000000  0.50000000  1.0
  Cu  Cu7  1  0.75000000  0.25000000  0.50000000  1.0
  Cu  Cu8  1  0.25000000  0.50000000  0.75000000  1.0
  Cu  Cu9  1  0.50000000  0.25000000  0.75000000  1.0
  Cu  Cu10  1  0.75000000  0.50000000  0.25000000  1.0
  Cu  Cu11  1  0.50000000  0.75000000  0.25000000  1.0
  Sb  Sb12  1  0.45579553  0.45579553  0.45579553  1.0
  Sb  Sb13  1  1.00000000  1.00000000  0.54420447  1.0
  Sb  Sb14  1  1.00000000  0.54420447  1.00000000  1.0
  Sb  Sb15  1  0.54420447  1.00000000  1.00000000  1.0
  S  S16  1  0.76760750  0.51834951  0.51834951  1.0
  S  S17  1  0.51834951  0.76760750  0.51834951  1.0
  S  S18  1  1.00000000  1.24925799  0.48165049  1.0
  S  S19  1  1.24925799  1.00000000  0.48165049  1.0
  S  S20  1  0.51834951  0.51834951  0.76760750  1.0
  S  S21  1  0.75074201  0.75074201  0.23239250  1.0
  S  S22  1  1.00000000  0.48165049  1.24925799  1.0
  S  S23  1  0.75074201  0.23239250  0.75074201  1.0
  S  S24  1  0.23239250  0.75074201  0.75074201  1.0
  S  S25  1  0.48165049  1.00000000  1.24925799  1.0
  S  S26  1  1.24925799  0.48165049  1.00000000  1.0
  S  S27  1  0.48165049  1.24925799  1.00000000  1.0
  S  S28  1  0.00000000  0.00000000  0.00000000  1.0
