# generated using pymatgen
data_ScPS4
_symmetry_space_group_name_H-M   'P 1'
_cell_length_a   6.27656424
_cell_length_b   7.64029400
_cell_length_c   6.58112622
_cell_angle_alpha   87.71781743
_cell_angle_beta   80.79828245
_cell_angle_gamma   88.16844792
_symmetry_Int_Tables_number   1
_chemical_formula_structural   ScPS4
_chemical_formula_sum   'Sc2 P2 S8'
_cell_volume   311.18339202
_cell_formula_units_Z   2
loop_
 _symmetry_equiv_pos_site_id
 _symmetry_equiv_pos_as_xyz
  1  'x, y, z'
loop_
 _atom_site_type_symbol
 _atom_site_label
 _atom_site_symmetry_multiplicity
 _atom_site_fract_x
 _atom_site_fract_y
 _atom_site_fract_z
 _atom_site_occupancy
  Sc  Sc0  1  -0.79669898  -0.44365841  -0.30423032  1.0
  Sc  Sc1  1  -0.20330102  -0.55634159  -0.69576968  1.0
  P  P2  1  -0.68510537  -0.66550090  -0.73939445  1.0
  P  P3  1  -0.31489463  -0.33449910  -0.26060555  1.0
  S  S4  1  -0.91343015  -0.72575827  -0.48305459  1.0
  S  S5  1  -0.08656985  -0.27424173  -0.51694541  1.0
  S  S6  1  -0.87552168  -0.68281352  -0.96646158  1.0
  S  S7  1  -0.12447832  -0.31718648  -0.03353842  1.0
  S  S8  1  -0.59579491  -0.41083822  -0.70736909  1.0
  S  S9  1  -0.40420509  -0.58916178  -0.29263091  1.0
  S  S10  1  -0.41470587  -0.81981619  -0.77319267  1.0
  S  S11  1  -0.58529413  -0.18018381  -0.22680733  1.0
