# generated using pymatgen
data_NaPO3
_symmetry_space_group_name_H-M   'P 1'
_cell_length_a   7.73846526
_cell_length_b   6.13323328
_cell_length_c   13.46138326
_cell_angle_alpha   90.00000000
_cell_angle_beta   120.86594832
_cell_angle_gamma   90.00000000
_symmetry_Int_Tables_number   1
_chemical_formula_structural   NaPO3
_chemical_formula_sum   'Na8 P8 O24'
_cell_volume   548.41398418
_cell_formula_units_Z   8
loop_
 _symmetry_equiv_pos_site_id
 _symmetry_equiv_pos_as_xyz
  1  'x, y, z'
loop_
 _atom_site_type_symbol
 _atom_site_label
 _atom_site_symmetry_multiplicity
 _atom_site_fract_x
 _atom_site_fract_y
 _atom_site_fract_z
 _atom_site_occupancy
  Na  Na0  1  0.69307953  0.32914992  0.50088172  1.0
  Na  Na1  1  0.69307953  0.17085008  0.00088172  1.0
  Na  Na2  1  0.30692047  0.82914992  -0.00088172  1.0
  Na  Na3  1  0.30692047  0.67085008  0.49911828  1.0
  Na  Na4  1  0.69806395  0.92472278  0.30578976  1.0
  Na  Na5  1  0.69806395  0.57527722  0.80578976  1.0
  Na  Na6  1  0.30193605  0.42472278  0.19421024  1.0
  Na  Na7  1  0.30193605  0.07527722  0.69421024  1.0
  P  P8  1  0.83918344  0.42115843  0.30743108  1.0
  P  P9  1  0.83918344  0.07884157  0.80743108  1.0
  P  P10  1  0.16081656  0.92115843  0.19256892  1.0
  P  P11  1  0.16081656  0.57884157  0.69256892  1.0
  P  P12  1  0.21982088  0.15506592  0.40281155  1.0
  P  P13  1  0.21982088  0.34493408  0.90281155  1.0
  P  P14  1  0.78017912  0.65506592  0.09718845  1.0
  P  P15  1  0.78017912  0.84493408  0.59718845  1.0
  O  O16  1  0.97808537  0.20172766  0.34259730  1.0
  O  O17  1  0.97808537  0.29827234  0.84259730  1.0
  O  O18  1  0.02191463  0.70172766  0.15740270  1.0
  O  O19  1  0.02191463  0.79827234  0.65740270  1.0
  O  O20  1  0.95086708  0.88053593  0.87540997  1.0
  O  O21  1  0.95086708  0.61946407  0.37540997  1.0
  O  O22  1  0.04913292  0.38053593  0.62459003  1.0
  O  O23  1  0.04913292  0.11946407  0.12459003  1.0
  O  O24  1  0.78157147  0.44686633  0.17291936  1.0
  O  O25  1  0.78157147  0.05313367  0.67291936  1.0
  O  O26  1  0.21842853  0.94686633  0.32708064  1.0
  O  O27  1  0.21842853  0.55313367  0.82708064  1.0
  O  O28  1  0.70550243  0.93823666  0.47908314  1.0
  O  O29  1  0.70550243  0.56176334  0.97908314  1.0
  O  O30  1  0.29449757  0.43823666  0.02091686  1.0
  O  O31  1  0.29449757  0.06176334  0.52091686  1.0
  O  O32  1  0.65346082  0.34541144  0.30743777  1.0
  O  O33  1  0.65346082  0.15458856  0.80743777  1.0
  O  O34  1  0.34653918  0.84541144  0.19256223  1.0
  O  O35  1  0.34653918  0.65458856  0.69256223  1.0
  O  O36  1  0.32299819  0.35047635  0.38750264  1.0
  O  O37  1  0.32299819  0.14952365  0.88750264  1.0
  O  O38  1  0.67700181  0.85047635  0.11249736  1.0
  O  O39  1  0.67700181  0.64952365  0.61249736  1.0
