# generated using pymatgen
data_BaV2ZnO7
_symmetry_space_group_name_H-M   'P 1'
_cell_length_a   15.31384204
_cell_length_b   5.51448316
_cell_length_c   7.56467526
_cell_angle_alpha   90.00000000
_cell_angle_beta   90.00000000
_cell_angle_gamma   90.00000000
_symmetry_Int_Tables_number   1
_chemical_formula_structural   BaV2ZnO7
_chemical_formula_sum   'Ba4 V8 Zn4 O28'
_cell_volume   638.82112157
_cell_formula_units_Z   4
loop_
 _symmetry_equiv_pos_site_id
 _symmetry_equiv_pos_as_xyz
  1  'x, y, z'
loop_
 _atom_site_type_symbol
 _atom_site_label
 _atom_site_symmetry_multiplicity
 _atom_site_fract_x
 _atom_site_fract_y
 _atom_site_fract_z
 _atom_site_occupancy
  Ba  Ba0  1  0.21617320  0.75000000  0.14861982  1.0
  Ba  Ba1  1  0.71617320  0.75000000  0.35138018  1.0
  Ba  Ba2  1  0.78382680  0.25000000  0.85138018  1.0
  Ba  Ba3  1  0.28382680  0.25000000  0.64861982  1.0
  V  V4  1  0.13381732  0.75000000  0.67264732  1.0
  V  V5  1  0.63381732  0.75000000  0.82735268  1.0
  V  V6  1  0.86618268  0.25000000  0.32735268  1.0
  V  V7  1  0.36618268  0.25000000  0.17264732  1.0
  V  V8  1  0.43749323  0.75000000  0.78806238  1.0
  V  V9  1  0.93749323  0.75000000  0.71193762  1.0
  V  V10  1  0.56250677  0.25000000  0.21193762  1.0
  V  V11  1  0.06250677  0.25000000  0.28806238  1.0
  Zn  Zn12  1  0.45302622  0.75000000  0.38238833  1.0
  Zn  Zn13  1  0.95302622  0.75000000  0.11761167  1.0
  Zn  Zn14  1  0.54697378  0.25000000  0.61761167  1.0
  Zn  Zn15  1  0.04697378  0.25000000  0.88238833  1.0
  O  O16  1  0.21819197  0.75000000  0.53283310  1.0
  O  O17  1  0.71819197  0.75000000  0.96716690  1.0
  O  O18  1  0.78180803  0.25000000  0.46716690  1.0
  O  O19  1  0.28180803  0.25000000  0.03283310  1.0
  O  O20  1  0.34036067  0.75000000  0.88537571  1.0
  O  O21  1  0.84036067  0.75000000  0.61462429  1.0
  O  O22  1  0.65963933  0.25000000  0.11462429  1.0
  O  O23  1  0.15963933  0.25000000  0.38537571  1.0
  O  O24  1  0.13995138  1.00268182  0.80392736  1.0
  O  O25  1  0.13995138  0.49731818  0.80392736  1.0
  O  O26  1  0.63995138  1.00268182  0.69607264  1.0
  O  O27  1  0.63995138  0.49731818  0.69607264  1.0
  O  O28  1  0.86004862  0.50268182  0.19607264  1.0
  O  O29  1  0.86004862  -0.00268182  0.19607264  1.0
  O  O30  1  0.36004862  0.50268182  0.30392736  1.0
  O  O31  1  0.36004862  -0.00268182  0.30392736  1.0
  O  O32  1  0.44621984  0.99966669  0.65162819  1.0
  O  O33  1  0.44621984  0.50033331  0.65162819  1.0
  O  O34  1  0.94621984  0.99966669  0.84837181  1.0
  O  O35  1  0.94621984  0.50033331  0.84837181  1.0
  O  O36  1  0.55378016  0.49966669  0.34837181  1.0
  O  O37  1  0.55378016  0.00033331  0.34837181  1.0
  O  O38  1  0.05378016  0.49966669  0.15162819  1.0
  O  O39  1  0.05378016  0.00033331  0.15162819  1.0
  O  O40  1  0.02903457  0.75000000  0.56330464  1.0
  O  O41  1  0.52903457  0.75000000  0.93669536  1.0
  O  O42  1  0.97096543  0.25000000  0.43669536  1.0
  O  O43  1  0.47096543  0.25000000  0.06330464  1.0
