# generated using pymatgen
data_La2MnVO6
_symmetry_space_group_name_H-M   'P 1'
_cell_length_a   5.59186427
_cell_length_b   5.65980225
_cell_length_c   9.69645638
_cell_angle_alpha   90.00000000
_cell_angle_beta   125.35839966
_cell_angle_gamma   90.00000000
_symmetry_Int_Tables_number   1
_chemical_formula_structural   La2MnVO6
_chemical_formula_sum   'La4 Mn2 V2 O12'
_cell_volume   250.27677325
_cell_formula_units_Z   2
loop_
 _symmetry_equiv_pos_site_id
 _symmetry_equiv_pos_as_xyz
  1  'x, y, z'
loop_
 _atom_site_type_symbol
 _atom_site_label
 _atom_site_symmetry_multiplicity
 _atom_site_fract_x
 _atom_site_fract_y
 _atom_site_fract_z
 _atom_site_occupancy
  La  La0  1  0.74129242  0.04632048  0.25016539  1.0
  La  La1  1  0.74129242  0.45367952  0.75016539  1.0
  La  La2  1  0.25870758  0.54632048  0.24983461  1.0
  La  La3  1  0.25870758  0.95367952  0.74983461  1.0
  Mn  Mn4  1  0.50000000  0.50000000  -0.00000000  1.0
  Mn  Mn5  1  0.50000000  0.00000000  0.50000000  1.0
  V  V6  1  0.00000000  0.50000000  0.50000000  1.0
  V  V7  1  0.00000000  0.00000000  0.00000000  1.0
  O  O8  1  0.84164043  0.48125402  0.25739286  1.0
  O  O9  1  0.84164043  0.01874598  0.75739286  1.0
  O  O10  1  0.15835957  0.98125402  0.24260714  1.0
  O  O11  1  0.15835957  0.51874598  0.74260714  1.0
  O  O12  1  0.75367943  0.78290300  0.45293884  1.0
  O  O13  1  0.75367943  0.71709700  0.95293884  1.0
  O  O14  1  0.24632057  0.28290300  0.04706116  1.0
  O  O15  1  0.24632057  0.21709700  0.54706116  1.0
  O  O16  1  0.67356390  0.30149989  0.45737982  1.0
  O  O17  1  0.67356390  0.19850011  0.95737982  1.0
  O  O18  1  0.32643610  0.80149989  0.04262018  1.0
  O  O19  1  0.32643610  0.69850011  0.54262018  1.0
