# generated using pymatgen
data_Ba2ZnSe3
_symmetry_space_group_name_H-M   'P 1'
_cell_length_a   9.26062732
_cell_length_b   4.45343774
_cell_length_c   17.82810179
_cell_angle_alpha   90.00000000
_cell_angle_beta   90.00000000
_cell_angle_gamma   90.00000000
_symmetry_Int_Tables_number   1
_chemical_formula_structural   Ba2ZnSe3
_chemical_formula_sum   'Ba8 Zn4 Se12'
_cell_volume   735.25992758
_cell_formula_units_Z   4
loop_
 _symmetry_equiv_pos_site_id
 _symmetry_equiv_pos_as_xyz
  1  'x, y, z'
loop_
 _atom_site_type_symbol
 _atom_site_label
 _atom_site_symmetry_multiplicity
 _atom_site_fract_x
 _atom_site_fract_y
 _atom_site_fract_z
 _atom_site_occupancy
  Ba  Ba0  1  0.24771548  0.25000000  0.54232231  1.0
  Ba  Ba1  1  0.74771548  0.25000000  0.95767769  1.0
  Ba  Ba2  1  0.75228452  0.75000000  0.45767769  1.0
  Ba  Ba3  1  0.25228452  0.75000000  0.04232231  1.0
  Ba  Ba4  1  0.41768271  0.25000000  0.28669605  1.0
  Ba  Ba5  1  0.91768271  0.25000000  0.21330395  1.0
  Ba  Ba6  1  0.58231729  0.75000000  0.71330395  1.0
  Ba  Ba7  1  0.08231729  0.75000000  0.78669605  1.0
  Zn  Zn8  1  0.36285591  0.25000000  0.86400784  1.0
  Zn  Zn9  1  0.86285591  0.25000000  0.63599216  1.0
  Zn  Zn10  1  0.63714409  0.75000000  0.13599216  1.0
  Zn  Zn11  1  0.13714409  0.75000000  0.36400784  1.0
  Se  Se12  1  0.00540547  0.25000000  0.39845838  1.0
  Se  Se13  1  0.50540547  0.25000000  0.10154162  1.0
  Se  Se14  1  0.99459453  0.75000000  0.60154162  1.0
  Se  Se15  1  0.49459453  0.75000000  0.89845838  1.0
  Se  Se16  1  0.12647526  0.25000000  0.92894527  1.0
  Se  Se17  1  0.62647526  0.25000000  0.57105473  1.0
  Se  Se18  1  0.87352474  0.75000000  0.07105473  1.0
  Se  Se19  1  0.37352474  0.75000000  0.42894527  1.0
  Se  Se20  1  0.31928456  0.25000000  0.72619043  1.0
  Se  Se21  1  0.81928456  0.25000000  0.77380957  1.0
  Se  Se22  1  0.68071544  0.75000000  0.27380957  1.0
  Se  Se23  1  0.18071544  0.75000000  0.22619043  1.0
