# generated using pymatgen
data_Cs2SbF5
_symmetry_space_group_name_H-M   'P 1'
_cell_length_a   8.38304392
_cell_length_b   8.38304392
_cell_length_c   7.19784523
_cell_angle_alpha   90.00000000
_cell_angle_beta   90.00000000
_cell_angle_gamma   132.09684028
_symmetry_Int_Tables_number   1
_chemical_formula_structural   Cs2SbF5
_chemical_formula_sum   'Cs4 Sb2 F10'
_cell_volume   375.33355421
_cell_formula_units_Z   2
loop_
 _symmetry_equiv_pos_site_id
 _symmetry_equiv_pos_as_xyz
  1  'x, y, z'
loop_
 _atom_site_type_symbol
 _atom_site_label
 _atom_site_symmetry_multiplicity
 _atom_site_fract_x
 _atom_site_fract_y
 _atom_site_fract_z
 _atom_site_occupancy
  Cs  Cs0  1  -0.56606706  0.56606706  0.25000000  1.0
  Cs  Cs1  1  -0.43393294  1.43393294  0.75000000  1.0
  Cs  Cs2  1  -0.24516341  1.24516341  0.25000000  1.0
  Cs  Cs3  1  -0.75483659  0.75483659  0.75000000  1.0
  Sb  Sb4  1  -0.90333397  0.90333397  0.25000000  1.0
  Sb  Sb5  1  -0.09666603  1.09666603  0.75000000  1.0
  F  F6  1  -0.10399351  1.65975288  0.45451040  1.0
  F  F7  1  -0.10399351  1.65975288  0.04548960  1.0
  F  F8  1  -0.34024712  0.89600649  0.95451040  1.0
  F  F9  1  -0.34024712  0.89600649  0.54548960  1.0
  F  F10  1  -0.65975288  1.10399351  0.45451040  1.0
  F  F11  1  -0.65975288  1.10399351  0.04548960  1.0
  F  F12  1  0.10399351  1.34024712  0.95451040  1.0
  F  F13  1  0.10399351  1.34024712  0.54548960  1.0
  F  F14  1  -0.77273608  0.77273608  0.25000000  1.0
  F  F15  1  -0.22726392  1.22726392  0.75000000  1.0
