# generated using pymatgen
data_V3CdO7
_symmetry_space_group_name_H-M   'P 1'
_cell_length_a   10.74927166
_cell_length_b   10.31215963
_cell_length_c   5.31095459
_cell_angle_alpha   90.00000000
_cell_angle_beta   90.00000000
_cell_angle_gamma   90.00000000
_symmetry_Int_Tables_number   1
_chemical_formula_structural   V3CdO7
_chemical_formula_sum   'V12 Cd4 O28'
_cell_volume   588.70978464
_cell_formula_units_Z   4
loop_
 _symmetry_equiv_pos_site_id
 _symmetry_equiv_pos_as_xyz
  1  'x, y, z'
loop_
 _atom_site_type_symbol
 _atom_site_label
 _atom_site_symmetry_multiplicity
 _atom_site_fract_x
 _atom_site_fract_y
 _atom_site_fract_z
 _atom_site_occupancy
  V  V0  1  0.31172177  0.97465093  0.79417657  1.0
  V  V1  1  0.31172177  0.52534907  0.79417657  1.0
  V  V2  1  0.81172177  0.97465093  0.70582343  1.0
  V  V3  1  0.81172177  0.52534907  0.70582343  1.0
  V  V4  1  0.68827823  0.47465093  0.20582343  1.0
  V  V5  1  0.68827823  0.02534907  0.20582343  1.0
  V  V6  1  0.18827823  0.47465093  0.29417657  1.0
  V  V7  1  0.18827823  0.02534907  0.29417657  1.0
  V  V8  1  0.28158336  0.75000000  0.30214983  1.0
  V  V9  1  0.78158336  0.75000000  0.19785017  1.0
  V  V10  1  0.71841664  0.25000000  0.69785017  1.0
  V  V11  1  0.21841664  0.25000000  0.80214983  1.0
  Cd  Cd12  1  0.07513446  0.75000000  0.82015942  1.0
  Cd  Cd13  1  0.57513446  0.75000000  0.67984058  1.0
  Cd  Cd14  1  0.92486554  0.25000000  0.17984058  1.0
  Cd  Cd15  1  0.42486554  0.25000000  0.32015942  1.0
  O  O16  1  0.45399588  0.91997165  0.77894440  1.0
  O  O17  1  0.45399588  0.58002835  0.77894440  1.0
  O  O18  1  0.95399588  0.91997165  0.72105560  1.0
  O  O19  1  0.95399588  0.58002835  0.72105560  1.0
  O  O20  1  0.54600412  0.41997165  0.22105560  1.0
  O  O21  1  0.54600412  0.08002835  0.22105560  1.0
  O  O22  1  0.04600412  0.41997165  0.27894440  1.0
  O  O23  1  0.04600412  0.08002835  0.27894440  1.0
  O  O24  1  0.21943254  0.88117059  0.05867500  1.0
  O  O25  1  0.21943254  0.61882941  0.05867500  1.0
  O  O26  1  0.71943254  0.88117059  0.44132500  1.0
  O  O27  1  0.71943254  0.61882941  0.44132500  1.0
  O  O28  1  0.78056746  0.38117059  0.94132500  1.0
  O  O29  1  0.78056746  0.11882941  0.94132500  1.0
  O  O30  1  0.28056746  0.38117059  0.55867500  1.0
  O  O31  1  0.28056746  0.11882941  0.55867500  1.0
  O  O32  1  0.21731166  0.88223660  0.53443720  1.0
  O  O33  1  0.21731166  0.61776340  0.53443720  1.0
  O  O34  1  0.71731166  0.88223660  0.96556280  1.0
  O  O35  1  0.71731166  0.61776340  0.96556280  1.0
  O  O36  1  0.78268834  0.38223660  0.46556280  1.0
  O  O37  1  0.78268834  0.11776340  0.46556280  1.0
  O  O38  1  0.28268834  0.38223660  0.03443720  1.0
  O  O39  1  0.28268834  0.11776340  0.03443720  1.0
  O  O40  1  0.43240593  0.75000000  0.31619008  1.0
  O  O41  1  0.93240593  0.75000000  0.18380992  1.0
  O  O42  1  0.56759407  0.25000000  0.68380992  1.0
  O  O43  1  0.06759407  0.25000000  0.81619008  1.0
