# generated using pymatgen
data_Ca5B3O9F
_symmetry_space_group_name_H-M   'P 1'
_cell_length_a   9.07809084
_cell_length_b   9.07809084
_cell_length_c   3.56732783
_cell_angle_alpha   85.17651929
_cell_angle_beta   94.82348071
_cell_angle_gamma   53.58108286
_symmetry_Int_Tables_number   1
_chemical_formula_structural   Ca5B3O9F
_chemical_formula_sum   'Ca5 B3 O9 F1'
_cell_volume   232.41967362
_cell_formula_units_Z   1
loop_
 _symmetry_equiv_pos_site_id
 _symmetry_equiv_pos_as_xyz
  1  'x, y, z'
loop_
 _atom_site_type_symbol
 _atom_site_label
 _atom_site_symmetry_multiplicity
 _atom_site_fract_x
 _atom_site_fract_y
 _atom_site_fract_z
 _atom_site_occupancy
  Ca  Ca0  1  0.87573044  -0.23118551  0.05456972  1.0
  Ca  Ca1  1  0.23118551  0.12426956  0.05456972  1.0
  Ca  Ca2  1  1.31217015  -0.54860163  0.70996140  1.0
  Ca  Ca3  1  0.54860163  -0.31217015  0.70996140  1.0
  Ca  Ca4  1  0.82086008  -0.82086008  0.42248669  1.0
  B  B5  1  0.93317074  -0.54015325  0.46462683  1.0
  B  B6  1  0.54015325  0.06682926  0.46462683  1.0
  B  B7  1  0.17333818  -0.17333818  0.09401489  1.0
  O  O8  1  0.75487904  -0.40824478  0.26311894  1.0
  O  O9  1  0.40824478  0.24512096  0.26311894  1.0
  O  O10  1  1.02136180  -0.47622110  0.64715191  1.0
  O  O11  1  0.47622110  -0.02136180  0.64715191  1.0
  O  O12  1  1.18565429  -0.33381802  0.13762584  1.0
  O  O13  1  0.33381802  -0.18565429  0.13762584  1.0
  O  O14  1  1.01999336  -0.72847412  0.47987465  1.0
  O  O15  1  0.72847412  -0.01999336  0.47987465  1.0
  O  O16  1  0.00124789  -0.00124789  0.00826703  1.0
  F  F17  1  0.61409563  -0.61409563  0.80937280  1.0
