# generated using pymatgen
data_YB6(HO4)3
_symmetry_space_group_name_H-M   'P 1'
_cell_length_a   8.43366935
_cell_length_b   8.43366935
_cell_length_c   8.43366935
_cell_angle_alpha   60.64751143
_cell_angle_beta   60.64751143
_cell_angle_gamma   60.64751143
_symmetry_Int_Tables_number   1
_chemical_formula_structural   YB6(HO4)3
_chemical_formula_sum   'Y2 B12 H6 O24'
_cell_volume   430.36597189
_cell_formula_units_Z   2
loop_
 _symmetry_equiv_pos_site_id
 _symmetry_equiv_pos_as_xyz
  1  'x, y, z'
loop_
 _atom_site_type_symbol
 _atom_site_label
 _atom_site_symmetry_multiplicity
 _atom_site_fract_x
 _atom_site_fract_y
 _atom_site_fract_z
 _atom_site_occupancy
  Y  Y0  1  0.46473598  0.46473598  -0.53526402  1.0
  Y  Y1  1  0.96473598  -0.03526402  -0.03526402  1.0
  B  B2  1  0.36571592  0.58908290  -0.15768798  1.0
  B  B3  1  0.58908290  0.84231202  -0.63428408  1.0
  B  B4  1  0.84231202  0.36571592  -0.41091710  1.0
  B  B5  1  0.86571592  -0.65768798  0.08908290  1.0
  B  B6  1  0.34231202  0.08908290  -0.13428408  1.0
  B  B7  1  1.08908290  -0.13428408  -0.65768798  1.0
  B  B8  1  0.55214106  0.25438609  -0.16197879  1.0
  B  B9  1  0.25438609  0.83802121  -0.44785894  1.0
  B  B10  1  0.83802121  0.55214106  -0.74561391  1.0
  B  B11  1  0.05214106  0.33802121  -0.24561391  1.0
  B  B12  1  0.33802121  0.75438609  -0.94785894  1.0
  B  B13  1  0.75438609  0.05214106  -0.66197879  1.0
  H  H14  1  0.46902736  0.10681262  -0.52272759  1.0
  H  H15  1  0.10681262  0.47727241  -0.53097264  1.0
  H  H16  1  0.47727241  0.46902736  -0.89318738  1.0
  H  H17  1  0.96902736  -0.02272759  -0.39318738  1.0
  H  H18  1  0.97727241  -0.39318738  -0.03097264  1.0
  H  H19  1  0.60681262  -0.03097264  -0.02272759  1.0
  O  O20  1  0.80321794  0.40574229  -0.76092751  1.0
  O  O21  1  0.40574229  0.23907249  -0.19678206  1.0
  O  O22  1  0.23907249  0.80321794  -0.59425771  1.0
  O  O23  1  1.30321794  -0.26092751  -0.09425771  1.0
  O  O24  1  0.73907249  -0.09425771  0.30321794  1.0
  O  O25  1  0.90574229  0.30321794  -0.26092751  1.0
  O  O26  1  0.56726806  0.15721990  -0.55134667  1.0
  O  O27  1  0.15721990  0.44865333  -0.43273194  1.0
  O  O28  1  0.44865333  0.56726806  -0.84278010  1.0
  O  O29  1  1.06726806  -0.05134667  -0.34278010  1.0
  O  O30  1  0.94865333  -0.34278010  0.06726806  1.0
  O  O31  1  0.65721990  0.06726806  -0.05134667  1.0
  O  O32  1  0.68104611  0.32551484  -0.36397918  1.0
  O  O33  1  0.32551484  0.63602082  -0.31895389  1.0
  O  O34  1  0.63602082  0.68104611  -0.67448516  1.0
  O  O35  1  0.18104611  0.13602082  -0.17448516  1.0
  O  O36  1  0.13602082  0.82551484  -0.81895389  1.0
  O  O37  1  0.82551484  0.18104611  -0.86397918  1.0
  O  O38  1  0.46427034  0.40352565  -0.07067935  1.0
  O  O39  1  0.40352565  0.92932065  -0.53572966  1.0
  O  O40  1  0.92932065  0.46427034  -0.59647435  1.0
  O  O41  1  0.96427034  -0.57067935  -0.09647435  1.0
  O  O42  1  0.42932065  -0.09647435  -0.03572966  1.0
  O  O43  1  0.90352565  -0.03572966  -0.57067935  1.0
