# generated using pymatgen
data_Mn6Ni16As7
_symmetry_space_group_name_H-M   'P 1'
_cell_length_a   8.04383324
_cell_length_b   8.04383324
_cell_length_c   8.04383324
_cell_angle_alpha   60.00000000
_cell_angle_beta   60.00000000
_cell_angle_gamma   60.00000000
_symmetry_Int_Tables_number   1
_chemical_formula_structural   Mn6Ni16As7
_chemical_formula_sum   'Mn6 Ni16 As7'
_cell_volume   368.02233561
_cell_formula_units_Z   1
loop_
 _symmetry_equiv_pos_site_id
 _symmetry_equiv_pos_as_xyz
  1  'x, y, z'
loop_
 _atom_site_type_symbol
 _atom_site_label
 _atom_site_symmetry_multiplicity
 _atom_site_fract_x
 _atom_site_fract_y
 _atom_site_fract_z
 _atom_site_occupancy
  Mn  Mn0  1  -0.68785038  0.68785038  0.68785038  1.0
  Mn  Mn1  1  -0.31214962  0.31214962  0.68785038  1.0
  Mn  Mn2  1  0.68785038  0.68785038  -0.68785038  1.0
  Mn  Mn3  1  0.31214962  1.31214962  -0.31214962  1.0
  Mn  Mn4  1  0.31214962  -0.31214962  1.31214962  1.0
  Mn  Mn5  1  -0.31214962  0.31214962  0.31214962  1.0
  Ni  Ni6  1  0.88209257  0.88209257  -0.11790743  1.0
  Ni  Ni7  1  1.11790743  0.11790743  0.64627771  1.0
  Ni  Ni8  1  1.11790743  0.64627771  0.11790743  1.0
  Ni  Ni9  1  0.35372229  0.88209257  -0.11790743  1.0
  Ni  Ni10  1  1.64627771  0.11790743  0.11790743  1.0
  Ni  Ni11  1  0.88209257  0.35372229  -0.11790743  1.0
  Ni  Ni12  1  0.88209257  0.88209257  -0.64627771  1.0
  Ni  Ni13  1  1.11790743  0.11790743  0.11790743  1.0
  Ni  Ni14  1  0.66398613  0.66398613  -0.33601387  1.0
  Ni  Ni15  1  1.33601387  0.33601387  -0.00804162  1.0
  Ni  Ni16  1  1.33601387  -0.00804162  0.33601387  1.0
  Ni  Ni17  1  1.00804162  0.66398613  -0.33601387  1.0
  Ni  Ni18  1  0.99195838  0.33601387  0.33601387  1.0
  Ni  Ni19  1  0.66398613  1.00804162  -0.33601387  1.0
  Ni  Ni20  1  0.66398613  0.66398613  0.00804162  1.0
  Ni  Ni21  1  1.33601387  0.33601387  0.33601387  1.0
  As  As22  1  1.50000000  0.00000000  -0.00000000  1.0
  As  As23  1  1.00000000  0.50000000  -0.50000000  1.0
  As  As24  1  0.00000000  1.50000000  -0.00000000  1.0
  As  As25  1  0.50000000  1.00000000  -0.50000000  1.0
  As  As26  1  0.00000000  -0.00000000  0.50000000  1.0
  As  As27  1  0.50000000  -0.50000000  1.00000000  1.0
  As  As28  1  0.00000000  0.00000000  0.00000000  1.0
