# generated using pymatgen
data_BaFeO3
_symmetry_space_group_name_H-M   'P 1'
_cell_length_a   5.60349004
_cell_length_b   5.60349004
_cell_length_c   5.60349004
_cell_angle_alpha   59.99734617
_cell_angle_beta   59.99734617
_cell_angle_gamma   59.99734617
_symmetry_Int_Tables_number   1
_chemical_formula_structural   BaFeO3
_chemical_formula_sum   'Ba2 Fe2 O6'
_cell_volume   124.40409706
_cell_formula_units_Z   2
loop_
 _symmetry_equiv_pos_site_id
 _symmetry_equiv_pos_as_xyz
  1  'x, y, z'
loop_
 _atom_site_type_symbol
 _atom_site_label
 _atom_site_symmetry_multiplicity
 _atom_site_fract_x
 _atom_site_fract_y
 _atom_site_fract_z
 _atom_site_occupancy
  Ba  Ba0  1  0.71484112  -0.28515888  -0.28515888  1.0
  Ba  Ba1  1  0.21484112  0.21484112  0.21484112  1.0
  Fe  Fe2  1  -0.03514048  -0.03514048  -0.03514048  1.0
  Fe  Fe3  1  0.46485952  0.46485952  -0.53514048  1.0
  O  O4  1  0.71474752  -0.28515636  0.21480821  1.0
  O  O5  1  0.21474752  0.71480821  -0.78515636  1.0
  O  O6  1  0.71480821  0.21484364  -0.78525248  1.0
  O  O7  1  1.21480821  -0.28525248  -0.28515636  1.0
  O  O8  1  0.21484364  0.21474752  -0.28519179  1.0
  O  O9  1  0.71484364  0.21480821  -0.28525248  1.0
