# generated using pymatgen
data_CaHfO3
_symmetry_space_group_name_H-M   'P 1'
_cell_length_a   5.76441483
_cell_length_b   8.01863359
_cell_length_c   5.58902131
_cell_angle_alpha   90.00000000
_cell_angle_beta   90.00000000
_cell_angle_gamma   90.00000000
_symmetry_Int_Tables_number   1
_chemical_formula_structural   CaHfO3
_chemical_formula_sum   'Ca4 Hf4 O12'
_cell_volume   258.33982501
_cell_formula_units_Z   4
loop_
 _symmetry_equiv_pos_site_id
 _symmetry_equiv_pos_as_xyz
  1  'x, y, z'
loop_
 _atom_site_type_symbol
 _atom_site_label
 _atom_site_symmetry_multiplicity
 _atom_site_fract_x
 _atom_site_fract_y
 _atom_site_fract_z
 _atom_site_occupancy
  Ca  Ca0  1  0.04868680  0.75000000  0.51261217  1.0
  Ca  Ca1  1  0.54868680  0.75000000  0.98738783  1.0
  Ca  Ca2  1  0.95131320  0.25000000  0.48738783  1.0
  Ca  Ca3  1  0.45131320  0.25000000  0.01261217  1.0
  Hf  Hf4  1  0.50000000  0.00000000  0.50000000  1.0
  Hf  Hf5  1  0.50000000  0.50000000  0.50000000  1.0
  Hf  Hf6  1  0.00000000  0.00000000  0.00000000  1.0
  Hf  Hf7  1  0.00000000  0.50000000  0.00000000  1.0
  O  O8  1  0.29831330  0.94513221  0.80071072  1.0
  O  O9  1  0.29831330  0.55486779  0.80071072  1.0
  O  O10  1  0.79831330  0.94513221  0.69928928  1.0
  O  O11  1  0.79831330  0.55486779  0.69928928  1.0
  O  O12  1  0.70168670  0.44513221  0.19928928  1.0
  O  O13  1  0.70168670  0.05486779  0.19928928  1.0
  O  O14  1  0.20168670  0.44513221  0.30071072  1.0
  O  O15  1  0.20168670  0.05486779  0.30071072  1.0
  O  O16  1  0.96192865  0.75000000  0.10364473  1.0
  O  O17  1  0.46192865  0.75000000  0.39635527  1.0
  O  O18  1  0.03807135  0.25000000  0.89635527  1.0
  O  O19  1  0.53807135  0.25000000  0.60364473  1.0
