# generated using pymatgen
data_Hf13Pd4
_symmetry_space_group_name_H-M   'P 1'
_cell_length_a   11.22393145
_cell_length_b   11.22393145
_cell_length_c   11.22393145
_cell_angle_alpha   60.00000000
_cell_angle_beta   60.00000000
_cell_angle_gamma   60.00000000
_symmetry_Int_Tables_number   1
_chemical_formula_structural   Hf13Pd4
_chemical_formula_sum   'Hf26 Pd8'
_cell_volume   999.81585369
_cell_formula_units_Z   2
loop_
 _symmetry_equiv_pos_site_id
 _symmetry_equiv_pos_as_xyz
  1  'x, y, z'
loop_
 _atom_site_type_symbol
 _atom_site_label
 _atom_site_symmetry_multiplicity
 _atom_site_fract_x
 _atom_site_fract_y
 _atom_site_fract_z
 _atom_site_occupancy
  Hf  Hf0  1  0.94840680  -0.58169803  0.68488442  1.0
  Hf  Hf1  1  -0.05159320  0.68488442  0.41830197  1.0
  Hf  Hf2  1  -0.16830197  0.30159320  0.30159320  1.0
  Hf  Hf3  1  0.56511558  0.30159320  0.30159320  1.0
  Hf  Hf4  1  -0.58169803  0.94840680  0.68488442  1.0
  Hf  Hf5  1  0.94840680  -0.05159320  0.68488442  1.0
  Hf  Hf6  1  0.94840680  -0.31511558  0.94840680  1.0
  Hf  Hf7  1  -0.58169803  0.68488442  0.94840680  1.0
  Hf  Hf8  1  0.30159320  -0.16830197  0.30159320  1.0
  Hf  Hf9  1  0.30159320  0.30159320  -0.16830197  1.0
  Hf  Hf10  1  0.56511558  0.30159320  -0.16830197  1.0
  Hf  Hf11  1  0.56511558  -0.16830197  0.30159320  1.0
  Hf  Hf12  1  0.68488442  -0.05159320  0.94840680  1.0
  Hf  Hf13  1  -0.58169803  0.94840680  0.94840680  1.0
  Hf  Hf14  1  0.30159320  0.56511558  -0.16830197  1.0
  Hf  Hf15  1  0.30159320  -0.16830197  0.56511558  1.0
  Hf  Hf16  1  -0.31511558  0.94840680  0.41830197  1.0
  Hf  Hf17  1  0.68488442  -0.58169803  0.94840680  1.0
  Hf  Hf18  1  0.94840680  -0.58169803  0.94840680  1.0
  Hf  Hf19  1  -0.05159320  0.94840680  0.41830197  1.0
  Hf  Hf20  1  0.30159320  0.56511558  0.30159320  1.0
  Hf  Hf21  1  -0.16830197  0.56511558  0.30159320  1.0
  Hf  Hf22  1  -0.16830197  0.30159320  0.56511558  1.0
  Hf  Hf23  1  0.30159320  0.30159320  0.56511558  1.0
  Hf  Hf24  1  0.50000000  0.50000000  -0.50000000  1.0
  Hf  Hf25  1  0.75000000  -0.25000000  0.75000000  1.0
  Pd  Pd26  1  0.66617075  -0.33382925  1.00148775  1.0
  Pd  Pd27  1  0.66617075  0.00148775  0.66617075  1.0
  Pd  Pd28  1  0.58382925  -0.41617075  0.58382925  1.0
  Pd  Pd29  1  1.24851225  -0.41617075  0.58382925  1.0
  Pd  Pd30  1  1.00148775  -0.33382925  0.66617075  1.0
  Pd  Pd31  1  0.66617075  -0.33382925  0.66617075  1.0
  Pd  Pd32  1  0.58382925  0.24851225  0.58382925  1.0
  Pd  Pd33  1  0.58382925  -0.41617075  1.24851225  1.0
