# generated using pymatgen
data_H2O
_symmetry_space_group_name_H-M   'P 1'
_cell_length_a   4.20899606
_cell_length_b   4.20899606
_cell_length_c   6.65006449
_cell_angle_alpha   90.00000000
_cell_angle_beta   90.00000000
_cell_angle_gamma   117.01447203
_symmetry_Int_Tables_number   1
_chemical_formula_structural   H2O
_chemical_formula_sum   'H8 O4'
_cell_volume   104.95614448
_cell_formula_units_Z   4
loop_
 _symmetry_equiv_pos_site_id
 _symmetry_equiv_pos_as_xyz
  1  'x, y, z'
loop_
 _atom_site_type_symbol
 _atom_site_label
 _atom_site_symmetry_multiplicity
 _atom_site_fract_x
 _atom_site_fract_y
 _atom_site_fract_z
 _atom_site_occupancy
  H  H0  1  -0.03502410  0.41489790  0.48015993  1.0
  H  H1  1  0.41489790  0.96497590  0.51984007  1.0
  H  H2  1  0.58510210  1.03502410  0.01984007  1.0
  H  H3  1  0.03502410  0.58510210  -0.01984007  1.0
  H  H4  1  0.15778771  0.84221229  0.75000000  1.0
  H  H5  1  -0.15778771  0.15778771  0.25000000  1.0
  H  H6  1  1.00956202  1.00956202  0.50000000  1.0
  H  H7  1  -0.00956202  -0.00956202  -0.00000000  1.0
  O  O8  1  0.16131577  0.84608608  0.56708599  1.0
  O  O9  1  0.84608608  1.16131577  0.43291401  1.0
  O  O10  1  0.15391392  0.83868423  0.93291401  1.0
  O  O11  1  -0.16131577  0.15391392  0.06708599  1.0
