# generated using pymatgen
data_Gd3In5S12
_symmetry_space_group_name_H-M   'P 1'
_cell_length_a   11.03894461
_cell_length_b   3.94055843
_cell_length_c   21.54907613
_cell_angle_alpha   90.00000000
_cell_angle_beta   95.80883131
_cell_angle_gamma   90.00000000
_symmetry_Int_Tables_number   1
_chemical_formula_structural   Gd3In5S12
_chemical_formula_sum   'Gd6 In10 S24'
_cell_volume   932.56301136
_cell_formula_units_Z   2
loop_
 _symmetry_equiv_pos_site_id
 _symmetry_equiv_pos_as_xyz
  1  'x, y, z'
loop_
 _atom_site_type_symbol
 _atom_site_label
 _atom_site_symmetry_multiplicity
 _atom_site_fract_x
 _atom_site_fract_y
 _atom_site_fract_z
 _atom_site_occupancy
  Gd  Gd0  1  0.78615227  0.25000000  0.78543484  1.0
  Gd  Gd1  1  0.21384773  0.75000000  0.21456516  1.0
  Gd  Gd2  1  0.58514143  0.25000000  0.26495676  1.0
  Gd  Gd3  1  0.41485857  0.75000000  0.73504324  1.0
  Gd  Gd4  1  0.47084403  0.25000000  0.08793763  1.0
  Gd  Gd5  1  0.52915597  0.75000000  0.91206237  1.0
  In  In6  1  0.95448122  0.25000000  0.32489897  1.0
  In  In7  1  0.04551878  0.75000000  0.67510103  1.0
  In  In8  1  0.84984843  0.25000000  0.97292848  1.0
  In  In9  1  0.15015157  0.75000000  0.02707152  1.0
  In  In10  1  0.66829486  0.25000000  0.61348244  1.0
  In  In11  1  0.33170514  0.75000000  0.38651756  1.0
  In  In12  1  0.26190034  0.25000000  0.55972130  1.0
  In  In13  1  0.73809966  0.75000000  0.44027870  1.0
  In  In14  1  0.14911962  0.25000000  0.83312846  1.0
  In  In15  1  0.85088038  0.75000000  0.16687154  1.0
  S  S16  1  0.89303493  0.25000000  0.65975858  1.0
  S  S17  1  0.10696507  0.75000000  0.34024142  1.0
  S  S18  1  0.87799784  0.25000000  0.43687341  1.0
  S  S19  1  0.12200216  0.75000000  0.56312659  1.0
  S  S20  1  0.70172427  0.25000000  0.15088845  1.0
  S  S21  1  0.29827573  0.75000000  0.84911155  1.0
  S  S22  1  0.62430143  0.25000000  0.99110919  1.0
  S  S23  1  0.37569857  0.75000000  0.00889081  1.0
  S  S24  1  0.53572058  0.25000000  0.81586782  1.0
  S  S25  1  0.46427942  0.75000000  0.18413218  1.0
  S  S26  1  0.44168524  0.25000000  0.64109893  1.0
  S  S27  1  0.55831476  0.75000000  0.35890107  1.0
  S  S28  1  0.36517060  0.25000000  0.46208929  1.0
  S  S29  1  0.63482940  0.75000000  0.53791071  1.0
  S  S30  1  0.33497298  0.25000000  0.28938221  1.0
  S  S31  1  0.66502702  0.75000000  0.71061779  1.0
  S  S32  1  0.22093430  0.25000000  0.11239700  1.0
  S  S33  1  0.77906570  0.75000000  0.88760300  1.0
  S  S34  1  0.20947965  0.25000000  0.71747132  1.0
  S  S35  1  0.79052035  0.75000000  0.28252868  1.0
  S  S36  1  0.07905421  0.25000000  0.94781887  1.0
  S  S37  1  0.92094579  0.75000000  0.05218113  1.0
  S  S38  1  0.01285993  0.25000000  0.20967552  1.0
  S  S39  1  0.98714007  0.75000000  0.79032448  1.0
