# generated using pymatgen
data_Cr2(Fe7C2)3
_symmetry_space_group_name_H-M   'P 1'
_cell_length_a   7.38131259
_cell_length_b   7.38131259
_cell_length_c   7.38131259
_cell_angle_alpha   60.00000000
_cell_angle_beta   60.00000000
_cell_angle_gamma   60.00000000
_symmetry_Int_Tables_number   1
_chemical_formula_structural   Cr2(Fe7C2)3
_chemical_formula_sum   'Cr2 Fe21 C6'
_cell_volume   284.37132094
_cell_formula_units_Z   1
loop_
 _symmetry_equiv_pos_site_id
 _symmetry_equiv_pos_as_xyz
  1  'x, y, z'
loop_
 _atom_site_type_symbol
 _atom_site_label
 _atom_site_symmetry_multiplicity
 _atom_site_fract_x
 _atom_site_fract_y
 _atom_site_fract_z
 _atom_site_occupancy
  Cr  Cr0  1  0.75000000  0.75000000  -0.25000000  1.0
  Cr  Cr1  1  1.25000000  0.25000000  0.25000000  1.0
  Fe  Fe2  1  0.00000000  0.00000000  0.00000000  1.0
  Fe  Fe3  1  -0.00000000  0.00000000  0.33988761  1.0
  Fe  Fe4  1  0.66011239  1.00000000  -0.66011239  1.0
  Fe  Fe5  1  1.00000000  0.66011239  -0.66011239  1.0
  Fe  Fe6  1  0.66011239  -0.66011239  1.00000000  1.0
  Fe  Fe7  1  -0.00000000  1.33988761  0.00000000  1.0
  Fe  Fe8  1  1.00000000  0.33988761  -0.33988761  1.0
  Fe  Fe9  1  0.33988761  -0.33988761  1.00000000  1.0
  Fe  Fe10  1  0.33988761  1.00000000  -0.33988761  1.0
  Fe  Fe11  1  1.33988761  -0.00000000  0.00000000  1.0
  Fe  Fe12  1  0.00000000  -0.00000000  0.66011239  1.0
  Fe  Fe13  1  0.00000000  1.66011239  -0.00000000  1.0
  Fe  Fe14  1  1.66011239  0.00000000  -0.00000000  1.0
  Fe  Fe15  1  0.61662957  0.61662957  1.15011129  1.0
  Fe  Fe16  1  0.61662957  1.15011129  -0.38337043  1.0
  Fe  Fe17  1  1.15011129  0.61662957  0.61662957  1.0
  Fe  Fe18  1  0.61662957  0.61662957  -0.38337043  1.0
  Fe  Fe19  1  0.38337043  1.38337043  -0.15011129  1.0
  Fe  Fe20  1  1.38337043  -0.15011129  0.38337043  1.0
  Fe  Fe21  1  -0.15011129  1.38337043  0.38337043  1.0
  Fe  Fe22  1  1.38337043  0.38337043  0.38337043  1.0
  C  C23  1  0.72287461  0.72287461  -0.72287461  1.0
  C  C24  1  0.27712539  -0.27712539  1.27712539  1.0
  C  C25  1  -0.27712539  0.27712539  0.27712539  1.0
  C  C26  1  0.27712539  1.27712539  -0.27712539  1.0
  C  C27  1  -0.27712539  0.27712539  0.72287461  1.0
  C  C28  1  -0.72287461  0.72287461  0.72287461  1.0
