# generated using pymatgen
data_Lu2Cu2O5
_symmetry_space_group_name_H-M   'P 1'
_cell_length_a   10.82709059
_cell_length_b   3.44823627
_cell_length_c   12.46679549
_cell_angle_alpha   90.00000000
_cell_angle_beta   90.00000000
_cell_angle_gamma   90.00000000
_symmetry_Int_Tables_number   1
_chemical_formula_structural   Lu2Cu2O5
_chemical_formula_sum   'Lu8 Cu8 O20'
_cell_volume   465.43991172
_cell_formula_units_Z   4
loop_
 _symmetry_equiv_pos_site_id
 _symmetry_equiv_pos_as_xyz
  1  'x, y, z'
loop_
 _atom_site_type_symbol
 _atom_site_label
 _atom_site_symmetry_multiplicity
 _atom_site_fract_x
 _atom_site_fract_y
 _atom_site_fract_z
 _atom_site_occupancy
  O  O0  1  0.42274786  0.22818947  0.40654548  1.0
  O  O1  1  0.92274786  0.27181053  0.40654548  1.0
  O  O2  1  0.57725214  0.77181053  0.90654548  1.0
  O  O3  1  0.07725214  0.72818947  0.90654548  1.0
  O  O4  1  0.17294878  0.72472748  0.29429369  1.0
  O  O5  1  0.67294878  0.77527252  0.29429369  1.0
  O  O6  1  0.82705122  0.27527252  0.79429369  1.0
  O  O7  1  0.32705122  0.22472748  0.79429369  1.0
  O  O8  1  0.37526895  0.83563882  0.60060626  1.0
  O  O9  1  0.87526895  0.66436118  0.60060626  1.0
  O  O10  1  0.62473105  0.16436118  0.10060626  1.0
  O  O11  1  0.12473105  0.33563882  0.10060626  1.0
  O  O12  1  0.32081120  0.71995837  0.00182857  1.0
  O  O13  1  0.82081120  0.78004163  0.00182857  1.0
  O  O14  1  0.67918880  0.28004163  0.50182857  1.0
  O  O15  1  0.17918880  0.21995837  0.50182857  1.0
  O  O16  1  0.42973287  0.77491278  0.19871366  1.0
  O  O17  1  0.92973287  0.72508722  0.19871366  1.0
  O  O18  1  0.57026713  0.22508722  0.69871366  1.0
  O  O19  1  0.07026713  0.27491278  0.69871366  1.0
  Cu  Cu20  1  0.26183835  0.65571550  0.15410307  1.0
  Cu  Cu21  1  0.76183835  0.84428450  0.15410307  1.0
  Cu  Cu22  1  0.73816165  0.34428450  0.65410307  1.0
  Cu  Cu23  1  0.23816165  0.15571550  0.65410307  1.0
  Cu  Cu24  1  0.48861363  0.83987504  0.04684015  1.0
  Cu  Cu25  1  0.98861363  0.66012496  0.04684015  1.0
  Cu  Cu26  1  0.51138637  0.16012496  0.54684015  1.0
  Cu  Cu27  1  0.01138637  0.33987504  0.54684015  1.0
  Lu  Lu28  1  0.29210127  0.72129324  0.43681605  1.0
  Lu  Lu29  1  0.79210127  0.77870676  0.43681605  1.0
  Lu  Lu30  1  0.70789873  0.27870676  0.93681605  1.0
  Lu  Lu31  1  0.20789873  0.22129324  0.93681605  1.0
  Lu  Lu32  1  0.45767636  0.72248256  0.76455307  1.0
  Lu  Lu33  1  0.95767636  0.77751744  0.76455307  1.0
  Lu  Lu34  1  0.54232364  0.27751744  0.26455307  1.0
  Lu  Lu35  1  0.04232364  0.22248256  0.26455307  1.0
