# generated using pymatgen
data_Be(PN2)2
_symmetry_space_group_name_H-M   'P 1'
_cell_length_a   7.90176371
_cell_length_b   7.90176371
_cell_length_c   7.90176371
_cell_angle_alpha   108.14968231
_cell_angle_beta   108.14968231
_cell_angle_gamma   108.14968231
_symmetry_Int_Tables_number   1
_chemical_formula_structural   Be(PN2)2
_chemical_formula_sum   'Be6 P12 N24'
_cell_volume   397.29276521
_cell_formula_units_Z   6
loop_
 _symmetry_equiv_pos_site_id
 _symmetry_equiv_pos_as_xyz
  1  'x, y, z'
loop_
 _atom_site_type_symbol
 _atom_site_label
 _atom_site_symmetry_multiplicity
 _atom_site_fract_x
 _atom_site_fract_y
 _atom_site_fract_z
 _atom_site_occupancy
  Be  Be0  1  1.55674493  0.73193913  -0.03814363  1.0
  Be  Be1  1  0.26806087  1.03814363  -0.55674493  1.0
  Be  Be2  1  1.03814363  0.44325507  -0.73193913  1.0
  Be  Be3  1  0.44325507  0.26806087  0.03814363  1.0
  Be  Be4  1  1.73193913  -0.03814363  0.55674493  1.0
  Be  Be5  1  0.96185637  0.55674493  0.73193913  1.0
  P  P6  1  1.37001297  0.77704700  -0.39857013  1.0
  P  P7  1  1.22295300  0.39857013  -0.37001297  1.0
  P  P8  1  1.39857013  -0.37001297  0.22295300  1.0
  P  P9  1  0.62998703  0.22295300  0.39857013  1.0
  P  P10  1  0.77704700  0.60142987  0.37001297  1.0
  P  P11  1  0.60142987  1.37001297  -0.22295300  1.0
  P  P12  1  0.70759939  1.11328514  -0.06926626  1.0
  P  P13  1  0.88671486  0.06926626  0.29240061  1.0
  P  P14  1  1.06926626  0.29240061  -0.11328514  1.0
  P  P15  1  1.29240061  -0.11328514  0.06926626  1.0
  P  P16  1  1.11328514  0.93073374  -0.29240061  1.0
  P  P17  1  0.93073374  0.70759939  0.11328514  1.0
  N  N18  1  1.45721494  0.48112716  -0.21241832  1.0
  N  N19  1  0.51887284  1.21241832  -0.45721494  1.0
  N  N20  1  1.21241832  0.54278506  -0.48112716  1.0
  N  N21  1  0.54278506  0.51887284  0.21241832  1.0
  N  N22  1  1.48112716  -0.21241832  0.45721494  1.0
  N  N23  1  0.78758168  0.45721494  0.48112716  1.0
  N  N24  1  1.58660326  0.24848478  -0.08735496  1.0
  N  N25  1  0.75151522  1.08735496  -0.58660326  1.0
  N  N26  1  1.08735496  0.41339674  -0.24848478  1.0
  N  N27  1  0.41339674  0.75151522  0.08735496  1.0
  N  N28  1  1.24848478  -0.08735496  0.58660326  1.0
  N  N29  1  0.91264504  0.58660326  0.24848478  1.0
  N  N30  1  1.54732010  0.87482803  -0.16762180  1.0
  N  N31  1  1.12517197  0.16762180  -0.54732010  1.0
  N  N32  1  1.16762180  -0.54732010  0.12517197  1.0
  N  N33  1  0.45267990  0.12517197  0.16762180  1.0
  N  N34  1  0.87482803  0.83237820  0.54732010  1.0
  N  N35  1  0.83237820  1.54732010  -0.12517197  1.0
  N  N36  1  0.80259943  0.83533541  0.13606837  1.0
  N  N37  1  1.16466459  -0.13606837  0.19740057  1.0
  N  N38  1  0.86393163  0.19740057  0.16466459  1.0
  N  N39  1  1.19740057  0.16466459  -0.13606837  1.0
  N  N40  1  0.83533541  1.13606837  -0.19740057  1.0
  N  N41  1  1.13606837  0.80259943  -0.16466459  1.0
