# generated using pymatgen
data_Na(CoO2)2
_symmetry_space_group_name_H-M   'P 1'
_cell_length_a   5.65584300
_cell_length_b   11.21058881
_cell_length_c   4.89758390
_cell_angle_alpha   90.00000000
_cell_angle_beta   90.00000000
_cell_angle_gamma   90.00000000
_symmetry_Int_Tables_number   1
_chemical_formula_structural   Na(CoO2)2
_chemical_formula_sum   'Na4 Co8 O16'
_cell_volume   310.53292467
_cell_formula_units_Z   4
loop_
 _symmetry_equiv_pos_site_id
 _symmetry_equiv_pos_as_xyz
  1  'x, y, z'
loop_
 _atom_site_type_symbol
 _atom_site_label
 _atom_site_symmetry_multiplicity
 _atom_site_fract_x
 _atom_site_fract_y
 _atom_site_fract_z
 _atom_site_occupancy
  Na  Na0  1  0.50000000  0.00000000  0.03357588  1.0
  Na  Na1  1  0.00000000  0.50000000  0.96642412  1.0
  Na  Na2  1  0.00000000  0.00000000  0.64308693  1.0
  Na  Na3  1  0.50000000  0.50000000  0.35691307  1.0
  Co  Co4  1  0.50000000  0.25316260  -0.00244654  1.0
  Co  Co5  1  0.50000000  0.74683740  -0.00244654  1.0
  Co  Co6  1  0.00000000  0.24683740  0.00244654  1.0
  Co  Co7  1  0.00000000  0.75316260  0.00244654  1.0
  Co  Co8  1  0.25000000  0.25000000  0.50000000  1.0
  Co  Co9  1  0.25000000  0.75000000  0.50000000  1.0
  Co  Co10  1  0.75000000  0.25000000  0.50000000  1.0
  Co  Co11  1  0.75000000  0.75000000  0.50000000  1.0
  O  O12  1  0.50000000  0.33633760  0.66325013  1.0
  O  O13  1  0.50000000  0.66366240  0.66325013  1.0
  O  O14  1  0.00000000  0.16366240  0.33674987  1.0
  O  O15  1  0.00000000  0.83633760  0.33674987  1.0
  O  O16  1  0.00000000  0.33311318  0.67119201  1.0
  O  O17  1  0.00000000  0.66688682  0.67119201  1.0
  O  O18  1  0.50000000  0.16688682  0.32880799  1.0
  O  O19  1  0.50000000  0.83311318  0.32880799  1.0
  O  O20  1  0.24877409  0.33771318  0.16604039  1.0
  O  O21  1  0.24877409  0.66228682  0.16604039  1.0
  O  O22  1  0.75122591  0.33771318  0.16604039  1.0
  O  O23  1  0.75122591  0.66228682  0.16604039  1.0
  O  O24  1  0.25122591  0.16228682  0.83395961  1.0
  O  O25  1  0.25122591  0.83771318  0.83395961  1.0
  O  O26  1  0.74877409  0.16228682  0.83395961  1.0
  O  O27  1  0.74877409  0.83771318  0.83395961  1.0
