# generated using pymatgen
data_AlP(H2O3)2
_symmetry_space_group_name_H-M   'P 1'
_cell_length_a   5.18016361
_cell_length_b   9.82319348
_cell_length_c   9.80015755
_cell_angle_alpha   90.00000000
_cell_angle_beta   120.45420224
_cell_angle_gamma   90.00000000
_symmetry_Int_Tables_number   1
_chemical_formula_structural   AlP(H2O3)2
_chemical_formula_sum   'Al4 P4 H16 O24'
_cell_volume   429.88660796
_cell_formula_units_Z   4
loop_
 _symmetry_equiv_pos_site_id
 _symmetry_equiv_pos_as_xyz
  1  'x, y, z'
loop_
 _atom_site_type_symbol
 _atom_site_label
 _atom_site_symmetry_multiplicity
 _atom_site_fract_x
 _atom_site_fract_y
 _atom_site_fract_z
 _atom_site_occupancy
  Al  Al0  1  0.88034571  0.82650144  0.28856760  1.0
  Al  Al1  1  0.88034571  0.67349856  0.78856760  1.0
  Al  Al2  1  0.11965429  0.32650144  0.21143240  1.0
  Al  Al3  1  0.11965429  0.17349856  0.71143240  1.0
  P  P4  1  0.73383904  0.14371329  0.32591273  1.0
  P  P5  1  0.73383904  0.35628671  0.82591273  1.0
  P  P6  1  0.26616096  0.64371329  0.17408727  1.0
  P  P7  1  0.26616096  0.85628671  0.67408727  1.0
  H  H8  1  0.63101977  0.43822315  0.19736243  1.0
  H  H9  1  0.63101977  0.06177685  0.69736243  1.0
  H  H10  1  0.36898023  0.93822315  0.30263757  1.0
  H  H11  1  0.36898023  0.56177685  0.80263757  1.0
  H  H12  1  0.33210823  0.33844754  0.51455104  1.0
  H  H13  1  0.33210823  0.16155246  1.01455104  1.0
  H  H14  1  0.66789177  0.83844754  -0.01455104  1.0
  H  H15  1  0.66789177  0.66155246  0.48544896  1.0
  H  H16  1  0.58846846  0.31393337  0.47455020  1.0
  H  H17  1  0.58846846  0.18606663  0.97455020  1.0
  H  H18  1  0.41153154  0.81393337  0.02544980  1.0
  H  H19  1  0.41153154  0.68606663  0.52544980  1.0
  H  H20  1  0.90818472  0.95957949  0.74433204  1.0
  H  H21  1  0.90818472  0.54042051  0.24433204  1.0
  H  H22  1  0.09181528  0.45957949  0.75566796  1.0
  H  H23  1  0.09181528  0.04042051  0.25566796  1.0
  O  O24  1  0.93875053  0.17667991  0.25637923  1.0
  O  O25  1  0.93875053  0.32332009  0.75637923  1.0
  O  O26  1  0.06124947  0.67667991  0.24362077  1.0
  O  O27  1  0.06124947  0.82332009  0.74362077  1.0
  O  O28  1  0.86233383  0.20721783  0.49341626  1.0
  O  O29  1  0.86233383  0.29278217  0.99341626  1.0
  O  O30  1  0.13766617  0.70721783  0.00658374  1.0
  O  O31  1  0.13766617  0.79278217  0.50658374  1.0
  O  O32  1  0.84829102  0.44168937  0.23401249  1.0
  O  O33  1  0.84829102  0.05831063  0.73401249  1.0
  O  O34  1  0.15170898  0.94168937  0.26598751  1.0
  O  O35  1  0.15170898  0.55831063  0.76598751  1.0
  O  O36  1  0.71009768  0.98588505  0.33064859  1.0
  O  O37  1  0.71009768  0.51411495  0.83064859  1.0
  O  O38  1  0.28990232  0.48588505  0.16935141  1.0
  O  O39  1  0.28990232  0.01411495  0.66935141  1.0
  O  O40  1  0.41837887  0.20732747  0.21578720  1.0
  O  O41  1  0.41837887  0.29267253  0.71578720  1.0
  O  O42  1  0.58162113  0.70732747  0.28421280  1.0
  O  O43  1  0.58162113  0.79267253  0.78421280  1.0
  O  O44  1  0.38843212  0.35717453  0.43396019  1.0
  O  O45  1  0.38843212  0.14282547  0.93396019  1.0
  O  O46  1  0.61156788  0.85717453  0.06603981  1.0
  O  O47  1  0.61156788  0.64282547  0.56603981  1.0
