# generated using pymatgen
data_Na2H2CO4
_symmetry_space_group_name_H-M   'P 1'
_cell_length_a   10.82624497
_cell_length_b   5.32500911
_cell_length_c   6.52591291
_cell_angle_alpha   90.00000000
_cell_angle_beta   90.00000000
_cell_angle_gamma   90.00000000
_symmetry_Int_Tables_number   1
_chemical_formula_structural   Na2H2CO4
_chemical_formula_sum   'Na8 H8 C4 O16'
_cell_volume   376.21792036
_cell_formula_units_Z   4
loop_
 _symmetry_equiv_pos_site_id
 _symmetry_equiv_pos_as_xyz
  1  'x, y, z'
loop_
 _atom_site_type_symbol
 _atom_site_label
 _atom_site_symmetry_multiplicity
 _atom_site_fract_x
 _atom_site_fract_y
 _atom_site_fract_z
 _atom_site_occupancy
  Na  Na0  1  0.49864259  0.13351224  0.73183835  1.0
  Na  Na1  1  0.99864259  0.86648776  0.73183835  1.0
  Na  Na2  1  0.50135741  0.86648776  0.23183835  1.0
  Na  Na3  1  0.00135741  0.13351224  0.23183835  1.0
  Na  Na4  1  0.30844805  0.64472372  0.80254220  1.0
  Na  Na5  1  0.80844805  0.35527628  0.80254220  1.0
  Na  Na6  1  0.69155195  0.35527628  0.30254220  1.0
  Na  Na7  1  0.19155195  0.64472372  0.30254220  1.0
  H  H8  1  0.09101543  0.39442201  0.88011388  1.0
  H  H9  1  0.59101543  0.60557799  0.88011388  1.0
  H  H10  1  0.90898457  0.60557799  0.38011388  1.0
  H  H11  1  0.40898457  0.39442201  0.38011388  1.0
  H  H12  1  0.06462692  0.32113043  0.65317732  1.0
  H  H13  1  0.56462692  0.67886957  0.65317732  1.0
  H  H14  1  0.93537308  0.67886957  0.15317732  1.0
  H  H15  1  0.43537308  0.32113043  0.15317732  1.0
  C  C16  1  0.25344718  0.11234761  0.51518203  1.0
  C  C17  1  0.75344718  0.88765239  0.51518203  1.0
  C  C18  1  0.74655282  0.88765239  0.01518203  1.0
  C  C19  1  0.24655282  0.11234761  0.01518203  1.0
  O  O20  1  0.29214685  0.34261013  0.53523929  1.0
  O  O21  1  0.79214685  0.65738987  0.53523929  1.0
  O  O22  1  0.70785315  0.65738987  0.03523929  1.0
  O  O23  1  0.20785315  0.34261013  0.03523929  1.0
  O  O24  1  0.13498929  0.06821438  0.50605046  1.0
  O  O25  1  0.63498929  0.93178562  0.50605046  1.0
  O  O26  1  0.86501071  0.93178562  0.00605046  1.0
  O  O27  1  0.36501071  0.06821438  0.00605046  1.0
  O  O28  1  0.02939142  0.42367353  0.76653401  1.0
  O  O29  1  0.52939142  0.57632647  0.76653401  1.0
  O  O30  1  0.97060858  0.57632647  0.26653401  1.0
  O  O31  1  0.47060858  0.42367353  0.26653401  1.0
  O  O32  1  0.83130531  0.07144025  0.50432246  1.0
  O  O33  1  0.33130531  0.92855975  0.50432246  1.0
  O  O34  1  0.16869469  0.92855975  0.00432246  1.0
  O  O35  1  0.66869469  0.07144025  0.00432246  1.0
