# generated using pymatgen
data_Na5Cu(HO2)2
_symmetry_space_group_name_H-M   'P 1'
_cell_length_a   6.11842763
_cell_length_b   8.92680306
_cell_length_c   12.09496654
_cell_angle_alpha   90.00000000
_cell_angle_beta   90.00000000
_cell_angle_gamma   90.00000000
_symmetry_Int_Tables_number   1
_chemical_formula_structural   Na5Cu(HO2)2
_chemical_formula_sum   'Na20 Cu4 H8 O16'
_cell_volume   660.60286446
_cell_formula_units_Z   4
loop_
 _symmetry_equiv_pos_site_id
 _symmetry_equiv_pos_as_xyz
  1  'x, y, z'
loop_
 _atom_site_type_symbol
 _atom_site_label
 _atom_site_symmetry_multiplicity
 _atom_site_fract_x
 _atom_site_fract_y
 _atom_site_fract_z
 _atom_site_occupancy
  Na  Na0  1  0.25507773  0.99454458  0.86101910  1.0
  Na  Na1  1  0.25507773  0.50545542  0.86101910  1.0
  Na  Na2  1  0.75507773  0.99454458  0.63898090  1.0
  Na  Na3  1  0.75507773  0.50545542  0.63898090  1.0
  Na  Na4  1  0.74492227  0.49454458  0.13898090  1.0
  Na  Na5  1  0.74492227  0.00545542  0.13898090  1.0
  Na  Na6  1  0.24492227  0.49454458  0.36101910  1.0
  Na  Na7  1  0.24492227  0.00545542  0.36101910  1.0
  Na  Na8  1  0.44473832  0.75000000  0.54226630  1.0
  Na  Na9  1  0.94473832  0.75000000  0.95773370  1.0
  Na  Na10  1  0.55526168  0.25000000  0.45773370  1.0
  Na  Na11  1  0.05526168  0.25000000  0.04226630  1.0
  Na  Na12  1  0.08432657  0.75000000  0.72676907  1.0
  Na  Na13  1  0.58432657  0.75000000  0.77323093  1.0
  Na  Na14  1  0.91567343  0.25000000  0.27323093  1.0
  Na  Na15  1  0.41567343  0.25000000  0.22676907  1.0
  Na  Na16  1  0.06814279  0.75000000  0.20605399  1.0
  Na  Na17  1  0.56814279  0.75000000  0.29394601  1.0
  Na  Na18  1  0.93185721  0.25000000  0.79394601  1.0
  Na  Na19  1  0.43185721  0.25000000  0.70605399  1.0
  Cu  Cu20  1  0.49729104  0.75000000  0.02442816  1.0
  Cu  Cu21  1  0.99729104  0.75000000  0.47557184  1.0
  Cu  Cu22  1  0.50270896  0.25000000  0.97557184  1.0
  Cu  Cu23  1  0.00270896  0.25000000  0.52442816  1.0
  H  H24  1  0.26195017  0.99625247  0.62278614  1.0
  H  H25  1  0.26195017  0.50374753  0.62278614  1.0
  H  H26  1  0.76195017  0.99625247  0.87721386  1.0
  H  H27  1  0.76195017  0.50374753  0.87721386  1.0
  H  H28  1  0.73804983  0.49625247  0.37721386  1.0
  H  H29  1  0.73804983  0.00374753  0.37721386  1.0
  H  H30  1  0.23804983  0.49625247  0.12278614  1.0
  H  H31  1  0.23804983  0.00374753  0.12278614  1.0
  O  O32  1  0.36878198  0.95331596  0.67354396  1.0
  O  O33  1  0.36878198  0.54668404  0.67354396  1.0
  O  O34  1  0.86878198  0.95331596  0.82645604  1.0
  O  O35  1  0.86878198  0.54668404  0.82645604  1.0
  O  O36  1  0.63121802  0.45331596  0.32645604  1.0
  O  O37  1  0.63121802  0.04668404  0.32645604  1.0
  O  O38  1  0.13121802  0.45331596  0.17354396  1.0
  O  O39  1  0.13121802  0.04668404  0.17354396  1.0
  O  O40  1  0.30441809  0.75000000  0.91239703  1.0
  O  O41  1  0.80441809  0.75000000  0.58760297  1.0
  O  O42  1  0.69558191  0.25000000  0.08760297  1.0
  O  O43  1  0.19558191  0.25000000  0.41239703  1.0
  O  O44  1  0.22761427  0.75000000  0.37916557  1.0
  O  O45  1  0.72761427  0.75000000  0.12083443  1.0
  O  O46  1  0.77238573  0.25000000  0.62083443  1.0
  O  O47  1  0.27238573  0.25000000  0.87916557  1.0
