# generated using pymatgen
data_Y2Cu3
_symmetry_space_group_name_H-M   'P 1'
_cell_length_a   5.35944262
_cell_length_b   5.35944262
_cell_length_c   18.40787785
_cell_angle_alpha   90.00000000
_cell_angle_beta   90.00000000
_cell_angle_gamma   120.00000000
_symmetry_Int_Tables_number   1
_chemical_formula_structural   Y2Cu3
_chemical_formula_sum   'Y8 Cu12'
_cell_volume   457.90312463
_cell_formula_units_Z   4
loop_
 _symmetry_equiv_pos_site_id
 _symmetry_equiv_pos_as_xyz
  1  'x, y, z'
loop_
 _atom_site_type_symbol
 _atom_site_label
 _atom_site_symmetry_multiplicity
 _atom_site_fract_x
 _atom_site_fract_y
 _atom_site_fract_z
 _atom_site_occupancy
  Y  Y0  1  0.00000000  0.00000000  0.41210486  1.0
  Y  Y1  1  0.00000000  0.00000000  0.58789514  1.0
  Y  Y2  1  -0.00000000  -0.00000000  0.91210486  1.0
  Y  Y3  1  0.00000000  -0.00000000  0.08789514  1.0
  Y  Y4  1  0.33333333  0.66666667  0.36681372  1.0
  Y  Y5  1  0.66666667  0.33333333  0.63318628  1.0
  Y  Y6  1  0.66666667  0.33333333  0.86681372  1.0
  Y  Y7  1  0.33333333  0.66666667  0.13318628  1.0
  Cu  Cu8  1  0.50000000  -0.00000000  -0.00000000  1.0
  Cu  Cu9  1  -0.00000000  0.50000000  -0.00000000  1.0
  Cu  Cu10  1  0.50000000  0.50000000  -0.00000000  1.0
  Cu  Cu11  1  0.50000000  0.00000000  0.50000000  1.0
  Cu  Cu12  1  -0.00000000  0.50000000  0.50000000  1.0
  Cu  Cu13  1  0.50000000  0.50000000  0.50000000  1.0
  Cu  Cu14  1  0.14866655  0.85133345  0.25000000  1.0
  Cu  Cu15  1  0.14866655  0.29733310  0.25000000  1.0
  Cu  Cu16  1  0.70266690  0.85133345  0.25000000  1.0
  Cu  Cu17  1  0.85133345  0.14866655  0.75000000  1.0
  Cu  Cu18  1  0.85133345  0.70266690  0.75000000  1.0
  Cu  Cu19  1  0.29733310  0.14866655  0.75000000  1.0
