# generated using pymatgen
data_CuO2F
_symmetry_space_group_name_H-M   'P 1'
_cell_length_a   5.29404846
_cell_length_b   3.67024563
_cell_length_c   6.28404583
_cell_angle_alpha   90.00000000
_cell_angle_beta   113.76447988
_cell_angle_gamma   90.00000000
_symmetry_Int_Tables_number   1
_chemical_formula_structural   CuO2F
_chemical_formula_sum   'Cu2 O4 F2'
_cell_volume   111.74883013
_cell_formula_units_Z   2
loop_
 _symmetry_equiv_pos_site_id
 _symmetry_equiv_pos_as_xyz
  1  'x, y, z'
loop_
 _atom_site_type_symbol
 _atom_site_label
 _atom_site_symmetry_multiplicity
 _atom_site_fract_x
 _atom_site_fract_y
 _atom_site_fract_z
 _atom_site_occupancy
  Cu  Cu0  1  0.79045810  0.40540837  0.77995141  1.0
  Cu  Cu1  1  0.20954190  0.90540837  0.22004859  1.0
  O  O2  1  0.72183402  0.18814240  0.49257323  1.0
  O  O3  1  0.27816598  0.68814240  0.50742677  1.0
  O  O4  1  0.49449570  0.24932708  0.31075821  1.0
  O  O5  1  0.50550430  0.74932708  0.68924179  1.0
  F  F6  1  0.10017265  0.07513215  0.90352266  1.0
  F  F7  1  0.89982735  0.57513215  0.09647734  1.0
