# generated using pymatgen
data_ZnP3NO9
_symmetry_space_group_name_H-M   'P 1'
_cell_length_a   6.80704046
_cell_length_b   6.80704046
_cell_length_c   9.93471108
_cell_angle_alpha   90.00000000
_cell_angle_beta   90.00000000
_cell_angle_gamma   120.00000000
_symmetry_Int_Tables_number   1
_chemical_formula_structural   ZnP3NO9
_chemical_formula_sum   'Zn2 P6 N2 O18'
_cell_volume   398.65988519
_cell_formula_units_Z   2
loop_
 _symmetry_equiv_pos_site_id
 _symmetry_equiv_pos_as_xyz
  1  'x, y, z'
loop_
 _atom_site_type_symbol
 _atom_site_label
 _atom_site_symmetry_multiplicity
 _atom_site_fract_x
 _atom_site_fract_y
 _atom_site_fract_z
 _atom_site_occupancy
  Zn  Zn0  1  0.00000000  0.00000000  0.50000000  1.0
  Zn  Zn1  1  0.00000000  0.00000000  0.00000000  1.0
  P  P2  1  0.26836279  0.88233818  0.25000000  1.0
  P  P3  1  0.26836279  0.38602461  0.75000000  1.0
  P  P4  1  0.61397539  0.88233818  0.75000000  1.0
  P  P5  1  0.61397539  0.73163721  0.25000000  1.0
  P  P6  1  0.11766182  0.73163721  0.75000000  1.0
  P  P7  1  0.11766182  0.38602461  0.25000000  1.0
  N  N8  1  0.66666667  0.33333333  0.50000000  1.0
  N  N9  1  0.66666667  0.33333333  0.00000000  1.0
  O  O10  1  0.73855142  0.75667380  0.37980331  1.0
  O  O11  1  0.73855142  0.75667380  0.12019669  1.0
  O  O12  1  0.73855142  -0.01812239  0.87980331  1.0
  O  O13  1  0.73855142  -0.01812239  0.62019669  1.0
  O  O14  1  1.01812239  0.75667380  0.87980331  1.0
  O  O15  1  1.01812239  0.75667380  0.62019669  1.0
  O  O16  1  1.01812239  0.26144858  0.37980331  1.0
  O  O17  1  1.01812239  0.26144858  0.12019669  1.0
  O  O18  1  0.24332620  0.26144858  0.87980331  1.0
  O  O19  1  0.24332620  0.26144858  0.62019669  1.0
  O  O20  1  0.24332620  -0.01812239  0.37980331  1.0
  O  O21  1  0.24332620  -0.01812239  0.12019669  1.0
  O  O22  1  0.51520816  0.90438722  0.25000000  1.0
  O  O23  1  0.51520816  0.61082094  0.75000000  1.0
  O  O24  1  0.38917906  0.90438722  0.75000000  1.0
  O  O25  1  0.38917906  0.48479184  0.25000000  1.0
  O  O26  1  0.09561278  0.48479184  0.75000000  1.0
  O  O27  1  0.09561278  0.61082094  0.25000000  1.0
