# generated using pymatgen
data_Mn(BiTe2)2
_symmetry_space_group_name_H-M   'P 1'
_cell_length_a   14.41715911
_cell_length_b   14.41715911
_cell_length_c   14.41715911
_cell_angle_alpha   17.33354140
_cell_angle_beta   17.33354140
_cell_angle_gamma   17.33354140
_symmetry_Int_Tables_number   1
_chemical_formula_structural   Mn(BiTe2)2
_chemical_formula_sum   'Mn1 Bi2 Te4'
_cell_volume   232.11774815
_cell_formula_units_Z   1
loop_
 _symmetry_equiv_pos_site_id
 _symmetry_equiv_pos_as_xyz
  1  'x, y, z'
loop_
 _atom_site_type_symbol
 _atom_site_label
 _atom_site_symmetry_multiplicity
 _atom_site_fract_x
 _atom_site_fract_y
 _atom_site_fract_z
 _atom_site_occupancy
  Mn  Mn0  1  0.00000000  0.00000000  0.00000000  1.0
  Bi  Bi1  1  1.57995771  0.57995771  0.57995771  1.0
  Bi  Bi2  1  1.42004229  0.42004229  0.42004229  1.0
  Te  Te3  1  0.87221004  0.87221004  0.87221004  1.0
  Te  Te4  1  1.12778996  1.12778996  0.12778996  1.0
  Te  Te5  1  0.70248106  0.70248106  0.70248106  1.0
  Te  Te6  1  1.29751894  1.29751894  0.29751894  1.0
