# generated using pymatgen
data_CrP2
_symmetry_space_group_name_H-M   'P 1'
_cell_length_a   4.36103629
_cell_length_b   4.36103629
_cell_length_c   7.08113625
_cell_angle_alpha   62.56616237
_cell_angle_beta   117.43383763
_cell_angle_gamma   139.55512247
_symmetry_Int_Tables_number   1
_chemical_formula_structural   CrP2
_chemical_formula_sum   'Cr2 P4'
_cell_volume   76.10929123
_cell_formula_units_Z   2
loop_
 _symmetry_equiv_pos_site_id
 _symmetry_equiv_pos_as_xyz
  1  'x, y, z'
loop_
 _atom_site_type_symbol
 _atom_site_label
 _atom_site_symmetry_multiplicity
 _atom_site_fract_x
 _atom_site_fract_y
 _atom_site_fract_z
 _atom_site_occupancy
  Cr  Cr0  1  0.84289588  0.15710412  0.79573093  1.0
  Cr  Cr1  1  1.15710412  -0.15710412  0.20426907  1.0
  P  P2  1  0.85518860  -0.85518860  0.47082268  1.0
  P  P3  1  0.14481140  -0.14481140  0.52917732  1.0
  P  P4  1  0.60155848  0.39844152  0.90106342  1.0
  P  P5  1  1.39844152  -0.39844152  0.09893658  1.0
