# generated using pymatgen
data_PNF2
_symmetry_space_group_name_H-M   'P 1'
_cell_length_a   7.28051549
_cell_length_b   12.77730831
_cell_length_c   9.30758906
_cell_angle_alpha   90.00000000
_cell_angle_beta   90.00000000
_cell_angle_gamma   90.00000000
_symmetry_Int_Tables_number   1
_chemical_formula_structural   PNF2
_chemical_formula_sum   'P12 N12 F24'
_cell_volume   865.84211217
_cell_formula_units_Z   12
loop_
 _symmetry_equiv_pos_site_id
 _symmetry_equiv_pos_as_xyz
  1  'x, y, z'
loop_
 _atom_site_type_symbol
 _atom_site_label
 _atom_site_symmetry_multiplicity
 _atom_site_fract_x
 _atom_site_fract_y
 _atom_site_fract_z
 _atom_site_occupancy
  P  P0  1  0.67196911  0.64231877  0.58699480  1.0
  P  P1  1  0.17196911  0.85768123  0.91300520  1.0
  P  P2  1  0.32803089  0.14231877  0.41300520  1.0
  P  P3  1  0.82803089  0.35768123  0.08699480  1.0
  P  P4  1  0.32803089  0.35768123  0.41300520  1.0
  P  P5  1  0.82803089  0.14231877  0.08699480  1.0
  P  P6  1  0.67196911  0.85768123  0.58699480  1.0
  P  P7  1  0.17196911  0.64231877  0.91300520  1.0
  P  P8  1  0.40436115  0.75000000  0.44072710  1.0
  P  P9  1  0.90436115  0.75000000  0.05927290  1.0
  P  P10  1  0.59563885  0.25000000  0.55927290  1.0
  P  P11  1  0.09563885  0.25000000  0.94072710  1.0
  N  N12  1  0.49385356  0.64251656  0.48875525  1.0
  N  N13  1  0.99385356  0.85748344  0.01124475  1.0
  N  N14  1  0.50614644  0.14251656  0.51124475  1.0
  N  N15  1  0.00614644  0.35748344  0.98875525  1.0
  N  N16  1  0.50614644  0.35748344  0.51124475  1.0
  N  N17  1  0.00614644  0.14251656  0.98875525  1.0
  N  N18  1  0.49385356  0.85748344  0.48875525  1.0
  N  N19  1  0.99385356  0.64251656  0.01124475  1.0
  N  N20  1  0.76014346  0.75000000  0.63692510  1.0
  N  N21  1  0.26014346  0.75000000  0.86307490  1.0
  N  N22  1  0.23985654  0.25000000  0.36307490  1.0
  N  N23  1  0.73985654  0.25000000  0.13692510  1.0
  F  F24  1  0.82341131  0.57377161  0.51424354  1.0
  F  F25  1  0.32341131  0.92622839  0.98575646  1.0
  F  F26  1  0.17658869  0.07377161  0.48575646  1.0
  F  F27  1  0.67658869  0.42622839  0.01424354  1.0
  F  F28  1  0.17658869  0.42622839  0.48575646  1.0
  F  F29  1  0.67658869  0.07377161  0.01424354  1.0
  F  F30  1  0.82341131  0.92622839  0.51424354  1.0
  F  F31  1  0.32341131  0.57377161  0.98575646  1.0
  F  F32  1  0.63609158  0.57299612  0.72259150  1.0
  F  F33  1  0.13609158  0.92700388  0.77740850  1.0
  F  F34  1  0.36390842  0.07299612  0.27740850  1.0
  F  F35  1  0.86390842  0.42700388  0.22259150  1.0
  F  F36  1  0.36390842  0.42700388  0.27740850  1.0
  F  F37  1  0.86390842  0.07299612  0.22259150  1.0
  F  F38  1  0.63609158  0.92700388  0.72259150  1.0
  F  F39  1  0.13609158  0.57299612  0.77740850  1.0
  F  F40  1  0.38223074  0.75000000  0.27296658  1.0
  F  F41  1  0.88223074  0.75000000  0.22703342  1.0
  F  F42  1  0.61776926  0.25000000  0.72703342  1.0
  F  F43  1  0.11776926  0.25000000  0.77296658  1.0
  F  F44  1  0.19584664  0.75000000  0.48099588  1.0
  F  F45  1  0.69584664  0.75000000  0.01900412  1.0
  F  F46  1  0.80415336  0.25000000  0.51900412  1.0
  F  F47  1  0.30415336  0.25000000  0.98099588  1.0
