# generated using pymatgen
data_BaV2O6
_symmetry_space_group_name_H-M   'P 1'
_cell_length_a   7.73438349
_cell_length_b   7.73438349
_cell_length_c   8.03265775
_cell_angle_alpha   90.00000000
_cell_angle_beta   90.00000000
_cell_angle_gamma   112.86736032
_symmetry_Int_Tables_number   1
_chemical_formula_structural   BaV2O6
_chemical_formula_sum   'Ba3 V6 O18'
_cell_volume   442.75363983
_cell_formula_units_Z   3
loop_
 _symmetry_equiv_pos_site_id
 _symmetry_equiv_pos_as_xyz
  1  'x, y, z'
loop_
 _atom_site_type_symbol
 _atom_site_label
 _atom_site_symmetry_multiplicity
 _atom_site_fract_x
 _atom_site_fract_y
 _atom_site_fract_z
 _atom_site_occupancy
  Ba  Ba0  1  0.16485980  0.83514020  0.50000000  1.0
  Ba  Ba1  1  -0.16485980  1.16485980  0.50000000  1.0
  Ba  Ba2  1  0.00000000  0.00000000  0.00000000  1.0
  V  V3  1  -0.59983814  1.25091866  0.25790566  1.0
  V  V4  1  0.25091866  0.40016186  0.74209434  1.0
  V  V5  1  -0.25091866  1.59983814  0.74209434  1.0
  V  V6  1  0.59983814  0.74908134  0.25790566  1.0
  V  V7  1  0.00000000  1.50000000  0.06498896  1.0
  V  V8  1  0.50000000  1.00000000  0.93501104  1.0
  O  O9  1  0.12702193  0.68062183  0.18231618  1.0
  O  O10  1  -0.31937817  1.12702193  0.81768382  1.0
  O  O11  1  0.31937817  0.87297807  0.81768382  1.0
  O  O12  1  -0.12702193  1.31937817  0.18231618  1.0
  O  O13  1  -0.16955133  1.83480810  0.29720611  1.0
  O  O14  1  0.83480810  0.83044867  0.70279389  1.0
  O  O15  1  -0.83480810  1.16955133  0.70279389  1.0
  O  O16  1  0.16955133  0.16519190  0.29720611  1.0
  O  O17  1  -0.58568555  1.14498198  0.06098166  1.0
  O  O18  1  0.14498198  0.41431445  0.93901834  1.0
  O  O19  1  -0.14498198  1.58568555  0.93901834  1.0
  O  O20  1  0.58568555  0.85501802  0.06098166  1.0
  O  O21  1  -0.17271347  1.50582147  0.59118306  1.0
  O  O22  1  0.50582147  0.82728653  0.40881694  1.0
  O  O23  1  -0.50582147  1.17271347  0.40881694  1.0
  O  O24  1  0.17271347  0.49417853  0.59118306  1.0
  O  O25  1  0.50000000  0.50000000  0.24709002  1.0
  O  O26  1  0.50000000  0.50000000  0.75290998  1.0
