# generated using pymatgen
data_BaI2
_symmetry_space_group_name_H-M   'P 1'
_cell_length_a   8.97523082
_cell_length_b   5.42555788
_cell_length_c   10.84523754
_cell_angle_alpha   90.00000000
_cell_angle_beta   90.00000000
_cell_angle_gamma   90.00000000
_symmetry_Int_Tables_number   1
_chemical_formula_structural   BaI2
_chemical_formula_sum   'Ba4 I8'
_cell_volume   528.11572043
_cell_formula_units_Z   4
loop_
 _symmetry_equiv_pos_site_id
 _symmetry_equiv_pos_as_xyz
  1  'x, y, z'
loop_
 _atom_site_type_symbol
 _atom_site_label
 _atom_site_symmetry_multiplicity
 _atom_site_fract_x
 _atom_site_fract_y
 _atom_site_fract_z
 _atom_site_occupancy
  Ba  Ba0  1  0.75614428  0.75000000  0.39004432  1.0
  Ba  Ba1  1  0.25614428  0.75000000  0.10995568  1.0
  Ba  Ba2  1  0.24385572  0.25000000  0.60995568  1.0
  Ba  Ba3  1  0.74385572  0.25000000  0.89004432  1.0
  I  I4  1  0.98111439  0.75000000  0.66343001  1.0
  I  I5  1  0.48111439  0.75000000  0.83656999  1.0
  I  I6  1  0.01888561  0.25000000  0.33656999  1.0
  I  I7  1  0.51888561  0.25000000  0.16343001  1.0
  I  I8  1  0.85839223  0.75000000  0.07633845  1.0
  I  I9  1  0.35839223  0.75000000  0.42366155  1.0
  I  I10  1  0.14160777  0.25000000  0.92366155  1.0
  I  I11  1  0.64160777  0.25000000  0.57633845  1.0
