# generated using pymatgen
data_FeCo2B
_symmetry_space_group_name_H-M   'P 1'
_cell_length_a   5.23338359
_cell_length_b   6.60988975
_cell_length_c   4.41608564
_cell_angle_alpha   90.00000000
_cell_angle_beta   90.00000000
_cell_angle_gamma   90.00000000
_symmetry_Int_Tables_number   1
_chemical_formula_structural   FeCo2B
_chemical_formula_sum   'Fe4 Co8 B4'
_cell_volume   152.76162551
_cell_formula_units_Z   4
loop_
 _symmetry_equiv_pos_site_id
 _symmetry_equiv_pos_as_xyz
  1  'x, y, z'
loop_
 _atom_site_type_symbol
 _atom_site_label
 _atom_site_symmetry_multiplicity
 _atom_site_fract_x
 _atom_site_fract_y
 _atom_site_fract_z
 _atom_site_occupancy
  Fe  Fe0  1  0.52153163  0.25000000  0.87050511  1.0
  Fe  Fe1  1  0.02153163  0.25000000  0.62949489  1.0
  Fe  Fe2  1  0.47846837  0.75000000  0.12949489  1.0
  Fe  Fe3  1  0.97846837  0.75000000  0.37050511  1.0
  Co  Co4  1  0.68119191  0.05639079  0.34978614  1.0
  Co  Co5  1  0.18119191  0.44360921  0.15021386  1.0
  Co  Co6  1  0.31880809  0.55639079  0.65021386  1.0
  Co  Co7  1  0.81880809  0.94360921  0.84978614  1.0
  Co  Co8  1  0.31880809  0.94360921  0.65021386  1.0
  Co  Co9  1  0.81880809  0.55639079  0.84978614  1.0
  Co  Co10  1  0.68119191  0.44360921  0.34978614  1.0
  Co  Co11  1  0.18119191  0.05639079  0.15021386  1.0
  B  B12  1  0.88476163  0.25000000  0.07640315  1.0
  B  B13  1  0.38476163  0.25000000  0.42359685  1.0
  B  B14  1  0.11523837  0.75000000  0.92359685  1.0
  B  B15  1  0.61523837  0.75000000  0.57640315  1.0
