# generated using pymatgen
data_Hf3Si2
_symmetry_space_group_name_H-M   'P 1'
_cell_length_a   7.03158498
_cell_length_b   7.03158498
_cell_length_c   3.66353271
_cell_angle_alpha   90.00000000
_cell_angle_beta   90.00000000
_cell_angle_gamma   90.00000000
_symmetry_Int_Tables_number   1
_chemical_formula_structural   Hf3Si2
_chemical_formula_sum   'Hf6 Si4'
_cell_volume   181.13673407
_cell_formula_units_Z   2
loop_
 _symmetry_equiv_pos_site_id
 _symmetry_equiv_pos_as_xyz
  1  'x, y, z'
loop_
 _atom_site_type_symbol
 _atom_site_label
 _atom_site_symmetry_multiplicity
 _atom_site_fract_x
 _atom_site_fract_y
 _atom_site_fract_z
 _atom_site_occupancy
  Hf  Hf0  1  0.32650988  0.17349012  0.50000000  1.0
  Hf  Hf1  1  0.82650988  0.32650988  0.50000000  1.0
  Hf  Hf2  1  0.67349012  0.82650988  0.50000000  1.0
  Hf  Hf3  1  0.17349012  0.67349012  0.50000000  1.0
  Hf  Hf4  1  0.50000000  0.50000000  0.00000000  1.0
  Hf  Hf5  1  0.00000000  0.00000000  0.00000000  1.0
  Si  Si6  1  0.87611347  0.62388653  0.00000000  1.0
  Si  Si7  1  0.37611347  0.87611347  0.00000000  1.0
  Si  Si8  1  0.12388653  0.37611347  0.00000000  1.0
  Si  Si9  1  0.62388653  0.12388653  0.00000000  1.0
