# generated using pymatgen
data_CsNa3PbO4
_symmetry_space_group_name_H-M   'P 1'
_cell_length_a   11.78131266
_cell_length_b   8.84859373
_cell_length_c   6.87682057
_cell_angle_alpha   79.61290155
_cell_angle_beta   76.59731974
_cell_angle_gamma   83.04212401
_symmetry_Int_Tables_number   1
_chemical_formula_structural   CsNa3PbO4
_chemical_formula_sum   'Cs4 Na12 Pb4 O16'
_cell_volume   683.57935676
_cell_formula_units_Z   4
loop_
 _symmetry_equiv_pos_site_id
 _symmetry_equiv_pos_as_xyz
  1  'x, y, z'
loop_
 _atom_site_type_symbol
 _atom_site_label
 _atom_site_symmetry_multiplicity
 _atom_site_fract_x
 _atom_site_fract_y
 _atom_site_fract_z
 _atom_site_occupancy
  Cs  Cs0  1  -0.12170047  -0.61893681  -0.99175221  1.0
  Cs  Cs1  1  -0.87829953  -0.38106319  -0.00824779  1.0
  Cs  Cs2  1  -0.37534917  -0.86139281  -0.96414314  1.0
  Cs  Cs3  1  -0.62465083  -0.13860719  -0.03585686  1.0
  Na  Na4  1  -0.85410046  -0.81917942  -0.80666020  1.0
  Na  Na5  1  -0.14589954  -0.18082058  -0.19333980  1.0
  Na  Na6  1  -0.60326806  -0.55278680  -0.81413540  1.0
  Na  Na7  1  -0.39673194  -0.44721320  -0.18586460  1.0
  Na  Na8  1  -0.62389553  -0.95478160  -0.56966264  1.0
  Na  Na9  1  -0.37610447  -0.04521840  -0.43033736  1.0
  Na  Na10  1  -0.38454056  -0.67817311  -0.52613655  1.0
  Na  Na11  1  -0.61545944  -0.32182689  -0.47386345  1.0
  Na  Na12  1  -0.87534746  -0.56834883  -0.45777747  1.0
  Na  Na13  1  -0.12465254  -0.43165117  -0.54222253  1.0
  Na  Na14  1  -0.89359507  -0.94826829  -0.18382828  1.0
  Na  Na15  1  -0.10640493  -0.05173171  -0.81617172  1.0
  Pb  Pb16  1  -0.86795918  -0.20278695  -0.55936770  1.0
  Pb  Pb17  1  -0.13204082  -0.79721305  -0.44063230  1.0
  Pb  Pb18  1  -0.64797638  -0.70620757  -0.17436599  1.0
  Pb  Pb19  1  -0.35202362  -0.29379243  -0.82563401  1.0
  O  O20  1  -0.64762791  -0.79849959  -0.86505403  1.0
  O  O21  1  -0.35237209  -0.20150041  -0.13494597  1.0
  O  O22  1  -0.90627383  -0.06213641  -0.82136852  1.0
  O  O23  1  -0.09372617  -0.93786359  -0.17863148  1.0
  O  O24  1  -0.40950576  -0.51286908  -0.81523508  1.0
  O  O25  1  -0.59049424  -0.48713092  -0.18476492  1.0
  O  O26  1  -0.74475300  -0.38623351  -0.65976340  1.0
  O  O27  1  -0.25524700  -0.61376649  -0.34023660  1.0
  O  O28  1  -0.99554128  -0.66695668  -0.62050167  1.0
  O  O29  1  -0.00445872  -0.33304332  -0.37949833  1.0
  O  O30  1  -0.22708656  -0.88829448  -0.61106238  1.0
  O  O31  1  -0.77291344  -0.11170552  -0.38893762  1.0
  O  O32  1  -0.53242372  -0.84228444  -0.36829835  1.0
  O  O33  1  -0.46757628  -0.15771556  -0.63170165  1.0
  O  O34  1  -0.82741222  -0.71092816  -0.16835426  1.0
  O  O35  1  -0.17258778  -0.28907184  -0.83164574  1.0
