# generated using pymatgen
data_Cs2SrV4O12
_symmetry_space_group_name_H-M   'P 1'
_cell_length_a   11.33240104
_cell_length_b   11.33240104
_cell_length_c   5.66990687
_cell_angle_alpha   90.00000000
_cell_angle_beta   90.00000000
_cell_angle_gamma   90.00000000
_symmetry_Int_Tables_number   1
_chemical_formula_structural   Cs2SrV4O12
_chemical_formula_sum   'Cs4 Sr2 V8 O24'
_cell_volume   728.14822706
_cell_formula_units_Z   2
loop_
 _symmetry_equiv_pos_site_id
 _symmetry_equiv_pos_as_xyz
  1  'x, y, z'
loop_
 _atom_site_type_symbol
 _atom_site_label
 _atom_site_symmetry_multiplicity
 _atom_site_fract_x
 _atom_site_fract_y
 _atom_site_fract_z
 _atom_site_occupancy
  Cs  Cs0  1  0.25000000  0.25000000  0.00000000  1.0
  Cs  Cs1  1  0.25000000  0.75000000  0.00000000  1.0
  Cs  Cs2  1  0.75000000  0.75000000  0.00000000  1.0
  Cs  Cs3  1  0.75000000  0.25000000  0.00000000  1.0
  Sr  Sr4  1  0.00000000  0.00000000  0.00000000  1.0
  Sr  Sr5  1  0.50000000  0.50000000  0.00000000  1.0
  V  V6  1  0.72171566  0.00000000  0.50000000  1.0
  V  V7  1  0.22171566  0.50000000  0.50000000  1.0
  V  V8  1  0.00000000  0.72171566  0.50000000  1.0
  V  V9  1  0.00000000  0.27828434  0.50000000  1.0
  V  V10  1  0.50000000  0.22171566  0.50000000  1.0
  V  V11  1  0.50000000  0.77828434  0.50000000  1.0
  V  V12  1  0.77828434  0.50000000  0.50000000  1.0
  V  V13  1  0.27828434  0.00000000  0.50000000  1.0
  O  O14  1  0.19470549  0.99997655  0.26074499  1.0
  O  O15  1  0.19470549  0.00002345  0.73925501  1.0
  O  O16  1  0.69470549  0.49997655  0.73925501  1.0
  O  O17  1  0.69470549  0.50002345  0.26074499  1.0
  O  O18  1  0.99997655  0.19470549  0.73925501  1.0
  O  O19  1  0.99997655  0.80529451  0.26074499  1.0
  O  O20  1  0.49997655  0.69470549  0.26074499  1.0
  O  O21  1  0.49997655  0.30529451  0.73925501  1.0
  O  O22  1  0.30529451  0.49997655  0.26074499  1.0
  O  O23  1  0.30529451  0.50002345  0.73925501  1.0
  O  O24  1  0.80529451  0.99997655  0.73925501  1.0
  O  O25  1  0.80529451  0.00002345  0.26074499  1.0
  O  O26  1  0.50002345  0.69470549  0.73925501  1.0
  O  O27  1  0.50002345  0.30529451  0.26074499  1.0
  O  O28  1  0.00002345  0.19470549  0.26074499  1.0
  O  O29  1  0.00002345  0.80529451  0.73925501  1.0
  O  O30  1  0.86944958  0.63055042  0.50007879  1.0
  O  O31  1  0.86944958  0.36944958  0.49992121  1.0
  O  O32  1  0.36944958  0.13055042  0.49992121  1.0
  O  O33  1  0.36944958  0.86944958  0.50007879  1.0
  O  O34  1  0.63055042  0.86944958  0.49992121  1.0
  O  O35  1  0.63055042  0.13055042  0.50007879  1.0
  O  O36  1  0.13055042  0.36944958  0.50007879  1.0
  O  O37  1  0.13055042  0.63055042  0.49992121  1.0
