# generated using pymatgen
data_Eu3(SnPd)2
_symmetry_space_group_name_H-M   'P 1'
_cell_length_a   5.98105116
_cell_length_b   8.69381635
_cell_length_c   14.09013802
_cell_angle_alpha   90.00000000
_cell_angle_beta   90.00000000
_cell_angle_gamma   90.00000000
_symmetry_Int_Tables_number   1
_chemical_formula_structural   Eu3(SnPd)2
_chemical_formula_sum   'Eu12 Sn8 Pd8'
_cell_volume   732.66125592
_cell_formula_units_Z   4
loop_
 _symmetry_equiv_pos_site_id
 _symmetry_equiv_pos_as_xyz
  1  'x, y, z'
loop_
 _atom_site_type_symbol
 _atom_site_label
 _atom_site_symmetry_multiplicity
 _atom_site_fract_x
 _atom_site_fract_y
 _atom_site_fract_z
 _atom_site_occupancy
  Eu  Eu0  1  0.85002739  0.60502809  0.90145129  1.0
  Eu  Eu1  1  0.85002739  0.60502809  0.59854871  1.0
  Eu  Eu2  1  0.85002739  0.89497191  0.40145129  1.0
  Eu  Eu3  1  0.85002739  0.89497191  0.09854871  1.0
  Eu  Eu4  1  0.14997261  0.10502809  0.90145129  1.0
  Eu  Eu5  1  0.14997261  0.10502809  0.59854871  1.0
  Eu  Eu6  1  0.14997261  0.39497191  0.40145129  1.0
  Eu  Eu7  1  0.14997261  0.39497191  0.09854871  1.0
  Eu  Eu8  1  0.35616904  0.74487069  0.75000000  1.0
  Eu  Eu9  1  0.35616904  0.75512931  0.25000000  1.0
  Eu  Eu10  1  0.64383096  0.24487069  0.75000000  1.0
  Eu  Eu11  1  0.64383096  0.25512931  0.25000000  1.0
  Sn  Sn12  1  0.85581891  0.89580281  0.75000000  1.0
  Sn  Sn13  1  0.85581891  0.60419719  0.25000000  1.0
  Sn  Sn14  1  0.14418109  0.39580281  0.75000000  1.0
  Sn  Sn15  1  0.14418109  0.10419719  0.25000000  1.0
  Sn  Sn16  1  0.34052240  0.75000000  0.00000000  1.0
  Sn  Sn17  1  0.34052240  0.75000000  0.50000000  1.0
  Sn  Sn18  1  0.65947760  0.25000000  0.00000000  1.0
  Sn  Sn19  1  0.65947760  0.25000000  0.50000000  1.0
  Pd  Pd20  1  0.61918731  0.96288382  0.91034282  1.0
  Pd  Pd21  1  0.61918731  0.96288382  0.58965718  1.0
  Pd  Pd22  1  0.61918731  0.53711618  0.41034282  1.0
  Pd  Pd23  1  0.61918731  0.53711618  0.08965718  1.0
  Pd  Pd24  1  0.38081269  0.46288382  0.91034282  1.0
  Pd  Pd25  1  0.38081269  0.46288382  0.58965718  1.0
  Pd  Pd26  1  0.38081269  0.03711618  0.41034282  1.0
  Pd  Pd27  1  0.38081269  0.03711618  0.08965718  1.0
