# generated using pymatgen
data_LaBN2
_symmetry_space_group_name_H-M   'P 1'
_cell_length_a   7.83189362
_cell_length_b   6.63626428
_cell_length_c   6.96877650
_cell_angle_alpha   116.09923918
_cell_angle_beta   105.88689481
_cell_angle_gamma   90.60917799
_symmetry_Int_Tables_number   1
_chemical_formula_structural   LaBN2
_chemical_formula_sum   'La6 B6 N12'
_cell_volume   309.22043181
_cell_formula_units_Z   6
loop_
 _symmetry_equiv_pos_site_id
 _symmetry_equiv_pos_as_xyz
  1  'x, y, z'
loop_
 _atom_site_type_symbol
 _atom_site_label
 _atom_site_symmetry_multiplicity
 _atom_site_fract_x
 _atom_site_fract_y
 _atom_site_fract_z
 _atom_site_occupancy
  La  La0  1  0.92198768  0.96563002  0.71632587  1.0
  La  La1  1  0.07801232  0.03436998  0.28367413  1.0
  La  La2  1  0.43715187  0.96078176  0.71493365  1.0
  La  La3  1  0.56284813  0.03921824  0.28506635  1.0
  La  La4  1  0.20225362  0.55661658  0.83940415  1.0
  La  La5  1  0.79774638  0.44338342  0.16059585  1.0
  B  B6  1  0.72552472  0.76652281  0.91894866  1.0
  B  B7  1  0.27447528  0.23347719  0.08105134  1.0
  B  B8  1  0.51372123  0.39866281  0.72207952  1.0
  B  B9  1  0.48627877  0.60133719  0.27792048  1.0
  B  B10  1  0.82713170  0.39750567  0.70996440  1.0
  B  B11  1  0.17286830  0.60249433  0.29003560  1.0
  N  N12  1  0.24827375  0.98613771  0.98244470  1.0
  N  N13  1  0.75172625  0.01386229  0.01755530  1.0
  N  N14  1  0.66066370  0.73769323  0.40804037  1.0
  N  N15  1  0.33933630  0.26230677  0.59195963  1.0
  N  N16  1  0.54365356  0.64702582  0.85921054  1.0
  N  N17  1  0.45634644  0.35297418  0.14078946  1.0
  N  N18  1  0.87777674  0.64395574  0.86717177  1.0
  N  N19  1  0.12222326  0.35604426  0.13282823  1.0
  N  N20  1  0.67030824  0.27191725  0.71469356  1.0
  N  N21  1  0.32969176  0.72808275  0.28530644  1.0
  N  N22  1  0.92202757  0.26469040  0.55614579  1.0
  N  N23  1  0.07797243  0.73530960  0.44385421  1.0
