# generated using pymatgen
data_Ta5B6
_symmetry_space_group_name_H-M   'P 1'
_cell_length_a   11.46975843
_cell_length_b   11.46975843
_cell_length_c   3.29924585
_cell_angle_alpha   90.00000000
_cell_angle_beta   90.00000000
_cell_angle_gamma   164.22151224
_symmetry_Int_Tables_number   1
_chemical_formula_structural   Ta5B6
_chemical_formula_sum   'Ta5 B6'
_cell_volume   118.02192751
_cell_formula_units_Z   1
loop_
 _symmetry_equiv_pos_site_id
 _symmetry_equiv_pos_as_xyz
  1  'x, y, z'
loop_
 _atom_site_type_symbol
 _atom_site_label
 _atom_site_symmetry_multiplicity
 _atom_site_fract_x
 _atom_site_fract_y
 _atom_site_fract_z
 _atom_site_occupancy
  Ta  Ta0  1  -0.80564140  0.80564140  0.50000000  1.0
  Ta  Ta1  1  -0.19435860  1.19435860  0.50000000  1.0
  Ta  Ta2  1  -0.61434070  0.61434070  0.00000000  1.0
  Ta  Ta3  1  -0.38565930  1.38565930  0.00000000  1.0
  Ta  Ta4  1  0.00000000  0.00000000  0.00000000  1.0
  B  B5  1  -0.91766496  0.91766496  0.50000000  1.0
  B  B6  1  -0.08233504  1.08233504  0.50000000  1.0
  B  B7  1  -0.53961405  0.53961405  0.50000000  1.0
  B  B8  1  -0.46038595  1.46038595  0.50000000  1.0
  B  B9  1  -0.72681842  0.72681842  0.00000000  1.0
  B  B10  1  -0.27318158  1.27318158  0.00000000  1.0
