# generated using pymatgen
data_Na2ZrSe3
_symmetry_space_group_name_H-M   'P 1'
_cell_length_a   6.99857506
_cell_length_b   6.99857506
_cell_length_c   7.34352124
_cell_angle_alpha   80.73637160
_cell_angle_beta   99.26362840
_cell_angle_gamma   59.87831218
_symmetry_Int_Tables_number   1
_chemical_formula_structural   Na2ZrSe3
_chemical_formula_sum   'Na4 Zr2 Se6'
_cell_volume   294.48648275
_cell_formula_units_Z   2
loop_
 _symmetry_equiv_pos_site_id
 _symmetry_equiv_pos_as_xyz
  1  'x, y, z'
loop_
 _atom_site_type_symbol
 _atom_site_label
 _atom_site_symmetry_multiplicity
 _atom_site_fract_x
 _atom_site_fract_y
 _atom_site_fract_z
 _atom_site_occupancy
  Na  Na0  1  0.65771241  -0.34228759  0.50000000  1.0
  Na  Na1  1  0.34228759  0.34228759  0.50000000  1.0
  Na  Na2  1  -0.00000000  0.00000000  0.50000000  1.0
  Na  Na3  1  0.50000000  -0.50000000  -0.00000000  1.0
  Zr  Zr4  1  0.83124215  -0.16875785  -0.00000000  1.0
  Zr  Zr5  1  0.16875785  0.16875785  -0.00000000  1.0
  Se  Se6  1  0.42457987  -0.06270654  0.77664224  1.0
  Se  Se7  1  1.06270654  -0.42457987  0.77664224  1.0
  Se  Se8  1  0.93729346  -0.57542013  0.22335776  1.0
  Se  Se9  1  0.57542013  0.06270654  0.22335776  1.0
  Se  Se10  1  0.78660814  -0.78660814  0.77786125  1.0
  Se  Se11  1  0.21339186  -0.21339186  0.22213875  1.0
