# generated using pymatgen
data_KICl2
_symmetry_space_group_name_H-M   'P 1'
_cell_length_a   8.72752305
_cell_length_b   11.55769633
_cell_length_c   12.43766848
_cell_angle_alpha   90.00000000
_cell_angle_beta   108.83764548
_cell_angle_gamma   90.00000000
_symmetry_Int_Tables_number   1
_chemical_formula_structural   KICl2
_chemical_formula_sum   'K8 I8 Cl16'
_cell_volume   1187.38925810
_cell_formula_units_Z   8
loop_
 _symmetry_equiv_pos_site_id
 _symmetry_equiv_pos_as_xyz
  1  'x, y, z'
loop_
 _atom_site_type_symbol
 _atom_site_label
 _atom_site_symmetry_multiplicity
 _atom_site_fract_x
 _atom_site_fract_y
 _atom_site_fract_z
 _atom_site_occupancy
  K  K0  1  0.03217542  0.29838200  0.41548595  1.0
  K  K1  1  0.96782458  0.79838200  0.08451405  1.0
  K  K2  1  0.96782458  0.70161800  0.58451405  1.0
  K  K3  1  0.03217542  0.20161800  0.91548595  1.0
  K  K4  1  0.53609357  0.95295904  0.30672580  1.0
  K  K5  1  0.46390643  0.45295904  0.19327420  1.0
  K  K6  1  0.46390643  0.04704096  0.69327420  1.0
  K  K7  1  0.53609357  0.54704096  0.80672580  1.0
  I  I8  1  0.11862765  0.97981870  0.38101656  1.0
  I  I9  1  0.88137235  0.47981870  0.11898344  1.0
  I  I10  1  0.88137235  0.02018130  0.61898344  1.0
  I  I11  1  0.11862765  0.52018130  0.88101656  1.0
  I  I12  1  0.71148404  0.10678102  0.08723033  1.0
  I  I13  1  0.28851596  0.60678102  0.41276967  1.0
  I  I14  1  0.28851596  0.89321898  0.91276967  1.0
  I  I15  1  0.71148404  0.39321898  0.58723033  1.0
  Cl  Cl16  1  0.76523881  1.00129957  0.91957325  1.0
  Cl  Cl17  1  0.23476119  0.50129957  0.58042675  1.0
  Cl  Cl18  1  0.23476119  -0.00129957  0.08042675  1.0
  Cl  Cl19  1  0.76523881  0.49870043  0.41957325  1.0
  Cl  Cl20  1  0.88699487  0.83016093  0.32869545  1.0
  Cl  Cl21  1  0.11300513  0.33016093  0.17130455  1.0
  Cl  Cl22  1  0.11300513  0.16983907  0.67130455  1.0
  Cl  Cl23  1  0.88699487  0.66983907  0.82869545  1.0
  Cl  Cl24  1  0.66819325  0.20594163  0.26130884  1.0
  Cl  Cl25  1  0.33180675  0.70594163  0.23869116  1.0
  Cl  Cl26  1  0.33180675  0.79405837  0.73869116  1.0
  Cl  Cl27  1  0.66819325  0.29405837  0.76130884  1.0
  Cl  Cl28  1  0.34927251  0.13105072  0.43272933  1.0
  Cl  Cl29  1  0.65072749  0.63105072  0.06727067  1.0
  Cl  Cl30  1  0.65072749  0.86894928  0.56727067  1.0
  Cl  Cl31  1  0.34927251  0.36894928  0.93272933  1.0
