# generated using pymatgen
data_TaS2
_symmetry_space_group_name_H-M   'P 1'
_cell_length_a   7.33931647
_cell_length_b   3.33507392
_cell_length_c   6.95067885
_cell_angle_alpha   83.10087444
_cell_angle_beta   26.81567662
_cell_angle_gamma   70.08344894
_symmetry_Int_Tables_number   1
_chemical_formula_structural   TaS2
_chemical_formula_sum   'Ta1 S2'
_cell_volume   65.02478330
_cell_formula_units_Z   1
loop_
 _symmetry_equiv_pos_site_id
 _symmetry_equiv_pos_as_xyz
  1  'x, y, z'
loop_
 _atom_site_type_symbol
 _atom_site_label
 _atom_site_symmetry_multiplicity
 _atom_site_fract_x
 _atom_site_fract_y
 _atom_site_fract_z
 _atom_site_occupancy
  Ta  Ta0  1  -0.07427894  0.92572106  0.07427894  1.0
  S  S1  1  1.14322318  0.37505576  -0.37505576  1.0
  S  S2  1  0.37505576  1.14322318  -0.14322318  1.0
