# generated using pymatgen
data_Sr2MgGe2O7
_symmetry_space_group_name_H-M   'P 1'
_cell_length_a   8.25957344
_cell_length_b   8.25957344
_cell_length_c   5.38519100
_cell_angle_alpha   90.00000000
_cell_angle_beta   90.00000000
_cell_angle_gamma   90.00000000
_symmetry_Int_Tables_number   1
_chemical_formula_structural   Sr2MgGe2O7
_chemical_formula_sum   'Sr4 Mg2 Ge4 O14'
_cell_volume   367.38070974
_cell_formula_units_Z   2
loop_
 _symmetry_equiv_pos_site_id
 _symmetry_equiv_pos_as_xyz
  1  'x, y, z'
loop_
 _atom_site_type_symbol
 _atom_site_label
 _atom_site_symmetry_multiplicity
 _atom_site_fract_x
 _atom_site_fract_y
 _atom_site_fract_z
 _atom_site_occupancy
  Sr  Sr0  1  0.83409339  0.33409339  0.49068823  1.0
  Sr  Sr1  1  0.66590661  0.83409339  0.50931177  1.0
  Sr  Sr2  1  0.16590661  0.66590661  0.49068823  1.0
  Sr  Sr3  1  0.33409339  0.16590661  0.50931177  1.0
  Mg  Mg4  1  0.50000000  0.50000000  0.00000000  1.0
  Mg  Mg5  1  0.00000000  0.00000000  0.00000000  1.0
  Ge  Ge6  1  0.35717092  0.85717092  0.05085557  1.0
  Ge  Ge7  1  0.14282908  0.35717092  0.94914443  1.0
  Ge  Ge8  1  0.64282908  0.14282908  0.05085557  1.0
  Ge  Ge9  1  0.85717092  0.64282908  0.94914443  1.0
  O  O10  1  0.32238389  0.41752501  0.79432047  1.0
  O  O11  1  0.17761611  0.91752501  0.20567953  1.0
  O  O12  1  0.58247499  0.32238389  0.20567953  1.0
  O  O13  1  0.91752501  0.82238389  0.79432047  1.0
  O  O14  1  0.67761611  0.58247499  0.79432047  1.0
  O  O15  1  0.82238389  0.08247499  0.20567953  1.0
  O  O16  1  0.41752501  0.67761611  0.20567953  1.0
  O  O17  1  0.08247499  0.17761611  0.79432047  1.0
  O  O18  1  0.36137485  0.86137485  0.72679118  1.0
  O  O19  1  0.13862515  0.36137485  0.27320882  1.0
  O  O20  1  0.63862515  0.13862515  0.72679118  1.0
  O  O21  1  0.86137485  0.63862515  0.27320882  1.0
  O  O22  1  0.00000000  0.50000000  0.81256082  1.0
  O  O23  1  0.50000000  0.00000000  0.18743918  1.0
