# generated using pymatgen
data_Mn3SiIr
_symmetry_space_group_name_H-M   'P 1'
_cell_length_a   6.35116347
_cell_length_b   6.35116347
_cell_length_c   6.35116347
_cell_angle_alpha   90.00000000
_cell_angle_beta   90.00000000
_cell_angle_gamma   90.00000000
_symmetry_Int_Tables_number   1
_chemical_formula_structural   Mn3SiIr
_chemical_formula_sum   'Mn12 Si4 Ir4'
_cell_volume   256.18864317
_cell_formula_units_Z   4
loop_
 _symmetry_equiv_pos_site_id
 _symmetry_equiv_pos_as_xyz
  1  'x, y, z'
loop_
 _atom_site_type_symbol
 _atom_site_label
 _atom_site_symmetry_multiplicity
 _atom_site_fract_x
 _atom_site_fract_y
 _atom_site_fract_z
 _atom_site_occupancy
  Mn  Mn0  1  0.36974801  0.78810256  0.95184823  1.0
  Mn  Mn1  1  0.86974801  0.71189744  0.04815177  1.0
  Mn  Mn2  1  0.28810256  0.54815177  0.63025199  1.0
  Mn  Mn3  1  0.78810256  0.95184823  0.36974801  1.0
  Mn  Mn4  1  0.04815177  0.86974801  0.71189744  1.0
  Mn  Mn5  1  0.54815177  0.63025199  0.28810256  1.0
  Mn  Mn6  1  0.63025199  0.28810256  0.54815177  1.0
  Mn  Mn7  1  0.13025199  0.21189744  0.45184823  1.0
  Mn  Mn8  1  0.71189744  0.04815177  0.86974801  1.0
  Mn  Mn9  1  0.21189744  0.45184823  0.13025199  1.0
  Mn  Mn10  1  0.95184823  0.36974801  0.78810256  1.0
  Mn  Mn11  1  0.45184823  0.13025199  0.21189744  1.0
  Si  Si12  1  0.44047015  0.94047015  0.55952985  1.0
  Si  Si13  1  0.94047015  0.55952985  0.44047015  1.0
  Si  Si14  1  0.55952985  0.44047015  0.94047015  1.0
  Si  Si15  1  0.05952985  0.05952985  0.05952985  1.0
  Ir  Ir16  1  0.81333831  0.31333831  0.18666169  1.0
  Ir  Ir17  1  0.31333831  0.18666169  0.81333831  1.0
  Ir  Ir18  1  0.18666169  0.81333831  0.31333831  1.0
  Ir  Ir19  1  0.68666169  0.68666169  0.68666169  1.0
