# generated using pymatgen
data_BaMnO3
_symmetry_space_group_name_H-M   'P 1'
_cell_length_a   5.74100134
_cell_length_b   5.74100134
_cell_length_c   18.61341225
_cell_angle_alpha   90.00000000
_cell_angle_beta   90.00000000
_cell_angle_gamma   120.00000000
_symmetry_Int_Tables_number   1
_chemical_formula_structural   BaMnO3
_chemical_formula_sum   'Ba8 Mn8 O24'
_cell_volume   531.29034518
_cell_formula_units_Z   8
loop_
 _symmetry_equiv_pos_site_id
 _symmetry_equiv_pos_as_xyz
  1  'x, y, z'
loop_
 _atom_site_type_symbol
 _atom_site_label
 _atom_site_symmetry_multiplicity
 _atom_site_fract_x
 _atom_site_fract_y
 _atom_site_fract_z
 _atom_site_occupancy
  Ba  Ba0  1  0.33333333  0.66666667  0.37330317  1.0
  Ba  Ba1  1  0.33333333  0.66666667  0.12669683  1.0
  Ba  Ba2  1  0.66666667  0.33333333  0.87330317  1.0
  Ba  Ba3  1  0.66666667  0.33333333  0.62669683  1.0
  Ba  Ba4  1  0.00000000  0.00000000  0.25000000  1.0
  Ba  Ba5  1  0.00000000  0.00000000  0.75000000  1.0
  Ba  Ba6  1  0.00000000  0.00000000  0.50000000  1.0
  Ba  Ba7  1  0.00000000  0.00000000  0.00000000  1.0
  Mn  Mn8  1  0.33333333  0.66666667  0.94444876  1.0
  Mn  Mn9  1  0.33333333  0.66666667  0.55555124  1.0
  Mn  Mn10  1  0.66666667  0.33333333  0.44444876  1.0
  Mn  Mn11  1  0.66666667  0.33333333  0.05555124  1.0
  Mn  Mn12  1  0.33333333  0.66666667  0.81005299  1.0
  Mn  Mn13  1  0.33333333  0.66666667  0.68994701  1.0
  Mn  Mn14  1  0.66666667  0.33333333  0.31005299  1.0
  Mn  Mn15  1  0.66666667  0.33333333  0.18994701  1.0
  O  O16  1  0.18681809  0.81318191  0.87704558  1.0
  O  O17  1  0.18681809  0.81318191  0.62295442  1.0
  O  O18  1  0.18681809  0.37363618  0.87704558  1.0
  O  O19  1  0.18681809  0.37363618  0.62295442  1.0
  O  O20  1  0.81318191  0.18681809  0.37704558  1.0
  O  O21  1  0.81318191  0.18681809  0.12295442  1.0
  O  O22  1  0.81318191  0.62636382  0.37704558  1.0
  O  O23  1  0.81318191  0.62636382  0.12295442  1.0
  O  O24  1  0.62636382  0.81318191  0.87704558  1.0
  O  O25  1  0.62636382  0.81318191  0.62295442  1.0
  O  O26  1  0.37363618  0.18681809  0.37704558  1.0
  O  O27  1  0.37363618  0.18681809  0.12295442  1.0
  O  O28  1  0.51310610  0.48689390  0.25000000  1.0
  O  O29  1  0.51310610  0.02621220  0.25000000  1.0
  O  O30  1  0.48689390  0.51310610  0.75000000  1.0
  O  O31  1  0.48689390  -0.02621220  0.75000000  1.0
  O  O32  1  -0.02621220  0.48689390  0.25000000  1.0
  O  O33  1  0.02621220  0.51310610  0.75000000  1.0
  O  O34  1  0.50000000  0.50000000  0.50000000  1.0
  O  O35  1  0.50000000  0.50000000  0.00000000  1.0
  O  O36  1  0.50000000  0.00000000  0.50000000  1.0
  O  O37  1  0.50000000  0.00000000  0.00000000  1.0
  O  O38  1  0.00000000  0.50000000  0.50000000  1.0
  O  O39  1  0.00000000  0.50000000  0.00000000  1.0
