# generated using pymatgen
data_Cr(ClO)2
_symmetry_space_group_name_H-M   'P 1'
_cell_length_a   7.14177378
_cell_length_b   5.44545744
_cell_length_c   7.72071851
_cell_angle_alpha   90.00000000
_cell_angle_beta   105.05823133
_cell_angle_gamma   90.00000000
_symmetry_Int_Tables_number   1
_chemical_formula_structural   Cr(ClO)2
_chemical_formula_sum   'Cr2 Cl4 O4'
_cell_volume   289.95022131
_cell_formula_units_Z   2
loop_
 _symmetry_equiv_pos_site_id
 _symmetry_equiv_pos_as_xyz
  1  'x, y, z'
loop_
 _atom_site_type_symbol
 _atom_site_label
 _atom_site_symmetry_multiplicity
 _atom_site_fract_x
 _atom_site_fract_y
 _atom_site_fract_z
 _atom_site_occupancy
  Cr  Cr0  1  0.83001748  0.12975244  0.72737922  1.0
  Cr  Cr1  1  0.16998252  0.62975244  0.27262078  1.0
  Cl  Cl2  1  0.72960860  0.00965526  0.45775766  1.0
  Cl  Cl3  1  0.27039140  0.50965526  0.54224234  1.0
  Cl  Cl4  1  0.64310550  0.00931357  0.88303388  1.0
  Cl  Cl5  1  0.35689450  0.50931357  0.11696612  1.0
  O  O6  1  0.83757474  0.41849568  0.73006778  1.0
  O  O7  1  0.16242526  0.91849568  0.26993222  1.0
  O  O8  1  0.03979969  0.02618305  0.80969429  1.0
  O  O9  1  0.96020031  0.52618305  0.19030571  1.0
