# generated using pymatgen
data_Na2ZrSi2O7
_symmetry_space_group_name_H-M   'P 1'
_cell_length_a   5.52464033
_cell_length_b   9.03737642
_cell_length_c   6.66012689
_cell_angle_alpha   70.36895366
_cell_angle_beta   86.61733205
_cell_angle_gamma   88.49398734
_symmetry_Int_Tables_number   1
_chemical_formula_structural   Na2ZrSi2O7
_chemical_formula_sum   'Na4 Zr2 Si4 O14'
_cell_volume   312.64741182
_cell_formula_units_Z   2
loop_
 _symmetry_equiv_pos_site_id
 _symmetry_equiv_pos_as_xyz
  1  'x, y, z'
loop_
 _atom_site_type_symbol
 _atom_site_label
 _atom_site_symmetry_multiplicity
 _atom_site_fract_x
 _atom_site_fract_y
 _atom_site_fract_z
 _atom_site_occupancy
  Na  Na0  1  -0.74051139  -0.98834588  -0.34159192  1.0
  Na  Na1  1  -0.25948861  -0.01165412  -0.65840808  1.0
  Na  Na2  1  -0.23529884  -0.61088195  -0.89244449  1.0
  Na  Na3  1  -0.76470116  -0.38911805  -0.10755551  1.0
  Zr  Zr4  1  -0.72814952  -0.22812118  -0.70773616  1.0
  Zr  Zr5  1  -0.27185048  -0.77187882  -0.29226384  1.0
  Si  Si6  1  -0.80413156  -0.83494519  -0.93724432  1.0
  Si  Si7  1  -0.19586844  -0.16505481  -0.06275568  1.0
  Si  Si8  1  -0.72788957  -0.64424018  -0.64727313  1.0
  Si  Si9  1  -0.27211043  -0.35575982  -0.35272687  1.0
  O  O10  1  -0.95734029  -0.72413082  -0.48786442  1.0
  O  O11  1  -0.04265971  -0.27586918  -0.51213558  1.0
  O  O12  1  -0.77649743  -0.66542737  -0.88455667  1.0
  O  O13  1  -0.22350257  -0.33457263  -0.11544333  1.0
  O  O14  1  -0.76844226  -0.98641126  -0.71997248  1.0
  O  O15  1  -0.23155774  -0.01358874  -0.28002752  1.0
  O  O16  1  -0.70480971  -0.45493597  -0.71241920  1.0
  O  O17  1  -0.29519029  -0.54506403  -0.28758080  1.0
  O  O18  1  -0.60189503  -0.83070781  -0.12519866  1.0
  O  O19  1  -0.39810497  -0.16929219  -0.87480134  1.0
  O  O20  1  -0.47000205  -0.73357628  -0.57099628  1.0
  O  O21  1  -0.52999795  -0.26642372  -0.42900372  1.0
  O  O22  1  -0.08634157  -0.82903793  -0.00575347  1.0
  O  O23  1  -0.91365843  -0.17096207  -0.99424653  1.0
