# generated using pymatgen
data_TlPO3
_symmetry_space_group_name_H-M   'P 1'
_cell_length_a   6.53263136
_cell_length_b   4.38221827
_cell_length_c   13.39027633
_cell_angle_alpha   90.00000000
_cell_angle_beta   112.62359235
_cell_angle_gamma   90.00000000
_symmetry_Int_Tables_number   1
_chemical_formula_structural   TlPO3
_chemical_formula_sum   'Tl4 P4 O12'
_cell_volume   353.83257799
_cell_formula_units_Z   4
loop_
 _symmetry_equiv_pos_site_id
 _symmetry_equiv_pos_as_xyz
  1  'x, y, z'
loop_
 _atom_site_type_symbol
 _atom_site_label
 _atom_site_symmetry_multiplicity
 _atom_site_fract_x
 _atom_site_fract_y
 _atom_site_fract_z
 _atom_site_occupancy
  Tl  Tl0  1  0.30941511  0.17580479  0.09189900  1.0
  Tl  Tl1  1  0.30941511  0.32419521  0.59189900  1.0
  Tl  Tl2  1  0.69058489  0.67580479  0.40810100  1.0
  Tl  Tl3  1  0.69058489  0.82419521  0.90810100  1.0
  P  P4  1  0.86047649  0.48541778  0.18147246  1.0
  P  P5  1  0.86047649  0.01458222  0.68147246  1.0
  P  P6  1  0.13952351  0.98541778  0.31852754  1.0
  P  P7  1  0.13952351  0.51458222  0.81852754  1.0
  O  O8  1  0.93935133  0.23690722  0.28033763  1.0
  O  O9  1  0.93935133  0.26309278  0.78033763  1.0
  O  O10  1  0.06064867  0.73690722  0.21966237  1.0
  O  O11  1  0.06064867  0.76309278  0.71966237  1.0
  O  O12  1  0.86430428  0.34681127  0.07912099  1.0
  O  O13  1  0.86430428  0.15318873  0.57912099  1.0
  O  O14  1  0.13569572  0.84681127  0.42087901  1.0
  O  O15  1  0.13569572  0.65318873  0.92087901  1.0
  O  O16  1  0.35034415  0.12208021  0.31657740  1.0
  O  O17  1  0.35034415  0.37791979  0.81657740  1.0
  O  O18  1  0.64965585  0.62208021  0.18342260  1.0
  O  O19  1  0.64965585  0.87791979  0.68342260  1.0
