# generated using pymatgen
data_Sr3Ag2
_symmetry_space_group_name_H-M   'P 1'
_cell_length_a   8.50359844
_cell_length_b   8.50359844
_cell_length_c   8.50359844
_cell_angle_alpha   72.13235277
_cell_angle_beta   72.13235277
_cell_angle_gamma   72.13235277
_symmetry_Int_Tables_number   1
_chemical_formula_structural   Sr3Ag2
_chemical_formula_sum   'Sr9 Ag6'
_cell_volume   541.44936974
_cell_formula_units_Z   3
loop_
 _symmetry_equiv_pos_site_id
 _symmetry_equiv_pos_as_xyz
  1  'x, y, z'
loop_
 _atom_site_type_symbol
 _atom_site_label
 _atom_site_symmetry_multiplicity
 _atom_site_fract_x
 _atom_site_fract_y
 _atom_site_fract_z
 _atom_site_occupancy
  Sr  Sr0  1  0.83577264  0.61014069  -0.66375562  1.0
  Sr  Sr1  1  0.38985931  0.66375562  -0.83577264  1.0
  Sr  Sr2  1  0.66375562  0.16422736  -0.61014069  1.0
  Sr  Sr3  1  0.16422736  0.38985931  -0.33624438  1.0
  Sr  Sr4  1  0.61014069  0.33624438  -0.16422736  1.0
  Sr  Sr5  1  0.33624438  0.83577264  -0.38985931  1.0
  Sr  Sr6  1  0.79412000  0.79412000  -0.20588000  1.0
  Sr  Sr7  1  1.20588000  1.20588000  0.20588000  1.0
  Sr  Sr8  1  -0.00000000  0.00000000  -0.00000000  1.0
  Ag  Ag9  1  0.58888194  -0.04047965  0.14106010  1.0
  Ag  Ag10  1  1.04047965  -0.14106010  -0.58888194  1.0
  Ag  Ag11  1  0.85893990  -0.58888194  0.04047965  1.0
  Ag  Ag12  1  0.41111806  0.04047965  -0.14106010  1.0
  Ag  Ag13  1  0.95952035  0.14106010  -0.41111806  1.0
  Ag  Ag14  1  1.14106010  -0.41111806  -0.04047965  1.0
