# generated using pymatgen
data_CsFe(SeO4)2
_symmetry_space_group_name_H-M   'P 1'
_cell_length_a   5.47980691
_cell_length_b   5.47980691
_cell_length_c   8.83056873
_cell_angle_alpha   90.00000000
_cell_angle_beta   90.00000000
_cell_angle_gamma   120.00000000
_symmetry_Int_Tables_number   1
_chemical_formula_structural   CsFe(SeO4)2
_chemical_formula_sum   'Cs1 Fe1 Se2 O8'
_cell_volume   229.64120527
_cell_formula_units_Z   1
loop_
 _symmetry_equiv_pos_site_id
 _symmetry_equiv_pos_as_xyz
  1  'x, y, z'
loop_
 _atom_site_type_symbol
 _atom_site_label
 _atom_site_symmetry_multiplicity
 _atom_site_fract_x
 _atom_site_fract_y
 _atom_site_fract_z
 _atom_site_occupancy
  Cs  Cs0  1  -0.00000000  -0.00000000  0.50000000  1.0
  Fe  Fe1  1  -0.00000000  -0.00000000  -0.00000000  1.0
  Se  Se2  1  0.33333333  0.66666667  0.20027169  1.0
  Se  Se3  1  0.66666667  0.33333333  0.79972831  1.0
  O  O4  1  0.16649767  0.83460609  0.14062294  1.0
  O  O5  1  0.83460609  0.16649767  0.85937706  1.0
  O  O6  1  0.66810842  0.83350233  0.14062294  1.0
  O  O7  1  0.16539391  0.33189158  0.14062294  1.0
  O  O8  1  0.83350233  0.66810842  0.85937706  1.0
  O  O9  1  0.33189158  0.16539391  0.85937706  1.0
  O  O10  1  0.33333333  0.66666667  0.38608340  1.0
  O  O11  1  0.66666667  0.33333333  0.61391660  1.0
