# generated using pymatgen
data_In2O3
_symmetry_space_group_name_H-M   'P 1'
_cell_length_a   8.91685850
_cell_length_b   8.91685850
_cell_length_c   8.91685850
_cell_angle_alpha   109.47122063
_cell_angle_beta   109.47122063
_cell_angle_gamma   109.47122063
_symmetry_Int_Tables_number   1
_chemical_formula_structural   In2O3
_chemical_formula_sum   'In16 O24'
_cell_volume   545.77512036
_cell_formula_units_Z   8
loop_
 _symmetry_equiv_pos_site_id
 _symmetry_equiv_pos_as_xyz
  1  'x, y, z'
loop_
 _atom_site_type_symbol
 _atom_site_label
 _atom_site_symmetry_multiplicity
 _atom_site_fract_x
 _atom_site_fract_y
 _atom_site_fract_z
 _atom_site_occupancy
  In  In0  1  1.21621417  0.96621417  1.25000000  1.0
  In  In1  1  1.25000000  1.21621417  0.96621417  1.0
  In  In2  1  0.75000000  1.28378583  0.53378583  1.0
  In  In3  1  0.96621417  1.25000000  1.21621417  1.0
  In  In4  1  1.53378583  0.75000000  1.28378583  1.0
  In  In5  1  1.28378583  0.53378583  0.75000000  1.0
  In  In6  1  0.71620931  0.46620931  0.25000000  1.0
  In  In7  1  0.25000000  0.71620931  0.46620931  1.0
  In  In8  1  0.75000000  0.78379069  1.03379069  1.0
  In  In9  1  0.46620931  1.25000000  0.71620931  1.0
  In  In10  1  1.03379069  0.75000000  0.78379069  1.0
  In  In11  1  0.78379069  1.03379069  0.75000000  1.0
  In  In12  1  0.49998761  0.49998761  0.49998761  1.0
  In  In13  1  1.50000000  1.00000000  1.00001239  1.0
  In  In14  1  1.00000000  1.00001239  1.50000000  1.0
  In  In15  1  1.00001239  0.50000000  1.00000000  1.0
  O  O16  1  1.04420112  1.27209465  1.00724445  1.0
  O  O17  1  0.76485019  1.03695666  0.49275555  1.0
  O  O18  1  1.00724445  1.04420112  0.27209465  1.0
  O  O19  1  1.27210647  0.73514981  1.22790535  1.0
  O  O20  1  0.27209465  1.00724445  1.04420112  1.0
  O  O21  1  1.46304334  1.22789353  1.45579888  1.0
  O  O22  1  1.73514981  1.22790535  1.27210647  1.0
  O  O23  1  0.45579888  0.46304334  0.22789353  1.0
  O  O24  1  0.22789353  0.45579888  0.46304334  1.0
  O  O25  1  0.49275555  0.76485019  1.03695666  1.0
  O  O26  1  1.03695666  0.49275555  0.76485019  1.0
  O  O27  1  1.22790535  1.27210647  1.73514981  1.0
  O  O28  1  0.99276614  0.95581717  0.72794289  1.0
  O  O29  1  0.72787427  1.26482325  0.77205711  1.0
  O  O30  1  1.72794289  0.99276614  0.95581717  1.0
  O  O31  1  0.53694897  0.77212573  0.54418283  1.0
  O  O32  1  0.95581717  1.72794289  0.99276614  1.0
  O  O33  1  1.23517675  0.96305103  1.50723386  1.0
  O  O34  1  1.77212573  1.54418283  1.53694897  1.0
  O  O35  1  1.50723386  1.23517675  0.96305103  1.0
  O  O36  1  0.96305103  0.50723386  1.23517675  1.0
  O  O37  1  0.77205711  0.72787427  0.26482325  1.0
  O  O38  1  0.26482325  0.77205711  0.72787427  1.0
  O  O39  1  1.54418283  1.53694897  1.77212573  1.0
