# generated using pymatgen
data_KSmO2
_symmetry_space_group_name_H-M   'P 1'
_cell_length_a   6.56756909
_cell_length_b   6.56756909
_cell_length_c   6.56756909
_cell_angle_alpha   31.74829518
_cell_angle_beta   31.74829518
_cell_angle_gamma   31.74829518
_symmetry_Int_Tables_number   1
_chemical_formula_structural   KSmO2
_chemical_formula_sum   'K1 Sm1 O2'
_cell_volume   69.65941479
_cell_formula_units_Z   1
loop_
 _symmetry_equiv_pos_site_id
 _symmetry_equiv_pos_as_xyz
  1  'x, y, z'
loop_
 _atom_site_type_symbol
 _atom_site_label
 _atom_site_symmetry_multiplicity
 _atom_site_fract_x
 _atom_site_fract_y
 _atom_site_fract_z
 _atom_site_occupancy
  K  K0  1  0.00000000  0.00000000  0.00000000  1.0
  Sm  Sm1  1  1.50000000  0.50000000  0.50000000  1.0
  O  O2  1  0.77066648  0.77066648  0.77066648  1.0
  O  O3  1  1.22933352  1.22933352  0.22933352  1.0
