# generated using pymatgen
data_Bi2(Pb2S3)3
_symmetry_space_group_name_H-M   'P 1'
_cell_length_a   7.24129771
_cell_length_b   7.24129771
_cell_length_c   32.28740918
_cell_angle_alpha   90.00000000
_cell_angle_beta   90.00000000
_cell_angle_gamma   146.74248050
_symmetry_Int_Tables_number   1
_chemical_formula_structural   Bi2(Pb2S3)3
_chemical_formula_sum   'Bi4 Pb12 S18'
_cell_volume   928.46558218
_cell_formula_units_Z   2
loop_
 _symmetry_equiv_pos_site_id
 _symmetry_equiv_pos_as_xyz
  1  'x, y, z'
loop_
 _atom_site_type_symbol
 _atom_site_label
 _atom_site_symmetry_multiplicity
 _atom_site_fract_x
 _atom_site_fract_y
 _atom_site_fract_z
 _atom_site_occupancy
  Bi  Bi0  1  0.45776047  0.54223953  0.88211054  1.0
  Bi  Bi1  1  0.45776047  0.54223953  0.61788946  1.0
  Bi  Bi2  1  -0.45776047  0.45776047  0.38211054  1.0
  Bi  Bi3  1  -0.45776047  0.45776047  0.11788946  1.0
  Pb  Pb4  1  0.18487130  0.81512870  0.82447772  1.0
  Pb  Pb5  1  0.18487130  0.81512870  0.67552228  1.0
  Pb  Pb6  1  -0.18487130  0.18487130  0.32447772  1.0
  Pb  Pb7  1  -0.18487130  0.18487130  0.17552228  1.0
  Pb  Pb8  1  0.26865015  0.73134985  0.44195105  1.0
  Pb  Pb9  1  0.26865015  0.73134985  0.05804895  1.0
  Pb  Pb10  1  -0.26865015  0.26865015  0.94195105  1.0
  Pb  Pb11  1  -0.26865015  0.26865015  0.55804895  1.0
  Pb  Pb12  1  -0.07206318  0.07206318  0.75000000  1.0
  Pb  Pb13  1  0.07206318  0.92793682  0.25000000  1.0
  Pb  Pb14  1  0.00000000  0.00000000  0.00000000  1.0
  Pb  Pb15  1  0.00000000  0.00000000  0.50000000  1.0
  S  S16  1  0.08229251  0.91770749  0.91400516  1.0
  S  S17  1  0.08229251  0.91770749  0.58599484  1.0
  S  S18  1  -0.08229251  0.08229251  0.41400516  1.0
  S  S19  1  -0.08229251  0.08229251  0.08599484  1.0
  S  S20  1  0.17396198  0.82603802  0.36104842  1.0
  S  S21  1  0.17396198  0.82603802  0.13895158  1.0
  S  S22  1  -0.17396198  0.17396198  0.86104842  1.0
  S  S23  1  -0.17396198  0.17396198  0.63895158  1.0
  S  S24  1  0.36232848  0.63767152  0.97039607  1.0
  S  S25  1  0.36232848  0.63767152  0.52960393  1.0
  S  S26  1  -0.36232848  0.36232848  0.47039607  1.0
  S  S27  1  -0.36232848  0.36232848  0.02960393  1.0
  S  S28  1  -0.45963102  0.45963102  0.80750525  1.0
  S  S29  1  -0.45963102  0.45963102  0.69249475  1.0
  S  S30  1  0.45963102  0.54036898  0.30750525  1.0
  S  S31  1  0.45963102  0.54036898  0.19249475  1.0
  S  S32  1  0.28609358  0.71390642  0.75000000  1.0
  S  S33  1  -0.28609358  0.28609358  0.25000000  1.0
