# generated using pymatgen
data_Sm2Fe2Se2O3
_symmetry_space_group_name_H-M   'P 1'
_cell_length_a   9.84610491
_cell_length_b   9.84610491
_cell_length_c   9.84610491
_cell_angle_alpha   156.59798262
_cell_angle_beta   156.59798262
_cell_angle_gamma   33.33401401
_symmetry_Int_Tables_number   1
_chemical_formula_structural   Sm2Fe2Se2O3
_chemical_formula_sum   'Sm2 Fe2 Se2 O3'
_cell_volume   150.44185241
_cell_formula_units_Z   1
loop_
 _symmetry_equiv_pos_site_id
 _symmetry_equiv_pos_as_xyz
  1  'x, y, z'
loop_
 _atom_site_type_symbol
 _atom_site_label
 _atom_site_symmetry_multiplicity
 _atom_site_fract_x
 _atom_site_fract_y
 _atom_site_fract_z
 _atom_site_occupancy
  Fe  Fe0  1  0.50000000  0.00000000  0.50000000  1.0
  Fe  Fe1  1  0.00000000  0.50000000  0.50000000  1.0
  O  O2  1  0.00000000  0.00000000  0.00000000  1.0
  O  O3  1  0.25000000  0.75000000  0.50000000  1.0
  O  O4  1  0.75000000  0.25000000  0.50000000  1.0
  Se  Se5  1  0.59426033  0.59426033  1.00000000  1.0
  Se  Se6  1  0.40573967  0.40573967  0.00000000  1.0
  Sm  Sm7  1  0.81137610  0.81137610  1.00000000  1.0
  Sm  Sm8  1  0.18862390  0.18862390  -0.00000000  1.0
