# generated using pymatgen
data_Ba2CuS2
_symmetry_space_group_name_H-M   'P 1'
_cell_length_a   6.50870267
_cell_length_b   6.50870267
_cell_length_c   6.50870267
_cell_angle_alpha   122.54617859
_cell_angle_beta   122.54617859
_cell_angle_gamma   85.64371055
_symmetry_Int_Tables_number   1
_chemical_formula_structural   Ba2CuS2
_chemical_formula_sum   'Ba2 Cu1 S2'
_cell_volume   186.87774018
_cell_formula_units_Z   1
loop_
 _symmetry_equiv_pos_site_id
 _symmetry_equiv_pos_as_xyz
  1  'x, y, z'
loop_
 _atom_site_type_symbol
 _atom_site_label
 _atom_site_symmetry_multiplicity
 _atom_site_fract_x
 _atom_site_fract_y
 _atom_site_fract_z
 _atom_site_occupancy
  Ba  Ba0  1  0.25000000  0.75000000  0.50000000  1.0
  Ba  Ba1  1  0.75000000  0.25000000  0.50000000  1.0
  Cu  Cu2  1  0.00000000  0.00000000  0.00000000  1.0
  S  S3  1  0.77322582  0.77322582  1.00000000  1.0
  S  S4  1  0.22677418  0.22677418  -0.00000000  1.0
