# generated using pymatgen
data_Sr2Zn2As3
_symmetry_space_group_name_H-M   'P 1'
_cell_length_a   8.46138368
_cell_length_b   8.46138368
_cell_length_c   12.06636528
_cell_angle_alpha   55.02041174
_cell_angle_beta   124.97958826
_cell_angle_gamma   150.43615677
_symmetry_Int_Tables_number   1
_chemical_formula_structural   Sr2Zn2As3
_chemical_formula_sum   'Sr4 Zn4 As6'
_cell_volume   343.23702466
_cell_formula_units_Z   2
loop_
 _symmetry_equiv_pos_site_id
 _symmetry_equiv_pos_as_xyz
  1  'x, y, z'
loop_
 _atom_site_type_symbol
 _atom_site_label
 _atom_site_symmetry_multiplicity
 _atom_site_fract_x
 _atom_site_fract_y
 _atom_site_fract_z
 _atom_site_occupancy
  Sr  Sr0  1  0.73398504  -0.73398504  0.33708744  1.0
  Sr  Sr1  1  0.26601496  -0.26601496  0.66291256  1.0
  Sr  Sr2  1  0.60548288  0.39451712  0.94903110  1.0
  Sr  Sr3  1  1.39451712  -0.39451712  0.05096890  1.0
  Zn  Zn4  1  0.96120722  -0.96120722  0.68739073  1.0
  Zn  Zn5  1  0.03879278  -0.03879278  0.31260927  1.0
  Zn  Zn6  1  0.58860269  0.41139731  0.65064926  1.0
  Zn  Zn7  1  1.41139731  -0.41139731  0.34935074  1.0
  As  As8  1  0.92369761  0.07630239  0.87488039  1.0
  As  As9  1  1.07630239  -0.07630239  0.12511961  1.0
  As  As10  1  0.84814661  -0.84814661  0.20333799  1.0
  As  As11  1  0.15185339  -0.15185339  0.79666201  1.0
  As  As12  1  0.60998328  0.39001672  0.45700462  1.0
  As  As13  1  1.39001672  -0.39001672  0.54299538  1.0
