# generated using pymatgen
data_PPb
_symmetry_space_group_name_H-M   'P 1'
_cell_length_a   5.79444067
_cell_length_b   6.21430897
_cell_length_c   12.97140516
_cell_angle_alpha   90.00000000
_cell_angle_beta   116.55854965
_cell_angle_gamma   90.00000000
_symmetry_Int_Tables_number   1
_chemical_formula_structural   PPb
_chemical_formula_sum   'P8 Pb8'
_cell_volume   417.79286338
_cell_formula_units_Z   8
loop_
 _symmetry_equiv_pos_site_id
 _symmetry_equiv_pos_as_xyz
  1  'x, y, z'
loop_
 _atom_site_type_symbol
 _atom_site_label
 _atom_site_symmetry_multiplicity
 _atom_site_fract_x
 _atom_site_fract_y
 _atom_site_fract_z
 _atom_site_occupancy
  P  P0  1  0.67152250  0.85113588  0.92168098  1.0
  P  P1  1  0.67152250  0.64886412  0.42168098  1.0
  P  P2  1  0.32847750  0.14886412  0.07831902  1.0
  P  P3  1  0.32847750  0.35113588  0.57831902  1.0
  P  P4  1  0.82848391  0.64886825  0.07832052  1.0
  P  P5  1  0.82848391  0.85113175  0.57832052  1.0
  P  P6  1  0.17151609  0.35113175  0.92167948  1.0
  P  P7  1  0.17151609  0.14886825  0.42167948  1.0
  Pb  Pb8  1  0.61321035  0.39424404  0.86335930  1.0
  Pb  Pb9  1  0.61321035  0.10575596  0.36335930  1.0
  Pb  Pb10  1  0.38678965  0.60575596  0.13664070  1.0
  Pb  Pb11  1  0.38678965  0.89424404  0.63664070  1.0
  Pb  Pb12  1  0.11319289  0.89423873  0.86336738  1.0
  Pb  Pb13  1  0.11319289  0.60576127  0.36336738  1.0
  Pb  Pb14  1  0.88680711  0.10576127  0.13663262  1.0
  Pb  Pb15  1  0.88680711  0.39423873  0.63663262  1.0
