# generated using pymatgen
data_Hf9V4S
_symmetry_space_group_name_H-M   'P 1'
_cell_length_a   8.56694510
_cell_length_b   8.56694510
_cell_length_c   8.42168192
_cell_angle_alpha   90.00000000
_cell_angle_beta   90.00000000
_cell_angle_gamma   120.00000000
_symmetry_Int_Tables_number   1
_chemical_formula_structural   Hf9V4S
_chemical_formula_sum   'Hf18 V8 S2'
_cell_volume   535.28051294
_cell_formula_units_Z   2
loop_
 _symmetry_equiv_pos_site_id
 _symmetry_equiv_pos_as_xyz
  1  'x, y, z'
loop_
 _atom_site_type_symbol
 _atom_site_label
 _atom_site_symmetry_multiplicity
 _atom_site_fract_x
 _atom_site_fract_y
 _atom_site_fract_z
 _atom_site_occupancy
  Hf  Hf0  1  0.19560189  0.80439811  0.44888072  1.0
  Hf  Hf1  1  0.19560189  0.80439811  0.05111928  1.0
  Hf  Hf2  1  0.19560189  0.39120378  0.44888072  1.0
  Hf  Hf3  1  0.19560189  0.39120378  0.05111928  1.0
  Hf  Hf4  1  0.80439811  0.19560189  0.94888072  1.0
  Hf  Hf5  1  0.80439811  0.19560189  0.55111928  1.0
  Hf  Hf6  1  0.80439811  0.60879622  0.94888072  1.0
  Hf  Hf7  1  0.80439811  0.60879622  0.55111928  1.0
  Hf  Hf8  1  0.60879622  0.80439811  0.44888072  1.0
  Hf  Hf9  1  0.60879622  0.80439811  0.05111928  1.0
  Hf  Hf10  1  0.39120378  0.19560189  0.94888072  1.0
  Hf  Hf11  1  0.39120378  0.19560189  0.55111928  1.0
  Hf  Hf12  1  0.54373754  0.45626246  0.25000000  1.0
  Hf  Hf13  1  0.54373754  0.08747509  0.25000000  1.0
  Hf  Hf14  1  0.45626246  0.54373754  0.75000000  1.0
  Hf  Hf15  1  0.45626246  0.91252491  0.75000000  1.0
  Hf  Hf16  1  0.91252491  0.45626246  0.25000000  1.0
  Hf  Hf17  1  0.08747509  0.54373754  0.75000000  1.0
  V  V18  1  0.89323554  0.10676446  0.25000000  1.0
  V  V19  1  0.89323554  0.78647109  0.25000000  1.0
  V  V20  1  0.10676446  0.89323554  0.75000000  1.0
  V  V21  1  0.10676446  0.21352891  0.75000000  1.0
  V  V22  1  0.21352891  0.10676446  0.25000000  1.0
  V  V23  1  0.78647109  0.89323554  0.75000000  1.0
  V  V24  1  0.00000000  0.00000000  0.50000000  1.0
  V  V25  1  0.00000000  0.00000000  0.00000000  1.0
  S  S26  1  0.33333333  0.66666667  0.25000000  1.0
  S  S27  1  0.66666667  0.33333333  0.75000000  1.0
