# generated using pymatgen
data_LiV(SiO3)2
_symmetry_space_group_name_H-M   'P 1'
_cell_length_a   9.40286571
_cell_length_b   8.71373428
_cell_length_c   5.26460764
_cell_angle_alpha   90.00000000
_cell_angle_beta   102.16993264
_cell_angle_gamma   90.00000000
_symmetry_Int_Tables_number   1
_chemical_formula_structural   LiV(SiO3)2
_chemical_formula_sum   'Li4 V4 Si8 O24'
_cell_volume   421.65685520
_cell_formula_units_Z   4
loop_
 _symmetry_equiv_pos_site_id
 _symmetry_equiv_pos_as_xyz
  1  'x, y, z'
loop_
 _atom_site_type_symbol
 _atom_site_label
 _atom_site_symmetry_multiplicity
 _atom_site_fract_x
 _atom_site_fract_y
 _atom_site_fract_z
 _atom_site_occupancy
  Li  Li0  1  0.75029741  0.99204040  0.48481144  1.0
  Li  Li1  1  0.75029741  0.50795960  0.98481144  1.0
  Li  Li2  1  0.24970259  0.49204040  0.01518856  1.0
  Li  Li3  1  0.24970259  0.00795960  0.51518856  1.0
  V  V4  1  0.74979694  0.34159031  0.48121447  1.0
  V  V5  1  0.74979694  0.15840969  0.98121447  1.0
  V  V6  1  0.25020306  0.84159031  0.01878553  1.0
  V  V7  1  0.25020306  0.65840969  0.51878553  1.0
  Si  Si8  1  0.94967139  0.84118766  0.23064410  1.0
  Si  Si9  1  0.94967139  0.65881234  0.73064410  1.0
  Si  Si10  1  0.05032861  0.34118766  0.26935590  1.0
  Si  Si11  1  0.05032861  0.15881234  0.76935590  1.0
  Si  Si12  1  0.44894634  0.15894621  0.19829977  1.0
  Si  Si13  1  0.44894634  0.34105379  0.69829977  1.0
  Si  Si14  1  0.55105366  0.65894621  0.30170023  1.0
  Si  Si15  1  0.55105366  0.84105379  0.80170023  1.0
  O  O16  1  0.89101502  0.77429890  0.48325969  1.0
  O  O17  1  0.89101502  0.72570110  0.98325969  1.0
  O  O18  1  0.10898498  0.27429890  0.01674031  1.0
  O  O19  1  0.10898498  0.22570110  0.51674031  1.0
  O  O20  1  0.87888073  0.00995371  0.18770537  1.0
  O  O21  1  0.87888073  0.49004629  0.68770537  1.0
  O  O22  1  0.12111927  0.50995371  0.31229463  1.0
  O  O23  1  0.12111927  0.99004629  0.81229463  1.0
  O  O24  1  0.87002487  0.33672591  0.20116597  1.0
  O  O25  1  0.87002487  0.16327409  0.70116597  1.0
  O  O26  1  0.12997513  0.83672591  0.29883403  1.0
  O  O27  1  0.12997513  0.66327409  0.79883403  1.0
  O  O28  1  0.63000143  0.16228048  0.26424049  1.0
  O  O29  1  0.63000143  0.33771952  0.76424049  1.0
  O  O30  1  0.36999857  0.66228048  0.23575951  1.0
  O  O31  1  0.36999857  0.83771952  0.73575951  1.0
  O  O32  1  0.62689648  0.49611011  0.26656496  1.0
  O  O33  1  0.62689648  0.00388989  0.76656496  1.0
  O  O34  1  0.37310352  0.99611011  0.23343504  1.0
  O  O35  1  0.37310352  0.50388989  0.73343504  1.0
  O  O36  1  0.39467907  0.28107003  0.39721147  1.0
  O  O37  1  0.39467907  0.21892997  0.89721147  1.0
  O  O38  1  0.60532093  0.78107003  0.10278853  1.0
  O  O39  1  0.60532093  0.71892997  0.60278853  1.0
