# generated using pymatgen
data_Mn2InC10ClO10
_symmetry_space_group_name_H-M   'P 1'
_cell_length_a   9.22636840
_cell_length_b   10.81839276
_cell_length_c   10.50519036
_cell_angle_alpha   117.82933863
_cell_angle_beta   91.47343972
_cell_angle_gamma   94.97880320
_symmetry_Int_Tables_number   1
_chemical_formula_structural   Mn2InC10ClO10
_chemical_formula_sum   'Mn4 In2 C20 Cl2 O20'
_cell_volume   921.18182398
_cell_formula_units_Z   2
loop_
 _symmetry_equiv_pos_site_id
 _symmetry_equiv_pos_as_xyz
  1  'x, y, z'
loop_
 _atom_site_type_symbol
 _atom_site_label
 _atom_site_symmetry_multiplicity
 _atom_site_fract_x
 _atom_site_fract_y
 _atom_site_fract_z
 _atom_site_occupancy
  Mn  Mn0  1  -0.74336410  -0.56434372  -0.22227200  1.0
  Mn  Mn1  1  -0.25663590  -0.43565628  -0.77772800  1.0
  Mn  Mn2  1  -0.73872366  -0.89261823  -0.72534336  1.0
  Mn  Mn3  1  -0.26127634  -0.10738177  -0.27465664  1.0
  In  In4  1  -0.64844793  -0.64181735  -0.49046346  1.0
  In  In5  1  -0.35155207  -0.35818265  -0.50953654  1.0
  C  C6  1  -0.92186446  -0.85384386  -0.66268747  1.0
  C  C7  1  -0.07813554  -0.14615614  -0.33731253  1.0
  C  C8  1  -0.88175657  -0.48912965  -0.28584682  1.0
  C  C9  1  -0.11824343  -0.51087035  -0.71415318  1.0
  C  C10  1  -0.86751253  -0.72750211  -0.28783063  1.0
  C  C11  1  -0.13248747  -0.27249789  -0.71216937  1.0
  C  C12  1  -0.80596085  -0.05926449  -0.87733607  1.0
  C  C13  1  -0.19403915  -0.94073551  -0.12266393  1.0
  C  C14  1  -0.76088326  -0.79399111  -0.82651169  1.0
  C  C15  1  -0.23911674  -0.20600889  -0.17348831  1.0
  C  C16  1  -0.70839797  -0.96565221  -0.60129838  1.0
  C  C17  1  -0.29160203  -0.03434779  -0.39870162  1.0
  C  C18  1  -0.54562957  -0.90994834  -0.76468180  1.0
  C  C19  1  -0.45437043  -0.09005166  -0.23531820  1.0
  C  C20  1  -0.40756699  -0.34028698  -0.78842190  1.0
  C  C21  1  -0.59243301  -0.65971302  -0.21157810  1.0
  C  C22  1  -0.38088769  -0.59683398  -0.83570469  1.0
  C  C23  1  -0.61911231  -0.40316602  -0.16429531  1.0
  C  C24  1  -0.20123685  -0.49778072  -0.95954863  1.0
  C  C25  1  -0.79876315  -0.50221928  -0.04045137  1.0
  Cl  Cl26  1  -0.63786456  -0.42359796  -0.53985213  1.0
  Cl  Cl27  1  -0.36213544  -0.57640204  -0.46014787  1.0
  O  O28  1  -0.96984559  -0.44174643  -0.32416102  1.0
  O  O29  1  -0.03015441  -0.55825357  -0.67583898  1.0
  O  O30  1  -0.94679816  -0.82850670  -0.32371002  1.0
  O  O31  1  -0.05320184  -0.17149330  -0.67628998  1.0
  O  O32  1  -0.85095077  -0.16526536  -0.97524562  1.0
  O  O33  1  -0.14904923  -0.83473464  -0.02475438  1.0
  O  O34  1  -0.83307107  -0.45982208  -0.92366993  1.0
  O  O35  1  -0.16692893  -0.54017792  -0.07633007  1.0
  O  O36  1  -0.78114653  -0.73785140  -0.89440513  1.0
  O  O37  1  -0.21885347  -0.26214860  -0.10559487  1.0
  O  O38  1  -0.50132372  -0.27899116  -0.79600575  1.0
  O  O39  1  -0.49867628  -0.72100884  -0.20399425  1.0
  O  O40  1  -0.45634764  -0.70110351  -0.87904791  1.0
  O  O41  1  -0.54365236  -0.29889649  -0.12095209  1.0
  O  O42  1  -0.42625638  -0.92791671  -0.79101125  1.0
  O  O43  1  -0.57374362  -0.07208329  -0.20898875  1.0
  O  O44  1  -0.31136735  -0.98716835  -0.47532089  1.0
  O  O45  1  -0.68863265  -0.01283165  -0.52467911  1.0
  O  O46  1  -0.03801409  -0.83233587  -0.62608673  1.0
  O  O47  1  -0.96198591  -0.16766413  -0.37391327  1.0
