# generated using pymatgen
data_Nb2Si3Ni2
_symmetry_space_group_name_H-M   'P 1'
_cell_length_a   9.08962125
_cell_length_b   9.08962125
_cell_length_c   9.08962125
_cell_angle_alpha   94.36354630
_cell_angle_beta   94.36354630
_cell_angle_gamma   147.97650230
_symmetry_Int_Tables_number   1
_chemical_formula_structural   Nb2Si3Ni2
_chemical_formula_sum   'Nb8 Si12 Ni8'
_cell_volume   382.77896572
_cell_formula_units_Z   4
loop_
 _symmetry_equiv_pos_site_id
 _symmetry_equiv_pos_as_xyz
  1  'x, y, z'
loop_
 _atom_site_type_symbol
 _atom_site_label
 _atom_site_symmetry_multiplicity
 _atom_site_fract_x
 _atom_site_fract_y
 _atom_site_fract_z
 _atom_site_occupancy
  Nb  Nb0  1  0.13469025  0.13469025  0.26938049  1.0
  Nb  Nb1  1  0.86530975  0.86530975  0.73061951  1.0
  Nb  Nb2  1  1.13469025  0.86530975  1.00000000  1.0
  Nb  Nb3  1  0.86530975  0.13469025  1.00000000  1.0
  Nb  Nb4  1  0.30810732  0.50000000  0.80810732  1.0
  Nb  Nb5  1  0.69189268  0.50000000  1.19189268  1.0
  Nb  Nb6  1  0.50000000  0.69189268  0.19189268  1.0
  Nb  Nb7  1  0.50000000  1.30810732  0.80810732  1.0
  Si  Si8  1  0.00000000  0.50000000  0.50000000  1.0
  Si  Si9  1  0.50000000  1.00000000  0.50000000  1.0
  Si  Si10  1  0.74538335  0.74538335  -0.00000000  1.0
  Si  Si11  1  0.25461665  0.25461665  0.00000000  1.0
  Si  Si12  1  0.28907267  0.28907267  0.57814533  1.0
  Si  Si13  1  0.71092733  0.71092733  0.42185467  1.0
  Si  Si14  1  1.28907267  0.71092733  1.00000000  1.0
  Si  Si15  1  0.71092733  0.28907267  1.00000000  1.0
  Si  Si16  1  1.29297618  1.00000000  1.29297618  1.0
  Si  Si17  1  0.70702382  1.00000000  0.70702382  1.0
  Si  Si18  1  0.00000000  0.70702382  0.70702382  1.0
  Si  Si19  1  0.00000000  0.29297618  0.29297618  1.0
  Ni  Ni20  1  0.89245869  1.39245869  0.78491738  1.0
  Ni  Ni21  1  1.60754131  1.10754131  1.21508262  1.0
  Ni  Ni22  1  0.89245869  1.10754131  0.50000000  1.0
  Ni  Ni23  1  1.60754131  1.39245869  1.50000000  1.0
  Ni  Ni24  1  0.39245869  0.60754131  0.50000000  1.0
  Ni  Ni25  1  1.10754131  0.89245869  1.50000000  1.0
  Ni  Ni26  1  0.39245869  0.89245869  0.78491738  1.0
  Ni  Ni27  1  1.10754131  0.60754131  1.21508262  1.0
