# generated using pymatgen
data_ZnS
_symmetry_space_group_name_H-M   'P 1'
_cell_length_a   3.84919720
_cell_length_b   3.84919720
_cell_length_c   50.36818792
_cell_angle_alpha   90.00000000
_cell_angle_beta   90.00000000
_cell_angle_gamma   120.00000000
_symmetry_Int_Tables_number   1
_chemical_formula_structural   ZnS
_chemical_formula_sum   'Zn16 S16'
_cell_volume   646.28977013
_cell_formula_units_Z   16
loop_
 _symmetry_equiv_pos_site_id
 _symmetry_equiv_pos_as_xyz
  1  'x, y, z'
loop_
 _atom_site_type_symbol
 _atom_site_label
 _atom_site_symmetry_multiplicity
 _atom_site_fract_x
 _atom_site_fract_y
 _atom_site_fract_z
 _atom_site_occupancy
  Zn  Zn0  1  0.00000000  0.00000000  0.06247390  1.0
  Zn  Zn1  1  0.00000000  0.00000000  0.31248265  1.0
  Zn  Zn2  1  0.00000000  0.00000000  0.49997707  1.0
  Zn  Zn3  1  0.00000000  0.00000000  0.68747788  1.0
  Zn  Zn4  1  -0.00000000  -0.00000000  0.87497805  1.0
  Zn  Zn5  1  0.66666667  0.33333333  0.18747844  1.0
  Zn  Zn6  1  0.66666667  0.33333333  0.43743888  1.0
  Zn  Zn7  1  0.66666667  0.33333333  0.56250983  1.0
  Zn  Zn8  1  0.66666667  0.33333333  0.81243949  1.0
  Zn  Zn9  1  0.66666667  0.33333333  0.93750929  1.0
  Zn  Zn10  1  0.33333333  0.66666667  -0.00006166  1.0
  Zn  Zn11  1  0.33333333  0.66666667  0.12497129  1.0
  Zn  Zn12  1  0.33333333  0.66666667  0.24997032  1.0
  Zn  Zn13  1  0.33333333  0.66666667  0.37501011  1.0
  Zn  Zn14  1  0.33333333  0.66666667  0.62494021  1.0
  Zn  Zn15  1  0.33333333  0.66666667  0.75000918  1.0
  S  S16  1  0.00000000  0.00000000  0.01556681  1.0
  S  S17  1  0.00000000  0.00000000  0.26558092  1.0
  S  S18  1  0.00000000  0.00000000  0.45306723  1.0
  S  S19  1  0.00000000  0.00000000  0.64056813  1.0
  S  S20  1  0.00000000  0.00000000  0.82806836  1.0
  S  S21  1  0.66666667  0.33333333  0.14057982  1.0
  S  S22  1  0.66666667  0.33333333  0.39062262  1.0
  S  S23  1  0.66666667  0.33333333  0.51568327  1.0
  S  S24  1  0.66666667  0.33333333  0.76562275  1.0
  S  S25  1  0.66666667  0.33333333  0.89068328  1.0
  S  S26  1  0.33333333  0.66666667  0.07816861  1.0
  S  S27  1  0.33333333  0.66666667  0.20316915  1.0
  S  S28  1  0.33333333  0.66666667  0.32818580  1.0
  S  S29  1  0.33333333  0.66666667  0.57812340  1.0
  S  S30  1  0.33333333  0.66666667  0.70318292  1.0
  S  S31  1  0.33333333  0.66666667  0.95312199  1.0
