# generated using pymatgen
data_RbGa3S5
_symmetry_space_group_name_H-M   'P 1'
_cell_length_a   7.24115970
_cell_length_b   12.98746406
_cell_length_c   10.69178518
_cell_angle_alpha   90.00000000
_cell_angle_beta   104.37983443
_cell_angle_gamma   90.00000000
_symmetry_Int_Tables_number   1
_chemical_formula_structural   RbGa3S5
_chemical_formula_sum   'Rb4 Ga12 S20'
_cell_volume   973.99973837
_cell_formula_units_Z   4
loop_
 _symmetry_equiv_pos_site_id
 _symmetry_equiv_pos_as_xyz
  1  'x, y, z'
loop_
 _atom_site_type_symbol
 _atom_site_label
 _atom_site_symmetry_multiplicity
 _atom_site_fract_x
 _atom_site_fract_y
 _atom_site_fract_z
 _atom_site_occupancy
  Rb  Rb0  1  0.84043083  0.87870225  0.11252911  1.0
  Rb  Rb1  1  0.84043083  0.62129775  0.61252911  1.0
  Rb  Rb2  1  0.15956917  0.37870225  0.38747089  1.0
  Rb  Rb3  1  0.15956917  0.12129775  0.88747089  1.0
  Ga  Ga4  1  0.70220147  0.16137563  0.37267257  1.0
  Ga  Ga5  1  0.70220147  0.33862437  0.87267257  1.0
  Ga  Ga6  1  0.29779853  0.66137563  0.12732743  1.0
  Ga  Ga7  1  0.29779853  0.83862437  0.62732743  1.0
  Ga  Ga8  1  0.55815828  0.39597408  0.19183941  1.0
  Ga  Ga9  1  0.55815828  0.10402592  0.69183941  1.0
  Ga  Ga10  1  0.44184172  0.89597408  0.30816059  1.0
  Ga  Ga11  1  0.44184172  0.60402592  0.80816059  1.0
  Ga  Ga12  1  0.19282159  0.07531535  0.39805751  1.0
  Ga  Ga13  1  0.19282159  0.42468465  0.89805751  1.0
  Ga  Ga14  1  0.80717841  0.57531535  0.10194249  1.0
  Ga  Ga15  1  0.80717841  0.92468465  0.60194249  1.0
  S  S16  1  0.92034899  0.12581266  0.25772639  1.0
  S  S17  1  0.92034899  0.37418734  0.75772639  1.0
  S  S18  1  0.07965101  0.62581266  0.24227361  1.0
  S  S19  1  0.07965101  0.87418734  0.74227361  1.0
  S  S20  1  0.80649577  0.39421509  0.08704070  1.0
  S  S21  1  0.80649577  0.10578491  0.58704070  1.0
  S  S22  1  0.19350423  0.89421509  0.41295930  1.0
  S  S23  1  0.19350423  0.60578491  0.91295930  1.0
  S  S24  1  0.72547847  0.83376543  0.41737138  1.0
  S  S25  1  0.72547847  0.66623457  0.91737138  1.0
  S  S26  1  0.27452153  0.33376543  0.08262862  1.0
  S  S27  1  0.27452153  0.16623457  0.58262862  1.0
  S  S28  1  0.65024938  0.33289264  0.39497211  1.0
  S  S29  1  0.65024938  0.16710736  0.89497211  1.0
  S  S30  1  0.34975062  0.83289264  0.10502789  1.0
  S  S31  1  0.34975062  0.66710736  0.60502789  1.0
  S  S32  1  0.41834095  0.07605867  0.26909919  1.0
  S  S33  1  0.41834095  0.42394133  0.76909919  1.0
  S  S34  1  0.58165905  0.57605867  0.23090081  1.0
  S  S35  1  0.58165905  0.92394133  0.73090081  1.0
