# generated using pymatgen
data_YCo3P2
_symmetry_space_group_name_H-M   'P 1'
_cell_length_a   3.69245130
_cell_length_b   10.51015489
_cell_length_c   12.16189297
_cell_angle_alpha   90.00000000
_cell_angle_beta   90.00000000
_cell_angle_gamma   90.00000000
_symmetry_Int_Tables_number   1
_chemical_formula_structural   YCo3P2
_chemical_formula_sum   'Y6 Co18 P12'
_cell_volume   471.98160128
_cell_formula_units_Z   6
loop_
 _symmetry_equiv_pos_site_id
 _symmetry_equiv_pos_as_xyz
  1  'x, y, z'
loop_
 _atom_site_type_symbol
 _atom_site_label
 _atom_site_symmetry_multiplicity
 _atom_site_fract_x
 _atom_site_fract_y
 _atom_site_fract_z
 _atom_site_occupancy
  Y  Y0  1  0.00000000  0.50000000  0.52176822  1.0
  Y  Y1  1  0.50000000  0.00000000  0.47823178  1.0
  Y  Y2  1  0.50000000  0.81746723  0.20561482  1.0
  Y  Y3  1  0.50000000  0.18253277  0.20561482  1.0
  Y  Y4  1  0.00000000  0.68253277  0.79438518  1.0
  Y  Y5  1  0.00000000  0.31746723  0.79438518  1.0
  P  P6  1  0.50000000  0.50000000  0.88250198  1.0
  P  P7  1  0.00000000  0.00000000  0.11749802  1.0
  P  P8  1  0.50000000  0.50000000  0.34338989  1.0
  P  P9  1  0.00000000  0.00000000  0.65661011  1.0
  P  P10  1  0.50000000  0.31064461  0.61606852  1.0
  P  P11  1  0.50000000  0.68935539  0.61606852  1.0
  P  P12  1  0.00000000  0.18935539  0.38393148  1.0
  P  P13  1  0.00000000  0.81064461  0.38393148  1.0
  P  P14  1  0.50000000  0.84710469  0.89321944  1.0
  P  P15  1  0.50000000  0.15289531  0.89321944  1.0
  P  P16  1  0.00000000  0.65289531  0.10678056  1.0
  P  P17  1  0.00000000  0.34710469  0.10678056  1.0
  Co  Co18  1  0.50000000  0.50000000  0.70310335  1.0
  Co  Co19  1  0.00000000  0.00000000  0.29689665  1.0
  Co  Co20  1  0.00000000  0.50000000  0.98671398  1.0
  Co  Co21  1  0.50000000  0.00000000  0.01328602  1.0
  Co  Co22  1  0.50000000  0.33338645  0.99480917  1.0
  Co  Co23  1  0.50000000  0.66661355  0.99480917  1.0
  Co  Co24  1  0.00000000  0.16661355  0.00519083  1.0
  Co  Co25  1  0.00000000  0.83338645  0.00519083  1.0
  Co  Co26  1  0.50000000  0.29711423  0.43064226  1.0
  Co  Co27  1  0.50000000  0.70288577  0.43064226  1.0
  Co  Co28  1  0.00000000  0.20288577  0.56935774  1.0
  Co  Co29  1  0.00000000  0.79711423  0.56935774  1.0
  Co  Co30  1  0.50000000  0.50000000  0.15820539  1.0
  Co  Co31  1  0.00000000  0.00000000  0.84179461  1.0
  Co  Co32  1  0.50000000  0.87937554  0.70983868  1.0
  Co  Co33  1  0.50000000  0.12062446  0.70983868  1.0
  Co  Co34  1  0.00000000  0.62062446  0.29016132  1.0
  Co  Co35  1  0.00000000  0.37937554  0.29016132  1.0
