# generated using pymatgen
data_EuF3
_symmetry_space_group_name_H-M   'P 1'
_cell_length_a   7.16100314
_cell_length_b   7.16100314
_cell_length_c   6.91287156
_cell_angle_alpha   90.00000000
_cell_angle_beta   90.00000000
_cell_angle_gamma   120.00000000
_symmetry_Int_Tables_number   1
_chemical_formula_structural   EuF3
_chemical_formula_sum   'Eu6 F18'
_cell_volume   306.99891972
_cell_formula_units_Z   6
loop_
 _symmetry_equiv_pos_site_id
 _symmetry_equiv_pos_as_xyz
  1  'x, y, z'
loop_
 _atom_site_type_symbol
 _atom_site_label
 _atom_site_symmetry_multiplicity
 _atom_site_fract_x
 _atom_site_fract_y
 _atom_site_fract_z
 _atom_site_occupancy
  F  F0  1  0.93297175  0.61743990  0.08198818  1.0
  F  F1  1  0.93297175  0.31553185  0.58198818  1.0
  F  F2  1  0.61743990  0.93297175  0.41801182  1.0
  F  F3  1  0.61743990  0.68446815  0.91801182  1.0
  F  F4  1  0.68446815  0.61743990  0.58198818  1.0
  F  F5  1  0.68446815  0.06702825  0.08198818  1.0
  F  F6  1  0.38256010  0.06702825  0.58198818  1.0
  F  F7  1  0.38256010  0.31553185  0.08198818  1.0
  F  F8  1  0.06702825  0.68446815  0.41801182  1.0
  F  F9  1  0.06702825  0.38256010  0.91801182  1.0
  F  F10  1  0.31553185  0.93297175  0.91801182  1.0
  F  F11  1  0.31553185  0.38256010  0.41801182  1.0
  F  F12  1  0.33333333  0.66666667  0.18398083  1.0
  F  F13  1  0.33333333  0.66666667  0.68398083  1.0
  F  F14  1  0.66666667  0.33333333  0.31601917  1.0
  F  F15  1  0.66666667  0.33333333  0.81601917  1.0
  F  F16  1  0.00000000  0.00000000  -0.00000000  1.0
  F  F17  1  -0.00000000  -0.00000000  0.50000000  1.0
  Eu  Eu18  1  0.65313125  0.65313125  0.25000000  1.0
  Eu  Eu19  1  0.65313125  0.00000000  0.75000000  1.0
  Eu  Eu20  1  0.00000000  0.65313125  0.75000000  1.0
  Eu  Eu21  1  0.00000000  0.34686875  0.25000000  1.0
  Eu  Eu22  1  0.34686875  0.34686875  0.75000000  1.0
  Eu  Eu23  1  0.34686875  -0.00000000  0.25000000  1.0
