# generated using pymatgen
data_NbPO5
_symmetry_space_group_name_H-M   'P 1'
_cell_length_a   11.43125370
_cell_length_b   5.41726510
_cell_length_c   6.78115746
_cell_angle_alpha   90.00000000
_cell_angle_beta   90.00000000
_cell_angle_gamma   90.00000000
_symmetry_Int_Tables_number   1
_chemical_formula_structural   NbPO5
_chemical_formula_sum   'Nb4 P4 O20'
_cell_volume   419.93084984
_cell_formula_units_Z   4
loop_
 _symmetry_equiv_pos_site_id
 _symmetry_equiv_pos_as_xyz
  1  'x, y, z'
loop_
 _atom_site_type_symbol
 _atom_site_label
 _atom_site_symmetry_multiplicity
 _atom_site_fract_x
 _atom_site_fract_y
 _atom_site_fract_z
 _atom_site_occupancy
  Nb  Nb0  1  0.43753940  0.75000000  0.66760338  1.0
  Nb  Nb1  1  0.93753940  0.75000000  0.83239662  1.0
  Nb  Nb2  1  0.56246060  0.25000000  0.33239662  1.0
  Nb  Nb3  1  0.06246060  0.25000000  0.16760338  1.0
  P  P4  1  0.65376211  0.75000000  0.02790823  1.0
  P  P5  1  0.15376211  0.75000000  0.47209177  1.0
  P  P6  1  0.34623789  0.25000000  0.97209177  1.0
  P  P7  1  0.84623789  0.25000000  0.52790823  1.0
  O  O8  1  0.37230907  0.48484535  0.85274096  1.0
  O  O9  1  0.37230907  0.01515465  0.85274096  1.0
  O  O10  1  0.87230907  0.48484535  0.64725904  1.0
  O  O11  1  0.87230907  0.01515465  0.64725904  1.0
  O  O12  1  0.62769093  0.98484535  0.14725904  1.0
  O  O13  1  0.62769093  0.51515465  0.14725904  1.0
  O  O14  1  0.12769093  0.98484535  0.35274096  1.0
  O  O15  1  0.12769093  0.51515465  0.35274096  1.0
  O  O16  1  0.28534141  0.75000000  0.52954595  1.0
  O  O17  1  0.78534141  0.75000000  0.97045405  1.0
  O  O18  1  0.71465859  0.25000000  0.47045405  1.0
  O  O19  1  0.21465859  0.25000000  0.02954595  1.0
  O  O20  1  0.08120589  0.75000000  0.66547852  1.0
  O  O21  1  0.58120589  0.75000000  0.83452148  1.0
  O  O22  1  0.91879411  0.25000000  0.33452148  1.0
  O  O23  1  0.41879411  0.25000000  0.16547852  1.0
  O  O24  1  0.50000000  0.00000000  0.50000000  1.0
  O  O25  1  0.50000000  0.50000000  0.50000000  1.0
  O  O26  1  0.00000000  0.00000000  0.00000000  1.0
  O  O27  1  0.00000000  0.50000000  0.00000000  1.0
