# generated using pymatgen
data_Hf2Cr4Si5
_symmetry_space_group_name_H-M   'P 1'
_cell_length_a   9.20511160
_cell_length_b   9.20511160
_cell_length_c   9.20511160
_cell_angle_alpha   131.49332688
_cell_angle_beta   58.71395892
_cell_angle_gamma   148.95673150
_symmetry_Int_Tables_number   1
_chemical_formula_structural   Hf2Cr4Si5
_chemical_formula_sum   'Hf4 Cr8 Si10'
_cell_volume   298.91380685
_cell_formula_units_Z   2
loop_
 _symmetry_equiv_pos_site_id
 _symmetry_equiv_pos_as_xyz
  1  'x, y, z'
loop_
 _atom_site_type_symbol
 _atom_site_label
 _atom_site_symmetry_multiplicity
 _atom_site_fract_x
 _atom_site_fract_y
 _atom_site_fract_z
 _atom_site_occupancy
  Hf  Hf0  1  0.14147091  0.12066786  0.26213877  1.0
  Hf  Hf1  1  0.35852909  0.62066786  0.97919694  1.0
  Hf  Hf2  1  0.64147091  1.37933214  1.02080306  1.0
  Hf  Hf3  1  0.85852909  0.87933214  0.73786123  1.0
  Cr  Cr4  1  0.43788939  0.24813375  0.68602314  1.0
  Cr  Cr5  1  0.06211061  0.74813375  0.81024436  1.0
  Cr  Cr6  1  0.93788939  1.25186625  1.18975564  1.0
  Cr  Cr7  1  0.56211061  0.75186625  0.31397686  1.0
  Cr  Cr8  1  0.94182130  1.25000000  0.69182130  1.0
  Cr  Cr9  1  0.44182130  0.75000000  0.69182130  1.0
  Cr  Cr10  1  1.05817870  0.75000000  0.30817870  1.0
  Cr  Cr11  1  0.55817870  0.25000000  0.30817870  1.0
  Si  Si12  1  0.06420115  0.42638813  0.49058928  1.0
  Si  Si13  1  0.43579885  0.92638813  1.36218698  1.0
  Si  Si14  1  0.56420115  1.07361187  0.63781302  1.0
  Si  Si15  1  0.93579885  0.57361187  0.50941072  1.0
  Si  Si16  1  0.28900087  0.29117324  0.58017411  1.0
  Si  Si17  1  0.21099913  0.79117324  1.00217237  1.0
  Si  Si18  1  0.78900087  1.20882676  0.99782763  1.0
  Si  Si19  1  0.71099913  0.70882676  0.41982589  1.0
  Si  Si20  1  0.25000000  0.25000000  0.00000000  1.0
  Si  Si21  1  0.75000000  0.75000000  -0.00000000  1.0
