# generated using pymatgen
data_V2O5
_symmetry_space_group_name_H-M   'P 1'
_cell_length_a   10.27460700
_cell_length_b   3.58596476
_cell_length_c   11.31336377
_cell_angle_alpha   90.00000000
_cell_angle_beta   90.00000000
_cell_angle_gamma   90.00000000
_symmetry_Int_Tables_number   1
_chemical_formula_structural   V2O5
_chemical_formula_sum   'V8 O20'
_cell_volume   416.83385879
_cell_formula_units_Z   4
loop_
 _symmetry_equiv_pos_site_id
 _symmetry_equiv_pos_as_xyz
  1  'x, y, z'
loop_
 _atom_site_type_symbol
 _atom_site_label
 _atom_site_symmetry_multiplicity
 _atom_site_fract_x
 _atom_site_fract_y
 _atom_site_fract_z
 _atom_site_occupancy
  V  V0  1  0.87576313  0.75000000  0.00025382  1.0
  V  V1  1  0.37576313  0.75000000  0.49974618  1.0
  V  V2  1  0.12423687  0.25000000  0.99974618  1.0
  V  V3  1  0.62423687  0.25000000  0.50025382  1.0
  V  V4  1  0.57548270  0.75000000  0.08871621  1.0
  V  V5  1  0.07548270  0.75000000  0.41128379  1.0
  V  V6  1  0.42451730  0.25000000  0.91128379  1.0
  V  V7  1  0.92451730  0.25000000  0.58871621  1.0
  O  O8  1  1.01253847  0.75000000  0.28390568  1.0
  O  O9  1  0.51253847  0.75000000  0.21609432  1.0
  O  O10  1  -0.01253847  0.25000000  0.71609432  1.0
  O  O11  1  0.48746153  0.25000000  0.78390568  1.0
  O  O12  1  0.93482377  0.75000000  0.53434142  1.0
  O  O13  1  0.43482377  0.75000000  0.96565858  1.0
  O  O14  1  0.06517623  0.25000000  0.46565858  1.0
  O  O15  1  0.56517623  0.25000000  0.03434142  1.0
  O  O16  1  0.80277105  0.75000000  0.87733794  1.0
  O  O17  1  0.30277105  0.75000000  0.62266206  1.0
  O  O18  1  0.19722895  0.25000000  0.12266206  1.0
  O  O19  1  0.69722895  0.25000000  0.37733794  1.0
  O  O20  1  0.74867707  0.75000000  0.10882469  1.0
  O  O21  1  0.24867707  0.75000000  0.39117531  1.0
  O  O22  1  0.25132293  0.25000000  0.89117531  1.0
  O  O23  1  0.75132293  0.25000000  0.60882469  1.0
  O  O24  1  0.57152207  0.75000000  0.52416729  1.0
  O  O25  1  0.07152207  0.75000000  0.97583271  1.0
  O  O26  1  0.42847793  0.25000000  0.47583271  1.0
  O  O27  1  0.92847793  0.25000000  0.02416729  1.0
