# generated using pymatgen
data_K2GdF
_symmetry_space_group_name_H-M   'P 1'
_cell_length_a   11.71972765
_cell_length_b   7.52858482
_cell_length_c   7.26135484
_cell_angle_alpha   90.00000000
_cell_angle_beta   90.00000000
_cell_angle_gamma   90.00000000
_symmetry_Int_Tables_number   1
_chemical_formula_structural   K2GdF
_chemical_formula_sum   'K8 Gd4 F4'
_cell_volume   640.69085796
_cell_formula_units_Z   4
loop_
 _symmetry_equiv_pos_site_id
 _symmetry_equiv_pos_as_xyz
  1  'x, y, z'
loop_
 _atom_site_type_symbol
 _atom_site_label
 _atom_site_symmetry_multiplicity
 _atom_site_fract_x
 _atom_site_fract_y
 _atom_site_fract_z
 _atom_site_occupancy
  K  K0  1  0.15909958  0.49996807  -0.00000066  1.0
  K  K1  1  0.34090042  0.50003193  0.49999934  1.0
  K  K2  1  0.65909958  1.00003193  0.50000066  1.0
  K  K3  1  0.84090042  -0.00003193  1.00000066  1.0
  K  K4  1  0.84090042  0.50003193  1.00000066  1.0
  K  K5  1  0.65909958  0.49996807  0.50000066  1.0
  K  K6  1  0.34090042  -0.00003193  0.49999934  1.0
  K  K7  1  0.15909958  1.00003193  -0.00000066  1.0
  Gd  Gd8  1  0.00011414  0.75000000  0.55901166  1.0
  Gd  Gd9  1  0.49988586  0.25000000  0.05901166  1.0
  Gd  Gd10  1  0.50011414  0.75000000  0.94098834  1.0
  Gd  Gd11  1  0.99988586  0.25000000  0.44098834  1.0
  F  F12  1  0.00025298  0.75000000  0.86070519  1.0
  F  F13  1  0.49974702  0.25000000  0.36070519  1.0
  F  F14  1  0.50025298  0.75000000  0.63929481  1.0
  F  F15  1  0.99974702  0.25000000  0.13929481  1.0
