# generated using pymatgen
data_KLa2C6N6ClO6
_symmetry_space_group_name_H-M   'P 1'
_cell_length_a   6.83392112
_cell_length_b   6.83392112
_cell_length_c   14.49645659
_cell_angle_alpha   90.00000000
_cell_angle_beta   90.00000000
_cell_angle_gamma   120.00000000
_symmetry_Int_Tables_number   1
_chemical_formula_structural   KLa2C6N6ClO6
_chemical_formula_sum   'K2 La4 C12 N12 Cl2 O12'
_cell_volume   586.31690274
_cell_formula_units_Z   2
loop_
 _symmetry_equiv_pos_site_id
 _symmetry_equiv_pos_as_xyz
  1  'x, y, z'
loop_
 _atom_site_type_symbol
 _atom_site_label
 _atom_site_symmetry_multiplicity
 _atom_site_fract_x
 _atom_site_fract_y
 _atom_site_fract_z
 _atom_site_occupancy
  K  K0  1  0.66666667  0.33333333  0.25000000  1.0
  K  K1  1  0.33333333  0.66666667  0.75000000  1.0
  La  La2  1  0.33333333  0.66666667  0.44834608  1.0
  La  La3  1  0.33333333  0.66666667  0.05165392  1.0
  La  La4  1  0.66666667  0.33333333  0.94834608  1.0
  La  La5  1  0.66666667  0.33333333  0.55165392  1.0
  C  C6  1  0.83319930  0.78720179  0.40191535  1.0
  C  C7  1  0.83319930  0.78720179  0.09808465  1.0
  C  C8  1  0.78720179  0.95400249  0.90191535  1.0
  C  C9  1  0.78720179  0.95400249  0.59808465  1.0
  C  C10  1  0.95400249  0.16680070  0.40191535  1.0
  C  C11  1  0.95400249  0.16680070  0.09808465  1.0
  C  C12  1  0.21279821  0.04599751  0.40191535  1.0
  C  C13  1  0.21279821  0.04599751  0.09808465  1.0
  C  C14  1  0.16680070  0.21279821  0.90191535  1.0
  C  C15  1  0.16680070  0.21279821  0.59808465  1.0
  C  C16  1  0.04599751  0.83319930  0.90191535  1.0
  C  C17  1  0.04599751  0.83319930  0.59808465  1.0
  N  N18  1  0.04698119  0.82588540  0.39881476  1.0
  N  N19  1  0.04698119  0.82588540  0.10118524  1.0
  N  N20  1  0.82588540  0.77890420  0.89881476  1.0
  N  N21  1  0.82588540  0.77890420  0.60118524  1.0
  N  N22  1  0.77890420  0.95301881  0.39881476  1.0
  N  N23  1  0.77890420  0.95301881  0.10118524  1.0
  N  N24  1  0.17411460  0.22109580  0.39881476  1.0
  N  N25  1  0.17411460  0.22109580  0.10118524  1.0
  N  N26  1  0.95301881  0.17411460  0.89881476  1.0
  N  N27  1  0.95301881  0.17411460  0.60118524  1.0
  N  N28  1  0.22109580  0.04698119  0.89881476  1.0
  N  N29  1  0.22109580  0.04698119  0.60118524  1.0
  Cl  Cl30  1  0.33333333  0.66666667  0.25000000  1.0
  Cl  Cl31  1  0.66666667  0.33333333  0.75000000  1.0
  O  O32  1  0.66512571  0.58374853  0.41411973  1.0
  O  O33  1  0.66512571  0.58374853  0.08588027  1.0
  O  O34  1  0.58374853  0.91862282  0.91411973  1.0
  O  O35  1  0.58374853  0.91862282  0.58588027  1.0
  O  O36  1  0.91862282  0.33487429  0.41411973  1.0
  O  O37  1  0.91862282  0.33487429  0.08588027  1.0
  O  O38  1  0.41625147  0.08137718  0.41411973  1.0
  O  O39  1  0.41625147  0.08137718  0.08588027  1.0
  O  O40  1  0.33487429  0.41625147  0.91411973  1.0
  O  O41  1  0.33487429  0.41625147  0.58588027  1.0
  O  O42  1  0.08137718  0.66512571  0.91411973  1.0
  O  O43  1  0.08137718  0.66512571  0.58588027  1.0
