# generated using pymatgen
data_H4C6SN4
_symmetry_space_group_name_H-M   'P 1'
_cell_length_a   4.59922057
_cell_length_b   13.63752503
_cell_length_c   12.17555184
_cell_angle_alpha   90.00000000
_cell_angle_beta   90.00000000
_cell_angle_gamma   90.00000000
_symmetry_Int_Tables_number   1
_chemical_formula_structural   H4C6SN4
_chemical_formula_sum   'H16 C24 S4 N16'
_cell_volume   763.67478744
_cell_formula_units_Z   4
loop_
 _symmetry_equiv_pos_site_id
 _symmetry_equiv_pos_as_xyz
  1  'x, y, z'
loop_
 _atom_site_type_symbol
 _atom_site_label
 _atom_site_symmetry_multiplicity
 _atom_site_fract_x
 _atom_site_fract_y
 _atom_site_fract_z
 _atom_site_occupancy
  H  H0  1  0.15108703  0.25958097  0.06470119  1.0
  H  H1  1  0.15108703  0.74041903  0.56470119  1.0
  H  H2  1  0.65108703  0.75958097  0.43529881  1.0
  H  H3  1  0.65108703  0.24041903  0.93529881  1.0
  H  H4  1  0.84891297  0.25958097  0.43529881  1.0
  H  H5  1  0.84891297  0.74041903  0.93529881  1.0
  H  H6  1  0.34891297  0.75958097  0.06470119  1.0
  H  H7  1  0.34891297  0.24041903  0.56470119  1.0
  H  H8  1  0.07874968  0.13860935  0.02867469  1.0
  H  H9  1  0.07874968  0.86139065  0.52867469  1.0
  H  H10  1  0.57874968  0.63860935  0.47132531  1.0
  H  H11  1  0.57874968  0.36139065  0.97132531  1.0
  H  H12  1  0.92125032  0.13860935  0.47132531  1.0
  H  H13  1  0.92125032  0.86139065  0.97132531  1.0
  H  H14  1  0.42125032  0.63860935  0.02867469  1.0
  H  H15  1  0.42125032  0.36139065  0.52867469  1.0
  C  C16  1  0.41337939  0.06325517  0.19936297  1.0
  C  C17  1  0.41337939  0.93674483  0.69936297  1.0
  C  C18  1  0.91337939  0.56325517  0.30063703  1.0
  C  C19  1  0.91337939  0.43674483  0.80063703  1.0
  C  C20  1  0.58662061  0.06325517  0.30063703  1.0
  C  C21  1  0.58662061  0.93674483  0.80063703  1.0
  C  C22  1  0.08662061  0.56325517  0.19936297  1.0
  C  C23  1  0.08662061  0.43674483  0.69936297  1.0
  C  C24  1  0.34824718  0.15764581  0.16317193  1.0
  C  C25  1  0.34824718  0.84235419  0.66317193  1.0
  C  C26  1  0.84824718  0.65764581  0.33682807  1.0
  C  C27  1  0.84824718  0.34235419  0.83682807  1.0
  C  C28  1  0.65175282  0.15764581  0.33682807  1.0
  C  C29  1  0.65175282  0.84235419  0.83682807  1.0
  C  C30  1  0.15175282  0.65764581  0.16317193  1.0
  C  C31  1  0.15175282  0.34235419  0.66317193  1.0
  C  C32  1  0.17639339  0.47999463  0.14161576  1.0
  C  C33  1  0.17639339  0.52000537  0.64161576  1.0
  C  C34  1  0.67639339  0.97999463  0.35838424  1.0
  C  C35  1  0.67639339  0.02000537  0.85838424  1.0
  C  C36  1  0.82360661  0.47999463  0.35838424  1.0
  C  C37  1  0.82360661  0.52000537  0.85838424  1.0
  C  C38  1  0.32360661  0.97999463  0.14161576  1.0
  C  C39  1  0.32360661  0.02000537  0.64161576  1.0
  S  S40  1  0.50000000  0.24659193  0.25000000  1.0
  S  S41  1  0.50000000  0.75340807  0.75000000  1.0
  S  S42  1  0.00000000  0.74659193  0.25000000  1.0
  S  S43  1  0.00000000  0.25340807  0.75000000  1.0
  N  N44  1  0.25391382  0.41167098  0.09094903  1.0
  N  N45  1  0.25391382  0.58832902  0.59094903  1.0
  N  N46  1  0.75391382  0.91167098  0.40905097  1.0
  N  N47  1  0.75391382  0.08832902  0.90905097  1.0
  N  N48  1  0.74608618  0.41167098  0.40905097  1.0
  N  N49  1  0.74608618  0.58832902  0.90905097  1.0
  N  N50  1  0.24608618  0.91167098  0.09094903  1.0
  N  N51  1  0.24608618  0.08832902  0.59094903  1.0
  N  N52  1  0.19849026  0.18699955  0.07376860  1.0
  N  N53  1  0.19849026  0.81300045  0.57376860  1.0
  N  N54  1  0.69849026  0.68699955  0.42623140  1.0
  N  N55  1  0.69849026  0.31300045  0.92623140  1.0
  N  N56  1  0.80150974  0.18699955  0.42623140  1.0
  N  N57  1  0.80150974  0.81300045  0.92623140  1.0
  N  N58  1  0.30150974  0.68699955  0.07376860  1.0
  N  N59  1  0.30150974  0.31300045  0.57376860  1.0
