# generated using pymatgen
data_CaCr2O4
_symmetry_space_group_name_H-M   'P 1'
_cell_length_a   5.92879455
_cell_length_b   11.00981753
_cell_length_c   5.14335095
_cell_angle_alpha   90.00000000
_cell_angle_beta   90.00000000
_cell_angle_gamma   90.00000000
_symmetry_Int_Tables_number   1
_chemical_formula_structural   CaCr2O4
_chemical_formula_sum   'Ca4 Cr8 O16'
_cell_volume   335.73195604
_cell_formula_units_Z   4
loop_
 _symmetry_equiv_pos_site_id
 _symmetry_equiv_pos_as_xyz
  1  'x, y, z'
loop_
 _atom_site_type_symbol
 _atom_site_label
 _atom_site_symmetry_multiplicity
 _atom_site_fract_x
 _atom_site_fract_y
 _atom_site_fract_z
 _atom_site_occupancy
  Ca  Ca0  1  0.00000000  0.50000000  0.46459106  1.0
  Ca  Ca1  1  0.50000000  0.00000000  0.53540894  1.0
  Ca  Ca2  1  0.00000000  0.00000000  0.14476862  1.0
  Ca  Ca3  1  0.50000000  0.50000000  0.85523138  1.0
  Cr  Cr4  1  0.00000000  0.24045430  0.50509653  1.0
  Cr  Cr5  1  0.00000000  0.75954570  0.50509653  1.0
  Cr  Cr6  1  0.50000000  0.74045430  0.49490347  1.0
  Cr  Cr7  1  0.50000000  0.25954570  0.49490347  1.0
  Cr  Cr8  1  0.25000000  0.25000000  0.00000000  1.0
  Cr  Cr9  1  0.25000000  0.75000000  0.00000000  1.0
  Cr  Cr10  1  0.75000000  0.75000000  0.00000000  1.0
  Cr  Cr11  1  0.75000000  0.25000000  0.00000000  1.0
  O  O12  1  0.74689422  0.15019371  0.33483055  1.0
  O  O13  1  0.74689422  0.84980629  0.33483055  1.0
  O  O14  1  0.24689422  0.65019371  0.66516945  1.0
  O  O15  1  0.24689422  0.34980629  0.66516945  1.0
  O  O16  1  0.75310578  0.65019371  0.66516945  1.0
  O  O17  1  0.75310578  0.34980629  0.66516945  1.0
  O  O18  1  0.25310578  0.15019371  0.33483055  1.0
  O  O19  1  0.25310578  0.84980629  0.33483055  1.0
  O  O20  1  0.00000000  0.15400447  0.84186346  1.0
  O  O21  1  0.00000000  0.84599553  0.84186346  1.0
  O  O22  1  0.50000000  0.65400447  0.15813654  1.0
  O  O23  1  0.50000000  0.34599553  0.15813654  1.0
  O  O24  1  0.00000000  0.66162676  0.17874021  1.0
  O  O25  1  0.00000000  0.33837324  0.17874021  1.0
  O  O26  1  0.50000000  0.16162676  0.82125979  1.0
  O  O27  1  0.50000000  0.83837324  0.82125979  1.0
