# generated using pymatgen
data_RbCN5O3
_symmetry_space_group_name_H-M   'P 1'
_cell_length_a   7.81467187
_cell_length_b   5.43168410
_cell_length_c   14.42602277
_cell_angle_alpha   90.00000000
_cell_angle_beta   99.33066559
_cell_angle_gamma   90.00000000
_symmetry_Int_Tables_number   1
_chemical_formula_structural   RbCN5O3
_chemical_formula_sum   'Rb4 C4 N20 O12'
_cell_volume   604.23711510
_cell_formula_units_Z   4
loop_
 _symmetry_equiv_pos_site_id
 _symmetry_equiv_pos_as_xyz
  1  'x, y, z'
loop_
 _atom_site_type_symbol
 _atom_site_label
 _atom_site_symmetry_multiplicity
 _atom_site_fract_x
 _atom_site_fract_y
 _atom_site_fract_z
 _atom_site_occupancy
  Rb  Rb0  1  0.77784702  0.94464414  0.11643674  1.0
  Rb  Rb1  1  0.77784702  0.55535586  0.61643674  1.0
  Rb  Rb2  1  0.22215298  0.44464414  0.38356326  1.0
  Rb  Rb3  1  0.22215298  0.05535586  0.88356326  1.0
  C  C4  1  0.71894416  0.23869893  0.35810626  1.0
  C  C5  1  0.71894416  0.26130107  0.85810626  1.0
  C  C6  1  0.28105584  0.73869893  0.14189374  1.0
  C  C7  1  0.28105584  0.76130107  0.64189374  1.0
  N  N8  1  0.83524979  0.06670875  0.34286046  1.0
  N  N9  1  0.83524979  0.43329125  0.84286046  1.0
  N  N10  1  0.16475021  0.56670875  0.15713954  1.0
  N  N11  1  0.16475021  0.93329125  0.65713954  1.0
  N  N12  1  0.83344764  0.92082065  0.41711079  1.0
  N  N13  1  0.83344764  0.57917935  0.91711079  1.0
  N  N14  1  0.16655236  0.42082065  0.08288921  1.0
  N  N15  1  0.16655236  0.07917935  0.58288921  1.0
  N  N16  1  0.72044715  0.00204759  0.47466603  1.0
  N  N17  1  0.72044715  0.49795241  0.97466603  1.0
  N  N18  1  0.27955285  0.50204759  0.02533397  1.0
  N  N19  1  0.27955285  0.99795241  0.52533397  1.0
  N  N20  1  0.67379510  0.44100431  0.29635511  1.0
  N  N21  1  0.67379510  0.05899569  0.79635511  1.0
  N  N22  1  0.32620490  0.94100431  0.20364489  1.0
  N  N23  1  0.32620490  0.55899569  0.70364489  1.0
  N  N24  1  0.64898067  0.20426211  0.43586103  1.0
  N  N25  1  0.64898067  0.29573789  0.93586103  1.0
  N  N26  1  0.35101933  0.70426211  0.06413897  1.0
  N  N27  1  0.35101933  0.79573789  0.56413897  1.0
  O  O28  1  0.92225978  0.72827752  0.43511424  1.0
  O  O29  1  0.92225978  0.77172248  0.93511424  1.0
  O  O30  1  0.07774022  0.22827752  0.06488576  1.0
  O  O31  1  0.07774022  0.27172248  0.56488576  1.0
  O  O32  1  0.75114016  0.46142287  0.22785430  1.0
  O  O33  1  0.75114016  0.03857713  0.72785430  1.0
  O  O34  1  0.24885984  0.96142287  0.27214570  1.0
  O  O35  1  0.24885984  0.53857713  0.77214570  1.0
  O  O36  1  0.44005035  0.08506731  0.18607785  1.0
  O  O37  1  0.44005035  0.41493269  0.68607785  1.0
  O  O38  1  0.55994965  0.58506731  0.31392215  1.0
  O  O39  1  0.55994965  0.91493269  0.81392215  1.0
