# generated using pymatgen
data_SrIn2Ir
_symmetry_space_group_name_H-M   'P 1'
_cell_length_a   5.94922310
_cell_length_b   5.94922310
_cell_length_c   8.23345109
_cell_angle_alpha   90.00000000
_cell_angle_beta   90.00000000
_cell_angle_gamma   137.33975050
_symmetry_Int_Tables_number   1
_chemical_formula_structural   SrIn2Ir
_chemical_formula_sum   'Sr2 In4 Ir2'
_cell_volume   197.47295874
_cell_formula_units_Z   2
loop_
 _symmetry_equiv_pos_site_id
 _symmetry_equiv_pos_as_xyz
  1  'x, y, z'
loop_
 _atom_site_type_symbol
 _atom_site_label
 _atom_site_symmetry_multiplicity
 _atom_site_fract_x
 _atom_site_fract_y
 _atom_site_fract_z
 _atom_site_occupancy
  Sr  Sr0  1  0.43895795  0.56104205  0.75000000  1.0
  Sr  Sr1  1  -0.43895795  0.43895795  0.25000000  1.0
  In  In2  1  0.15427534  0.84572466  0.94757613  1.0
  In  In3  1  0.15427534  0.84572466  0.55242387  1.0
  In  In4  1  -0.15427534  0.15427534  0.44757613  1.0
  In  In5  1  -0.15427534  0.15427534  0.05242387  1.0
  Ir  Ir6  1  -0.27999689  0.27999689  0.75000000  1.0
  Ir  Ir7  1  0.27999689  0.72000311  0.25000000  1.0
