# generated using pymatgen
data_K(IO3)3
_symmetry_space_group_name_H-M   'P 1'
_cell_length_a   8.20294135
_cell_length_b   7.73719731
_cell_length_c   8.06833452
_cell_angle_alpha   61.80674228
_cell_angle_beta   69.93223777
_cell_angle_gamma   75.44023090
_symmetry_Int_Tables_number   1
_chemical_formula_structural   K(IO3)3
_chemical_formula_sum   'K2 I6 O18'
_cell_volume   421.45216116
_cell_formula_units_Z   2
loop_
 _symmetry_equiv_pos_site_id
 _symmetry_equiv_pos_as_xyz
  1  'x, y, z'
loop_
 _atom_site_type_symbol
 _atom_site_label
 _atom_site_symmetry_multiplicity
 _atom_site_fract_x
 _atom_site_fract_y
 _atom_site_fract_z
 _atom_site_occupancy
  O  O0  1  -0.32833596  0.58562287  -1.45788304  1.0
  O  O1  1  -0.67166404  0.41437713  -0.54211696  1.0
  O  O2  1  -0.50778094  0.86828940  -1.73626060  1.0
  O  O3  1  -0.49221906  0.13171060  -0.26373940  1.0
  O  O4  1  -0.85992850  0.81843317  -1.54203684  1.0
  O  O5  1  -0.14007150  0.18156683  -0.45796316  1.0
  O  O6  1  -0.25796746  0.96721235  -1.62152977  1.0
  O  O7  1  -0.74203254  0.03278765  -0.37847023  1.0
  O  O8  1  -0.92270985  0.68452683  -1.13661321  1.0
  O  O9  1  -0.07729015  0.31547317  -0.86338679  1.0
  O  O10  1  -0.96619986  0.65116866  -0.73934840  1.0
  O  O11  1  -0.03380014  0.34883134  -1.26065160  1.0
  O  O12  1  -0.59239322  0.69054543  -1.09269959  1.0
  O  O13  1  -0.40760678  0.30945457  -0.90730041  1.0
  O  O14  1  -0.81795444  1.02854378  -1.94122803  1.0
  O  O15  1  -0.18204556  -0.02854378  -0.05877197  1.0
  O  O16  1  -0.71504171  0.42204395  -1.16680963  1.0
  O  O17  1  -0.28495829  0.57795605  -0.83319037  1.0
  K  K18  1  -0.78615461  0.26153745  -0.75528421  1.0
  K  K19  1  -0.21384539  0.73846255  -1.24471579  1.0
  I  I20  1  -0.77170135  0.75801734  -1.75876123  1.0
  I  I21  1  -0.22829865  0.24198266  -0.24123877  1.0
  I  I22  1  -0.27452365  0.76997580  -1.72735882  1.0
  I  I23  1  -0.72547635  0.23002420  -0.27264118  1.0
  I  I24  1  -0.68960310  0.73770813  -1.29024184  1.0
  I  I25  1  -0.31039690  0.26229187  -0.70975816  1.0
