# generated using pymatgen
data_LiGd(WO4)2
_symmetry_space_group_name_H-M   'P 1'
_cell_length_a   5.02175067
_cell_length_b   6.08786376
_cell_length_c   11.08133492
_cell_angle_alpha   90.00000000
_cell_angle_beta   114.10131597
_cell_angle_gamma   90.00000000
_symmetry_Int_Tables_number   1
_chemical_formula_structural   LiGd(WO4)2
_chemical_formula_sum   'Li2 Gd2 W4 O16'
_cell_volume   309.24278932
_cell_formula_units_Z   2
loop_
 _symmetry_equiv_pos_site_id
 _symmetry_equiv_pos_as_xyz
  1  'x, y, z'
loop_
 _atom_site_type_symbol
 _atom_site_label
 _atom_site_symmetry_multiplicity
 _atom_site_fract_x
 _atom_site_fract_y
 _atom_site_fract_z
 _atom_site_occupancy
  Li  Li0  1  -0.00000000  0.76606262  0.25000000  1.0
  Li  Li1  1  0.00000000  0.23393738  0.75000000  1.0
  Gd  Gd2  1  0.50000000  0.32088389  0.25000000  1.0
  Gd  Gd3  1  0.50000000  0.67911611  0.75000000  1.0
  W  W4  1  0.73347740  0.82632362  0.48096434  1.0
  W  W5  1  0.73347740  0.17367638  0.98096434  1.0
  W  W6  1  0.26652260  0.82632362  0.01903566  1.0
  W  W7  1  0.26652260  0.17367638  0.51903566  1.0
  O  O8  1  0.84877175  0.89344995  0.90482881  1.0
  O  O9  1  0.84877175  0.10655005  0.40482881  1.0
  O  O10  1  0.15122825  0.89344995  0.59517119  1.0
  O  O11  1  0.15122825  0.10655005  0.09517119  1.0
  O  O12  1  0.77386321  0.64106174  0.36312534  1.0
  O  O13  1  0.77386321  0.35893826  0.86312534  1.0
  O  O14  1  0.22613679  0.64106174  0.13687466  1.0
  O  O15  1  0.22613679  0.35893826  0.63687466  1.0
  O  O16  1  0.71608310  0.35829489  0.10504981  1.0
  O  O17  1  0.71608310  0.64170511  0.60504981  1.0
  O  O18  1  0.28391690  0.35829489  0.39495019  1.0
  O  O19  1  0.28391690  0.64170511  0.89495019  1.0
  O  O20  1  0.65162104  0.91280207  0.11136907  1.0
  O  O21  1  0.65162104  0.08719793  0.61136907  1.0
  O  O22  1  0.34837896  0.91280207  0.38863093  1.0
  O  O23  1  0.34837896  0.08719793  0.88863093  1.0
