# generated using pymatgen
data_LiTiSe2
_symmetry_space_group_name_H-M   'P 1'
_cell_length_a   3.63005065
_cell_length_b   3.63005065
_cell_length_c   6.50192964
_cell_angle_alpha   90.00000000
_cell_angle_beta   90.00000000
_cell_angle_gamma   120.00000000
_symmetry_Int_Tables_number   1
_chemical_formula_structural   LiTiSe2
_chemical_formula_sum   'Li1 Ti1 Se2'
_cell_volume   74.19903664
_cell_formula_units_Z   1
loop_
 _symmetry_equiv_pos_site_id
 _symmetry_equiv_pos_as_xyz
  1  'x, y, z'
loop_
 _atom_site_type_symbol
 _atom_site_label
 _atom_site_symmetry_multiplicity
 _atom_site_fract_x
 _atom_site_fract_y
 _atom_site_fract_z
 _atom_site_occupancy
  Li  Li0  1  0.00000000  0.00000000  0.50000000  1.0
  Ti  Ti1  1  0.00000000  0.00000000  0.00000000  1.0
  Se  Se2  1  0.33333333  0.66666667  0.23894676  1.0
  Se  Se3  1  0.66666667  0.33333333  0.76105324  1.0
