# generated using pymatgen
data_Ta3P
_symmetry_space_group_name_H-M   'P 1'
_cell_length_a   10.20493666
_cell_length_b   10.20493666
_cell_length_c   5.03454150
_cell_angle_alpha   90.00000000
_cell_angle_beta   90.00000000
_cell_angle_gamma   90.00000000
_symmetry_Int_Tables_number   1
_chemical_formula_structural   Ta3P
_chemical_formula_sum   'Ta24 P8'
_cell_volume   524.30083762
_cell_formula_units_Z   8
loop_
 _symmetry_equiv_pos_site_id
 _symmetry_equiv_pos_as_xyz
  1  'x, y, z'
loop_
 _atom_site_type_symbol
 _atom_site_label
 _atom_site_symmetry_multiplicity
 _atom_site_fract_x
 _atom_site_fract_y
 _atom_site_fract_z
 _atom_site_occupancy
  Ta  Ta0  1  0.59273912  0.09273912  -0.00000000  1.0
  Ta  Ta1  1  0.59273912  0.90726088  0.50000000  1.0
  Ta  Ta2  1  0.09273912  0.59273912  0.50000000  1.0
  Ta  Ta3  1  0.09273912  0.40726088  -0.00000000  1.0
  Ta  Ta4  1  0.90726088  0.59273912  0.00000000  1.0
  Ta  Ta5  1  0.90726088  0.40726088  0.50000000  1.0
  Ta  Ta6  1  0.40726088  0.09273912  0.50000000  1.0
  Ta  Ta7  1  0.40726088  0.90726088  -0.00000000  1.0
  Ta  Ta8  1  0.20080813  0.70080813  -0.00000000  1.0
  Ta  Ta9  1  0.20080813  0.29919187  0.50000000  1.0
  Ta  Ta10  1  0.70080813  0.20080813  0.50000000  1.0
  Ta  Ta11  1  0.70080813  0.79919187  0.00000000  1.0
  Ta  Ta12  1  0.29919187  0.20080813  0.00000000  1.0
  Ta  Ta13  1  0.29919187  0.79919187  0.50000000  1.0
  Ta  Ta14  1  0.79919187  0.70080813  0.50000000  1.0
  Ta  Ta15  1  0.79919187  0.29919187  -0.00000000  1.0
  Ta  Ta16  1  0.14589147  0.00000000  0.25000000  1.0
  Ta  Ta17  1  0.64589147  0.50000000  0.25000000  1.0
  Ta  Ta18  1  0.50000000  0.64589147  0.75000000  1.0
  Ta  Ta19  1  0.50000000  0.35410853  0.75000000  1.0
  Ta  Ta20  1  0.00000000  0.14589147  0.75000000  1.0
  Ta  Ta21  1  0.00000000  0.85410853  0.75000000  1.0
  Ta  Ta22  1  0.35410853  0.50000000  0.25000000  1.0
  Ta  Ta23  1  0.85410853  0.00000000  0.25000000  1.0
  P  P24  1  0.20751697  0.00000000  0.75000000  1.0
  P  P25  1  0.70751697  0.50000000  0.75000000  1.0
  P  P26  1  0.50000000  0.70751697  0.25000000  1.0
  P  P27  1  0.50000000  0.29248303  0.25000000  1.0
  P  P28  1  0.00000000  0.20751697  0.25000000  1.0
  P  P29  1  0.00000000  0.79248303  0.25000000  1.0
  P  P30  1  0.29248303  0.50000000  0.75000000  1.0
  P  P31  1  0.79248303  0.00000000  0.75000000  1.0
