# generated using pymatgen
data_K3LiSi4
_symmetry_space_group_name_H-M   'P 1'
_cell_length_a   7.66990307
_cell_length_b   9.74378831
_cell_length_c   12.31913539
_cell_angle_alpha   90.00000000
_cell_angle_beta   90.00000000
_cell_angle_gamma   90.00000000
_symmetry_Int_Tables_number   1
_chemical_formula_structural   K3LiSi4
_chemical_formula_sum   'K12 Li4 Si16'
_cell_volume   920.65717961
_cell_formula_units_Z   4
loop_
 _symmetry_equiv_pos_site_id
 _symmetry_equiv_pos_as_xyz
  1  'x, y, z'
loop_
 _atom_site_type_symbol
 _atom_site_label
 _atom_site_symmetry_multiplicity
 _atom_site_fract_x
 _atom_site_fract_y
 _atom_site_fract_z
 _atom_site_occupancy
  K  K0  1  0.34343301  0.94667714  0.80625739  1.0
  K  K1  1  0.34343301  0.55332286  0.80625739  1.0
  K  K2  1  0.84343301  0.94667714  0.69374261  1.0
  K  K3  1  0.84343301  0.55332286  0.69374261  1.0
  K  K4  1  0.65656699  0.44667714  0.19374261  1.0
  K  K5  1  0.65656699  0.05332286  0.19374261  1.0
  K  K6  1  0.15656699  0.44667714  0.30625739  1.0
  K  K7  1  0.15656699  0.05332286  0.30625739  1.0
  K  K8  1  0.34405224  0.75000000  0.09889522  1.0
  K  K9  1  0.84405224  0.75000000  0.40110478  1.0
  K  K10  1  0.65594776  0.25000000  0.90110478  1.0
  K  K11  1  0.15594776  0.25000000  0.59889522  1.0
  Li  Li12  1  0.50000000  0.00000000  0.50000000  1.0
  Li  Li13  1  0.50000000  0.50000000  0.50000000  1.0
  Li  Li14  1  0.00000000  0.00000000  0.00000000  1.0
  Li  Li15  1  0.00000000  0.50000000  0.00000000  1.0
  Si  Si16  1  0.21489152  0.87196103  0.54856717  1.0
  Si  Si17  1  0.21489152  0.62803897  0.54856717  1.0
  Si  Si18  1  0.71489152  0.87196103  0.95143283  1.0
  Si  Si19  1  0.71489152  0.62803897  0.95143283  1.0
  Si  Si20  1  0.78510848  0.37196103  0.45143283  1.0
  Si  Si21  1  0.78510848  0.12803897  0.45143283  1.0
  Si  Si22  1  0.28510848  0.37196103  0.04856717  1.0
  Si  Si23  1  0.28510848  0.12803897  0.04856717  1.0
  Si  Si24  1  0.48794290  0.75000000  0.58442262  1.0
  Si  Si25  1  0.98794290  0.75000000  0.91557738  1.0
  Si  Si26  1  0.51205710  0.25000000  0.41557738  1.0
  Si  Si27  1  0.01205710  0.25000000  0.08442262  1.0
  Si  Si28  1  0.86379330  0.75000000  0.09912650  1.0
  Si  Si29  1  0.36379330  0.75000000  0.40087350  1.0
  Si  Si30  1  0.13620670  0.25000000  0.90087350  1.0
  Si  Si31  1  0.63620670  0.25000000  0.59912650  1.0
