# generated using pymatgen
data_Lu2O3
_symmetry_space_group_name_H-M   'P 1'
_cell_length_a   9.05819832
_cell_length_b   9.05819832
_cell_length_c   9.05819832
_cell_angle_alpha   109.47122063
_cell_angle_beta   109.47122063
_cell_angle_gamma   109.47122063
_symmetry_Int_Tables_number   1
_chemical_formula_structural   Lu2O3
_chemical_formula_sum   'Lu16 O24'
_cell_volume   572.14167686
_cell_formula_units_Z   8
loop_
 _symmetry_equiv_pos_site_id
 _symmetry_equiv_pos_as_xyz
  1  'x, y, z'
loop_
 _atom_site_type_symbol
 _atom_site_label
 _atom_site_symmetry_multiplicity
 _atom_site_fract_x
 _atom_site_fract_y
 _atom_site_fract_z
 _atom_site_occupancy
  Lu  Lu0  1  1.21690699  0.96690699  1.25000000  1.0
  Lu  Lu1  1  1.25000000  1.21690699  0.96690699  1.0
  Lu  Lu2  1  0.75000000  1.28309301  0.53309301  1.0
  Lu  Lu3  1  0.96690699  1.25000000  1.21690699  1.0
  Lu  Lu4  1  1.53309301  0.75000000  1.28309301  1.0
  Lu  Lu5  1  1.28309301  0.53309301  0.75000000  1.0
  Lu  Lu6  1  0.71685063  0.46685063  0.25000000  1.0
  Lu  Lu7  1  0.25000000  0.71685063  0.46685063  1.0
  Lu  Lu8  1  0.75000000  0.78314937  1.03314937  1.0
  Lu  Lu9  1  0.46685063  1.25000000  0.71685063  1.0
  Lu  Lu10  1  1.03314937  0.75000000  0.78314937  1.0
  Lu  Lu11  1  0.78314937  1.03314937  0.75000000  1.0
  Lu  Lu12  1  0.50010363  0.50010363  0.50010363  1.0
  Lu  Lu13  1  1.50000000  1.00000000  0.99989637  1.0
  Lu  Lu14  1  1.00000000  0.99989637  1.50000000  1.0
  Lu  Lu15  1  0.99989637  0.50000000  1.00000000  1.0
  O  O16  1  1.04415565  1.27264059  1.01187312  1.0
  O  O17  1  0.76076747  1.03228253  0.48812688  1.0
  O  O18  1  1.01187312  1.04415565  0.27264059  1.0
  O  O19  1  1.27151506  0.73923253  1.22735941  1.0
  O  O20  1  0.27264059  1.01187312  1.04415565  1.0
  O  O21  1  1.46771747  1.22848494  1.45584435  1.0
  O  O22  1  1.73923253  1.22735941  1.27151506  1.0
  O  O23  1  0.45584435  0.46771747  0.22848494  1.0
  O  O24  1  0.22848494  0.45584435  0.46771747  1.0
  O  O25  1  0.48812688  0.76076747  1.03228253  1.0
  O  O26  1  1.03228253  0.48812688  0.76076747  1.0
  O  O27  1  1.22735941  1.27151506  1.73923253  1.0
  O  O28  1  0.98816659  0.95584640  0.72744781  1.0
  O  O29  1  0.72839860  1.26071879  0.77255219  1.0
  O  O30  1  1.72744781  0.98816659  0.95584640  1.0
  O  O31  1  0.53232019  0.77160140  0.54415360  1.0
  O  O32  1  0.95584640  1.72744781  0.98816659  1.0
  O  O33  1  1.23928121  0.96767981  1.51183341  1.0
  O  O34  1  1.77160140  1.54415360  1.53232019  1.0
  O  O35  1  1.51183341  1.23928121  0.96767981  1.0
  O  O36  1  0.96767981  0.51183341  1.23928121  1.0
  O  O37  1  0.77255219  0.72839860  0.26071879  1.0
  O  O38  1  0.26071879  0.77255219  0.72839860  1.0
  O  O39  1  1.54415360  1.53232019  1.77160140  1.0
