# generated using pymatgen
data_Y2Si2O7
_symmetry_space_group_name_H-M   'P 1'
_cell_length_a   4.75291094
_cell_length_b   10.90505340
_cell_length_c   5.63442086
_cell_angle_alpha   90.00000000
_cell_angle_beta   96.19004310
_cell_angle_gamma   90.00000000
_symmetry_Int_Tables_number   1
_chemical_formula_structural   Y2Si2O7
_chemical_formula_sum   'Y4 Si4 O14'
_cell_volume   290.33359129
_cell_formula_units_Z   2
loop_
 _symmetry_equiv_pos_site_id
 _symmetry_equiv_pos_as_xyz
  1  'x, y, z'
loop_
 _atom_site_type_symbol
 _atom_site_label
 _atom_site_symmetry_multiplicity
 _atom_site_fract_x
 _atom_site_fract_y
 _atom_site_fract_z
 _atom_site_occupancy
  Y  Y0  1  0.60942940  0.15125359  0.40734965  1.0
  Y  Y1  1  0.60942940  0.34874641  0.90734965  1.0
  Y  Y2  1  0.39057060  0.65125359  0.09265035  1.0
  Y  Y3  1  0.39057060  0.84874641  0.59265035  1.0
  Si  Si4  1  0.86018254  0.88822631  0.14441820  1.0
  Si  Si5  1  0.86018254  0.61177369  0.64441820  1.0
  Si  Si6  1  0.13981746  0.38822631  0.35558180  1.0
  Si  Si7  1  0.13981746  0.11177369  0.85558180  1.0
  O  O8  1  0.88044493  0.29824899  0.24667882  1.0
  O  O9  1  0.88044493  0.20175101  0.74667882  1.0
  O  O10  1  0.11955507  0.79824899  0.25332118  1.0
  O  O11  1  0.11955507  0.70175101  0.75332118  1.0
  O  O12  1  0.70391734  0.94960319  0.36473637  1.0
  O  O13  1  0.70391734  0.55039681  0.86473637  1.0
  O  O14  1  0.29608266  0.44960319  0.13526363  1.0
  O  O15  1  0.29608266  0.05039681  0.63526363  1.0
  O  O16  1  0.37592059  0.18293073  0.04015487  1.0
  O  O17  1  0.37592059  0.31706927  0.54015487  1.0
  O  O18  1  0.62407941  0.68293073  0.45984513  1.0
  O  O19  1  0.62407941  0.81706927  0.95984513  1.0
  O  O20  1  0.00000000  0.50000000  0.50000000  1.0
  O  O21  1  0.00000000  0.00000000  0.00000000  1.0
