# generated using pymatgen
data_Sr5As3O12F
_symmetry_space_group_name_H-M   'P 1'
_cell_length_a   10.17495892
_cell_length_b   10.17495892
_cell_length_c   7.50096237
_cell_angle_alpha   90.00000000
_cell_angle_beta   90.00000000
_cell_angle_gamma   120.00000000
_symmetry_Int_Tables_number   1
_chemical_formula_structural   Sr5As3O12F
_chemical_formula_sum   'Sr10 As6 O24 F2'
_cell_volume   672.53199148
_cell_formula_units_Z   2
loop_
 _symmetry_equiv_pos_site_id
 _symmetry_equiv_pos_as_xyz
  1  'x, y, z'
loop_
 _atom_site_type_symbol
 _atom_site_label
 _atom_site_symmetry_multiplicity
 _atom_site_fract_x
 _atom_site_fract_y
 _atom_site_fract_z
 _atom_site_occupancy
  Sr  Sr0  1  0.00573595  0.75852975  0.25000000  1.0
  Sr  Sr1  1  0.75852975  0.75279380  0.75000000  1.0
  Sr  Sr2  1  0.75279380  0.99426405  0.25000000  1.0
  Sr  Sr3  1  0.24147025  0.24720620  0.25000000  1.0
  Sr  Sr4  1  0.99426405  0.24147025  0.75000000  1.0
  Sr  Sr5  1  0.24720620  0.00573595  0.75000000  1.0
  Sr  Sr6  1  0.33333333  0.66666667  0.49970897  1.0
  Sr  Sr7  1  0.33333333  0.66666667  0.00029103  1.0
  Sr  Sr8  1  0.66666667  0.33333333  0.99970897  1.0
  Sr  Sr9  1  0.66666667  0.33333333  0.50029103  1.0
  As  As10  1  0.63104279  0.60126552  0.25000000  1.0
  As  As11  1  0.60126552  0.97022273  0.75000000  1.0
  As  As12  1  0.97022273  0.36895721  0.25000000  1.0
  As  As13  1  0.39873448  0.02977727  0.25000000  1.0
  As  As14  1  0.36895721  0.39873448  0.75000000  1.0
  As  As15  1  0.02977727  0.63104279  0.75000000  1.0
  O  O16  1  0.74966230  0.65800352  0.43487179  1.0
  O  O17  1  0.74966230  0.65800352  0.06512821  1.0
  O  O18  1  0.65800352  0.90834122  0.93487179  1.0
  O  O19  1  0.65800352  0.90834122  0.56512821  1.0
  O  O20  1  0.90834122  0.25033770  0.43487179  1.0
  O  O21  1  0.90834122  0.25033770  0.06512821  1.0
  O  O22  1  0.34199648  0.09165878  0.43487179  1.0
  O  O23  1  0.34199648  0.09165878  0.06512821  1.0
  O  O24  1  0.25033770  0.34199648  0.93487179  1.0
  O  O25  1  0.25033770  0.34199648  0.56512821  1.0
  O  O26  1  0.09165878  0.74966230  0.93487179  1.0
  O  O27  1  0.09165878  0.74966230  0.56512821  1.0
  O  O28  1  0.32068125  0.83426383  0.25000000  1.0
  O  O29  1  0.83426383  0.51358258  0.75000000  1.0
  O  O30  1  0.51358258  0.67931875  0.25000000  1.0
  O  O31  1  0.16573617  0.48641742  0.25000000  1.0
  O  O32  1  0.67931875  0.16573617  0.75000000  1.0
  O  O33  1  0.48641742  0.32068125  0.75000000  1.0
  O  O34  1  0.52958729  0.40350737  0.25000000  1.0
  O  O35  1  0.40350737  0.87392008  0.75000000  1.0
  O  O36  1  0.87392008  0.47041271  0.25000000  1.0
  O  O37  1  0.59649263  0.12607992  0.25000000  1.0
  O  O38  1  0.47041271  0.59649263  0.75000000  1.0
  O  O39  1  0.12607992  0.52958729  0.75000000  1.0
  F  F40  1  0.00000000  0.00000000  0.25000000  1.0
  F  F41  1  0.00000000  0.00000000  0.75000000  1.0
