# generated using pymatgen
data_CsV(NO4)2
_symmetry_space_group_name_H-M   'P 1'
_cell_length_a   6.66898537
_cell_length_b   8.04904989
_cell_length_c   15.62465281
_cell_angle_alpha   90.00000000
_cell_angle_beta   90.00000000
_cell_angle_gamma   90.00000000
_symmetry_Int_Tables_number   1
_chemical_formula_structural   CsV(NO4)2
_chemical_formula_sum   'Cs4 V4 N8 O32'
_cell_volume   838.71567591
_cell_formula_units_Z   4
loop_
 _symmetry_equiv_pos_site_id
 _symmetry_equiv_pos_as_xyz
  1  'x, y, z'
loop_
 _atom_site_type_symbol
 _atom_site_label
 _atom_site_symmetry_multiplicity
 _atom_site_fract_x
 _atom_site_fract_y
 _atom_site_fract_z
 _atom_site_occupancy
  Cs  Cs0  1  0.75302436  0.64363526  0.66139664  1.0
  Cs  Cs1  1  0.25302436  0.85636474  0.33860336  1.0
  Cs  Cs2  1  0.24697564  0.14363526  0.83860336  1.0
  Cs  Cs3  1  0.74697564  0.35636474  0.16139664  1.0
  V  V4  1  0.35536645  0.31196937  0.52475032  1.0
  V  V5  1  0.85536645  0.18803063  0.47524968  1.0
  V  V6  1  0.64463355  0.81196937  0.97524968  1.0
  V  V7  1  0.14463355  0.68803063  0.02475032  1.0
  N  N8  1  0.37301732  0.98642362  0.60563753  1.0
  N  N9  1  0.87301732  0.51357638  0.39436247  1.0
  N  N10  1  0.62698268  0.48642362  0.89436247  1.0
  N  N11  1  0.12698268  0.01357638  0.10563753  1.0
  N  N12  1  0.12956193  0.61856986  0.84412727  1.0
  N  N13  1  0.62956193  0.88143014  0.15587273  1.0
  N  N14  1  0.87043807  0.11856986  0.65587273  1.0
  N  N15  1  0.37043807  0.38143014  0.34412727  1.0
  O  O16  1  0.39130965  0.94296241  0.53025305  1.0
  O  O17  1  0.89130965  0.55703759  0.46974695  1.0
  O  O18  1  0.60869035  0.44296241  0.96974695  1.0
  O  O19  1  0.10869035  0.05703759  0.03025305  1.0
  O  O20  1  0.38883457  0.77439193  0.99038113  1.0
  O  O21  1  0.88883457  0.72560807  0.00961887  1.0
  O  O22  1  0.61116543  0.27439193  0.50961887  1.0
  O  O23  1  0.11116543  0.22560807  0.49038113  1.0
  O  O24  1  0.38077506  0.89291099  0.66823555  1.0
  O  O25  1  0.88077506  0.60708901  0.33176445  1.0
  O  O26  1  0.61922494  0.39291099  0.83176445  1.0
  O  O27  1  0.11922494  0.10708901  0.16823555  1.0
  O  O28  1  0.33111615  0.46684029  0.58703961  1.0
  O  O29  1  0.83111615  0.03315971  0.41296039  1.0
  O  O30  1  0.66888385  0.96684029  0.91296039  1.0
  O  O31  1  0.16888385  0.53315971  0.08703961  1.0
  O  O32  1  0.15879380  0.54221542  0.91868226  1.0
  O  O33  1  0.65879380  0.95778458  0.08131774  1.0
  O  O34  1  0.84120620  0.04221542  0.58131774  1.0
  O  O35  1  0.34120620  0.45778458  0.41868226  1.0
  O  O36  1  0.15654107  0.85333374  0.12292749  1.0
  O  O37  1  0.65654107  0.64666626  0.87707251  1.0
  O  O38  1  0.84345893  0.35333374  0.37707251  1.0
  O  O39  1  0.34345893  0.14666626  0.62292749  1.0
  O  O40  1  0.12678529  0.52905815  0.77999098  1.0
  O  O41  1  0.62678529  0.97094185  0.22000902  1.0
  O  O42  1  0.87321471  0.02905815  0.72000902  1.0
  O  O43  1  0.37321471  0.47094185  0.27999098  1.0
  O  O44  1  0.10574814  0.77073152  0.84410020  1.0
  O  O45  1  0.60574814  0.72926848  0.15589980  1.0
  O  O46  1  0.89425186  0.27073152  0.65589980  1.0
  O  O47  1  0.39425186  0.22926848  0.34410020  1.0
