# generated using pymatgen
data_Y3Ga8Rh3
_symmetry_space_group_name_H-M   'P 1'
_cell_length_a   8.17321435
_cell_length_b   8.17321435
_cell_length_c   8.17321435
_cell_angle_alpha   150.20313434
_cell_angle_beta   106.29271958
_cell_angle_gamma   81.46941211
_symmetry_Int_Tables_number   1
_chemical_formula_structural   Y3Ga8Rh3
_chemical_formula_sum   'Y3 Ga8 Rh3'
_cell_volume   255.18675482
_cell_formula_units_Z   1
loop_
 _symmetry_equiv_pos_site_id
 _symmetry_equiv_pos_as_xyz
  1  'x, y, z'
loop_
 _atom_site_type_symbol
 _atom_site_label
 _atom_site_symmetry_multiplicity
 _atom_site_fract_x
 _atom_site_fract_y
 _atom_site_fract_z
 _atom_site_occupancy
  Y  Y0  1  0.50000000  0.50000000  1.00000000  1.0
  Y  Y1  1  0.82892832  0.82892832  1.00000000  1.0
  Y  Y2  1  1.17107168  1.17107168  1.00000000  1.0
  Ga  Ga3  1  0.33824682  0.62197936  0.71626746  1.0
  Ga  Ga4  1  1.66175318  1.37802064  1.28373254  1.0
  Ga  Ga5  1  0.90571190  0.62197936  1.28373254  1.0
  Ga  Ga6  1  1.09428810  1.37802064  0.71626746  1.0
  Ga  Ga7  1  1.46059602  0.82963675  0.63095927  1.0
  Ga  Ga8  1  0.53940398  0.17036325  0.36904073  1.0
  Ga  Ga9  1  1.19867748  0.82963675  0.36904073  1.0
  Ga  Ga10  1  0.80132252  0.17036325  0.63095927  1.0
  Rh  Rh11  1  0.00000000  0.50000000  0.50000000  1.0
  Rh  Rh12  1  0.77719438  -0.00000000  0.77719438  1.0
  Rh  Rh13  1  0.22280562  0.00000000  0.22280562  1.0
