# generated using pymatgen
data_Sr5(CoN2)2
_symmetry_space_group_name_H-M   'P 1'
_cell_length_a   8.68539687
_cell_length_b   8.68539687
_cell_length_c   12.37033375
_cell_angle_alpha   90.00000000
_cell_angle_beta   90.00000000
_cell_angle_gamma   90.00000000
_symmetry_Int_Tables_number   1
_chemical_formula_structural   Sr5(CoN2)2
_chemical_formula_sum   'Sr20 Co8 N16'
_cell_volume   933.16996656
_cell_formula_units_Z   4
loop_
 _symmetry_equiv_pos_site_id
 _symmetry_equiv_pos_as_xyz
  1  'x, y, z'
loop_
 _atom_site_type_symbol
 _atom_site_label
 _atom_site_symmetry_multiplicity
 _atom_site_fract_x
 _atom_site_fract_y
 _atom_site_fract_z
 _atom_site_occupancy
  Sr  Sr0  1  0.00000000  0.50000000  0.34337755  1.0
  Sr  Sr1  1  0.00000000  0.50000000  0.84337755  1.0
  Sr  Sr2  1  0.50000000  0.00000000  0.65662245  1.0
  Sr  Sr3  1  0.50000000  0.00000000  0.15662245  1.0
  Sr  Sr4  1  0.38283426  0.32537042  0.40038943  1.0
  Sr  Sr5  1  0.61716574  0.32537042  0.90038943  1.0
  Sr  Sr6  1  0.38283426  0.67462958  0.90038943  1.0
  Sr  Sr7  1  0.61716574  0.67462958  0.40038943  1.0
  Sr  Sr8  1  0.82537042  0.88283426  0.90038943  1.0
  Sr  Sr9  1  0.17462958  0.88283426  0.40038943  1.0
  Sr  Sr10  1  0.82537042  0.11716574  0.40038943  1.0
  Sr  Sr11  1  0.17462958  0.11716574  0.90038943  1.0
  Sr  Sr12  1  0.11716574  0.17462958  0.59961057  1.0
  Sr  Sr13  1  0.88283426  0.17462958  0.09961057  1.0
  Sr  Sr14  1  0.11716574  0.82537042  0.09961057  1.0
  Sr  Sr15  1  0.88283426  0.82537042  0.59961057  1.0
  Sr  Sr16  1  0.67462958  0.61716574  0.09961057  1.0
  Sr  Sr17  1  0.32537042  0.61716574  0.59961057  1.0
  Sr  Sr18  1  0.67462958  0.38283426  0.59961057  1.0
  Sr  Sr19  1  0.32537042  0.38283426  0.09961057  1.0
  Co  Co20  1  0.34147099  0.65852901  0.25000000  1.0
  Co  Co21  1  0.65852901  0.65852901  0.75000000  1.0
  Co  Co22  1  0.34147099  0.34147099  0.75000000  1.0
  Co  Co23  1  0.65852901  0.34147099  0.25000000  1.0
  Co  Co24  1  0.15852901  0.84147099  0.75000000  1.0
  Co  Co25  1  0.84147099  0.84147099  0.25000000  1.0
  Co  Co26  1  0.15852901  0.15852901  0.25000000  1.0
  Co  Co27  1  0.84147099  0.15852901  0.75000000  1.0
  N  N28  1  0.89211464  0.79906613  0.38698385  1.0
  N  N29  1  0.10788536  0.79906613  0.88698385  1.0
  N  N30  1  0.89211464  0.20093387  0.88698385  1.0
  N  N31  1  0.10788536  0.20093387  0.38698385  1.0
  N  N32  1  0.29906613  0.39211464  0.88698385  1.0
  N  N33  1  0.70093387  0.39211464  0.38698385  1.0
  N  N34  1  0.29906613  0.60788536  0.38698385  1.0
  N  N35  1  0.70093387  0.60788536  0.88698385  1.0
  N  N36  1  0.60788536  0.70093387  0.61301615  1.0
  N  N37  1  0.39211464  0.70093387  0.11301615  1.0
  N  N38  1  0.60788536  0.29906613  0.11301615  1.0
  N  N39  1  0.39211464  0.29906613  0.61301615  1.0
  N  N40  1  0.20093387  0.10788536  0.11301615  1.0
  N  N41  1  0.79906613  0.10788536  0.61301615  1.0
  N  N42  1  0.20093387  0.89211464  0.61301615  1.0
  N  N43  1  0.79906613  0.89211464  0.11301615  1.0
