# generated using pymatgen
data_Gd6Fe23
_symmetry_space_group_name_H-M   'P 1'
_cell_length_a   8.50085498
_cell_length_b   8.50085498
_cell_length_c   8.50085498
_cell_angle_alpha   60.00000000
_cell_angle_beta   60.00000000
_cell_angle_gamma   60.00000000
_symmetry_Int_Tables_number   1
_chemical_formula_structural   Gd6Fe23
_chemical_formula_sum   'Gd6 Fe23'
_cell_volume   434.38300338
_cell_formula_units_Z   1
loop_
 _symmetry_equiv_pos_site_id
 _symmetry_equiv_pos_as_xyz
  1  'x, y, z'
loop_
 _atom_site_type_symbol
 _atom_site_label
 _atom_site_symmetry_multiplicity
 _atom_site_fract_x
 _atom_site_fract_y
 _atom_site_fract_z
 _atom_site_occupancy
  Gd  Gd0  1  -0.70767367  0.70767367  0.70767367  1.0
  Gd  Gd1  1  -0.29232633  0.29232633  0.70767367  1.0
  Gd  Gd2  1  0.70767367  0.70767367  -0.70767367  1.0
  Gd  Gd3  1  0.29232633  1.29232633  -0.29232633  1.0
  Gd  Gd4  1  0.29232633  -0.29232633  1.29232633  1.0
  Gd  Gd5  1  -0.29232633  0.29232633  0.29232633  1.0
  Fe  Fe6  1  0.87834361  0.87834361  -0.12165639  1.0
  Fe  Fe7  1  1.12165639  0.12165639  0.63503082  1.0
  Fe  Fe8  1  1.12165639  0.63503082  0.12165639  1.0
  Fe  Fe9  1  0.36496918  0.87834361  -0.12165639  1.0
  Fe  Fe10  1  1.63503082  0.12165639  0.12165639  1.0
  Fe  Fe11  1  0.87834361  0.36496918  -0.12165639  1.0
  Fe  Fe12  1  0.87834361  0.87834361  -0.63503082  1.0
  Fe  Fe13  1  1.12165639  0.12165639  0.12165639  1.0
  Fe  Fe14  1  0.67637890  0.67637890  -0.32362110  1.0
  Fe  Fe15  1  1.32362110  0.32362110  0.02913669  1.0
  Fe  Fe16  1  1.32362110  0.02913669  0.32362110  1.0
  Fe  Fe17  1  0.97086331  0.67637890  -0.32362110  1.0
  Fe  Fe18  1  1.02913669  0.32362110  0.32362110  1.0
  Fe  Fe19  1  0.67637890  0.97086331  -0.32362110  1.0
  Fe  Fe20  1  0.67637890  0.67637890  -0.02913669  1.0
  Fe  Fe21  1  1.32362110  0.32362110  0.32362110  1.0
  Fe  Fe22  1  1.50000000  0.00000000  -0.00000000  1.0
  Fe  Fe23  1  1.00000000  0.50000000  -0.50000000  1.0
  Fe  Fe24  1  0.00000000  1.50000000  -0.00000000  1.0
  Fe  Fe25  1  0.50000000  1.00000000  -0.50000000  1.0
  Fe  Fe26  1  0.00000000  0.00000000  0.50000000  1.0
  Fe  Fe27  1  0.50000000  -0.50000000  1.00000000  1.0
  Fe  Fe28  1  0.00000000  0.00000000  -0.00000000  1.0
