# generated using pymatgen
data_Na2SO4
_symmetry_space_group_name_H-M   'P 1'
_cell_length_a   9.67344775
_cell_length_b   7.11312486
_cell_length_c   5.34826991
_cell_angle_alpha   90.00000000
_cell_angle_beta   90.00000000
_cell_angle_gamma   90.00000000
_symmetry_Int_Tables_number   1
_chemical_formula_structural   Na2SO4
_chemical_formula_sum   'Na8 S4 O16'
_cell_volume   368.00611814
_cell_formula_units_Z   4
loop_
 _symmetry_equiv_pos_site_id
 _symmetry_equiv_pos_as_xyz
  1  'x, y, z'
loop_
 _atom_site_type_symbol
 _atom_site_label
 _atom_site_symmetry_multiplicity
 _atom_site_fract_x
 _atom_site_fract_y
 _atom_site_fract_z
 _atom_site_occupancy
  Na  Na0  1  0.85345227  0.25000000  0.51746620  1.0
  Na  Na1  1  0.35345227  0.25000000  0.98253380  1.0
  Na  Na2  1  0.14654773  0.75000000  0.48253380  1.0
  Na  Na3  1  0.64654773  0.75000000  0.01746620  1.0
  Na  Na4  1  0.00000000  0.50000000  0.00000000  1.0
  Na  Na5  1  0.00000000  0.00000000  0.00000000  1.0
  Na  Na6  1  0.50000000  0.50000000  0.50000000  1.0
  Na  Na7  1  0.50000000  0.00000000  0.50000000  1.0
  S  S8  1  0.67848358  0.25000000  0.01310678  1.0
  S  S9  1  0.17848358  0.25000000  0.48689322  1.0
  S  S10  1  0.32151642  0.75000000  0.98689322  1.0
  S  S11  1  0.82151642  0.75000000  0.51310678  1.0
  O  O12  1  0.62221666  0.42124496  0.13819082  1.0
  O  O13  1  0.62221666  0.07875504  0.13819082  1.0
  O  O14  1  0.12221666  0.42124496  0.36180918  1.0
  O  O15  1  0.12221666  0.07875504  0.36180918  1.0
  O  O16  1  0.37778334  0.92124496  0.86180918  1.0
  O  O17  1  0.37778334  0.57875504  0.86180918  1.0
  O  O18  1  0.87778334  0.92124496  0.63819082  1.0
  O  O19  1  0.87778334  0.57875504  0.63819082  1.0
  O  O20  1  0.83392552  0.25000000  0.03562873  1.0
  O  O21  1  0.33392552  0.25000000  0.46437127  1.0
  O  O22  1  0.16607448  0.75000000  0.96437127  1.0
  O  O23  1  0.66607448  0.75000000  0.53562873  1.0
  O  O24  1  0.63691282  0.25000000  0.74222728  1.0
  O  O25  1  0.13691282  0.25000000  0.75777272  1.0
  O  O26  1  0.36308718  0.75000000  0.25777272  1.0
  O  O27  1  0.86308718  0.75000000  0.24222728  1.0
