# generated using pymatgen
data_Sr5Cd3
_symmetry_space_group_name_H-M   'P 1'
_cell_length_a   10.33323124
_cell_length_b   10.33323124
_cell_length_c   10.33323124
_cell_angle_alpha   129.75458728
_cell_angle_beta   129.75458728
_cell_angle_gamma   73.79940302
_symmetry_Int_Tables_number   1
_chemical_formula_structural   Sr5Cd3
_chemical_formula_sum   'Sr10 Cd6'
_cell_volume   636.15581674
_cell_formula_units_Z   2
loop_
 _symmetry_equiv_pos_site_id
 _symmetry_equiv_pos_as_xyz
  1  'x, y, z'
loop_
 _atom_site_type_symbol
 _atom_site_label
 _atom_site_symmetry_multiplicity
 _atom_site_fract_x
 _atom_site_fract_y
 _atom_site_fract_z
 _atom_site_occupancy
  Sr  Sr0  1  1.18474244  0.68474244  1.16388617  1.0
  Sr  Sr1  1  0.47914373  0.97914373  1.16388617  1.0
  Sr  Sr2  1  1.02085627  1.18474244  1.50000000  1.0
  Sr  Sr3  1  0.31525756  0.47914373  0.50000000  1.0
  Sr  Sr4  1  0.68474244  0.52085627  0.50000000  1.0
  Sr  Sr5  1  0.97914373  0.81525756  1.50000000  1.0
  Sr  Sr6  1  0.52085627  1.02085627  0.83611383  1.0
  Sr  Sr7  1  0.81525756  0.31525756  0.83611383  1.0
  Sr  Sr8  1  0.00000000  0.00000000  0.00000000  1.0
  Sr  Sr9  1  0.50000000  0.50000000  1.00000000  1.0
  Cd  Cd10  1  0.87702358  0.37702358  1.25404715  1.0
  Cd  Cd11  1  0.62297642  0.87702358  1.50000000  1.0
  Cd  Cd12  1  0.37702358  0.12297642  0.50000000  1.0
  Cd  Cd13  1  0.12297642  0.62297642  0.74595285  1.0
  Cd  Cd14  1  0.75000000  0.75000000  1.00000000  1.0
  Cd  Cd15  1  0.25000000  0.25000000  0.00000000  1.0
