# generated using pymatgen
data_Zr3(CrGa3)2
_symmetry_space_group_name_H-M   'P 1'
_cell_length_a   5.35196093
_cell_length_b   8.77823660
_cell_length_c   7.77884212
_cell_angle_alpha   90.00000000
_cell_angle_beta   90.00000000
_cell_angle_gamma   90.00000000
_symmetry_Int_Tables_number   1
_chemical_formula_structural   Zr3(CrGa3)2
_chemical_formula_sum   'Zr6 Cr4 Ga12'
_cell_volume   365.45606506
_cell_formula_units_Z   2
loop_
 _symmetry_equiv_pos_site_id
 _symmetry_equiv_pos_as_xyz
  1  'x, y, z'
loop_
 _atom_site_type_symbol
 _atom_site_label
 _atom_site_symmetry_multiplicity
 _atom_site_fract_x
 _atom_site_fract_y
 _atom_site_fract_z
 _atom_site_occupancy
  Zr  Zr0  1  0.50000000  0.77746050  0.15457052  1.0
  Zr  Zr1  1  0.50000000  0.22253950  0.15457052  1.0
  Zr  Zr2  1  0.00000000  0.72253950  0.84542948  1.0
  Zr  Zr3  1  0.00000000  0.27746050  0.84542948  1.0
  Zr  Zr4  1  0.50000000  0.50000000  0.71473149  1.0
  Zr  Zr5  1  0.00000000  0.00000000  0.28526851  1.0
  Cr  Cr6  1  0.25000000  0.25000000  0.50000000  1.0
  Cr  Cr7  1  0.25000000  0.75000000  0.50000000  1.0
  Cr  Cr8  1  0.75000000  0.25000000  0.50000000  1.0
  Cr  Cr9  1  0.75000000  0.75000000  0.50000000  1.0
  Ga  Ga10  1  0.50000000  0.18608000  0.76520408  1.0
  Ga  Ga11  1  0.50000000  0.81392000  0.76520408  1.0
  Ga  Ga12  1  0.00000000  0.31392000  0.23479592  1.0
  Ga  Ga13  1  0.00000000  0.68608000  0.23479592  1.0
  Ga  Ga14  1  0.50000000  0.50000000  0.36631029  1.0
  Ga  Ga15  1  0.00000000  0.00000000  0.63368971  1.0
  Ga  Ga16  1  0.00000000  0.50000000  0.56173074  1.0
  Ga  Ga17  1  0.50000000  0.00000000  0.43826926  1.0
  Ga  Ga18  1  0.25942402  0.50000000  0.03775710  1.0
  Ga  Ga19  1  0.74057598  0.50000000  0.03775710  1.0
  Ga  Ga20  1  0.24057598  0.00000000  0.96224290  1.0
  Ga  Ga21  1  0.75942402  0.00000000  0.96224290  1.0
