# generated using pymatgen
data_Be12Pt
_symmetry_space_group_name_H-M   'P 1'
_cell_length_a   5.52990116
_cell_length_b   5.52990116
_cell_length_c   5.52990116
_cell_angle_alpha   98.23134170
_cell_angle_beta   98.23134170
_cell_angle_gamma   135.53343377
_symmetry_Int_Tables_number   1
_chemical_formula_structural   Be12Pt
_chemical_formula_sum   'Be12 Pt1'
_cell_volume   109.64860663
_cell_formula_units_Z   1
loop_
 _symmetry_equiv_pos_site_id
 _symmetry_equiv_pos_as_xyz
  1  'x, y, z'
loop_
 _atom_site_type_symbol
 _atom_site_label
 _atom_site_symmetry_multiplicity
 _atom_site_fract_x
 _atom_site_fract_y
 _atom_site_fract_z
 _atom_site_occupancy
  Be  Be0  1  0.50000000  0.72511055  0.22511055  1.0
  Be  Be1  1  0.72511055  0.50000000  1.22511055  1.0
  Be  Be2  1  0.27488945  0.50000000  0.77488945  1.0
  Be  Be3  1  0.50000000  1.27488945  0.77488945  1.0
  Be  Be4  1  0.00000000  0.65154127  0.65154127  1.0
  Be  Be5  1  0.65154127  1.00000000  0.65154127  1.0
  Be  Be6  1  1.34845873  1.00000000  1.34845873  1.0
  Be  Be7  1  0.00000000  0.34845873  0.34845873  1.0
  Be  Be8  1  0.50000000  0.50000000  0.50000000  1.0
  Be  Be9  1  1.00000000  1.00000000  0.50000000  1.0
  Be  Be10  1  1.00000000  0.50000000  1.00000000  1.0
  Be  Be11  1  1.50000000  1.00000000  1.00000000  1.0
  Pt  Pt12  1  0.00000000  0.00000000  0.00000000  1.0
