# generated using pymatgen
data_Zr2(NiAs)3
_symmetry_space_group_name_H-M   'P 1'
_cell_length_a   12.80772886
_cell_length_b   3.76018069
_cell_length_c   10.43556348
_cell_angle_alpha   90.00000000
_cell_angle_beta   90.00000000
_cell_angle_gamma   90.00000000
_symmetry_Int_Tables_number   1
_chemical_formula_structural   Zr2(NiAs)3
_chemical_formula_sum   'Zr8 Ni12 As12'
_cell_volume   502.57021217
_cell_formula_units_Z   4
loop_
 _symmetry_equiv_pos_site_id
 _symmetry_equiv_pos_as_xyz
  1  'x, y, z'
loop_
 _atom_site_type_symbol
 _atom_site_label
 _atom_site_symmetry_multiplicity
 _atom_site_fract_x
 _atom_site_fract_y
 _atom_site_fract_z
 _atom_site_occupancy
  Zr  Zr0  1  0.49439453  0.75000000  0.66731659  1.0
  Zr  Zr1  1  0.99439453  0.75000000  0.83268341  1.0
  Zr  Zr2  1  0.50560547  0.25000000  0.33268341  1.0
  Zr  Zr3  1  0.00560547  0.25000000  0.16731659  1.0
  Zr  Zr4  1  0.20990449  0.75000000  0.57382354  1.0
  Zr  Zr5  1  0.70990449  0.75000000  0.92617646  1.0
  Zr  Zr6  1  0.79009551  0.25000000  0.42617646  1.0
  Zr  Zr7  1  0.29009551  0.25000000  0.07382354  1.0
  Ni  Ni8  1  0.21763695  0.75000000  0.86166977  1.0
  Ni  Ni9  1  0.71763695  0.75000000  0.63833023  1.0
  Ni  Ni10  1  0.78236305  0.25000000  0.13833023  1.0
  Ni  Ni11  1  0.28236305  0.25000000  0.36166977  1.0
  Ni  Ni12  1  0.16559959  0.75000000  0.27476674  1.0
  Ni  Ni13  1  0.66559959  0.75000000  0.22523326  1.0
  Ni  Ni14  1  0.83440041  0.25000000  0.72523326  1.0
  Ni  Ni15  1  0.33440041  0.25000000  0.77476674  1.0
  Ni  Ni16  1  0.48563783  0.75000000  0.09732548  1.0
  Ni  Ni17  1  0.98563783  0.75000000  0.40267452  1.0
  Ni  Ni18  1  0.51436217  0.25000000  0.90267452  1.0
  Ni  Ni19  1  0.01436217  0.25000000  0.59732548  1.0
  As  As20  1  0.35661048  0.75000000  0.26109487  1.0
  As  As21  1  0.85661048  0.75000000  0.23890513  1.0
  As  As22  1  0.64338952  0.25000000  0.73890513  1.0
  As  As23  1  0.14338952  0.25000000  0.76109487  1.0
  As  As24  1  0.12592389  0.75000000  0.05261154  1.0
  As  As25  1  0.62592389  0.75000000  0.44738846  1.0
  As  As26  1  0.87407611  0.25000000  0.94738846  1.0
  As  As27  1  0.37407611  0.25000000  0.55261154  1.0
  As  As28  1  0.39727658  0.75000000  0.90031036  1.0
  As  As29  1  0.89727658  0.75000000  0.59968964  1.0
  As  As30  1  0.60272342  0.25000000  0.09968964  1.0
  As  As31  1  0.10272342  0.25000000  0.40031036  1.0
