# generated using pymatgen
data_Ti6Ge5
_symmetry_space_group_name_H-M   'P 1'
_cell_length_a   9.38586949
_cell_length_b   9.38586949
_cell_length_c   9.38586949
_cell_angle_alpha   146.40061615
_cell_angle_beta   126.53086906
_cell_angle_gamma   64.64769713
_symmetry_Int_Tables_number   1
_chemical_formula_structural   Ti6Ge5
_chemical_formula_sum   'Ti12 Ge10'
_cell_volume   363.39058036
_cell_formula_units_Z   2
loop_
 _symmetry_equiv_pos_site_id
 _symmetry_equiv_pos_as_xyz
  1  'x, y, z'
loop_
 _atom_site_type_symbol
 _atom_site_label
 _atom_site_symmetry_multiplicity
 _atom_site_fract_x
 _atom_site_fract_y
 _atom_site_fract_z
 _atom_site_occupancy
  Ti  Ti0  1  0.65471611  0.65471611  1.00000000  1.0
  Ti  Ti1  1  0.34528389  0.34528389  -0.00000000  1.0
  Ti  Ti2  1  0.00000000  0.24719852  0.24719852  1.0
  Ti  Ti3  1  0.00000000  0.75280148  0.75280148  1.0
  Ti  Ti4  1  1.00000000  0.50000000  1.00000000  1.0
  Ti  Ti5  1  0.50000000  1.00000000  1.00000000  1.0
  Ti  Ti6  1  0.50000000  0.50000000  0.50000000  1.0
  Ti  Ti7  1  1.00000000  1.00000000  1.50000000  1.0
  Ti  Ti8  1  1.19720292  0.91117560  1.28602732  1.0
  Ti  Ti9  1  0.62514828  0.91117560  0.71397268  1.0
  Ti  Ti10  1  0.37485172  0.08882440  0.28602732  1.0
  Ti  Ti11  1  0.80279708  0.08882440  0.71397268  1.0
  Ge  Ge12  1  0.83251066  0.83251066  1.00000000  1.0
  Ge  Ge13  1  0.16748934  0.16748934  -0.00000000  1.0
  Ge  Ge14  1  0.28969814  0.78969814  0.50000000  1.0
  Ge  Ge15  1  0.71030186  0.21030186  0.50000000  1.0
  Ge  Ge16  1  0.50000000  0.26671637  0.76671637  1.0
  Ge  Ge17  1  0.50000000  0.73328363  1.23328363  1.0
  Ge  Ge18  1  0.91286877  0.60597733  1.30689144  1.0
  Ge  Ge19  1  0.29908589  0.60597733  0.69310856  1.0
  Ge  Ge20  1  0.70091411  0.39402267  0.30689144  1.0
  Ge  Ge21  1  1.08713123  0.39402267  0.69310856  1.0
