# generated using pymatgen
data_Rb2NaAl6F21
_symmetry_space_group_name_H-M   'P 1'
_cell_length_a   7.09036446
_cell_length_b   7.09036446
_cell_length_c   10.42168109
_cell_angle_alpha   70.12382781
_cell_angle_beta   109.87617219
_cell_angle_gamma   119.95004135
_symmetry_Int_Tables_number   1
_chemical_formula_structural   Rb2NaAl6F21
_chemical_formula_sum   'Rb2 Na1 Al6 F21'
_cell_volume   417.50111969
_cell_formula_units_Z   1
loop_
 _symmetry_equiv_pos_site_id
 _symmetry_equiv_pos_as_xyz
  1  'x, y, z'
loop_
 _atom_site_type_symbol
 _atom_site_label
 _atom_site_symmetry_multiplicity
 _atom_site_fract_x
 _atom_site_fract_y
 _atom_site_fract_z
 _atom_site_occupancy
  Rb  Rb0  1  1.34856364  0.62345010  0.58943101  1.0
  Rb  Rb1  1  1.62345010  0.34856364  0.41056899  1.0
  Na  Na2  1  1.00659144  0.00659144  0.50000000  1.0
  Al  Al3  1  0.95184232  -0.92113645  0.81010233  1.0
  Al  Al4  1  0.07886355  -0.04815768  0.18989767  1.0
  Al  Al5  1  1.45188397  0.07838868  0.81086738  1.0
  Al  Al6  1  1.07838868  0.45188397  0.18913262  1.0
  Al  Al7  1  0.95115795  -0.42210667  0.80880195  1.0
  Al  Al8  1  0.57789333  -0.04884205  0.19119805  1.0
  F  F9  1  1.14529635  0.37328709  0.37297218  1.0
  F  F10  1  1.37328709  0.14529635  0.62702782  1.0
  F  F11  1  0.92031354  -0.83407289  0.62607578  1.0
  F  F12  1  0.16592711  -0.07968646  0.37392422  1.0
  F  F13  1  1.03604771  0.36188378  0.82744838  1.0
  F  F14  1  1.36188378  0.03604771  0.17255162  1.0
  F  F15  1  0.24412912  -0.21419296  0.81418053  1.0
  F  F16  1  0.78580704  -0.75587088  0.18581947  1.0
  F  F17  1  0.66210012  -0.63121288  0.81297491  1.0
  F  F18  1  0.36878712  -0.33789988  0.18702509  1.0
  F  F19  1  0.89938971  -0.36908277  0.62378333  1.0
  F  F20  1  0.63091723  -0.10061029  0.37621667  1.0
  F  F21  1  1.24752251  0.15030480  0.83037947  1.0
  F  F22  1  1.15030480  0.24752251  0.16962053  1.0
  F  F23  1  0.86773452  -0.20756094  0.79793677  1.0
  F  F24  1  0.79243906  -0.13226548  0.20206323  1.0
  F  F25  1  1.65800997  0.00232517  0.79836630  1.0
  F  F26  1  1.00232517  0.65800997  0.20163370  1.0
  F  F27  1  0.53307849  0.00941539  1.00067890  1.0
  F  F28  1  1.00941539  -0.46692151  -0.00067890  1.0
  F  F29  1  -0.01385083  -0.01385083  0.00000000  1.0
