# generated using pymatgen
data_GdScO3
_symmetry_space_group_name_H-M   'P 1'
_cell_length_a   5.79848242
_cell_length_b   8.54609269
_cell_length_c   5.66095941
_cell_angle_alpha   90.00000000
_cell_angle_beta   90.00000000
_cell_angle_gamma   90.00000000
_symmetry_Int_Tables_number   1
_chemical_formula_structural   GdScO3
_chemical_formula_sum   'Gd4 Sc4 O12'
_cell_volume   280.52526699
_cell_formula_units_Z   4
loop_
 _symmetry_equiv_pos_site_id
 _symmetry_equiv_pos_as_xyz
  1  'x, y, z'
loop_
 _atom_site_type_symbol
 _atom_site_label
 _atom_site_symmetry_multiplicity
 _atom_site_fract_x
 _atom_site_fract_y
 _atom_site_fract_z
 _atom_site_occupancy
  Gd  Gd0  1  0.50000000  0.00000000  0.50000000  1.0
  Gd  Gd1  1  0.50000000  0.50000000  0.50000000  1.0
  Gd  Gd2  1  0.00000000  0.00000000  0.00000000  1.0
  Gd  Gd3  1  0.00000000  0.50000000  0.00000000  1.0
  Sc  Sc4  1  0.01652560  0.75000000  0.48935806  1.0
  Sc  Sc5  1  0.51652560  0.75000000  1.01064194  1.0
  Sc  Sc6  1  0.98347440  0.25000000  0.51064194  1.0
  Sc  Sc7  1  0.48347440  0.25000000  -0.01064194  1.0
  O  O8  1  0.33988697  0.91594839  0.84421045  1.0
  O  O9  1  0.33988697  0.58405161  0.84421045  1.0
  O  O10  1  0.83988697  0.91594839  0.65578955  1.0
  O  O11  1  0.83988697  0.58405161  0.65578955  1.0
  O  O12  1  0.66011303  0.41594839  0.15578955  1.0
  O  O13  1  0.66011303  0.08405161  0.15578955  1.0
  O  O14  1  0.16011303  0.41594839  0.34421045  1.0
  O  O15  1  0.16011303  0.08405161  0.34421045  1.0
  O  O16  1  0.86897337  0.75000000  0.15966251  1.0
  O  O17  1  0.36897337  0.75000000  0.34033749  1.0
  O  O18  1  0.13102663  0.25000000  0.84033749  1.0
  O  O19  1  0.63102663  0.25000000  0.65966251  1.0
