# generated using pymatgen
data_CrWO4
_symmetry_space_group_name_H-M   'P 1'
_cell_length_a   9.36853124
_cell_length_b   7.35411832
_cell_length_c   7.13382276
_cell_angle_alpha   80.56237519
_cell_angle_beta   50.74667904
_cell_angle_gamma   48.69094577
_symmetry_Int_Tables_number   1
_chemical_formula_structural   CrWO4
_chemical_formula_sum   'Cr4 W4 O16'
_cell_volume   257.25828216
_cell_formula_units_Z   4
loop_
 _symmetry_equiv_pos_site_id
 _symmetry_equiv_pos_as_xyz
  1  'x, y, z'
loop_
 _atom_site_type_symbol
 _atom_site_label
 _atom_site_symmetry_multiplicity
 _atom_site_fract_x
 _atom_site_fract_y
 _atom_site_fract_z
 _atom_site_occupancy
  Cr  Cr0  1  1.50228820  -0.00228820  0.50228820  1.0
  Cr  Cr1  1  0.99771180  0.50228820  -0.00228820  1.0
  Cr  Cr2  1  0.99327938  -0.00672062  0.50672062  1.0
  Cr  Cr3  1  1.50672062  0.50672062  -0.00672062  1.0
  W  W4  1  1.02123097  0.47876903  0.47876903  1.0
  W  W5  1  1.47876903  0.02123097  0.02123097  1.0
  W  W6  1  -0.50000000  0.50000000  0.50000000  1.0
  W  W7  1  0.00000000  -0.00000000  -0.00000000  1.0
  O  O8  1  1.15384283  0.34615697  0.64299025  1.0
  O  O9  1  0.85700995  0.64299025  0.34615697  1.0
  O  O10  1  1.64299025  -0.14299005  0.15384283  1.0
  O  O11  1  1.34615697  0.15384283  -0.14299005  1.0
  O  O12  1  1.35410658  -0.14939125  0.64938518  1.0
  O  O13  1  1.14589950  0.64938518  -0.14939125  1.0
  O  O14  1  1.64938518  0.14589950  0.35410658  1.0
  O  O15  1  0.85060875  0.35410658  0.14589950  1.0
  O  O16  1  1.13968847  0.13968847  0.36031153  1.0
  O  O17  1  1.36031153  0.36031153  0.13968847  1.0
  O  O18  1  0.65483558  0.65483558  0.84516442  1.0
  O  O19  1  0.84516442  0.84516442  0.65483558  1.0
  O  O20  1  0.85198523  -0.85198523  0.85198523  1.0
  O  O21  1  0.14801477  -0.14801477  1.14801477  1.0
  O  O22  1  0.64801520  -0.64801520  0.64801520  1.0
  O  O23  1  0.35198480  -0.35198480  1.35198480  1.0
