# generated using pymatgen
data_YSi2Rh3
_symmetry_space_group_name_H-M   'P 1'
_cell_length_a   6.61389339
_cell_length_b   6.61389339
_cell_length_c   6.61389339
_cell_angle_alpha   86.66566747
_cell_angle_beta   114.22998023
_cell_angle_gamma   130.37307733
_symmetry_Int_Tables_number   1
_chemical_formula_structural   YSi2Rh3
_chemical_formula_sum   'Y2 Si4 Rh6'
_cell_volume   191.80479200
_cell_formula_units_Z   2
loop_
 _symmetry_equiv_pos_site_id
 _symmetry_equiv_pos_as_xyz
  1  'x, y, z'
loop_
 _atom_site_type_symbol
 _atom_site_label
 _atom_site_symmetry_multiplicity
 _atom_site_fract_x
 _atom_site_fract_y
 _atom_site_fract_z
 _atom_site_occupancy
  Y  Y0  1  1.70964714  1.45964714  1.25000000  1.0
  Y  Y1  1  1.29035286  0.54035286  0.75000000  1.0
  Si  Si2  1  1.19593246  1.11727082  1.42133836  1.0
  Si  Si3  1  0.80406754  0.22540591  0.92133836  1.0
  Si  Si4  1  0.80406754  0.88272918  1.57866164  1.0
  Si  Si5  1  1.19593246  0.77459409  1.07866164  1.0
  Rh  Rh6  1  1.71525803  1.00000000  1.21525803  1.0
  Rh  Rh7  1  0.71525803  0.50000000  0.71525803  1.0
  Rh  Rh8  1  1.28474197  1.00000000  0.78474197  1.0
  Rh  Rh9  1  0.28474197  0.50000000  0.28474197  1.0
  Rh  Rh10  1  1.00000000  1.00000000  1.00000000  1.0
  Rh  Rh11  1  0.50000000  0.00000000  0.50000000  1.0
