# generated using pymatgen
data_CeNiB4
_symmetry_space_group_name_H-M   'P 1'
_cell_length_a   6.89024508
_cell_length_b   6.89024508
_cell_length_c   6.89024508
_cell_angle_alpha   112.84298767
_cell_angle_beta   112.84298767
_cell_angle_gamma   102.91972858
_symmetry_Int_Tables_number   1
_chemical_formula_structural   CeNiB4
_chemical_formula_sum   'Ce4 Ni4 B16'
_cell_volume   249.38490915
_cell_formula_units_Z   4
loop_
 _symmetry_equiv_pos_site_id
 _symmetry_equiv_pos_as_xyz
  1  'x, y, z'
loop_
 _atom_site_type_symbol
 _atom_site_label
 _atom_site_symmetry_multiplicity
 _atom_site_fract_x
 _atom_site_fract_y
 _atom_site_fract_z
 _atom_site_occupancy
  Ce  Ce0  1  1.25000000  0.75000000  0.50000000  1.0
  Ce  Ce1  1  0.75000000  1.25000000  0.50000000  1.0
  Ce  Ce2  1  0.70081320  0.70081320  0.00000000  1.0
  Ce  Ce3  1  0.29918680  0.29918680  0.00000000  1.0
  Ni  Ni4  1  0.00000000  0.77228716  0.77228716  1.0
  Ni  Ni5  1  0.77228716  0.00000000  0.77228716  1.0
  Ni  Ni6  1  0.22771284  0.00000000  0.22771284  1.0
  Ni  Ni7  1  0.00000000  0.22771284  0.22771284  1.0
  B  B8  1  0.61249015  0.61249015  0.53059082  1.0
  B  B9  1  0.91810067  0.91810067  0.53059082  1.0
  B  B10  1  1.08189933  0.61249015  1.00000000  1.0
  B  B11  1  1.38750985  0.91810067  1.00000000  1.0
  B  B12  1  0.61249015  1.08189933  1.00000000  1.0
  B  B13  1  0.91810067  1.38750985  1.00000000  1.0
  B  B14  1  1.08189933  1.08189933  0.46940918  1.0
  B  B15  1  0.38750985  0.38750985  0.46940918  1.0
  B  B16  1  0.61124537  0.77427748  0.38552285  1.0
  B  B17  1  1.38875463  0.77427748  1.16303212  1.0
  B  B18  1  0.77427748  0.61124537  0.38552285  1.0
  B  B19  1  0.22572252  0.61124537  0.83696788  1.0
  B  B20  1  0.61124537  0.22572252  0.83696788  1.0
  B  B21  1  0.38875463  0.22572252  0.61447715  1.0
  B  B22  1  0.77427748  1.38875463  1.16303212  1.0
  B  B23  1  0.22572252  0.38875463  0.61447715  1.0
