# generated using pymatgen
data_Ta6Be15Cu8
_symmetry_space_group_name_H-M   'P 1'
_cell_length_a   7.65170540
_cell_length_b   7.65170540
_cell_length_c   7.65170540
_cell_angle_alpha   60.00000000
_cell_angle_beta   60.00000000
_cell_angle_gamma   60.00000000
_symmetry_Int_Tables_number   1
_chemical_formula_structural   Ta6Be15Cu8
_chemical_formula_sum   'Ta6 Be15 Cu8'
_cell_volume   316.78143759
_cell_formula_units_Z   1
loop_
 _symmetry_equiv_pos_site_id
 _symmetry_equiv_pos_as_xyz
  1  'x, y, z'
loop_
 _atom_site_type_symbol
 _atom_site_label
 _atom_site_symmetry_multiplicity
 _atom_site_fract_x
 _atom_site_fract_y
 _atom_site_fract_z
 _atom_site_occupancy
  Ta  Ta0  1  -0.69191627  0.69191627  0.69191627  1.0
  Ta  Ta1  1  -0.30808373  0.30808373  0.69191627  1.0
  Ta  Ta2  1  0.69191627  0.69191627  -0.69191627  1.0
  Ta  Ta3  1  0.30808373  1.30808373  -0.30808373  1.0
  Ta  Ta4  1  0.30808373  -0.30808373  1.30808373  1.0
  Ta  Ta5  1  -0.30808373  0.30808373  0.30808373  1.0
  Be  Be6  1  1.50000000  0.00000000  -0.00000000  1.0
  Be  Be7  1  1.00000000  0.50000000  -0.50000000  1.0
  Be  Be8  1  0.00000000  1.50000000  -0.00000000  1.0
  Be  Be9  1  0.50000000  1.00000000  -0.50000000  1.0
  Be  Be10  1  0.00000000  -0.00000000  0.50000000  1.0
  Be  Be11  1  0.50000000  -0.50000000  1.00000000  1.0
  Be  Be12  1  0.67266602  0.67266602  -0.32733398  1.0
  Be  Be13  1  1.32733398  0.32733398  0.01799805  1.0
  Be  Be14  1  1.32733398  0.01799805  0.32733398  1.0
  Be  Be15  1  0.98200195  0.67266602  -0.32733398  1.0
  Be  Be16  1  1.01799805  0.32733398  0.32733398  1.0
  Be  Be17  1  0.67266602  0.98200195  -0.32733398  1.0
  Be  Be18  1  0.67266602  0.67266602  -0.01799805  1.0
  Be  Be19  1  1.32733398  0.32733398  0.32733398  1.0
  Be  Be20  1  -0.00000000  0.00000000  -0.00000000  1.0
  Cu  Cu21  1  0.87694272  0.87694272  -0.12305728  1.0
  Cu  Cu22  1  1.12305728  0.12305728  0.63082817  1.0
  Cu  Cu23  1  1.12305728  0.63082817  0.12305728  1.0
  Cu  Cu24  1  0.36917183  0.87694272  -0.12305728  1.0
  Cu  Cu25  1  1.63082817  0.12305728  0.12305728  1.0
  Cu  Cu26  1  0.87694272  0.36917183  -0.12305728  1.0
  Cu  Cu27  1  0.87694272  0.87694272  -0.63082817  1.0
  Cu  Cu28  1  1.12305728  0.12305728  0.12305728  1.0
