# generated using pymatgen
data_Rb2PdF6
_symmetry_space_group_name_H-M   'P 1'
_cell_length_a   6.13643108
_cell_length_b   6.13643108
_cell_length_c   10.01067715
_cell_angle_alpha   90.00000000
_cell_angle_beta   90.00000000
_cell_angle_gamma   120.00000000
_symmetry_Int_Tables_number   1
_chemical_formula_structural   Rb2PdF6
_chemical_formula_sum   'Rb4 Pd2 F12'
_cell_volume   326.45686772
_cell_formula_units_Z   2
loop_
 _symmetry_equiv_pos_site_id
 _symmetry_equiv_pos_as_xyz
  1  'x, y, z'
loop_
 _atom_site_type_symbol
 _atom_site_label
 _atom_site_symmetry_multiplicity
 _atom_site_fract_x
 _atom_site_fract_y
 _atom_site_fract_z
 _atom_site_occupancy
  Rb  Rb0  1  0.33333333  0.66666667  0.26775550  1.0
  Rb  Rb1  1  0.66666667  0.33333333  0.76775550  1.0
  Rb  Rb2  1  0.00000000  0.00000000  -0.00254961  1.0
  Rb  Rb3  1  0.00000000  0.00000000  0.49745039  1.0
  Pd  Pd4  1  0.33333333  0.66666667  0.65097432  1.0
  Pd  Pd5  1  0.66666667  0.33333333  0.15097432  1.0
  F  F6  1  0.96395870  0.48197935  0.03817957  1.0
  F  F7  1  0.48197935  0.96395870  0.53817957  1.0
  F  F8  1  0.48197935  0.51802065  0.53817957  1.0
  F  F9  1  0.51802065  0.48197935  0.03817957  1.0
  F  F10  1  0.51802065  0.03604130  0.03817957  1.0
  F  F11  1  0.03604130  0.51802065  0.53817957  1.0
  F  F12  1  0.36011052  0.18005526  0.25809369  1.0
  F  F13  1  0.18005526  0.36011052  0.75809369  1.0
  F  F14  1  0.18005526  0.81994474  0.75809369  1.0
  F  F15  1  0.81994474  0.18005526  0.25809369  1.0
  F  F16  1  0.81994474  0.63988948  0.25809369  1.0
  F  F17  1  0.63988948  0.81994474  0.75809369  1.0
