# generated using pymatgen
data_MnTl2GeTe4
_symmetry_space_group_name_H-M   'P 1'
_cell_length_a   7.02632347
_cell_length_b   7.02632347
_cell_length_c   7.02632347
_cell_angle_alpha   104.22374066
_cell_angle_beta   104.22374066
_cell_angle_gamma   120.56941596
_symmetry_Int_Tables_number   1
_chemical_formula_structural   MnTl2GeTe4
_chemical_formula_sum   'Mn1 Tl2 Ge1 Te4'
_cell_volume   259.39636682
_cell_formula_units_Z   1
loop_
 _symmetry_equiv_pos_site_id
 _symmetry_equiv_pos_as_xyz
  1  'x, y, z'
loop_
 _atom_site_type_symbol
 _atom_site_label
 _atom_site_symmetry_multiplicity
 _atom_site_fract_x
 _atom_site_fract_y
 _atom_site_fract_z
 _atom_site_occupancy
  Mn  Mn0  1  0.50000000  0.50000000  0.00000000  1.0
  Tl  Tl1  1  0.50000000  0.00000000  0.50000000  1.0
  Tl  Tl2  1  -0.00000000  0.50000000  0.50000000  1.0
  Ge  Ge3  1  -0.00000000  -0.00000000  -0.00000000  1.0
  Te  Te4  1  1.06794180  1.06794180  0.66084072  1.0
  Te  Te5  1  0.93205820  1.59289891  1.00000000  1.0
  Te  Te6  1  1.59289891  0.93205820  1.00000000  1.0
  Te  Te7  1  0.40710109  0.40710109  0.33915928  1.0
