# generated using pymatgen
data_ZrAs2
_symmetry_space_group_name_H-M   'P 1'
_cell_length_a   8.97161865
_cell_length_b   4.07907857
_cell_length_c   7.25588218
_cell_angle_alpha   90.00000000
_cell_angle_beta   90.00000000
_cell_angle_gamma   90.00000000
_symmetry_Int_Tables_number   1
_chemical_formula_structural   ZrAs2
_chemical_formula_sum   'Zr4 As8'
_cell_volume   265.53580977
_cell_formula_units_Z   4
loop_
 _symmetry_equiv_pos_site_id
 _symmetry_equiv_pos_as_xyz
  1  'x, y, z'
loop_
 _atom_site_type_symbol
 _atom_site_label
 _atom_site_symmetry_multiplicity
 _atom_site_fract_x
 _atom_site_fract_y
 _atom_site_fract_z
 _atom_site_occupancy
  Zr  Zr0  1  0.38991330  0.25000000  0.32003837  1.0
  Zr  Zr1  1  0.88991330  0.25000000  0.17996163  1.0
  Zr  Zr2  1  0.61008670  0.75000000  0.67996163  1.0
  Zr  Zr3  1  0.11008670  0.75000000  0.82003837  1.0
  As  As4  1  0.09312374  0.25000000  0.51350941  1.0
  As  As5  1  0.59312374  0.25000000  -0.01350941  1.0
  As  As6  1  0.90687626  0.75000000  0.48649059  1.0
  As  As7  1  0.40687626  0.75000000  1.01350941  1.0
  As  As8  1  0.67064738  0.25000000  0.44675224  1.0
  As  As9  1  0.17064738  0.25000000  0.05324776  1.0
  As  As10  1  0.32935262  0.75000000  0.55324776  1.0
  As  As11  1  0.82935262  0.75000000  0.94675224  1.0
