# generated using pymatgen
data_Si2CN4
_symmetry_space_group_name_H-M   'P 1'
_cell_length_a   7.41634315
_cell_length_b   7.41634315
_cell_length_c   5.53302346
_cell_angle_alpha   90.00000000
_cell_angle_beta   90.00000000
_cell_angle_gamma   38.56282550
_symmetry_Int_Tables_number   1
_chemical_formula_structural   Si2CN4
_chemical_formula_sum   'Si4 C2 N8'
_cell_volume   189.70977742
_cell_formula_units_Z   2
loop_
 _symmetry_equiv_pos_site_id
 _symmetry_equiv_pos_as_xyz
  1  'x, y, z'
loop_
 _atom_site_type_symbol
 _atom_site_label
 _atom_site_symmetry_multiplicity
 _atom_site_fract_x
 _atom_site_fract_y
 _atom_site_fract_z
 _atom_site_occupancy
  Si  Si0  1  0.63894582  0.76639145  0.40179886  1.0
  Si  Si1  1  0.73360855  0.86105418  0.90179886  1.0
  Si  Si2  1  0.23360855  1.36105418  0.59820114  1.0
  Si  Si3  1  0.13894582  1.26639145  0.09820114  1.0
  C  C4  1  -0.51843322  0.51843322  0.50000000  1.0
  C  C5  1  -0.01843322  0.01843322  0.00000000  1.0
  N  N6  1  0.57232390  0.59803762  0.46387373  1.0
  N  N7  1  0.90196238  0.92767610  0.96387373  1.0
  N  N8  1  0.40196238  1.42767610  0.53612627  1.0
  N  N9  1  0.07232390  1.09803762  0.03612627  1.0
  N  N10  1  0.32138350  1.13779093  0.37310583  1.0
  N  N11  1  0.36220907  1.17861650  0.87310583  1.0
  N  N12  1  -0.13779093  1.67861650  0.62689417  1.0
  N  N13  1  -0.17861650  1.63779093  0.12689417  1.0
