# generated using pymatgen
data_Hg3(TeBr)2
_symmetry_space_group_name_H-M   'P 1'
_cell_length_a   8.56831077
_cell_length_b   8.56831077
_cell_length_c   8.56831077
_cell_angle_alpha   109.47122063
_cell_angle_beta   109.47122063
_cell_angle_gamma   109.47122063
_symmetry_Int_Tables_number   1
_chemical_formula_structural   Hg3(TeBr)2
_chemical_formula_sum   'Hg6 Te4 Br4'
_cell_volume   484.24343178
_cell_formula_units_Z   2
loop_
 _symmetry_equiv_pos_site_id
 _symmetry_equiv_pos_as_xyz
  1  'x, y, z'
loop_
 _atom_site_type_symbol
 _atom_site_label
 _atom_site_symmetry_multiplicity
 _atom_site_fract_x
 _atom_site_fract_y
 _atom_site_fract_z
 _atom_site_occupancy
  Hg  Hg0  1  1.18838062  0.93838062  1.25000000  1.0
  Hg  Hg1  1  0.25000000  1.18838062  0.93838062  1.0
  Hg  Hg2  1  0.75000000  1.31161938  0.56161938  1.0
  Hg  Hg3  1  0.93838062  0.25000000  1.18838062  1.0
  Hg  Hg4  1  0.56161938  0.75000000  0.31161938  1.0
  Hg  Hg5  1  0.31161938  0.56161938  0.75000000  1.0
  Te  Te6  1  0.95414997  0.95414997  0.95414997  1.0
  Te  Te7  1  0.50000000  1.00000000  0.54585003  1.0
  Te  Te8  1  1.00000000  0.54585003  1.50000000  1.0
  Te  Te9  1  0.54585003  1.50000000  1.00000000  1.0
  Br  Br10  1  1.48827434  1.48827434  1.48827434  1.0
  Br  Br11  1  1.50000000  1.00000000  1.01172566  1.0
  Br  Br12  1  1.00000000  1.01172566  1.50000000  1.0
  Br  Br13  1  1.01172566  0.50000000  1.00000000  1.0
