# generated using pymatgen
data_Cs2MgH4C4S4(N2O)2
_symmetry_space_group_name_H-M   'P 1'
_cell_length_a   9.81429783
_cell_length_b   9.81429783
_cell_length_c   11.73212016
_cell_angle_alpha   57.74748657
_cell_angle_beta   122.25251343
_cell_angle_gamma   108.04979037
_symmetry_Int_Tables_number   1
_chemical_formula_structural   Cs2MgH4C4S4(N2O)2
_chemical_formula_sum   'Cs4 Mg2 H8 C8 S8 N8 O4'
_cell_volume   807.72853198
_cell_formula_units_Z   2
loop_
 _symmetry_equiv_pos_site_id
 _symmetry_equiv_pos_as_xyz
  1  'x, y, z'
loop_
 _atom_site_type_symbol
 _atom_site_label
 _atom_site_symmetry_multiplicity
 _atom_site_fract_x
 _atom_site_fract_y
 _atom_site_fract_z
 _atom_site_occupancy
  Cs  Cs0  1  0.78466500  0.48017983  0.67369705  1.0
  Cs  Cs1  1  0.48017983  -0.21533500  0.82630295  1.0
  Cs  Cs2  1  1.21533500  0.51982017  0.32630295  1.0
  Cs  Cs3  1  0.51982017  0.21533500  0.17369705  1.0
  Mg  Mg4  1  0.00000000  -0.00000000  0.50000000  1.0
  Mg  Mg5  1  0.00000000  0.00000000  0.00000000  1.0
  H  H6  1  0.12765411  -0.08646726  0.81079135  1.0
  H  H7  1  0.91353274  0.12765411  0.68920865  1.0
  H  H8  1  0.87234589  0.08646726  0.18920865  1.0
  H  H9  1  1.08646726  0.87234589  0.31079135  1.0
  H  H10  1  0.24939692  0.03921545  0.75449727  1.0
  H  H11  1  1.03921545  0.24939692  0.74550273  1.0
  H  H12  1  0.75060308  -0.03921545  0.24550273  1.0
  H  H13  1  0.96078455  0.75060308  0.25449727  1.0
  C  C14  1  1.66736788  -0.15026222  0.53397180  1.0
  C  C15  1  0.84973778  -0.33263212  0.96602820  1.0
  C  C16  1  1.33263212  0.15026222  0.46602820  1.0
  C  C17  1  1.15026222  -0.66736788  0.03397180  1.0
  C  C18  1  1.11905972  0.64407884  0.61096121  1.0
  C  C19  1  1.64407884  0.11905972  0.88903879  1.0
  C  C20  1  0.88094028  0.35592116  0.38903879  1.0
  C  C21  1  1.35592116  -0.11905972  0.11096121  1.0
  S  S22  1  0.49073214  -0.22376841  0.52454920  1.0
  S  S23  1  0.77623159  -0.50926786  0.97545080  1.0
  S  S24  1  0.50926786  0.22376841  0.47545080  1.0
  S  S25  1  1.22376841  -0.49073214  0.02454920  1.0
  S  S26  1  1.20698810  0.48064643  0.68248782  1.0
  S  S27  1  1.48064643  0.20698810  0.81751218  1.0
  S  S28  1  0.79301190  0.51935357  0.31751218  1.0
  S  S29  1  1.51935357  -0.20698810  0.18248782  1.0
  N  N30  1  1.79721015  -0.10099632  0.54141574  1.0
  N  N31  1  0.89900368  -0.20278985  0.95858426  1.0
  N  N32  1  1.20278985  0.10099632  0.45858426  1.0
  N  N33  1  1.10099632  -0.79721015  0.04141574  1.0
  N  N34  1  1.06023583  0.76506793  0.56101333  1.0
  N  N35  1  1.76506793  0.06023583  0.93898667  1.0
  N  N36  1  0.93976417  0.23493207  0.43898667  1.0
  N  N37  1  1.23493207  -0.06023583  0.06101333  1.0
  O  O38  1  0.16150973  -0.03976273  0.73232969  1.0
  O  O39  1  0.96023727  0.16150973  0.76767031  1.0
  O  O40  1  0.83849027  0.03976273  0.26767031  1.0
  O  O41  1  1.03976273  0.83849027  0.23232969  1.0
