# generated using pymatgen
data_MnAsNO5
_symmetry_space_group_name_H-M   'P 1'
_cell_length_a   5.47727804
_cell_length_b   9.03329532
_cell_length_c   4.71441390
_cell_angle_alpha   90.00000000
_cell_angle_beta   90.00000000
_cell_angle_gamma   90.00000000
_symmetry_Int_Tables_number   1
_chemical_formula_structural   MnAsNO5
_chemical_formula_sum   'Mn2 As2 N2 O10'
_cell_volume   233.25915879
_cell_formula_units_Z   2
loop_
 _symmetry_equiv_pos_site_id
 _symmetry_equiv_pos_as_xyz
  1  'x, y, z'
loop_
 _atom_site_type_symbol
 _atom_site_label
 _atom_site_symmetry_multiplicity
 _atom_site_fract_x
 _atom_site_fract_y
 _atom_site_fract_z
 _atom_site_occupancy
  N  N0  1  0.50000000  0.22496592  0.45774676  1.0
  N  N1  1  0.00000000  0.77503408  0.95774676  1.0
  Mn  Mn2  1  0.50000000  0.48703839  0.85516867  1.0
  Mn  Mn3  1  0.00000000  0.51296161  0.35516867  1.0
  As  As4  1  0.50000000  0.71235950  0.41276988  1.0
  As  As5  1  0.00000000  0.28764050  -0.08723012  1.0
  O  O6  1  0.27802373  0.57271365  0.57334166  1.0
  O  O7  1  0.77802373  0.42728635  0.07334166  1.0
  O  O8  1  0.72197627  0.57271365  0.57334166  1.0
  O  O9  1  0.22197627  0.42728635  0.07334166  1.0
  O  O10  1  0.50000000  0.66681911  0.04637866  1.0
  O  O11  1  0.00000000  0.33318089  0.54637866  1.0
  O  O12  1  0.50000000  0.28503988  0.73783443  1.0
  O  O13  1  0.00000000  0.71496012  0.23783443  1.0
  O  O14  1  0.50000000  1.09384192  0.46441828  1.0
  O  O15  1  0.00000000  -0.09384192  -0.03558172  1.0
