# generated using pymatgen
data_Mn2Mo3O8
_symmetry_space_group_name_H-M   'P 1'
_cell_length_a   5.82628154
_cell_length_b   5.82628154
_cell_length_c   10.24974655
_cell_angle_alpha   90.00000000
_cell_angle_beta   90.00000000
_cell_angle_gamma   120.00000000
_symmetry_Int_Tables_number   1
_chemical_formula_structural   Mn2Mo3O8
_chemical_formula_sum   'Mn4 Mo6 O16'
_cell_volume   301.31912080
_cell_formula_units_Z   2
loop_
 _symmetry_equiv_pos_site_id
 _symmetry_equiv_pos_as_xyz
  1  'x, y, z'
loop_
 _atom_site_type_symbol
 _atom_site_label
 _atom_site_symmetry_multiplicity
 _atom_site_fract_x
 _atom_site_fract_y
 _atom_site_fract_z
 _atom_site_occupancy
  Mn  Mn0  1  0.33333333  0.66666667  0.06236037  1.0
  Mn  Mn1  1  0.66666667  0.33333333  0.56236037  1.0
  Mn  Mn2  1  0.33333333  0.66666667  0.63079904  1.0
  Mn  Mn3  1  0.66666667  0.33333333  0.13079904  1.0
  Mo  Mo4  1  0.70877309  0.85438654  0.36149014  1.0
  Mo  Mo5  1  0.85438654  0.70877309  0.86149014  1.0
  Mo  Mo6  1  0.85438654  0.14561346  0.86149014  1.0
  Mo  Mo7  1  0.14561346  0.85438654  0.36149014  1.0
  Mo  Mo8  1  0.14561346  0.29122691  0.36149014  1.0
  Mo  Mo9  1  0.29122691  0.14561346  0.86149014  1.0
  O  O10  1  0.02449920  0.51224960  0.47330176  1.0
  O  O11  1  0.51224960  0.02449920  0.97330176  1.0
  O  O12  1  0.51224960  0.48775040  0.97330176  1.0
  O  O13  1  0.48775040  0.51224960  0.47330176  1.0
  O  O14  1  0.48775040  0.97550080  0.47330176  1.0
  O  O15  1  0.97550080  0.48775040  0.97330176  1.0
  O  O16  1  0.32872205  0.16436103  0.24524573  1.0
  O  O17  1  0.16436103  0.32872205  0.74524573  1.0
  O  O18  1  0.16436103  0.83563897  0.74524573  1.0
  O  O19  1  0.83563897  0.16436103  0.24524573  1.0
  O  O20  1  0.83563897  0.67127795  0.24524573  1.0
  O  O21  1  0.67127795  0.83563897  0.74524573  1.0
  O  O22  1  0.33333333  0.66666667  0.25865052  1.0
  O  O23  1  0.66666667  0.33333333  0.75865052  1.0
  O  O24  1  0.00000000  0.00000000  -0.00052279  1.0
  O  O25  1  0.00000000  0.00000000  0.49947721  1.0
