# generated using pymatgen
data_CdSb
_symmetry_space_group_name_H-M   'P 1'
_cell_length_a   6.59458147
_cell_length_b   8.40794454
_cell_length_c   8.71701132
_cell_angle_alpha   90.00000000
_cell_angle_beta   90.00000000
_cell_angle_gamma   90.00000000
_symmetry_Int_Tables_number   1
_chemical_formula_structural   CdSb
_chemical_formula_sum   'Cd8 Sb8'
_cell_volume   483.33103974
_cell_formula_units_Z   8
loop_
 _symmetry_equiv_pos_site_id
 _symmetry_equiv_pos_as_xyz
  1  'x, y, z'
loop_
 _atom_site_type_symbol
 _atom_site_label
 _atom_site_symmetry_multiplicity
 _atom_site_fract_x
 _atom_site_fract_y
 _atom_site_fract_z
 _atom_site_occupancy
  Cd  Cd0  1  0.45293657  0.87874213  0.63284528  1.0
  Cd  Cd1  1  0.45293657  0.62125787  0.13284528  1.0
  Cd  Cd2  1  0.95293657  0.87874213  0.86715472  1.0
  Cd  Cd3  1  0.95293657  0.62125787  0.36715472  1.0
  Cd  Cd4  1  0.54706343  0.37874213  0.86715472  1.0
  Cd  Cd5  1  0.54706343  0.12125787  0.36715472  1.0
  Cd  Cd6  1  0.04706343  0.37874213  0.63284528  1.0
  Cd  Cd7  1  0.04706343  0.12125787  0.13284528  1.0
  Sb  Sb8  1  0.13848331  0.57353595  0.89613219  1.0
  Sb  Sb9  1  0.13848331  0.92646405  0.39613219  1.0
  Sb  Sb10  1  0.63848331  0.57353595  0.60386781  1.0
  Sb  Sb11  1  0.63848331  0.92646405  0.10386781  1.0
  Sb  Sb12  1  0.86151669  0.07353595  0.60386781  1.0
  Sb  Sb13  1  0.86151669  0.42646405  0.10386781  1.0
  Sb  Sb14  1  0.36151669  0.07353595  0.89613219  1.0
  Sb  Sb15  1  0.36151669  0.42646405  0.39613219  1.0
