# generated using pymatgen
data_S
_symmetry_space_group_name_H-M   'P 1'
_cell_length_a   5.81134216
_cell_length_b   5.81134216
_cell_length_c   2.99218963
_cell_angle_alpha   90.00000000
_cell_angle_beta   90.00000000
_cell_angle_gamma   90.00000000
_symmetry_Int_Tables_number   1
_chemical_formula_structural   S
_chemical_formula_sum   S4
_cell_volume   101.05132386
_cell_formula_units_Z   4
loop_
 _symmetry_equiv_pos_site_id
 _symmetry_equiv_pos_as_xyz
  1  'x, y, z'
loop_
 _atom_site_type_symbol
 _atom_site_label
 _atom_site_symmetry_multiplicity
 _atom_site_fract_x
 _atom_site_fract_y
 _atom_site_fract_z
 _atom_site_occupancy
  S  S0  1  0.88431338  0.61566874  0.00000000  1.0
  S  S1  1  0.61566874  0.11568662  0.50000000  1.0
  S  S2  1  0.11568662  0.38433126  0.00000000  1.0
  S  S3  1  0.38433126  0.88431338  0.50000000  1.0
