# generated using pymatgen
data_YCo
_symmetry_space_group_name_H-M   'P 1'
_cell_length_a   5.50947768
_cell_length_b   5.50947768
_cell_length_c   3.87521654
_cell_angle_alpha   90.00000000
_cell_angle_beta   90.00000000
_cell_angle_gamma   136.96252715
_symmetry_Int_Tables_number   1
_chemical_formula_structural   YCo
_chemical_formula_sum   'Y2 Co2'
_cell_volume   80.27948116
_cell_formula_units_Z   2
loop_
 _symmetry_equiv_pos_site_id
 _symmetry_equiv_pos_as_xyz
  1  'x, y, z'
loop_
 _atom_site_type_symbol
 _atom_site_label
 _atom_site_symmetry_multiplicity
 _atom_site_fract_x
 _atom_site_fract_y
 _atom_site_fract_z
 _atom_site_occupancy
  Y  Y0  1  0.35584298  0.64415702  0.75000000  1.0
  Y  Y1  1  -0.35584298  0.35584298  0.25000000  1.0
  Co  Co2  1  0.05617849  0.94382151  0.75000000  1.0
  Co  Co3  1  -0.05617849  0.05617849  0.25000000  1.0
