# generated using pymatgen
data_SrAl2B2O7
_symmetry_space_group_name_H-M   'P 1'
_cell_length_a   8.62277204
_cell_length_b   8.62277204
_cell_length_c   8.62277204
_cell_angle_alpha   33.28342192
_cell_angle_beta   33.28342192
_cell_angle_gamma   33.28342192
_symmetry_Int_Tables_number   1
_chemical_formula_structural   SrAl2B2O7
_chemical_formula_sum   'Sr1 Al2 B2 O7'
_cell_volume   171.90433926
_cell_formula_units_Z   1
loop_
 _symmetry_equiv_pos_site_id
 _symmetry_equiv_pos_as_xyz
  1  'x, y, z'
loop_
 _atom_site_type_symbol
 _atom_site_label
 _atom_site_symmetry_multiplicity
 _atom_site_fract_x
 _atom_site_fract_y
 _atom_site_fract_z
 _atom_site_occupancy
  Sr  Sr0  1  1.50000000  0.50000000  0.50000000  1.0
  Al  Al1  1  0.93062747  0.93062747  0.93062747  1.0
  Al  Al2  1  1.06937253  1.06937253  0.06937253  1.0
  B  B3  1  0.76476945  0.76476945  0.76476945  1.0
  B  B4  1  1.23523055  1.23523055  0.23523055  1.0
  O  O5  1  1.53569645  0.98575914  0.17680435  1.0
  O  O6  1  0.82319565  1.01424086  0.46430355  1.0
  O  O7  1  1.01424086  1.46430355  -0.17680435  1.0
  O  O8  1  1.46430355  0.82319565  0.01424086  1.0
  O  O9  1  1.17680435  1.53569645  -0.01424086  1.0
  O  O10  1  0.98575914  1.17680435  0.53569645  1.0
  O  O11  1  0.00000000  0.00000000  0.00000000  1.0
