# generated using pymatgen
data_AsSe
_symmetry_space_group_name_H-M   'P 1'
_cell_length_a   7.08034162
_cell_length_b   14.65443903
_cell_length_c   10.43217773
_cell_angle_alpha   90.00000000
_cell_angle_beta   113.76001231
_cell_angle_gamma   90.00000000
_symmetry_Int_Tables_number   1
_chemical_formula_structural   AsSe
_chemical_formula_sum   'As16 Se16'
_cell_volume   990.68114249
_cell_formula_units_Z   16
loop_
 _symmetry_equiv_pos_site_id
 _symmetry_equiv_pos_as_xyz
  1  'x, y, z'
loop_
 _atom_site_type_symbol
 _atom_site_label
 _atom_site_symmetry_multiplicity
 _atom_site_fract_x
 _atom_site_fract_y
 _atom_site_fract_z
 _atom_site_occupancy
  As  As0  1  0.86442344  0.12858672  0.17731207  1.0
  As  As1  1  0.86442344  0.37141328  0.67731207  1.0
  As  As2  1  0.13557656  0.62858672  0.32268793  1.0
  As  As3  1  0.13557656  0.87141328  0.82268793  1.0
  As  As4  1  0.67940761  0.16258191  0.45268592  1.0
  As  As5  1  0.67940761  0.33741809  0.95268592  1.0
  As  As6  1  0.32059239  0.66258191  0.04731408  1.0
  As  As7  1  0.32059239  0.83741809  0.54731408  1.0
  As  As8  1  0.65079332  0.99035915  0.37910101  1.0
  As  As9  1  0.65079332  0.50964085  0.87910101  1.0
  As  As10  1  0.34920668  0.49035915  0.12089899  1.0
  As  As11  1  0.34920668  0.00964085  0.62089899  1.0
  As  As12  1  0.46304454  0.14074299  0.07196047  1.0
  As  As13  1  0.46304454  0.35925701  0.57196047  1.0
  As  As14  1  0.53695546  0.64074299  0.42803953  1.0
  As  As15  1  0.53695546  0.85925701  0.92803953  1.0
  Se  Se16  1  0.95589929  0.21283919  0.39218585  1.0
  Se  Se17  1  0.95589929  0.28716081  0.89218585  1.0
  Se  Se18  1  0.04410071  0.71283919  0.10781415  1.0
  Se  Se19  1  0.04410071  0.78716081  0.60781415  1.0
  Se  Se20  1  0.91331220  0.98062403  0.28773398  1.0
  Se  Se21  1  0.91331220  0.51937597  0.78773398  1.0
  Se  Se22  1  0.08668780  0.48062403  0.21226602  1.0
  Se  Se23  1  0.08668780  0.01937597  0.71226602  1.0
  Se  Se24  1  0.62929008  0.49897493  0.34986826  1.0
  Se  Se25  1  0.62929008  0.00102507  0.84986826  1.0
  Se  Se26  1  0.37070992  0.99897493  0.15013174  1.0
  Se  Se27  1  0.37070992  0.50102507  0.65013174  1.0
  Se  Se28  1  0.41266527  0.22989607  0.25059438  1.0
  Se  Se29  1  0.41266527  0.27010393  0.75059438  1.0
  Se  Se30  1  0.58733473  0.72989607  0.24940562  1.0
  Se  Se31  1  0.58733473  0.77010393  0.74940562  1.0
