# generated using pymatgen
data_Ca5Cr3ClO12
_symmetry_space_group_name_H-M   'P 1'
_cell_length_a   10.26101073
_cell_length_b   10.26101073
_cell_length_c   6.70678233
_cell_angle_alpha   90.00000000
_cell_angle_beta   90.00000000
_cell_angle_gamma   120.00000000
_symmetry_Int_Tables_number   1
_chemical_formula_structural   Ca5Cr3ClO12
_chemical_formula_sum   'Ca10 Cr6 Cl2 O24'
_cell_volume   611.54036270
_cell_formula_units_Z   2
loop_
 _symmetry_equiv_pos_site_id
 _symmetry_equiv_pos_as_xyz
  1  'x, y, z'
loop_
 _atom_site_type_symbol
 _atom_site_label
 _atom_site_symmetry_multiplicity
 _atom_site_fract_x
 _atom_site_fract_y
 _atom_site_fract_z
 _atom_site_occupancy
  Ca  Ca0  1  0.33333333  0.66666667  0.49761611  1.0
  Ca  Ca1  1  0.66666667  0.33333333  0.99761611  1.0
  Ca  Ca2  1  0.66666667  0.33333333  0.50238389  1.0
  Ca  Ca3  1  0.33333333  0.66666667  0.00238389  1.0
  Ca  Ca4  1  0.76665356  0.72806421  0.25000000  1.0
  Ca  Ca5  1  0.96141065  0.23334644  0.25000000  1.0
  Ca  Ca6  1  0.27193579  0.03858935  0.25000000  1.0
  Ca  Ca7  1  0.23334644  0.27193579  0.75000000  1.0
  Ca  Ca8  1  0.03858935  0.76665356  0.75000000  1.0
  Ca  Ca9  1  0.72806421  0.96141065  0.75000000  1.0
  Cr  Cr10  1  0.96987171  0.58463601  0.25000000  1.0
  Cr  Cr11  1  0.61476430  0.03012829  0.25000000  1.0
  Cr  Cr12  1  0.41536399  0.38523570  0.25000000  1.0
  Cr  Cr13  1  0.03012829  0.41536399  0.75000000  1.0
  Cr  Cr14  1  0.38523570  0.96987171  0.75000000  1.0
  Cr  Cr15  1  0.58463601  0.61476430  0.75000000  1.0
  Cl  Cl16  1  0.00000000  0.00000000  0.50000000  1.0
  Cl  Cl17  1  0.00000000  0.00000000  0.00000000  1.0
  O  O18  1  0.15307381  0.63464185  0.25000000  1.0
  O  O19  1  0.48156804  0.84692619  0.25000000  1.0
  O  O20  1  0.36535815  0.51843196  0.25000000  1.0
  O  O21  1  0.84692619  0.36535815  0.75000000  1.0
  O  O22  1  0.51843196  0.15307381  0.75000000  1.0
  O  O23  1  0.63464185  0.48156804  0.75000000  1.0
  O  O24  1  0.85684400  0.39017192  0.25000000  1.0
  O  O25  1  0.53332793  0.14315600  0.25000000  1.0
  O  O26  1  0.60982808  0.46667207  0.25000000  1.0
  O  O27  1  0.14315600  0.60982808  0.75000000  1.0
  O  O28  1  0.46667207  0.85684400  0.75000000  1.0
  O  O29  1  0.39017192  0.53332793  0.75000000  1.0
  O  O30  1  0.91515221  0.64837914  0.45056523  1.0
  O  O31  1  0.73322693  0.08484779  0.45056523  1.0
  O  O32  1  0.35162086  0.26677307  0.45056523  1.0
  O  O33  1  0.08484779  0.35162086  0.95056523  1.0
  O  O34  1  0.26677307  0.91515221  0.95056523  1.0
  O  O35  1  0.64837914  0.73322693  0.95056523  1.0
  O  O36  1  0.08484779  0.35162086  0.54943477  1.0
  O  O37  1  0.26677307  0.91515221  0.54943477  1.0
  O  O38  1  0.64837914  0.73322693  0.54943477  1.0
  O  O39  1  0.91515221  0.64837914  0.04943477  1.0
  O  O40  1  0.73322693  0.08484779  0.04943477  1.0
  O  O41  1  0.35162086  0.26677307  0.04943477  1.0
