# generated using pymatgen
data_Ba5Gd2ZrAl2O13
_symmetry_space_group_name_H-M   'P 1'
_cell_length_a   6.06317313
_cell_length_b   6.06317313
_cell_length_c   25.46673839
_cell_angle_alpha   90.00000000
_cell_angle_beta   90.00000000
_cell_angle_gamma   120.00000000
_symmetry_Int_Tables_number   1
_chemical_formula_structural   Ba5Gd2ZrAl2O13
_chemical_formula_sum   'Ba10 Gd4 Zr2 Al4 O26'
_cell_volume   810.78162461
_cell_formula_units_Z   2
loop_
 _symmetry_equiv_pos_site_id
 _symmetry_equiv_pos_as_xyz
  1  'x, y, z'
loop_
 _atom_site_type_symbol
 _atom_site_label
 _atom_site_symmetry_multiplicity
 _atom_site_fract_x
 _atom_site_fract_y
 _atom_site_fract_z
 _atom_site_occupancy
  Ba  Ba0  1  0.33333333  0.66666667  0.96036657  1.0
  Ba  Ba1  1  0.33333333  0.66666667  0.53963343  1.0
  Ba  Ba2  1  0.66666667  0.33333333  0.46036657  1.0
  Ba  Ba3  1  0.66666667  0.33333333  0.03963343  1.0
  Ba  Ba4  1  0.00000000  0.00000000  0.36423543  1.0
  Ba  Ba5  1  0.00000000  0.00000000  0.13576457  1.0
  Ba  Ba6  1  0.00000000  0.00000000  0.86423543  1.0
  Ba  Ba7  1  0.00000000  0.00000000  0.63576457  1.0
  Ba  Ba8  1  0.33333333  0.66666667  0.25000000  1.0
  Ba  Ba9  1  0.66666667  0.33333333  0.75000000  1.0
  Gd  Gd10  1  0.33333333  0.66666667  0.39562966  1.0
  Gd  Gd11  1  0.33333333  0.66666667  0.10437034  1.0
  Gd  Gd12  1  0.66666667  0.33333333  0.89562966  1.0
  Gd  Gd13  1  0.66666667  0.33333333  0.60437034  1.0
  Zr  Zr14  1  0.00000000  0.00000000  0.50000000  1.0
  Zr  Zr15  1  0.00000000  0.00000000  0.00000000  1.0
  Al  Al16  1  0.33333333  0.66666667  0.81825812  1.0
  Al  Al17  1  0.33333333  0.66666667  0.68174188  1.0
  Al  Al18  1  0.66666667  0.33333333  0.31825812  1.0
  Al  Al19  1  0.66666667  0.33333333  0.18174188  1.0
  O  O20  1  0.16091594  0.83908406  0.45070332  1.0
  O  O21  1  0.16091594  0.83908406  0.04929668  1.0
  O  O22  1  0.16091594  0.32183188  0.45070332  1.0
  O  O23  1  0.16091594  0.32183188  0.04929668  1.0
  O  O24  1  0.83908406  0.16091594  0.95070332  1.0
  O  O25  1  0.83908406  0.16091594  0.54929668  1.0
  O  O26  1  0.83908406  0.67816812  0.95070332  1.0
  O  O27  1  0.83908406  0.67816812  0.54929668  1.0
  O  O28  1  0.67816812  0.83908406  0.45070332  1.0
  O  O29  1  0.67816812  0.83908406  0.04929668  1.0
  O  O30  1  0.32183188  0.16091594  0.95070332  1.0
  O  O31  1  0.32183188  0.16091594  0.54929668  1.0
  O  O32  1  0.50619083  0.49380917  0.34072611  1.0
  O  O33  1  0.50619083  0.49380917  0.15927389  1.0
  O  O34  1  0.50619083  0.01238166  0.34072611  1.0
  O  O35  1  0.50619083  0.01238166  0.15927389  1.0
  O  O36  1  0.49380917  0.50619083  0.84072611  1.0
  O  O37  1  0.49380917  0.50619083  0.65927389  1.0
  O  O38  1  0.49380917  0.98761834  0.84072611  1.0
  O  O39  1  0.49380917  0.98761834  0.65927389  1.0
  O  O40  1  0.98761834  0.49380917  0.34072611  1.0
  O  O41  1  0.98761834  0.49380917  0.15927389  1.0
  O  O42  1  0.01238166  0.50619083  0.84072611  1.0
  O  O43  1  0.01238166  0.50619083  0.65927389  1.0
  O  O44  1  0.33333333  0.66666667  0.75000000  1.0
  O  O45  1  0.66666667  0.33333333  0.25000000  1.0
