# generated using pymatgen
data_Na4Sn3F10
_symmetry_space_group_name_H-M   'P 1'
_cell_length_a   11.17934414
_cell_length_b   11.17934414
_cell_length_c   5.58167724
_cell_angle_alpha   88.94564789
_cell_angle_beta   91.05435211
_cell_angle_gamma   67.53723435
_symmetry_Int_Tables_number   1
_chemical_formula_structural   Na4Sn3F10
_chemical_formula_sum   'Na8 Sn6 F20'
_cell_volume   644.30486095
_cell_formula_units_Z   2
loop_
 _symmetry_equiv_pos_site_id
 _symmetry_equiv_pos_as_xyz
  1  'x, y, z'
loop_
 _atom_site_type_symbol
 _atom_site_label
 _atom_site_symmetry_multiplicity
 _atom_site_fract_x
 _atom_site_fract_y
 _atom_site_fract_z
 _atom_site_occupancy
  Na  Na0  1  1.40161724  0.05601011  0.25240586  1.0
  Na  Na1  1  0.94398989  -0.40161724  0.75240586  1.0
  Na  Na2  1  1.05601011  0.40161724  0.24759414  1.0
  Na  Na3  1  0.59838276  -0.05601011  0.74759414  1.0
  Na  Na4  1  0.84522219  -0.15477781  0.25000000  1.0
  Na  Na5  1  1.15477781  0.15477781  0.75000000  1.0
  Na  Na6  1  1.04703619  0.04703619  0.25000000  1.0
  Na  Na7  1  0.95296381  -0.04703619  0.75000000  1.0
  Sn  Sn8  1  1.67223263  0.16270560  0.16374538  1.0
  Sn  Sn9  1  0.83729440  -0.67223263  0.66374538  1.0
  Sn  Sn10  1  1.16270560  0.67223263  0.33625462  1.0
  Sn  Sn11  1  0.32776737  -0.16270560  0.83625462  1.0
  Sn  Sn12  1  0.66068692  -0.33931308  0.25000000  1.0
  Sn  Sn13  1  1.33931308  0.33931308  0.75000000  1.0
  F  F14  1  0.70624443  -0.21949122  0.48219862  1.0
  F  F15  1  1.21949122  0.29375557  0.98219862  1.0
  F  F16  1  0.78050878  -0.29375557  0.01780138  1.0
  F  F17  1  1.29375557  0.21949122  0.51780138  1.0
  F  F18  1  1.84633712  0.05464880  0.38392626  1.0
  F  F19  1  0.94535120  -0.84633712  0.88392626  1.0
  F  F20  1  1.05464880  0.84633712  0.11607374  1.0
  F  F21  1  0.15366288  -0.05464880  0.61607374  1.0
  F  F22  1  0.75556847  -0.00250917  0.95141274  1.0
  F  F23  1  1.00250917  0.24443153  0.45141274  1.0
  F  F24  1  0.99749083  -0.24443153  0.54858726  1.0
  F  F25  1  1.24443153  0.00250917  0.04858726  1.0
  F  F26  1  0.51052539  -0.15323045  0.06117597  1.0
  F  F27  1  1.15323045  0.48947461  0.56117597  1.0
  F  F28  1  0.84676955  -0.48947461  0.43882403  1.0
  F  F29  1  1.48947461  0.15323045  0.93882403  1.0
  F  F30  1  1.59561638  0.06451304  0.39263943  1.0
  F  F31  1  0.93548696  -0.59561638  0.89263943  1.0
  F  F32  1  1.06451304  0.59561638  0.10736057  1.0
  F  F33  1  0.40438362  -0.06451304  0.60736057  1.0
