# generated using pymatgen
data_YPO4
_symmetry_space_group_name_H-M   'P 1'
_cell_length_a   5.78875916
_cell_length_b   5.78875916
_cell_length_c   5.78875916
_cell_angle_alpha   105.90244903
_cell_angle_beta   105.90244903
_cell_angle_gamma   116.87203249
_symmetry_Int_Tables_number   1
_chemical_formula_structural   YPO4
_chemical_formula_sum   'Y2 P2 O8'
_cell_volume   147.43425714
_cell_formula_units_Z   2
loop_
 _symmetry_equiv_pos_site_id
 _symmetry_equiv_pos_as_xyz
  1  'x, y, z'
loop_
 _atom_site_type_symbol
 _atom_site_label
 _atom_site_symmetry_multiplicity
 _atom_site_fract_x
 _atom_site_fract_y
 _atom_site_fract_z
 _atom_site_occupancy
  Y  Y0  1  0.25000000  0.75000000  0.50000000  1.0
  Y  Y1  1  0.50000000  0.50000000  0.00000000  1.0
  P  P2  1  0.00000000  0.00000000  0.00000000  1.0
  P  P3  1  0.75000000  1.25000000  0.50000000  1.0
  O  O4  1  0.16106582  0.33548442  0.17441860  1.0
  O  O5  1  1.08548442  1.41106582  0.67441860  1.0
  O  O6  1  0.73664721  0.41106582  0.32558140  1.0
  O  O7  1  0.16106582  0.98664721  0.82558140  1.0
  O  O8  1  0.58893418  0.91451558  0.32558140  1.0
  O  O9  1  1.66451558  0.83893418  0.82558140  1.0
  O  O10  1  1.01335279  0.83893418  1.17441860  1.0
  O  O11  1  0.58893418  1.26335279  0.67441860  1.0
