# generated using pymatgen
data_PbI2
_symmetry_space_group_name_H-M   'P 1'
_cell_length_a   4.66123329
_cell_length_b   4.66123329
_cell_length_c   22.66890030
_cell_angle_alpha   90.00000000
_cell_angle_beta   90.00000000
_cell_angle_gamma   120.00000000
_symmetry_Int_Tables_number   1
_chemical_formula_structural   PbI2
_chemical_formula_sum   'Pb3 I6'
_cell_volume   426.54294531
_cell_formula_units_Z   3
loop_
 _symmetry_equiv_pos_site_id
 _symmetry_equiv_pos_as_xyz
  1  'x, y, z'
loop_
 _atom_site_type_symbol
 _atom_site_label
 _atom_site_symmetry_multiplicity
 _atom_site_fract_x
 _atom_site_fract_y
 _atom_site_fract_z
 _atom_site_occupancy
  Pb  Pb0  1  -0.00000000  -0.00000000  0.08791464  1.0
  Pb  Pb1  1  0.00000000  0.00000000  0.42080434  1.0
  Pb  Pb2  1  0.66666667  0.33333333  0.75427107  1.0
  I  I3  1  -0.00000000  -0.00000000  0.83641619  1.0
  I  I4  1  0.66666667  0.33333333  0.17007708  1.0
  I  I5  1  0.66666667  0.33333333  0.50293945  1.0
  I  I6  1  0.33333333  0.66666667  0.00578284  1.0
  I  I7  1  0.33333333  0.66666667  0.33866109  1.0
  I  I8  1  0.33333333  0.66666667  0.67213329  1.0
