# generated using pymatgen
data_CrSi2
_symmetry_space_group_name_H-M   'P 1'
_cell_length_a   4.76244759
_cell_length_b   5.71101611
_cell_length_c   4.42532593
_cell_angle_alpha   54.26857665
_cell_angle_beta   76.76712080
_cell_angle_gamma   48.96430255
_symmetry_Int_Tables_number   1
_chemical_formula_structural   CrSi2
_chemical_formula_sum   'Cr2 Si4'
_cell_volume   71.31471994
_cell_formula_units_Z   2
loop_
 _symmetry_equiv_pos_site_id
 _symmetry_equiv_pos_as_xyz
  1  'x, y, z'
loop_
 _atom_site_type_symbol
 _atom_site_label
 _atom_site_symmetry_multiplicity
 _atom_site_fract_x
 _atom_site_fract_y
 _atom_site_fract_z
 _atom_site_occupancy
  Cr  Cr0  1  -0.50000000  0.50000000  0.50000000  1.0
  Cr  Cr1  1  0.75000000  0.75000000  0.75000000  1.0
  Si  Si2  1  -0.83287788  0.83287788  0.83287788  1.0
  Si  Si3  1  -0.16712212  0.16712212  0.16712212  1.0
  Si  Si4  1  1.08287788  0.41712212  0.41712212  1.0
  Si  Si5  1  1.41712212  0.08287788  0.08287788  1.0
