# generated using pymatgen
data_Ba10P6SO24
_symmetry_space_group_name_H-M   'P 1'
_cell_length_a   10.37963292
_cell_length_b   10.37963292
_cell_length_c   7.73876680
_cell_angle_alpha   90.00000000
_cell_angle_beta   90.00000000
_cell_angle_gamma   120.00000000
_symmetry_Int_Tables_number   1
_chemical_formula_structural   Ba10P6SO24
_chemical_formula_sum   'Ba10 P6 S1 O24'
_cell_volume   722.04851824
_cell_formula_units_Z   1
loop_
 _symmetry_equiv_pos_site_id
 _symmetry_equiv_pos_as_xyz
  1  'x, y, z'
loop_
 _atom_site_type_symbol
 _atom_site_label
 _atom_site_symmetry_multiplicity
 _atom_site_fract_x
 _atom_site_fract_y
 _atom_site_fract_z
 _atom_site_occupancy
  Ba  Ba0  1  0.98627584  0.74145112  0.23880877  1.0
  Ba  Ba1  1  0.74145112  0.75517528  0.76119123  1.0
  Ba  Ba2  1  0.75517528  0.01372416  0.23880877  1.0
  Ba  Ba3  1  0.25854888  0.24482472  0.23880877  1.0
  Ba  Ba4  1  0.01372416  0.25854888  0.76119123  1.0
  Ba  Ba5  1  0.24482472  0.98627584  0.76119123  1.0
  Ba  Ba6  1  0.33333333  0.66666667  0.01995882  1.0
  Ba  Ba7  1  0.66666667  0.33333333  0.98004118  1.0
  Ba  Ba8  1  0.33333333  0.66666667  0.51931821  1.0
  Ba  Ba9  1  0.66666667  0.33333333  0.48068179  1.0
  P  P10  1  0.36878405  0.97004174  0.25190889  1.0
  P  P11  1  0.97004174  0.60125768  0.74809111  1.0
  P  P12  1  0.60125768  0.63121595  0.25190889  1.0
  P  P13  1  0.02995826  0.39874232  0.25190889  1.0
  P  P14  1  0.63121595  0.02995826  0.74809111  1.0
  P  P15  1  0.39874232  0.36878405  0.74809111  1.0
  S  S16  1  0.00000000  0.00000000  0.00000000  1.0
  O  O17  1  0.25331677  0.93712171  0.39963320  1.0
  O  O18  1  0.93712171  0.68380494  0.60036680  1.0
  O  O19  1  0.68380494  0.74668323  0.39963320  1.0
  O  O20  1  0.06287829  0.31619506  0.39963320  1.0
  O  O21  1  0.74668323  0.06287829  0.60036680  1.0
  O  O22  1  0.31619506  0.25331677  0.60036680  1.0
  O  O23  1  0.28106098  0.90437930  0.07961781  1.0
  O  O24  1  0.90437930  0.62331832  0.92038219  1.0
  O  O25  1  0.62331832  0.71893902  0.07961781  1.0
  O  O26  1  0.09562070  0.37668168  0.07961781  1.0
  O  O27  1  0.71893902  0.09562070  0.92038219  1.0
  O  O28  1  0.37668168  0.28106098  0.92038219  1.0
  O  O29  1  0.45896638  0.88829855  0.28745368  1.0
  O  O30  1  0.88829855  0.42933217  0.71254632  1.0
  O  O31  1  0.42933217  0.54103362  0.28745368  1.0
  O  O32  1  0.11170145  0.57066783  0.28745368  1.0
  O  O33  1  0.54103362  0.11170145  0.71254632  1.0
  O  O34  1  0.57066783  0.45896638  0.71254632  1.0
  O  O35  1  0.66450016  0.52271924  0.23718490  1.0
  O  O36  1  0.52271924  0.85821908  0.76281510  1.0
  O  O37  1  0.85821908  0.33549984  0.23718490  1.0
  O  O38  1  0.47728076  0.14178092  0.23718490  1.0
  O  O39  1  0.33549984  0.47728076  0.76281510  1.0
  O  O40  1  0.14178092  0.66450016  0.76281510  1.0
