# generated using pymatgen
data_Rb2Pt3S4
_symmetry_space_group_name_H-M   'P 1'
_cell_length_a   8.61427558
_cell_length_b   7.42433106
_cell_length_c   6.36146130
_cell_angle_alpha   76.91629187
_cell_angle_beta   57.08630403
_cell_angle_gamma   45.99740410
_symmetry_Int_Tables_number   1
_chemical_formula_structural   Rb2Pt3S4
_chemical_formula_sum   'Rb2 Pt3 S4'
_cell_volume   237.86047998
_cell_formula_units_Z   1
loop_
 _symmetry_equiv_pos_site_id
 _symmetry_equiv_pos_as_xyz
  1  'x, y, z'
loop_
 _atom_site_type_symbol
 _atom_site_label
 _atom_site_symmetry_multiplicity
 _atom_site_fract_x
 _atom_site_fract_y
 _atom_site_fract_z
 _atom_site_occupancy
  Rb  Rb0  1  -0.34782978  0.65217022  0.34782978  1.0
  Rb  Rb1  1  0.34782978  0.34782978  -0.34782978  1.0
  Pt  Pt2  1  -0.00000000  0.00000000  1.50000000  1.0
  Pt  Pt3  1  -0.50000000  0.50000000  1.00000000  1.0
  Pt  Pt4  1  0.00000000  0.00000000  0.00000000  1.0
  S  S5  1  0.71968751  0.05876079  -0.05876079  1.0
  S  S6  1  -0.05876079  0.28031249  0.71968751  1.0
  S  S7  1  1.05876079  -0.28031249  0.28031249  1.0
  S  S8  1  0.28031249  -0.05876079  1.05876079  1.0
