# generated using pymatgen
data_MnCu2(SO4)2
_symmetry_space_group_name_H-M   'P 1'
_cell_length_a   5.93637845
_cell_length_b   8.33577034
_cell_length_c   8.60732027
_cell_angle_alpha   90.00000000
_cell_angle_beta   125.37859327
_cell_angle_gamma   90.00000000
_symmetry_Int_Tables_number   1
_chemical_formula_structural   MnCu2(SO4)2
_chemical_formula_sum   'Mn2 Cu4 S4 O16'
_cell_volume   347.27718555
_cell_formula_units_Z   2
loop_
 _symmetry_equiv_pos_site_id
 _symmetry_equiv_pos_as_xyz
  1  'x, y, z'
loop_
 _atom_site_type_symbol
 _atom_site_label
 _atom_site_symmetry_multiplicity
 _atom_site_fract_x
 _atom_site_fract_y
 _atom_site_fract_z
 _atom_site_occupancy
  Mn  Mn0  1  -0.00000000  0.50000000  0.50000000  1.0
  Mn  Mn1  1  0.00000000  0.00000000  0.00000000  1.0
  S  S2  1  0.82944017  0.61312165  0.08244853  1.0
  S  S3  1  0.82944017  0.88687835  0.58244853  1.0
  S  S4  1  0.17055983  0.11312165  0.41755147  1.0
  S  S5  1  0.17055983  0.38687835  0.91755147  1.0
  O  O6  1  0.97089798  0.04845236  0.21513688  1.0
  O  O7  1  0.97089798  0.45154764  0.71513688  1.0
  O  O8  1  0.02910202  0.54845236  0.28486312  1.0
  O  O9  1  0.02910202  0.95154764  0.78486312  1.0
  O  O10  1  0.98495659  0.22295605  0.44740881  1.0
  O  O11  1  0.98495659  0.27704395  0.94740881  1.0
  O  O12  1  0.01504341  0.72295605  0.05259119  1.0
  O  O13  1  0.01504341  0.77704395  0.55259119  1.0
  O  O14  1  0.39503862  0.21289529  0.43771480  1.0
  O  O15  1  0.39503862  0.28710471  0.93771480  1.0
  O  O16  1  0.60496138  0.71289529  0.06228520  1.0
  O  O17  1  0.60496138  0.78710471  0.56228520  1.0
  O  O18  1  0.34960719  0.00602274  0.14676767  1.0
  O  O19  1  0.34960719  0.49397726  0.64676767  1.0
  O  O20  1  0.65039281  0.50602274  0.35323233  1.0
  O  O21  1  0.65039281  0.99397726  0.85323233  1.0
  Cu  Cu22  1  0.64748268  0.40598079  -0.13587728  1.0
  Cu  Cu23  1  0.64748268  0.09401921  0.36412272  1.0
  Cu  Cu24  1  0.35251732  0.90598079  0.63587728  1.0
  Cu  Cu25  1  0.35251732  0.59401921  1.13587728  1.0
