# generated using pymatgen
data_Pb
_symmetry_space_group_name_H-M   'P 1'
_cell_length_a   6.51981500
_cell_length_b   6.51981500
_cell_length_c   6.51981500
_cell_angle_alpha   31.15241870
_cell_angle_beta   31.15241870
_cell_angle_gamma   31.15241870
_symmetry_Int_Tables_number   1
_chemical_formula_structural   Pb
_chemical_formula_sum   Pb2
_cell_volume   65.81131093
_cell_formula_units_Z   2
loop_
 _symmetry_equiv_pos_site_id
 _symmetry_equiv_pos_as_xyz
  1  'x, y, z'
loop_
 _atom_site_type_symbol
 _atom_site_label
 _atom_site_symmetry_multiplicity
 _atom_site_fract_x
 _atom_site_fract_y
 _atom_site_fract_z
 _atom_site_occupancy
  Pb  Pb0  1  0.90901818  -0.09098182  -0.09098182  1.0
  Pb  Pb1  1  0.09098182  0.09098182  0.09098182  1.0
