# generated using pymatgen
data_PBr3
_symmetry_space_group_name_H-M   'P 1'
_cell_length_a   9.11535469
_cell_length_b   10.97931909
_cell_length_c   6.99855194
_cell_angle_alpha   90.00000000
_cell_angle_beta   90.00000000
_cell_angle_gamma   90.00000000
_symmetry_Int_Tables_number   1
_chemical_formula_structural   PBr3
_chemical_formula_sum   'P4 Br12'
_cell_volume   700.41779234
_cell_formula_units_Z   4
loop_
 _symmetry_equiv_pos_site_id
 _symmetry_equiv_pos_as_xyz
  1  'x, y, z'
loop_
 _atom_site_type_symbol
 _atom_site_label
 _atom_site_symmetry_multiplicity
 _atom_site_fract_x
 _atom_site_fract_y
 _atom_site_fract_z
 _atom_site_occupancy
  P  P0  1  0.94135420  0.75000000  0.97099652  1.0
  P  P1  1  0.44135420  0.75000000  0.52900348  1.0
  P  P2  1  0.05864580  0.25000000  0.02900348  1.0
  P  P3  1  0.55864580  0.25000000  0.47099652  1.0
  Br  Br4  1  0.31673751  0.90880209  0.65337060  1.0
  Br  Br5  1  0.31673751  0.59119791  0.65337060  1.0
  Br  Br6  1  0.81673751  0.90880209  0.84662940  1.0
  Br  Br7  1  0.81673751  0.59119791  0.84662940  1.0
  Br  Br8  1  0.68326249  0.40880209  0.34662940  1.0
  Br  Br9  1  0.68326249  0.09119791  0.34662940  1.0
  Br  Br10  1  0.18326249  0.40880209  0.15337060  1.0
  Br  Br11  1  0.18326249  0.09119791  0.15337060  1.0
  Br  Br12  1  0.36242235  0.75000000  0.22329750  1.0
  Br  Br13  1  0.86242235  0.75000000  0.27670250  1.0
  Br  Br14  1  0.63757765  0.25000000  0.77670250  1.0
  Br  Br15  1  0.13757765  0.25000000  0.72329750  1.0
