# generated using pymatgen
data_K2FeH24C8(N2O)6
_symmetry_space_group_name_H-M   'P 1'
_cell_length_a   10.66319258
_cell_length_b   10.66319258
_cell_length_c   10.66319258
_cell_angle_alpha   46.95558998
_cell_angle_beta   46.95558998
_cell_angle_gamma   46.95558998
_symmetry_Int_Tables_number   1
_chemical_formula_structural   K2FeH24C8(N2O)6
_chemical_formula_sum   'K2 Fe1 H24 C8 N12 O6'
_cell_volume   591.89414456
_cell_formula_units_Z   1
loop_
 _symmetry_equiv_pos_site_id
 _symmetry_equiv_pos_as_xyz
  1  'x, y, z'
loop_
 _atom_site_type_symbol
 _atom_site_label
 _atom_site_symmetry_multiplicity
 _atom_site_fract_x
 _atom_site_fract_y
 _atom_site_fract_z
 _atom_site_occupancy
  K  K0  1  0.21655919  0.21655919  0.21655919  1.0
  K  K1  1  0.78344081  -0.21655919  -0.21655919  1.0
  Fe  Fe2  1  0.00000000  0.00000000  0.00000000  1.0
  H  H3  1  0.85830631  0.36435281  -0.84129225  1.0
  H  H4  1  0.84129225  0.14169369  -0.36435281  1.0
  H  H5  1  0.63564719  -0.15870775  0.14169369  1.0
  H  H6  1  1.14169369  -0.36435281  -0.15870775  1.0
  H  H7  1  0.15870775  0.85830631  -0.63564719  1.0
  H  H8  1  0.36435281  0.15870775  -0.14169369  1.0
  H  H9  1  0.76938855  0.51385202  -0.77841605  1.0
  H  H10  1  0.77841605  0.23061145  -0.51385202  1.0
  H  H11  1  0.48614798  0.77841605  -0.76938855  1.0
  H  H12  1  0.23061145  0.48614798  -0.22158395  1.0
  H  H13  1  0.22158395  0.76938855  -0.48614798  1.0
  H  H14  1  0.51385202  0.22158395  -0.23061145  1.0
  H  H15  1  0.11334882  0.56762253  -0.51793802  1.0
  H  H16  1  0.51793802  0.88665118  -0.56762253  1.0
  H  H17  1  0.43237747  0.51793802  -0.11334882  1.0
  H  H18  1  0.88665118  0.43237747  -0.48206198  1.0
  H  H19  1  0.48206198  0.11334882  -0.43237747  1.0
  H  H20  1  0.56762253  0.48206198  -0.88665118  1.0
  H  H21  1  0.16969807  0.33143168  -0.35645375  1.0
  H  H22  1  0.35645375  0.83030193  -0.33143168  1.0
  H  H23  1  0.66856832  0.35645375  -0.16969807  1.0
  H  H24  1  0.83030193  0.66856832  -0.64354625  1.0
  H  H25  1  0.64354625  0.16969807  -0.66856832  1.0
  H  H26  1  0.33143168  0.64354625  -0.83030193  1.0
  C  C27  1  0.97864922  -0.10045219  -0.75917803  1.0
  C  C28  1  0.75917803  0.02135078  0.10045219  1.0
  C  C29  1  1.10045219  -0.24082197  0.02135078  1.0
  C  C30  1  1.02135078  0.10045219  -0.24082197  1.0
  C  C31  1  0.24082197  -0.02135078  -0.10045219  1.0
  C  C32  1  0.89954781  -0.75917803  -0.02135078  1.0
  C  C33  1  0.38472362  0.38472362  -0.61527638  1.0
  C  C34  1  0.61527638  0.61527638  -0.38472362  1.0
  N  N35  1  0.20958255  0.43078900  -0.48601465  1.0
  N  N36  1  0.48601465  0.79041745  -0.43078900  1.0
  N  N37  1  0.56921100  0.48601465  -0.20958255  1.0
  N  N38  1  0.79041745  0.56921100  -0.51398535  1.0
  N  N39  1  0.51398535  0.20958255  -0.56921100  1.0
  N  N40  1  0.43078900  0.51398535  -0.79041745  1.0
  N  N41  1  0.97053472  -0.16179708  -0.61152690  1.0
  N  N42  1  0.61152690  0.02946528  0.16179708  1.0
  N  N43  1  1.16179708  -0.38847310  0.02946528  1.0
  N  N44  1  1.02946528  0.16179708  -0.38847310  1.0
  N  N45  1  0.38847310  -0.02946528  -0.16179708  1.0
  N  N46  1  0.83820292  -0.61152690  -0.02946528  1.0
  O  O47  1  0.85228079  0.37861698  -0.75504434  1.0
  O  O48  1  0.75504434  0.14771921  -0.37861698  1.0
  O  O49  1  0.62138302  -0.24495566  0.14771921  1.0
  O  O50  1  1.14771921  -0.37861698  -0.24495566  1.0
  O  O51  1  0.24495566  0.85228079  -0.62138302  1.0
  O  O52  1  0.37861698  0.24495566  -0.14771921  1.0
