# generated using pymatgen
data_NiF2
_symmetry_space_group_name_H-M   'P 1'
_cell_length_a   4.70826908
_cell_length_b   4.70826908
_cell_length_c   3.12543251
_cell_angle_alpha   90.00000000
_cell_angle_beta   90.00000000
_cell_angle_gamma   90.00000000
_symmetry_Int_Tables_number   1
_chemical_formula_structural   NiF2
_chemical_formula_sum   'Ni2 F4'
_cell_volume   69.28395554
_cell_formula_units_Z   2
loop_
 _symmetry_equiv_pos_site_id
 _symmetry_equiv_pos_as_xyz
  1  'x, y, z'
loop_
 _atom_site_type_symbol
 _atom_site_label
 _atom_site_symmetry_multiplicity
 _atom_site_fract_x
 _atom_site_fract_y
 _atom_site_fract_z
 _atom_site_occupancy
  Ni  Ni0  1  0.50000000  0.50000000  0.50000000  1.0
  Ni  Ni1  1  0.00000000  0.00000000  0.00000000  1.0
  F  F2  1  0.19560435  0.80439565  0.50000000  1.0
  F  F3  1  0.69560435  0.69560435  0.00000000  1.0
  F  F4  1  0.80439565  0.19560435  0.50000000  1.0
  F  F5  1  0.30439565  0.30439565  0.00000000  1.0
