# generated using pymatgen
data_VAg3F6
_symmetry_space_group_name_H-M   'P 1'
_cell_length_a   6.07166414
_cell_length_b   6.07166414
_cell_length_c   6.07166414
_cell_angle_alpha   60.00000000
_cell_angle_beta   60.00000000
_cell_angle_gamma   60.00000000
_symmetry_Int_Tables_number   1
_chemical_formula_structural   VAg3F6
_chemical_formula_sum   'V1 Ag3 F6'
_cell_volume   158.27350568
_cell_formula_units_Z   1
loop_
 _symmetry_equiv_pos_site_id
 _symmetry_equiv_pos_as_xyz
  1  'x, y, z'
loop_
 _atom_site_type_symbol
 _atom_site_label
 _atom_site_symmetry_multiplicity
 _atom_site_fract_x
 _atom_site_fract_y
 _atom_site_fract_z
 _atom_site_occupancy
  V  V0  1  0.00000000  0.00000000  -0.00000000  1.0
  Ag  Ag1  1  0.75000000  0.75000000  -0.25000000  1.0
  Ag  Ag2  1  1.25000000  0.25000000  0.25000000  1.0
  Ag  Ag3  1  -0.50000000  0.50000000  0.50000000  1.0
  F  F4  1  -0.77848464  0.77848464  0.77848464  1.0
  F  F5  1  -0.22151536  0.22151536  0.77848464  1.0
  F  F6  1  0.77848464  0.77848464  -0.77848464  1.0
  F  F7  1  0.22151536  1.22151536  -0.22151536  1.0
  F  F8  1  0.22151536  -0.22151536  1.22151536  1.0
  F  F9  1  -0.22151536  0.22151536  0.22151536  1.0
