# generated using pymatgen
data_Na2Ca(SO4)2
_symmetry_space_group_name_H-M   'P 1'
_cell_length_a   6.64165583
_cell_length_b   6.64165583
_cell_length_c   8.70073325
_cell_angle_alpha   72.63550955
_cell_angle_beta   107.36449045
_cell_angle_gamma   101.57286573
_symmetry_Int_Tables_number   1
_chemical_formula_structural   Na2Ca(SO4)2
_chemical_formula_sum   'Na4 Ca2 S4 O16'
_cell_volume   346.98615173
_cell_formula_units_Z   2
loop_
 _symmetry_equiv_pos_site_id
 _symmetry_equiv_pos_as_xyz
  1  'x, y, z'
loop_
 _atom_site_type_symbol
 _atom_site_label
 _atom_site_symmetry_multiplicity
 _atom_site_fract_x
 _atom_site_fract_y
 _atom_site_fract_z
 _atom_site_occupancy
  Na  Na0  1  0.80477188  0.08510397  0.56243776  1.0
  Na  Na1  1  0.91489603  0.19522812  0.06243776  1.0
  Na  Na2  1  1.08510397  -0.19522812  0.93756224  1.0
  Na  Na3  1  1.19522812  -0.08510397  0.43756224  1.0
  Ca  Ca4  1  0.43696410  0.43696410  0.75000000  1.0
  Ca  Ca5  1  0.56303590  0.56303590  0.25000000  1.0
  S  S6  1  1.53318923  -0.10005598  0.81537119  1.0
  S  S7  1  1.10005598  -0.53318923  0.31537119  1.0
  S  S8  1  0.89994402  0.53318923  0.68462881  1.0
  S  S9  1  0.46681077  0.10005598  0.18462881  1.0
  O  O10  1  1.76191512  -0.01877862  0.87018548  1.0
  O  O11  1  1.01877862  -0.76191512  0.37018548  1.0
  O  O12  1  0.98122138  0.76191512  0.62981452  1.0
  O  O13  1  0.23808488  0.01877862  0.12981452  1.0
  O  O14  1  1.46280478  -0.28585582  0.94404141  1.0
  O  O15  1  1.28585582  -0.46280478  0.44404141  1.0
  O  O16  1  0.71414418  0.46280478  0.55595859  1.0
  O  O17  1  0.53719522  0.28585582  0.05595859  1.0
  O  O18  1  1.50078189  -0.17733121  0.66227672  1.0
  O  O19  1  1.17733121  -0.50078189  0.16227672  1.0
  O  O20  1  0.82266879  0.50078189  0.83772328  1.0
  O  O21  1  0.49921811  0.17733121  0.33772328  1.0
  O  O22  1  0.39458392  0.07057116  0.77327180  1.0
  O  O23  1  0.92942884  0.60541608  0.27327180  1.0
  O  O24  1  1.07057116  -0.60541608  0.72672820  1.0
  O  O25  1  1.60541608  -0.07057116  0.22672820  1.0
