# generated using pymatgen
data_RbCuSb2H2Se4O
_symmetry_space_group_name_H-M   'P 1'
_cell_length_a   11.25605527
_cell_length_b   4.11141958
_cell_length_c   21.66642306
_cell_angle_alpha   90.00000000
_cell_angle_beta   90.00000000
_cell_angle_gamma   90.00000000
_symmetry_Int_Tables_number   1
_chemical_formula_structural   RbCuSb2H2Se4O
_chemical_formula_sum   'Rb4 Cu4 Sb8 H8 Se16 O4'
_cell_volume   1002.68665673
_cell_formula_units_Z   4
loop_
 _symmetry_equiv_pos_site_id
 _symmetry_equiv_pos_as_xyz
  1  'x, y, z'
loop_
 _atom_site_type_symbol
 _atom_site_label
 _atom_site_symmetry_multiplicity
 _atom_site_fract_x
 _atom_site_fract_y
 _atom_site_fract_z
 _atom_site_occupancy
  Rb  Rb0  1  0.64324990  0.75000000  0.07953980  1.0
  Rb  Rb1  1  0.14324990  0.75000000  0.42046020  1.0
  Rb  Rb2  1  0.35675010  0.25000000  0.92046020  1.0
  Rb  Rb3  1  0.85675010  0.25000000  0.57953980  1.0
  Cu  Cu4  1  0.59733639  0.75000000  0.27602580  1.0
  Cu  Cu5  1  0.09733639  0.75000000  0.22397420  1.0
  Cu  Cu6  1  0.40266361  0.25000000  0.72397420  1.0
  Cu  Cu7  1  0.90266361  0.25000000  0.77602580  1.0
  Sb  Sb8  1  0.62170684  0.75000000  0.76149711  1.0
  Sb  Sb9  1  0.12170684  0.75000000  0.73850289  1.0
  Sb  Sb10  1  0.37829316  0.25000000  0.23850289  1.0
  Sb  Sb11  1  0.87829316  0.25000000  0.26149711  1.0
  Sb  Sb12  1  0.96180833  0.75000000  0.91986295  1.0
  Sb  Sb13  1  0.46180833  0.75000000  0.58013705  1.0
  Sb  Sb14  1  0.03819167  0.25000000  0.08013705  1.0
  Sb  Sb15  1  0.53819167  0.25000000  0.41986295  1.0
  H  H16  1  0.61587052  0.56640424  0.92260458  1.0
  H  H17  1  0.61587052  0.93359576  0.92260458  1.0
  H  H18  1  0.11587052  0.56640424  0.57739542  1.0
  H  H19  1  0.11587052  0.93359576  0.57739542  1.0
  H  H20  1  0.38412948  0.06640424  0.07739542  1.0
  H  H21  1  0.38412948  0.43359576  0.07739542  1.0
  H  H22  1  0.88412948  0.06640424  0.42260458  1.0
  H  H23  1  0.88412948  0.43359576  0.42260458  1.0
  Se  Se24  1  0.64160974  0.75000000  0.50323945  1.0
  Se  Se25  1  0.14160974  0.75000000  0.99676055  1.0
  Se  Se26  1  0.35839026  0.25000000  0.49676055  1.0
  Se  Se27  1  0.85839026  0.25000000  0.00323945  1.0
  Se  Se28  1  0.79332807  0.75000000  0.33591599  1.0
  Se  Se29  1  0.29332807  0.75000000  0.16408401  1.0
  Se  Se30  1  0.20667193  0.25000000  0.66408401  1.0
  Se  Se31  1  0.70667193  0.25000000  0.83591599  1.0
  Se  Se32  1  0.92869961  0.75000000  0.15097456  1.0
  Se  Se33  1  0.42869961  0.75000000  0.34902544  1.0
  Se  Se34  1  0.07130039  0.25000000  0.84902544  1.0
  Se  Se35  1  0.57130039  0.25000000  0.65097456  1.0
  Se  Se36  1  0.89822974  0.75000000  0.70973550  1.0
  Se  Se37  1  0.39822974  0.75000000  0.79026450  1.0
  Se  Se38  1  0.10177026  0.25000000  0.29026450  1.0
  Se  Se39  1  0.60177026  0.25000000  0.20973550  1.0
  O  O40  1  0.58022039  0.75000000  0.94530988  1.0
  O  O41  1  0.08022039  0.75000000  0.55469012  1.0
  O  O42  1  0.41977961  0.25000000  0.05469012  1.0
  O  O43  1  0.91977961  0.25000000  0.44530988  1.0
