# generated using pymatgen
data_SrCd2Pd
_symmetry_space_group_name_H-M   'P 1'
_cell_length_a   5.82571548
_cell_length_b   5.82571548
_cell_length_c   8.16927364
_cell_angle_alpha   90.00000000
_cell_angle_beta   90.00000000
_cell_angle_gamma   134.42994639
_symmetry_Int_Tables_number   1
_chemical_formula_structural   SrCd2Pd
_chemical_formula_sum   'Sr2 Cd4 Pd2'
_cell_volume   197.99089127
_cell_formula_units_Z   2
loop_
 _symmetry_equiv_pos_site_id
 _symmetry_equiv_pos_as_xyz
  1  'x, y, z'
loop_
 _atom_site_type_symbol
 _atom_site_label
 _atom_site_symmetry_multiplicity
 _atom_site_fract_x
 _atom_site_fract_y
 _atom_site_fract_z
 _atom_site_occupancy
  Sr  Sr0  1  0.43652057  0.56347943  0.75000000  1.0
  Sr  Sr1  1  -0.43652057  0.43652057  0.25000000  1.0
  Cd  Cd2  1  0.14787941  0.85212059  0.94351991  1.0
  Cd  Cd3  1  0.14787941  0.85212059  0.55648009  1.0
  Cd  Cd4  1  -0.14787941  0.14787941  0.44351991  1.0
  Cd  Cd5  1  -0.14787941  0.14787941  0.05648009  1.0
  Pd  Pd6  1  -0.27724729  0.27724729  0.75000000  1.0
  Pd  Pd7  1  0.27724729  0.72275271  0.25000000  1.0
