# generated using pymatgen
data_CsPbBr3
_symmetry_space_group_name_H-M   'P 1'
_cell_length_a   10.04019171
_cell_length_b   4.65310173
_cell_length_c   17.15922140
_cell_angle_alpha   90.00000000
_cell_angle_beta   90.00000000
_cell_angle_gamma   90.00000000
_symmetry_Int_Tables_number   1
_chemical_formula_structural   CsPbBr3
_chemical_formula_sum   'Cs4 Pb4 Br12'
_cell_volume   801.64507806
_cell_formula_units_Z   4
loop_
 _symmetry_equiv_pos_site_id
 _symmetry_equiv_pos_as_xyz
  1  'x, y, z'
loop_
 _atom_site_type_symbol
 _atom_site_label
 _atom_site_symmetry_multiplicity
 _atom_site_fract_x
 _atom_site_fract_y
 _atom_site_fract_z
 _atom_site_occupancy
  Cs  Cs0  1  0.08345028  0.25000000  0.67358560  1.0
  Cs  Cs1  1  0.58345028  0.25000000  0.82641440  1.0
  Cs  Cs2  1  0.91654972  0.75000000  0.32641440  1.0
  Cs  Cs3  1  0.41654972  0.75000000  0.17358560  1.0
  Pb  Pb4  1  0.16567971  0.75000000  0.93938805  1.0
  Pb  Pb5  1  0.66567971  0.75000000  0.56061195  1.0
  Pb  Pb6  1  0.83432029  0.25000000  0.06061195  1.0
  Pb  Pb7  1  0.33432029  0.25000000  0.43938805  1.0
  Br  Br8  1  0.33549696  0.25000000  0.00180195  1.0
  Br  Br9  1  0.83549696  0.25000000  0.49819805  1.0
  Br  Br10  1  0.66450304  0.75000000  -0.00180195  1.0
  Br  Br11  1  0.16450304  0.75000000  0.50180195  1.0
  Br  Br12  1  0.02443697  0.75000000  0.10890755  1.0
  Br  Br13  1  0.52443697  0.75000000  0.39109245  1.0
  Br  Br14  1  0.97556303  0.25000000  0.89109245  1.0
  Br  Br15  1  0.47556303  0.25000000  0.60890755  1.0
  Br  Br16  1  0.29832582  0.75000000  0.78908084  1.0
  Br  Br17  1  0.79832582  0.75000000  0.71091916  1.0
  Br  Br18  1  0.70167418  0.25000000  0.21091916  1.0
  Br  Br19  1  0.20167418  0.25000000  0.28908084  1.0
