# generated using pymatgen
data_Sr2CeO4
_symmetry_space_group_name_H-M   'P 1'
_cell_length_a   6.14689412
_cell_length_b   10.46868854
_cell_length_c   3.63021173
_cell_angle_alpha   90.00000000
_cell_angle_beta   90.00000000
_cell_angle_gamma   90.00000000
_symmetry_Int_Tables_number   1
_chemical_formula_structural   Sr2CeO4
_chemical_formula_sum   'Sr4 Ce2 O8'
_cell_volume   233.60383457
_cell_formula_units_Z   2
loop_
 _symmetry_equiv_pos_site_id
 _symmetry_equiv_pos_as_xyz
  1  'x, y, z'
loop_
 _atom_site_type_symbol
 _atom_site_label
 _atom_site_symmetry_multiplicity
 _atom_site_fract_x
 _atom_site_fract_y
 _atom_site_fract_z
 _atom_site_occupancy
  Sr  Sr0  1  0.43729968  0.82133548  0.50000000  1.0
  Sr  Sr1  1  0.93729968  0.67866452  0.50000000  1.0
  Sr  Sr2  1  0.56270032  0.17866452  0.50000000  1.0
  Sr  Sr3  1  0.06270032  0.32133548  0.50000000  1.0
  Ce  Ce4  1  0.50000000  0.50000000  0.00000000  1.0
  Ce  Ce5  1  0.00000000  0.00000000  0.00000000  1.0
  O  O6  1  0.27238645  0.54179341  0.50000000  1.0
  O  O7  1  0.77238645  0.95820659  0.50000000  1.0
  O  O8  1  0.72761355  0.45820659  0.50000000  1.0
  O  O9  1  0.22761355  0.04179341  0.50000000  1.0
  O  O10  1  0.14317643  0.80633702  0.00000000  1.0
  O  O11  1  0.64317643  0.69366298  0.00000000  1.0
  O  O12  1  0.85682357  0.19366298  0.00000000  1.0
  O  O13  1  0.35682357  0.30633702  0.00000000  1.0
