# generated using pymatgen
data_Re2W
_symmetry_space_group_name_H-M   'P 1'
_cell_length_a   5.12534050
_cell_length_b   5.12534050
_cell_length_c   8.36489382
_cell_angle_alpha   90.00000000
_cell_angle_beta   90.00000000
_cell_angle_gamma   120.00000000
_symmetry_Int_Tables_number   1
_chemical_formula_structural   Re2W
_chemical_formula_sum   'Re8 W4'
_cell_volume   190.29900144
_cell_formula_units_Z   4
loop_
 _symmetry_equiv_pos_site_id
 _symmetry_equiv_pos_as_xyz
  1  'x, y, z'
loop_
 _atom_site_type_symbol
 _atom_site_label
 _atom_site_symmetry_multiplicity
 _atom_site_fract_x
 _atom_site_fract_y
 _atom_site_fract_z
 _atom_site_occupancy
  Re  Re0  1  -0.00000000  -0.00000000  0.50000000  1.0
  Re  Re1  1  -0.00000000  0.00000000  0.00000000  1.0
  Re  Re2  1  0.82793670  0.17206330  0.25000000  1.0
  Re  Re3  1  0.82793670  0.65587340  0.25000000  1.0
  Re  Re4  1  0.34412660  0.17206330  0.25000000  1.0
  Re  Re5  1  0.17206330  0.82793670  0.75000000  1.0
  Re  Re6  1  0.17206330  0.34412660  0.75000000  1.0
  Re  Re7  1  0.65587340  0.82793670  0.75000000  1.0
  W  W8  1  0.33333333  0.66666667  0.43237024  1.0
  W  W9  1  0.66666667  0.33333333  0.56762976  1.0
  W  W10  1  0.66666667  0.33333333  0.93237024  1.0
  W  W11  1  0.33333333  0.66666667  0.06762976  1.0
