# generated using pymatgen
data_TiAs2O7
_symmetry_space_group_name_H-M   'P 1'
_cell_length_a   5.38218133
_cell_length_b   5.38218133
_cell_length_c   9.59583600
_cell_angle_alpha   80.87340741
_cell_angle_beta   99.12659259
_cell_angle_gamma   81.82269526
_symmetry_Int_Tables_number   1
_chemical_formula_structural   TiAs2O7
_chemical_formula_sum   'Ti2 As4 O14'
_cell_volume   266.95249774
_cell_formula_units_Z   2
loop_
 _symmetry_equiv_pos_site_id
 _symmetry_equiv_pos_as_xyz
  1  'x, y, z'
loop_
 _atom_site_type_symbol
 _atom_site_label
 _atom_site_symmetry_multiplicity
 _atom_site_fract_x
 _atom_site_fract_y
 _atom_site_fract_z
 _atom_site_occupancy
  Ti  Ti0  1  0.50000000  -0.50000000  0.50000000  1.0
  Ti  Ti1  1  0.50000000  -0.50000000  0.00000000  1.0
  As  As2  1  1.66900444  0.05982455  0.30075981  1.0
  As  As3  1  0.94017545  -0.66900444  0.80075981  1.0
  As  As4  1  1.05982455  0.66900444  0.19924019  1.0
  As  As5  1  0.33099556  -0.05982455  0.69924019  1.0
  O  O6  1  0.57348484  -0.21765708  0.36958449  1.0
  O  O7  1  1.21765708  0.42651516  0.86958449  1.0
  O  O8  1  0.78234292  -0.42651516  0.13041551  1.0
  O  O9  1  1.42651516  0.21765708  0.63041551  1.0
  O  O10  1  1.72977947  0.25110845  0.42412328  1.0
  O  O11  1  0.74889155  -0.72977947  0.92412328  1.0
  O  O12  1  1.25110845  0.72977947  0.07587672  1.0
  O  O13  1  0.27022053  -0.25110845  0.57587672  1.0
  O  O14  1  1.46564542  0.20950992  0.14311560  1.0
  O  O15  1  0.79049008  -0.46564542  0.64311560  1.0
  O  O16  1  1.20950992  0.46564542  0.35688440  1.0
  O  O17  1  0.53435458  -0.20950992  0.85688440  1.0
  O  O18  1  0.97328173  -0.02671827  0.25000000  1.0
  O  O19  1  1.02671827  0.02671827  0.75000000  1.0
