# generated using pymatgen
data_PdS2O7
_symmetry_space_group_name_H-M   'P 1'
_cell_length_a   5.18843589
_cell_length_b   13.18371229
_cell_length_c   9.64429499
_cell_angle_alpha   90.00000000
_cell_angle_beta   121.35467694
_cell_angle_gamma   90.00000000
_symmetry_Int_Tables_number   1
_chemical_formula_structural   PdS2O7
_chemical_formula_sum   'Pd4 S8 O28'
_cell_volume   563.35680218
_cell_formula_units_Z   4
loop_
 _symmetry_equiv_pos_site_id
 _symmetry_equiv_pos_as_xyz
  1  'x, y, z'
loop_
 _atom_site_type_symbol
 _atom_site_label
 _atom_site_symmetry_multiplicity
 _atom_site_fract_x
 _atom_site_fract_y
 _atom_site_fract_z
 _atom_site_occupancy
  Pd  Pd0  1  0.61674916  0.14775406  0.33011944  1.0
  Pd  Pd1  1  0.61674916  0.35224594  0.83011944  1.0
  Pd  Pd2  1  0.38325084  0.64775406  0.16988056  1.0
  Pd  Pd3  1  0.38325084  0.85224594  0.66988056  1.0
  S  S4  1  0.87878104  0.47572159  0.19679438  1.0
  S  S5  1  0.87878104  0.02427841  0.69679438  1.0
  S  S6  1  0.12121896  0.97572159  0.30320562  1.0
  S  S7  1  0.12121896  0.52427841  0.80320562  1.0
  S  S8  1  0.21161322  0.30745987  0.41836460  1.0
  S  S9  1  0.21161322  0.19254013  0.91836460  1.0
  S  S10  1  0.78838678  0.80745987  0.08163540  1.0
  S  S11  1  0.78838677  0.69254013  0.58163540  1.0
  O  O12  1  -0.00227354  0.05226518  0.36198080  1.0
  O  O13  1  -0.00227354  0.44773482  0.86198080  1.0
  O  O14  1  1.00227354  0.55226518  0.13801920  1.0
  O  O15  1  1.00227354  0.94773482  0.63801920  1.0
  O  O16  1  0.93514634  0.28504818  0.41872236  1.0
  O  O17  1  0.93514634  0.21495182  0.91872236  1.0
  O  O18  1  0.06485366  0.78504818  0.08127764  1.0
  O  O19  1  0.06485366  0.71495182  0.58127764  1.0
  O  O20  1  0.81963505  0.92754946  0.14390332  1.0
  O  O21  1  0.81963505  0.57245054  0.64390332  1.0
  O  O22  1  0.18036495  0.42754946  0.35609668  1.0
  O  O23  1  0.18036495  0.07245054  0.85609668  1.0
  O  O24  1  0.72243025  0.39209634  0.08198435  1.0
  O  O25  1  0.72243025  0.10790366  0.58198435  1.0
  O  O26  1  0.27756975  0.89209634  0.41801565  1.0
  O  O27  1  0.27756975  0.60790366  0.91801565  1.0
  O  O28  1  0.49023451  0.18537803  0.07746390  1.0
  O  O29  1  0.49023451  0.31462197  0.57746390  1.0
  O  O30  1  0.50976549  0.68537803  0.42253610  1.0
  O  O31  1  0.50976549  0.81462197  0.92253610  1.0
  O  O32  1  0.29600235  0.01658965  0.23464217  1.0
  O  O33  1  0.29600235  0.48341035  0.73464217  1.0
  O  O34  1  0.70399765  0.51658965  0.26535783  1.0
  O  O35  1  0.70399765  0.98341035  0.76535783  1.0
  O  O36  1  0.24732427  0.24764556  0.30085133  1.0
  O  O37  1  0.24732427  0.25235444  0.80085133  1.0
  O  O38  1  0.75267573  0.74764556  0.19914867  1.0
  O  O39  1  0.75267573  0.75235444  0.69914867  1.0
