# generated using pymatgen
data_Ge3Rh5
_symmetry_space_group_name_H-M   'P 1'
_cell_length_a   5.49840309
_cell_length_b   10.48107487
_cell_length_c   4.00408851
_cell_angle_alpha   90.00000000
_cell_angle_beta   90.00000000
_cell_angle_gamma   90.00000000
_symmetry_Int_Tables_number   1
_chemical_formula_structural   Ge3Rh5
_chemical_formula_sum   'Ge6 Rh10'
_cell_volume   230.75231535
_cell_formula_units_Z   2
loop_
 _symmetry_equiv_pos_site_id
 _symmetry_equiv_pos_as_xyz
  1  'x, y, z'
loop_
 _atom_site_type_symbol
 _atom_site_label
 _atom_site_symmetry_multiplicity
 _atom_site_fract_x
 _atom_site_fract_y
 _atom_site_fract_z
 _atom_site_occupancy
  Ge  Ge0  1  0.39945352  0.65323930  0.50000000  1.0
  Ge  Ge1  1  0.89945352  0.84676070  0.50000000  1.0
  Ge  Ge2  1  0.60054648  0.34676070  0.50000000  1.0
  Ge  Ge3  1  0.10054648  0.15323930  0.50000000  1.0
  Ge  Ge4  1  0.50000000  0.00000000  0.00000000  1.0
  Ge  Ge5  1  0.00000000  0.50000000  0.00000000  1.0
  Rh  Rh6  1  0.33253672  0.89257919  0.50000000  1.0
  Rh  Rh7  1  0.83253672  0.60742081  0.50000000  1.0
  Rh  Rh8  1  0.66746328  0.10742081  0.50000000  1.0
  Rh  Rh9  1  0.16746328  0.39257919  0.50000000  1.0
  Rh  Rh10  1  0.15602392  0.71674624  0.00000000  1.0
  Rh  Rh11  1  0.65602392  0.78325376  0.00000000  1.0
  Rh  Rh12  1  0.84397608  0.28325376  0.00000000  1.0
  Rh  Rh13  1  0.34397608  0.21674624  0.00000000  1.0
  Rh  Rh14  1  0.50000000  0.50000000  0.00000000  1.0
  Rh  Rh15  1  0.00000000  0.00000000  0.00000000  1.0
