# generated using pymatgen
data_Ag2SO2
_symmetry_space_group_name_H-M   'P 1'
_cell_length_a   9.13871176
_cell_length_b   8.10636769
_cell_length_c   7.13410076
_cell_angle_alpha   73.37473057
_cell_angle_beta   58.20676643
_cell_angle_gamma   48.41850300
_symmetry_Int_Tables_number   1
_chemical_formula_structural   Ag2SO2
_chemical_formula_sum   'Ag8 S4 O8'
_cell_volume   334.32927823
_cell_formula_units_Z   4
loop_
 _symmetry_equiv_pos_site_id
 _symmetry_equiv_pos_as_xyz
  1  'x, y, z'
loop_
 _atom_site_type_symbol
 _atom_site_label
 _atom_site_symmetry_multiplicity
 _atom_site_fract_x
 _atom_site_fract_y
 _atom_site_fract_z
 _atom_site_occupancy
  Ag  Ag0  1  0.83476124  0.58607795  0.41058320  1.0
  Ag  Ag1  1  1.16857762  0.41058320  0.58607795  1.0
  Ag  Ag2  1  0.66392205  0.41523876  1.08142238  1.0
  Ag  Ag3  1  0.83941680  1.08142238  0.41523876  1.0
  Ag  Ag4  1  1.41058320  0.16857762  -0.16523876  1.0
  Ag  Ag5  1  1.58607795  -0.16523876  0.16857762  1.0
  Ag  Ag6  1  1.08142238  0.83941680  0.66392205  1.0
  Ag  Ag7  1  0.41523876  0.66392205  0.83941680  1.0
  S  S8  1  1.12500000  0.12500000  0.62500000  1.0
  S  S9  1  1.12500000  0.62500000  0.12500000  1.0
  S  S10  1  1.12500000  0.12500000  0.12500000  1.0
  S  S11  1  1.62500000  0.12500000  0.12500000  1.0
  O  O12  1  1.37866119  -0.15230871  0.52236848  1.0
  O  O13  1  1.25127905  0.52236848  -0.15230871  1.0
  O  O14  1  0.40230871  0.87133881  0.99872095  1.0
  O  O15  1  0.72763152  0.99872095  0.87133881  1.0
  O  O16  1  1.52236848  0.25127905  0.37866119  1.0
  O  O17  1  0.84769129  0.37866119  0.25127905  1.0
  O  O18  1  0.99872095  0.72763152  0.40230871  1.0
  O  O19  1  0.87133881  0.40230871  0.72763152  1.0
