# generated using pymatgen
data_K5Sb4
_symmetry_space_group_name_H-M   'P 1'
_cell_length_a   6.84768165
_cell_length_b   6.84768165
_cell_length_c   11.39821206
_cell_angle_alpha   70.41170217
_cell_angle_beta   109.58829783
_cell_angle_gamma   132.38291197
_symmetry_Int_Tables_number   1
_chemical_formula_structural   K5Sb4
_chemical_formula_sum   'K5 Sb4'
_cell_volume   367.32865304
_cell_formula_units_Z   1
loop_
 _symmetry_equiv_pos_site_id
 _symmetry_equiv_pos_as_xyz
  1  'x, y, z'
loop_
 _atom_site_type_symbol
 _atom_site_label
 _atom_site_symmetry_multiplicity
 _atom_site_fract_x
 _atom_site_fract_y
 _atom_site_fract_z
 _atom_site_occupancy
  K  K0  1  0.89987179  -0.89987179  0.60954369  1.0
  K  K1  1  0.10012821  -0.10012821  0.39045631  1.0
  K  K2  1  0.24497296  -0.24497296  0.83399949  1.0
  K  K3  1  0.75502704  -0.75502704  0.16600051  1.0
  K  K4  1  0.00000000  0.00000000  0.00000000  1.0
  Sb  Sb5  1  0.60482133  0.39517867  0.60814215  1.0
  Sb  Sb6  1  1.39517867  -0.39517867  0.39185785  1.0
  Sb  Sb7  1  0.54432357  0.45567643  0.82437208  1.0
  Sb  Sb8  1  1.45567643  -0.45567643  0.17562792  1.0
