# generated using pymatgen
data_SrRuO3
_symmetry_space_group_name_H-M   'P 1'
_cell_length_a   5.59709256
_cell_length_b   7.92516676
_cell_length_c   5.61219257
_cell_angle_alpha   90.00000000
_cell_angle_beta   90.00000000
_cell_angle_gamma   90.00000000
_symmetry_Int_Tables_number   1
_chemical_formula_structural   SrRuO3
_chemical_formula_sum   'Sr4 Ru4 O12'
_cell_volume   248.94503119
_cell_formula_units_Z   4
loop_
 _symmetry_equiv_pos_site_id
 _symmetry_equiv_pos_as_xyz
  1  'x, y, z'
loop_
 _atom_site_type_symbol
 _atom_site_label
 _atom_site_symmetry_multiplicity
 _atom_site_fract_x
 _atom_site_fract_y
 _atom_site_fract_z
 _atom_site_occupancy
  Sr  Sr0  1  0.02851098  0.25000000  0.50435512  1.0
  Sr  Sr1  1  0.52851098  0.25000000  0.99564488  1.0
  Sr  Sr2  1  0.97148902  0.75000000  0.49564488  1.0
  Sr  Sr3  1  0.47148902  0.75000000  0.00435512  1.0
  Ru  Ru4  1  0.50000000  0.50000000  0.50000000  1.0
  Ru  Ru5  1  0.50000000  0.00000000  0.50000000  1.0
  Ru  Ru6  1  0.00000000  0.50000000  0.00000000  1.0
  Ru  Ru7  1  0.00000000  0.00000000  0.00000000  1.0
  O  O8  1  0.28331332  0.46829782  0.78341678  1.0
  O  O9  1  0.28331332  0.03170218  0.78341678  1.0
  O  O10  1  0.78331332  0.46829782  0.71658322  1.0
  O  O11  1  0.78331332  0.03170218  0.71658322  1.0
  O  O12  1  0.71668668  0.96829782  0.21658322  1.0
  O  O13  1  0.71668668  0.53170218  0.21658322  1.0
  O  O14  1  0.21668668  0.96829782  0.28341678  1.0
  O  O15  1  0.21668668  0.53170218  0.28341678  1.0
  O  O16  1  0.99303980  0.25000000  0.06130179  1.0
  O  O17  1  0.49303980  0.25000000  0.43869821  1.0
  O  O18  1  0.00696020  0.75000000  0.93869821  1.0
  O  O19  1  0.50696020  0.75000000  0.56130179  1.0
