# generated using pymatgen
data_KSb(MoO4)2
_symmetry_space_group_name_H-M   'P 1'
_cell_length_a   10.33692358
_cell_length_b   8.16989966
_cell_length_c   5.04801156
_cell_angle_alpha   107.09905760
_cell_angle_beta   99.86908017
_cell_angle_gamma   92.89712191
_symmetry_Int_Tables_number   1
_chemical_formula_structural   KSb(MoO4)2
_chemical_formula_sum   'K2 Sb2 Mo4 O16'
_cell_volume   399.12615736
_cell_formula_units_Z   2
loop_
 _symmetry_equiv_pos_site_id
 _symmetry_equiv_pos_as_xyz
  1  'x, y, z'
loop_
 _atom_site_type_symbol
 _atom_site_label
 _atom_site_symmetry_multiplicity
 _atom_site_fract_x
 _atom_site_fract_y
 _atom_site_fract_z
 _atom_site_occupancy
  K  K0  1  -0.19940152  -0.96510653  -0.54798502  1.0
  K  K1  1  -0.80059848  -0.03489347  -0.45201498  1.0
  Sb  Sb2  1  -0.29699641  -0.50879998  -0.93263058  1.0
  Sb  Sb3  1  -0.70300359  -0.49120002  -0.06736942  1.0
  Mo  Mo4  1  -0.97169269  -0.63946038  -0.79050776  1.0
  Mo  Mo5  1  -0.02830731  -0.36053962  -0.20949224  1.0
  Mo  Mo6  1  -0.57024711  -0.75265995  -0.64858550  1.0
  Mo  Mo7  1  -0.42975289  -0.24734005  -0.35141450  1.0
  O  O8  1  -0.64385474  -0.94328002  -0.89726750  1.0
  O  O9  1  -0.35614526  -0.05671998  -0.10273250  1.0
  O  O10  1  -0.92310281  -0.34001724  -0.88056957  1.0
  O  O11  1  -0.07689719  -0.65998276  -0.11943043  1.0
  O  O12  1  -0.80734912  -0.64363698  -0.90331555  1.0
  O  O13  1  -0.19265088  -0.35636302  -0.09668445  1.0
  O  O14  1  -0.54187406  -0.58328364  -0.81020047  1.0
  O  O15  1  -0.45812594  -0.41671636  -0.18979953  1.0
  O  O16  1  -0.99283738  -0.83632701  -0.73538467  1.0
  O  O17  1  -0.00716262  -0.16367299  -0.26461533  1.0
  O  O18  1  -0.41439955  -0.78841938  -0.49802455  1.0
  O  O19  1  -0.58560045  -0.21158062  -0.50197545  1.0
  O  O20  1  -0.88645022  -0.48917035  -0.38650981  1.0
  O  O21  1  -0.11354978  -0.51082965  -0.61349019  1.0
  O  O22  1  -0.67597748  -0.70525706  -0.37689811  1.0
  O  O23  1  -0.32402252  -0.29474294  -0.62310189  1.0
