# generated using pymatgen
data_BaMnO3
_symmetry_space_group_name_H-M   'P 1'
_cell_length_a   5.65905805
_cell_length_b   5.65905805
_cell_length_c   13.76063973
_cell_angle_alpha   90.00000000
_cell_angle_beta   90.00000000
_cell_angle_gamma   120.00000000
_symmetry_Int_Tables_number   1
_chemical_formula_structural   BaMnO3
_chemical_formula_sum   'Ba6 Mn6 O18'
_cell_volume   381.64322312
_cell_formula_units_Z   6
loop_
 _symmetry_equiv_pos_site_id
 _symmetry_equiv_pos_as_xyz
  1  'x, y, z'
loop_
 _atom_site_type_symbol
 _atom_site_label
 _atom_site_symmetry_multiplicity
 _atom_site_fract_x
 _atom_site_fract_y
 _atom_site_fract_z
 _atom_site_occupancy
  Ba  Ba0  1  0.33333333  0.66666667  0.41083421  1.0
  Ba  Ba1  1  0.33333333  0.66666667  0.08916579  1.0
  Ba  Ba2  1  0.66666667  0.33333333  0.91083421  1.0
  Ba  Ba3  1  0.66666667  0.33333333  0.58916579  1.0
  Ba  Ba4  1  0.00000000  0.00000000  0.25000000  1.0
  Ba  Ba5  1  0.00000000  0.00000000  0.75000000  1.0
  Mn  Mn6  1  0.33333333  0.66666667  0.84409346  1.0
  Mn  Mn7  1  0.33333333  0.66666667  0.65590654  1.0
  Mn  Mn8  1  0.66666667  0.33333333  0.34409346  1.0
  Mn  Mn9  1  0.66666667  0.33333333  0.15590654  1.0
  Mn  Mn10  1  0.00000000  0.00000000  0.50000000  1.0
  Mn  Mn11  1  0.00000000  0.00000000  0.00000000  1.0
  O  O12  1  0.16476090  0.83523910  0.91896485  1.0
  O  O13  1  0.16476090  0.83523910  0.58103515  1.0
  O  O14  1  0.16476090  0.32952179  0.91896485  1.0
  O  O15  1  0.16476090  0.32952179  0.58103515  1.0
  O  O16  1  0.83523910  0.16476090  0.41896485  1.0
  O  O17  1  0.83523910  0.16476090  0.08103515  1.0
  O  O18  1  0.83523910  0.67047821  0.41896485  1.0
  O  O19  1  0.83523910  0.67047821  0.08103515  1.0
  O  O20  1  0.67047821  0.83523910  0.91896485  1.0
  O  O21  1  0.67047821  0.83523910  0.58103515  1.0
  O  O22  1  0.32952179  0.16476090  0.41896485  1.0
  O  O23  1  0.32952179  0.16476090  0.08103515  1.0
  O  O24  1  0.52198012  0.47801988  0.25000000  1.0
  O  O25  1  0.52198012  0.04396023  0.25000000  1.0
  O  O26  1  0.47801988  0.52198012  0.75000000  1.0
  O  O27  1  0.47801988  0.95603977  0.75000000  1.0
  O  O28  1  0.95603977  0.47801988  0.25000000  1.0
  O  O29  1  0.04396023  0.52198012  0.75000000  1.0
