# generated using pymatgen
data_TiOF5
_symmetry_space_group_name_H-M   'P 1'
_cell_length_a   7.62292342
_cell_length_b   7.62292342
_cell_length_c   12.94161543
_cell_angle_alpha   68.12520884
_cell_angle_beta   111.87479116
_cell_angle_gamma   137.20050928
_symmetry_Int_Tables_number   1
_chemical_formula_structural   TiOF5
_chemical_formula_sum   'Ti4 O4 F20'
_cell_volume   468.25696033
_cell_formula_units_Z   4
loop_
 _symmetry_equiv_pos_site_id
 _symmetry_equiv_pos_as_xyz
  1  'x, y, z'
loop_
 _atom_site_type_symbol
 _atom_site_label
 _atom_site_symmetry_multiplicity
 _atom_site_fract_x
 _atom_site_fract_y
 _atom_site_fract_z
 _atom_site_occupancy
  F  F0  1  0.59354783  0.09713056  0.75031759  1.0
  F  F1  1  0.90286944  -0.59354783  0.25031759  1.0
  F  F2  1  1.09713056  0.59354783  0.74968241  1.0
  F  F3  1  1.40645217  -0.09713056  0.24968241  1.0
  F  F4  1  1.73012309  0.09344377  0.43835431  1.0
  F  F5  1  0.90655623  0.26987691  0.93835431  1.0
  F  F6  1  1.09344377  -0.26987691  0.06164569  1.0
  F  F7  1  0.26987691  -0.09344377  0.56164569  1.0
  F  F8  1  1.96355529  0.22871433  0.67321696  1.0
  F  F9  1  0.77128567  -0.96355529  0.17321696  1.0
  F  F10  1  1.22871433  0.96355529  0.82678304  1.0
  F  F11  1  0.03644471  -0.22871433  0.32678304  1.0
  F  F12  1  1.28290675  -0.62679289  0.87527009  1.0
  F  F13  1  1.62679289  -0.28290675  0.37527009  1.0
  F  F14  1  0.37320711  0.28290675  0.62472991  1.0
  F  F15  1  0.71709325  0.62679289  0.12472991  1.0
  F  F16  1  0.79977277  -0.09933830  0.86826476  1.0
  F  F17  1  1.09933830  -0.79977277  0.36826476  1.0
  F  F18  1  0.90066170  0.79977277  0.63173524  1.0
  F  F19  1  1.20022723  0.09933830  0.13173524  1.0
  O  O20  1  0.89899511  0.68737061  0.90056661  1.0
  O  O21  1  0.31262939  0.10100489  0.40056661  1.0
  O  O22  1  1.68737061  -0.10100489  0.59943339  1.0
  O  O23  1  1.10100489  -0.68737061  0.09943339  1.0
  Ti  Ti24  1  0.96720932  0.24727106  0.81589443  1.0
  Ti  Ti25  1  0.75272894  -0.96720932  0.31589443  1.0
  Ti  Ti26  1  1.24727106  0.96720932  0.68410557  1.0
  Ti  Ti27  1  1.03279068  -0.24727106  0.18410557  1.0
