# generated using pymatgen
data_CaV2(PO5)2
_symmetry_space_group_name_H-M   'P 1'
_cell_length_a   8.77972083
_cell_length_b   6.95090771
_cell_length_c   9.95420177
_cell_angle_alpha   59.45970108
_cell_angle_beta   42.98988894
_cell_angle_gamma   77.55040998
_symmetry_Int_Tables_number   1
_chemical_formula_structural   CaV2(PO5)2
_chemical_formula_sum   'Ca2 V4 P4 O20'
_cell_volume   343.91921515
_cell_formula_units_Z   2
loop_
 _symmetry_equiv_pos_site_id
 _symmetry_equiv_pos_as_xyz
  1  'x, y, z'
loop_
 _atom_site_type_symbol
 _atom_site_label
 _atom_site_symmetry_multiplicity
 _atom_site_fract_x
 _atom_site_fract_y
 _atom_site_fract_z
 _atom_site_occupancy
  Ca  Ca0  1  1.00067438  0.00067438  -0.00067438  1.0
  Ca  Ca1  1  0.25067438  0.25067438  1.24932562  1.0
  V  V2  1  0.62743387  1.08678041  0.63553819  1.0
  V  V3  1  0.61446181  -0.40024753  0.62256613  1.0
  V  V4  1  1.08678041  -0.37256613  0.65024753  1.0
  V  V5  1  0.59975247  0.61446181  1.16321959  1.0
  P  P6  1  0.03770315  0.45477862  1.04557617  1.0
  P  P7  1  1.20442383  -0.21194206  0.21229685  1.0
  P  P8  1  0.45477862  0.03770315  1.46194206  1.0
  P  P9  1  0.78805794  1.20442383  0.79522138  1.0
  O  O10  1  0.41292291  0.57637597  1.42008004  1.0
  O  O11  1  0.82991996  -0.34062109  0.83707709  1.0
  O  O12  1  1.57637597  0.41292291  -0.40937891  1.0
  O  O13  1  0.65937891  -0.17008004  0.67362403  1.0
  O  O14  1  0.34810077  0.60496039  1.18520349  1.0
  O  O15  1  1.06479651  -0.61173535  0.90189923  1.0
  O  O16  1  1.60496039  0.34810077  -0.13826465  1.0
  O  O17  1  0.38826465  1.06479651  0.64503961  1.0
  O  O18  1  -0.14243660  0.17221556  1.61302648  1.0
  O  O19  1  0.63697352  -0.10719456  0.39243660  1.0
  O  O20  1  1.17221556  -0.14243660  0.35719456  1.0
  O  O21  1  0.89280544  0.63697352  1.07778444  1.0
  O  O22  1  -0.08072480  0.24159747  1.28491669  1.0
  O  O23  1  0.96508331  -0.30421064  0.33072480  1.0
  O  O24  1  1.24159747  -0.08072480  0.55421064  1.0
  O  O25  1  0.69578936  0.96508331  1.00840253  1.0
  O  O26  1  1.28191459  0.55350331  -0.08409366  1.0
  O  O27  1  0.33409366  1.00132423  0.96808541  1.0
  O  O28  1  0.55350331  0.28191459  1.24867577  1.0
  O  O29  1  1.00132423  -0.66590634  0.69649669  1.0
