# generated using pymatgen
data_Ba2MgSi2O7
_symmetry_space_group_name_H-M   'P 1'
_cell_length_a   8.29281199
_cell_length_b   8.29281199
_cell_length_c   5.47585360
_cell_angle_alpha   90.00000000
_cell_angle_beta   90.00000000
_cell_angle_gamma   90.00000000
_symmetry_Int_Tables_number   1
_chemical_formula_structural   Ba2MgSi2O7
_chemical_formula_sum   'Ba4 Mg2 Si4 O14'
_cell_volume   376.57845326
_cell_formula_units_Z   2
loop_
 _symmetry_equiv_pos_site_id
 _symmetry_equiv_pos_as_xyz
  1  'x, y, z'
loop_
 _atom_site_type_symbol
 _atom_site_label
 _atom_site_symmetry_multiplicity
 _atom_site_fract_x
 _atom_site_fract_y
 _atom_site_fract_z
 _atom_site_occupancy
  Ba  Ba0  1  0.83457013  0.33457013  0.48967369  1.0
  Ba  Ba1  1  0.66542987  0.83457013  0.51032631  1.0
  Ba  Ba2  1  0.16542987  0.66542987  0.48967369  1.0
  Ba  Ba3  1  0.33457013  0.16542987  0.51032631  1.0
  Mg  Mg4  1  0.50000000  0.50000000  0.00000000  1.0
  Mg  Mg5  1  0.00000000  0.00000000  0.00000000  1.0
  Si  Si6  1  0.36297188  0.86297188  0.04551399  1.0
  Si  Si7  1  0.13702812  0.36297188  0.95448601  1.0
  Si  Si8  1  0.63702812  0.13702812  0.04551399  1.0
  Si  Si9  1  0.86297188  0.63702812  0.95448601  1.0
  O  O10  1  0.30591475  0.42206792  0.82187728  1.0
  O  O11  1  0.19408525  0.92206792  0.17812272  1.0
  O  O12  1  0.57793208  0.30591475  0.17812272  1.0
  O  O13  1  0.92206792  0.80591475  0.82187728  1.0
  O  O14  1  0.69408525  0.57793208  0.82187728  1.0
  O  O15  1  0.80591475  0.07793208  0.17812272  1.0
  O  O16  1  0.42206792  0.69408525  0.17812272  1.0
  O  O17  1  0.07793208  0.19408525  0.82187728  1.0
  O  O18  1  0.35986574  0.85986574  0.74913532  1.0
  O  O19  1  0.14013426  0.35986574  0.25086468  1.0
  O  O20  1  0.64013426  0.14013426  0.74913532  1.0
  O  O21  1  0.85986574  0.64013426  0.25086468  1.0
  O  O22  1  0.00000000  0.50000000  0.85766160  1.0
  O  O23  1  0.50000000  0.00000000  0.14233840  1.0
