# generated using pymatgen
data_Ni3S2
_symmetry_space_group_name_H-M   'P 1'
_cell_length_a   4.07136683
_cell_length_b   4.07136683
_cell_length_c   4.07136683
_cell_angle_alpha   89.35577046
_cell_angle_beta   89.35577046
_cell_angle_gamma   89.35577046
_symmetry_Int_Tables_number   1
_chemical_formula_structural   Ni3S2
_chemical_formula_sum   'Ni3 S2'
_cell_volume   67.47438710
_cell_formula_units_Z   1
loop_
 _symmetry_equiv_pos_site_id
 _symmetry_equiv_pos_as_xyz
  1  'x, y, z'
loop_
 _atom_site_type_symbol
 _atom_site_label
 _atom_site_symmetry_multiplicity
 _atom_site_fract_x
 _atom_site_fract_y
 _atom_site_fract_z
 _atom_site_occupancy
  Ni  Ni0  1  0.74415820  0.00000000  0.25584180  1.0
  Ni  Ni1  1  -0.00000000  0.25584180  -0.25584180  1.0
  Ni  Ni2  1  0.25584180  -0.25584180  -0.00000000  1.0
  S  S3  1  0.75495132  0.75495132  -0.24504868  1.0
  S  S4  1  1.24504868  1.24504868  0.24504868  1.0
