# generated using pymatgen
data_ZnO
_symmetry_space_group_name_H-M   'P 1'
_cell_length_a   3.26935271
_cell_length_b   3.26935271
_cell_length_c   13.29432876
_cell_angle_alpha   90.00000000
_cell_angle_beta   90.00000000
_cell_angle_gamma   120.00000000
_symmetry_Int_Tables_number   1
_chemical_formula_structural   ZnO
_chemical_formula_sum   'Zn5 O5'
_cell_volume   123.06104497
_cell_formula_units_Z   5
loop_
 _symmetry_equiv_pos_site_id
 _symmetry_equiv_pos_as_xyz
  1  'x, y, z'
loop_
 _atom_site_type_symbol
 _atom_site_label
 _atom_site_symmetry_multiplicity
 _atom_site_fract_x
 _atom_site_fract_y
 _atom_site_fract_z
 _atom_site_occupancy
  Zn  Zn0  1  0.00000000  0.00000000  0.99922535  1.0
  Zn  Zn1  1  0.00000000  0.00000000  0.59969834  1.0
  Zn  Zn2  1  0.66666667  0.33333333  0.79951272  1.0
  Zn  Zn3  1  0.33333333  0.66666667  0.39948802  1.0
  Zn  Zn4  1  0.66666667  0.33333333  0.19928959  1.0
  O  O5  1  0.00000000  0.00000000  0.84881639  1.0
  O  O6  1  0.66666667  0.33333333  0.64913992  1.0
  O  O7  1  0.00000000  0.00000000  0.44904367  1.0
  O  O8  1  0.33333333  0.66666667  0.24881366  1.0
  O  O9  1  0.66666667  0.33333333  0.04856233  1.0
