# generated using pymatgen
data_Ta11(NiSe4)2
_symmetry_space_group_name_H-M   'P 1'
_cell_length_a   12.07837829
_cell_length_b   19.62321031
_cell_length_c   3.43434405
_cell_angle_alpha   90.00000000
_cell_angle_beta   90.00000000
_cell_angle_gamma   90.00000000
_symmetry_Int_Tables_number   1
_chemical_formula_structural   Ta11(NiSe4)2
_chemical_formula_sum   'Ta22 Ni4 Se16'
_cell_volume   813.99640240
_cell_formula_units_Z   2
loop_
 _symmetry_equiv_pos_site_id
 _symmetry_equiv_pos_as_xyz
  1  'x, y, z'
loop_
 _atom_site_type_symbol
 _atom_site_label
 _atom_site_symmetry_multiplicity
 _atom_site_fract_x
 _atom_site_fract_y
 _atom_site_fract_z
 _atom_site_occupancy
  Ta  Ta0  1  0.44450643  0.75813175  0.50000000  1.0
  Ta  Ta1  1  0.94450643  0.74186825  0.00000000  1.0
  Ta  Ta2  1  0.55549357  0.24186825  0.50000000  1.0
  Ta  Ta3  1  0.05549357  0.25813175  0.00000000  1.0
  Ta  Ta4  1  0.17926562  0.55137472  0.50000000  1.0
  Ta  Ta5  1  0.67926562  0.94862528  -0.00000000  1.0
  Ta  Ta6  1  0.82073438  0.44862528  0.50000000  1.0
  Ta  Ta7  1  0.32073438  0.05137472  -0.00000000  1.0
  Ta  Ta8  1  0.17678966  0.14597149  0.50000000  1.0
  Ta  Ta9  1  0.67678966  0.35402851  0.00000000  1.0
  Ta  Ta10  1  0.82321034  0.85402851  0.50000000  1.0
  Ta  Ta11  1  0.32321034  0.64597149  0.00000000  1.0
  Ta  Ta12  1  0.15350642  0.71288751  0.50000000  1.0
  Ta  Ta13  1  0.65350642  0.78711249  -0.00000000  1.0
  Ta  Ta14  1  0.84649358  0.28711249  0.50000000  1.0
  Ta  Ta15  1  0.34649358  0.21288751  -0.00000000  1.0
  Ta  Ta16  1  0.93507097  0.61453202  0.50000000  1.0
  Ta  Ta17  1  0.43507097  0.88546798  0.00000000  1.0
  Ta  Ta18  1  0.06492903  0.38546798  0.50000000  1.0
  Ta  Ta19  1  0.56492903  0.11453202  0.00000000  1.0
  Ta  Ta20  1  0.50000000  0.00000000  0.50000000  1.0
  Ta  Ta21  1  0.00000000  0.50000000  0.00000000  1.0
  Ni  Ni22  1  0.41001685  0.12954789  0.50000000  1.0
  Ni  Ni23  1  0.91001685  0.37045211  0.00000000  1.0
  Ni  Ni24  1  0.58998315  0.87045211  0.50000000  1.0
  Ni  Ni25  1  0.08998315  0.62954789  0.00000000  1.0
  Se  Se26  1  0.39070244  0.55441326  0.50000000  1.0
  Se  Se27  1  0.89070244  0.94558674  -0.00000000  1.0
  Se  Se28  1  0.60929756  0.44558674  0.50000000  1.0
  Se  Se29  1  0.10929756  0.05441326  -0.00000000  1.0
  Se  Se30  1  0.29108757  0.94557146  0.50000000  1.0
  Se  Se31  1  0.79108757  0.55442854  0.00000000  1.0
  Se  Se32  1  0.70891243  0.05442854  0.50000000  1.0
  Se  Se33  1  0.20891243  0.44557146  0.00000000  1.0
  Se  Se34  1  0.03850491  0.82539922  0.50000000  1.0
  Se  Se35  1  0.53850491  0.67460078  0.00000000  1.0
  Se  Se36  1  0.96149509  0.17460078  0.50000000  1.0
  Se  Se37  1  0.46149509  0.32539922  0.00000000  1.0
  Se  Se38  1  0.78161899  0.71301783  0.50000000  1.0
  Se  Se39  1  0.28161899  0.78698217  0.00000000  1.0
  Se  Se40  1  0.21838101  0.28698217  0.50000000  1.0
  Se  Se41  1  0.71838101  0.21301783  0.00000000  1.0
