# generated using pymatgen
data_Na2Li(H2N)3
_symmetry_space_group_name_H-M   'P 1'
_cell_length_a   6.29371956
_cell_length_b   6.29371956
_cell_length_c   11.15295181
_cell_angle_alpha   90.00000000
_cell_angle_beta   90.00000000
_cell_angle_gamma   90.00000000
_symmetry_Int_Tables_number   1
_chemical_formula_structural   Na2Li(H2N)3
_chemical_formula_sum   'Na8 Li4 H24 N12'
_cell_volume   441.77852433
_cell_formula_units_Z   4
loop_
 _symmetry_equiv_pos_site_id
 _symmetry_equiv_pos_as_xyz
  1  'x, y, z'
loop_
 _atom_site_type_symbol
 _atom_site_label
 _atom_site_symmetry_multiplicity
 _atom_site_fract_x
 _atom_site_fract_y
 _atom_site_fract_z
 _atom_site_occupancy
  Na  Na0  1  0.00000000  0.50000000  0.86204850  1.0
  Na  Na1  1  0.00000000  0.50000000  0.13795150  1.0
  Na  Na2  1  0.50000000  0.00000000  0.36204850  1.0
  Na  Na3  1  0.50000000  0.00000000  0.63795150  1.0
  Na  Na4  1  0.50000000  0.50000000  0.75000000  1.0
  Na  Na5  1  0.50000000  0.50000000  0.25000000  1.0
  Na  Na6  1  0.00000000  0.00000000  0.00000000  1.0
  Na  Na7  1  0.00000000  0.00000000  0.50000000  1.0
  Li  Li8  1  0.64162604  0.64981811  0.00000000  1.0
  Li  Li9  1  0.64981811  0.35837396  0.50000000  1.0
  Li  Li10  1  0.35837396  0.35018189  0.00000000  1.0
  Li  Li11  1  0.35018189  0.64162604  0.50000000  1.0
  H  H12  1  0.83461191  0.83326917  0.77653436  1.0
  H  H13  1  0.83461191  0.83326917  0.22346564  1.0
  H  H14  1  0.83326917  0.16538809  0.27653436  1.0
  H  H15  1  0.83326917  0.16538809  0.72346564  1.0
  H  H16  1  0.16538809  0.16673083  0.77653436  1.0
  H  H17  1  0.16538809  0.16673083  0.22346564  1.0
  H  H18  1  0.16673083  0.83461191  0.27653436  1.0
  H  H19  1  0.16673083  0.83461191  0.72346564  1.0
  H  H20  1  0.75681095  0.69251997  0.57237029  1.0
  H  H21  1  0.75681095  0.69251997  0.42762971  1.0
  H  H22  1  0.69251997  0.24318905  0.07237029  1.0
  H  H23  1  0.69251997  0.24318905  0.92762971  1.0
  H  H24  1  0.24318905  0.30748003  0.57237029  1.0
  H  H25  1  0.24318905  0.30748003  0.42762971  1.0
  H  H26  1  0.30748003  0.75681095  0.07237029  1.0
  H  H27  1  0.30748003  0.75681095  0.92762971  1.0
  H  H28  1  0.65313226  0.93864566  0.85835456  1.0
  H  H29  1  0.65313226  0.93864566  0.14164544  1.0
  H  H30  1  0.93864566  0.34686774  0.35835456  1.0
  H  H31  1  0.93864566  0.34686774  0.64164544  1.0
  H  H32  1  0.34686774  0.06135434  0.85835456  1.0
  H  H33  1  0.34686774  0.06135434  0.14164544  1.0
  H  H34  1  0.06135434  0.65313226  0.35835456  1.0
  H  H35  1  0.06135434  0.65313226  0.64164544  1.0
  N  N36  1  0.72469024  0.79498581  0.84116985  1.0
  N  N37  1  0.72469024  0.79498581  0.15883015  1.0
  N  N38  1  0.79498581  0.27530976  0.34116985  1.0
  N  N39  1  0.79498581  0.27530976  0.65883015  1.0
  N  N40  1  0.27530976  0.20501419  0.84116985  1.0
  N  N41  1  0.27530976  0.20501419  0.15883015  1.0
  N  N42  1  0.20501419  0.72469024  0.34116985  1.0
  N  N43  1  0.20501419  0.72469024  0.65883015  1.0
  N  N44  1  0.72371944  0.33931925  0.00000000  1.0
  N  N45  1  0.33931925  0.27628056  0.50000000  1.0
  N  N46  1  0.27628056  0.66068075  0.00000000  1.0
  N  N47  1  0.66068075  0.72371944  0.50000000  1.0
