# generated using pymatgen
data_BiTe
_symmetry_space_group_name_H-M   'P 1'
_cell_length_a   4.47717279
_cell_length_b   4.47717279
_cell_length_c   24.82319435
_cell_angle_alpha   90.00000000
_cell_angle_beta   90.00000000
_cell_angle_gamma   120.00000000
_symmetry_Int_Tables_number   1
_chemical_formula_structural   BiTe
_chemical_formula_sum   'Bi6 Te6'
_cell_volume   430.91936466
_cell_formula_units_Z   6
loop_
 _symmetry_equiv_pos_site_id
 _symmetry_equiv_pos_as_xyz
  1  'x, y, z'
loop_
 _atom_site_type_symbol
 _atom_site_label
 _atom_site_symmetry_multiplicity
 _atom_site_fract_x
 _atom_site_fract_y
 _atom_site_fract_z
 _atom_site_occupancy
  Bi  Bi0  1  0.33333333  0.66666667  0.29107966  1.0
  Bi  Bi1  1  0.66666667  0.33333333  0.70892034  1.0
  Bi  Bi2  1  0.33333333  0.66666667  0.53371906  1.0
  Bi  Bi3  1  0.66666667  0.33333333  0.46628094  1.0
  Bi  Bi4  1  0.00000000  0.00000000  0.12768449  1.0
  Bi  Bi5  1  -0.00000000  -0.00000000  0.87231551  1.0
  Te  Te6  1  0.33333333  0.66666667  0.05912759  1.0
  Te  Te7  1  0.66666667  0.33333333  0.94087241  1.0
  Te  Te8  1  0.33333333  0.66666667  0.79012301  1.0
  Te  Te9  1  0.66666667  0.33333333  0.20987699  1.0
  Te  Te10  1  -0.00000000  -0.00000000  0.36055831  1.0
  Te  Te11  1  -0.00000000  -0.00000000  0.63944169  1.0
