# generated using pymatgen
data_K2SnCl4O
_symmetry_space_group_name_H-M   'P 1'
_cell_length_a   8.69756827
_cell_length_b   12.26517148
_cell_length_c   8.22328447
_cell_angle_alpha   90.00000000
_cell_angle_beta   90.00000000
_cell_angle_gamma   90.00000000
_symmetry_Int_Tables_number   1
_chemical_formula_structural   K2SnCl4O
_chemical_formula_sum   'K8 Sn4 Cl16 O4'
_cell_volume   877.23668386
_cell_formula_units_Z   4
loop_
 _symmetry_equiv_pos_site_id
 _symmetry_equiv_pos_as_xyz
  1  'x, y, z'
loop_
 _atom_site_type_symbol
 _atom_site_label
 _atom_site_symmetry_multiplicity
 _atom_site_fract_x
 _atom_site_fract_y
 _atom_site_fract_z
 _atom_site_occupancy
  K  K0  1  0.43360713  0.85219437  0.50000000  1.0
  K  K1  1  0.93360713  0.64780563  0.50000000  1.0
  K  K2  1  0.56639287  0.14780563  0.50000000  1.0
  K  K3  1  0.06639287  0.35219437  0.50000000  1.0
  K  K4  1  0.43359968  0.85220622  0.00000000  1.0
  K  K5  1  0.93359968  0.64779378  0.00000000  1.0
  K  K6  1  0.56640032  0.14779378  0.00000000  1.0
  K  K7  1  0.06640032  0.35220622  0.00000000  1.0
  Sn  Sn8  1  0.50000000  0.50000000  0.75003238  1.0
  Sn  Sn9  1  0.50000000  0.50000000  0.24996762  1.0
  Sn  Sn10  1  0.00000000  0.00000000  0.75003238  1.0
  Sn  Sn11  1  0.00000000  0.00000000  0.24996762  1.0
  Cl  Cl12  1  0.13374482  0.80789127  0.74991338  1.0
  Cl  Cl13  1  0.13374482  0.80789127  0.25008662  1.0
  Cl  Cl14  1  0.63374482  0.69210873  0.74991338  1.0
  Cl  Cl15  1  0.63374482  0.69210873  0.25008662  1.0
  Cl  Cl16  1  0.86625518  0.19210873  0.74991338  1.0
  Cl  Cl17  1  0.86625518  0.19210873  0.25008662  1.0
  Cl  Cl18  1  0.36625518  0.30789127  0.74991338  1.0
  Cl  Cl19  1  0.36625518  0.30789127  0.25008662  1.0
  Cl  Cl20  1  0.31497616  0.56545607  0.50000000  1.0
  Cl  Cl21  1  0.81497616  0.93454393  0.50000000  1.0
  Cl  Cl22  1  0.68502384  0.43454393  0.50000000  1.0
  Cl  Cl23  1  0.18502384  0.06545607  0.50000000  1.0
  Cl  Cl24  1  0.31482536  0.56556367  0.00000000  1.0
  Cl  Cl25  1  0.81482536  0.93443633  0.00000000  1.0
  Cl  Cl26  1  0.68517464  0.43443633  0.00000000  1.0
  Cl  Cl27  1  0.18517464  0.06556367  0.00000000  1.0
  O  O28  1  0.50000000  0.00000000  0.74998642  1.0
  O  O29  1  0.50000000  0.00000000  0.25001358  1.0
  O  O30  1  0.00000000  0.50000000  0.74998642  1.0
  O  O31  1  0.00000000  0.50000000  0.25001358  1.0
