# generated using pymatgen
data_Tl2Au
_symmetry_space_group_name_H-M   'P 1'
_cell_length_a   5.99826617
_cell_length_b   5.99826617
_cell_length_c   5.99826617
_cell_angle_alpha   103.28112791
_cell_angle_beta   103.28112791
_cell_angle_gamma   122.72051837
_symmetry_Int_Tables_number   1
_chemical_formula_structural   Tl2Au
_chemical_formula_sum   'Tl4 Au2'
_cell_volume   159.35244188
_cell_formula_units_Z   2
loop_
 _symmetry_equiv_pos_site_id
 _symmetry_equiv_pos_as_xyz
  1  'x, y, z'
loop_
 _atom_site_type_symbol
 _atom_site_label
 _atom_site_symmetry_multiplicity
 _atom_site_fract_x
 _atom_site_fract_y
 _atom_site_fract_z
 _atom_site_occupancy
  Tl  Tl0  1  0.84507251  0.34507251  1.19014502  1.0
  Tl  Tl1  1  0.65492749  0.84507251  0.50000000  1.0
  Tl  Tl2  1  1.34507251  1.15492749  1.50000000  1.0
  Tl  Tl3  1  0.15492749  0.65492749  0.80985498  1.0
  Au  Au4  1  0.25000000  0.25000000  0.00000000  1.0
  Au  Au5  1  0.75000000  0.75000000  0.00000000  1.0
