# generated using pymatgen
data_YFeB4
_symmetry_space_group_name_H-M   'P 1'
_cell_length_a   5.88759516
_cell_length_b   11.38727594
_cell_length_c   3.37657364
_cell_angle_alpha   90.00000000
_cell_angle_beta   90.00000000
_cell_angle_gamma   90.00000000
_symmetry_Int_Tables_number   1
_chemical_formula_structural   YFeB4
_chemical_formula_sum   'Y4 Fe4 B16'
_cell_volume   226.37789106
_cell_formula_units_Z   4
loop_
 _symmetry_equiv_pos_site_id
 _symmetry_equiv_pos_as_xyz
  1  'x, y, z'
loop_
 _atom_site_type_symbol
 _atom_site_label
 _atom_site_symmetry_multiplicity
 _atom_site_fract_x
 _atom_site_fract_y
 _atom_site_fract_z
 _atom_site_occupancy
  Y  Y0  1  0.12639614  0.65037181  0.50000000  1.0
  Y  Y1  1  0.62639614  0.84962819  0.50000000  1.0
  Y  Y2  1  0.87360386  0.34962819  0.50000000  1.0
  Y  Y3  1  0.37360386  0.15037181  0.50000000  1.0
  Fe  Fe4  1  0.13274135  0.91167319  0.50000000  1.0
  Fe  Fe5  1  0.63274135  0.58832681  0.50000000  1.0
  Fe  Fe6  1  0.86725865  0.08832681  0.50000000  1.0
  Fe  Fe7  1  0.36725865  0.41167319  0.50000000  1.0
  B  B8  1  0.47559337  0.69018010  0.00000000  1.0
  B  B9  1  0.97559337  0.80981990  0.00000000  1.0
  B  B10  1  0.52440663  0.30981990  0.00000000  1.0
  B  B11  1  0.02440663  0.19018010  0.00000000  1.0
  B  B12  1  0.38871307  0.54589761  0.00000000  1.0
  B  B13  1  0.88871307  0.95410239  0.00000000  1.0
  B  B14  1  0.61128693  0.45410239  0.00000000  1.0
  B  B15  1  0.11128693  0.04589761  0.00000000  1.0
  B  B16  1  0.36067263  0.96819632  0.00000000  1.0
  B  B17  1  0.86067263  0.53180368  0.00000000  1.0
  B  B18  1  0.63932737  0.03180368  0.00000000  1.0
  B  B19  1  0.13932737  0.46819632  0.00000000  1.0
  B  B20  1  0.28185727  0.81645941  0.00000000  1.0
  B  B21  1  0.78185727  0.68354059  0.00000000  1.0
  B  B22  1  0.71814273  0.18354059  0.00000000  1.0
  B  B23  1  0.21814273  0.31645941  0.00000000  1.0
