# generated using pymatgen
data_LuGeIr
_symmetry_space_group_name_H-M   'P 1'
_cell_length_a   6.72079766
_cell_length_b   4.24608736
_cell_length_c   7.61419077
_cell_angle_alpha   90.00000000
_cell_angle_beta   90.00000000
_cell_angle_gamma   90.00000000
_symmetry_Int_Tables_number   1
_chemical_formula_structural   LuGeIr
_chemical_formula_sum   'Lu4 Ge4 Ir4'
_cell_volume   217.28687787
_cell_formula_units_Z   4
loop_
 _symmetry_equiv_pos_site_id
 _symmetry_equiv_pos_as_xyz
  1  'x, y, z'
loop_
 _atom_site_type_symbol
 _atom_site_label
 _atom_site_symmetry_multiplicity
 _atom_site_fract_x
 _atom_site_fract_y
 _atom_site_fract_z
 _atom_site_occupancy
  Lu  Lu0  1  0.98946132  0.75000000  0.69002527  1.0
  Lu  Lu1  1  0.48946132  0.75000000  0.80997473  1.0
  Lu  Lu2  1  0.01053868  0.25000000  0.30997473  1.0
  Lu  Lu3  1  0.51053868  0.25000000  0.19002527  1.0
  Ge  Ge4  1  0.71240923  0.75000000  0.38448211  1.0
  Ge  Ge5  1  0.21240923  0.75000000  0.11551789  1.0
  Ge  Ge6  1  0.28759077  0.25000000  0.61551789  1.0
  Ge  Ge7  1  0.78759077  0.25000000  0.88448211  1.0
  Ir  Ir8  1  0.83802485  0.75000000  0.06206251  1.0
  Ir  Ir9  1  0.33802485  0.75000000  0.43793749  1.0
  Ir  Ir10  1  0.16197515  0.25000000  0.93793749  1.0
  Ir  Ir11  1  0.66197515  0.25000000  0.56206251  1.0
