# generated using pymatgen
data_Ni3Mo
_symmetry_space_group_name_H-M   'P 1'
_cell_length_a   4.23629236
_cell_length_b   5.02820303
_cell_length_c   4.46604999
_cell_angle_alpha   90.00000000
_cell_angle_beta   90.00000000
_cell_angle_gamma   90.00000000
_symmetry_Int_Tables_number   1
_chemical_formula_structural   Ni3Mo
_chemical_formula_sum   'Ni6 Mo2'
_cell_volume   95.13105421
_cell_formula_units_Z   2
loop_
 _symmetry_equiv_pos_site_id
 _symmetry_equiv_pos_as_xyz
  1  'x, y, z'
loop_
 _atom_site_type_symbol
 _atom_site_label
 _atom_site_symmetry_multiplicity
 _atom_site_fract_x
 _atom_site_fract_y
 _atom_site_fract_z
 _atom_site_occupancy
  Ni  Ni0  1  0.50000000  0.74863368  0.65998545  1.0
  Ni  Ni1  1  0.50000000  0.25136632  0.65998545  1.0
  Ni  Ni2  1  0.00000000  0.24863368  0.34001455  1.0
  Ni  Ni3  1  0.00000000  0.75136632  0.34001455  1.0
  Ni  Ni4  1  0.50000000  0.50000000  0.16519182  1.0
  Ni  Ni5  1  0.00000000  0.00000000  0.83480818  1.0
  Mo  Mo6  1  0.50000000  0.00000000  0.15477220  1.0
  Mo  Mo7  1  0.00000000  0.50000000  0.84522780  1.0
