# generated using pymatgen
data_LiTiS2O
_symmetry_space_group_name_H-M   'P 1'
_cell_length_a   3.39320399
_cell_length_b   3.39320399
_cell_length_c   25.67989192
_cell_angle_alpha   90.00000000
_cell_angle_beta   90.00000000
_cell_angle_gamma   120.00000000
_symmetry_Int_Tables_number   1
_chemical_formula_structural   LiTiS2O
_chemical_formula_sum   'Li3 Ti3 S6 O3'
_cell_volume   256.06119046
_cell_formula_units_Z   3
loop_
 _symmetry_equiv_pos_site_id
 _symmetry_equiv_pos_as_xyz
  1  'x, y, z'
loop_
 _atom_site_type_symbol
 _atom_site_label
 _atom_site_symmetry_multiplicity
 _atom_site_fract_x
 _atom_site_fract_y
 _atom_site_fract_z
 _atom_site_occupancy
  Ti  Ti0  1  0.00000000  0.00000000  0.83197695  1.0
  Ti  Ti1  1  0.66666667  0.33333333  0.49787554  1.0
  Ti  Ti2  1  0.33333333  0.66666667  0.16489987  1.0
  S  S3  1  0.00000000  0.00000000  0.44236392  1.0
  S  S4  1  0.66666667  0.33333333  0.88774760  1.0
  S  S5  1  0.33333333  0.66666667  0.55365585  1.0
  S  S6  1  0.33333333  0.66666667  0.77645206  1.0
  S  S7  1  0.66666667  0.33333333  0.10939409  1.0
  S  S8  1  0.00000000  0.00000000  0.22067706  1.0
  Li  Li9  1  0.00000000  0.00000000  0.00096586  1.0
  Li  Li10  1  0.66666667  0.33333333  0.66721153  1.0
  Li  Li11  1  0.33333333  0.66666667  0.33346971  1.0
  O  O12  1  0.00000000  0.00000000  0.66773113  1.0
  O  O13  1  0.33333333  0.66666667  0.00152271  1.0
  O  O14  1  0.66666667  0.33333333  0.33405612  1.0
