# generated using pymatgen
data_KLiMn2(SiO3)4
_symmetry_space_group_name_H-M   'P 1'
_cell_length_a   5.23135293
_cell_length_b   5.23135293
_cell_length_c   10.32668114
_cell_angle_alpha   86.23016966
_cell_angle_beta   93.76983034
_cell_angle_gamma   61.56179657
_symmetry_Int_Tables_number   1
_chemical_formula_structural   KLiMn2(SiO3)4
_chemical_formula_sum   'K1 Li1 Mn2 Si4 O12'
_cell_volume   246.44904721
_cell_formula_units_Z   1
loop_
 _symmetry_equiv_pos_site_id
 _symmetry_equiv_pos_as_xyz
  1  'x, y, z'
loop_
 _atom_site_type_symbol
 _atom_site_label
 _atom_site_symmetry_multiplicity
 _atom_site_fract_x
 _atom_site_fract_y
 _atom_site_fract_z
 _atom_site_occupancy
  K  K0  1  -0.00000000  0.00000000  -0.00000000  1.0
  Li  Li1  1  0.50000000  -0.50000000  0.50000000  1.0
  Mn  Mn2  1  0.84739017  -0.15260983  0.50000000  1.0
  Mn  Mn3  1  1.15260983  0.15260983  0.50000000  1.0
  Si  Si4  1  0.60859447  -0.26640769  0.76949784  1.0
  Si  Si5  1  1.26640769  0.39140553  0.76949784  1.0
  Si  Si6  1  0.73359231  -0.39140553  0.23050216  1.0
  Si  Si7  1  1.39140553  0.26640769  0.23050216  1.0
  O  O8  1  0.57643936  -0.21594829  0.61272432  1.0
  O  O9  1  1.21594829  0.42356064  0.61272432  1.0
  O  O10  1  0.78405171  -0.42356064  0.38727568  1.0
  O  O11  1  1.42356064  0.21594829  0.38727568  1.0
  O  O12  1  1.45353561  0.04627473  0.83617287  1.0
  O  O13  1  0.95372527  -0.45353561  0.83617287  1.0
  O  O14  1  1.04627473  0.45353561  0.16382713  1.0
  O  O15  1  0.54646439  -0.04627473  0.16382713  1.0
  O  O16  1  0.88868583  -0.88868583  0.59984687  1.0
  O  O17  1  0.11131417  -0.11131417  0.40015313  1.0
  O  O18  1  0.45019478  -0.45019478  0.82726435  1.0
  O  O19  1  0.54980522  -0.54980522  0.17273565  1.0
