# generated using pymatgen
data_KWNClF5
_symmetry_space_group_name_H-M   'P 1'
_cell_length_a   11.78089429
_cell_length_b   7.98716831
_cell_length_c   7.98347976
_cell_angle_alpha   90.00000000
_cell_angle_beta   98.26082782
_cell_angle_gamma   90.00000000
_symmetry_Int_Tables_number   1
_chemical_formula_structural   KWNClF5
_chemical_formula_sum   'K4 W4 N4 Cl4 F20'
_cell_volume   743.41899510
_cell_formula_units_Z   4
loop_
 _symmetry_equiv_pos_site_id
 _symmetry_equiv_pos_as_xyz
  1  'x, y, z'
loop_
 _atom_site_type_symbol
 _atom_site_label
 _atom_site_symmetry_multiplicity
 _atom_site_fract_x
 _atom_site_fract_y
 _atom_site_fract_z
 _atom_site_occupancy
  K  K0  1  0.39374815  0.93448935  0.75417763  1.0
  K  K1  1  0.39374815  0.56551065  0.25417763  1.0
  K  K2  1  0.60625185  0.43448935  0.74582237  1.0
  K  K3  1  0.60625185  0.06551065  0.24582237  1.0
  W  W4  1  0.73156436  0.98342800  0.81308056  1.0
  W  W5  1  0.73156436  0.51657200  0.31308056  1.0
  W  W6  1  0.26843564  0.48342800  0.68691944  1.0
  W  W7  1  0.26843564  0.01657200  0.18691944  1.0
  N  N8  1  0.85745229  0.89168176  0.75976809  1.0
  N  N9  1  0.85745229  0.60831824  0.25976809  1.0
  N  N10  1  0.14254771  0.39168176  0.74023191  1.0
  N  N11  1  0.14254771  0.10831824  0.24023191  1.0
  Cl  Cl12  1  0.97875918  0.82051662  0.71780030  1.0
  Cl  Cl13  1  0.97875918  0.67948338  0.21780030  1.0
  Cl  Cl14  1  0.02124082  0.32051662  0.78219970  1.0
  Cl  Cl15  1  0.02124082  0.17948338  0.28219970  1.0
  F  F16  1  0.78866516  0.20939662  0.82419257  1.0
  F  F17  1  0.78866516  0.29060338  0.32419257  1.0
  F  F18  1  0.21133484  0.70939662  0.67580743  1.0
  F  F19  1  0.21133484  0.79060338  0.17580743  1.0
  F  F20  1  0.76890793  0.54116639  0.55301967  1.0
  F  F21  1  0.76890793  0.95883361  0.05301967  1.0
  F  F22  1  0.23109207  0.04116639  0.94698033  1.0
  F  F23  1  0.23109207  0.45883361  0.44698033  1.0
  F  F24  1  0.63734455  0.78511634  0.80549191  1.0
  F  F25  1  0.63734455  0.71488366  0.30549191  1.0
  F  F26  1  0.36265545  0.28511634  0.69450809  1.0
  F  F27  1  0.36265545  0.21488366  0.19450809  1.0
  F  F28  1  0.40971663  0.59808274  0.62058542  1.0
  F  F29  1  0.40971663  0.90191726  0.12058542  1.0
  F  F30  1  0.59028337  0.09808274  0.87941458  1.0
  F  F31  1  0.59028337  0.40191726  0.37941458  1.0
  F  F32  1  0.34307218  0.53078910  0.91355345  1.0
  F  F33  1  0.34307218  0.96921090  0.41355345  1.0
  F  F34  1  0.65692782  0.03078910  0.58644655  1.0
  F  F35  1  0.65692782  0.46921090  0.08644655  1.0
