# generated using pymatgen
data_PdPbO2
_symmetry_space_group_name_H-M   'P 1'
_cell_length_a   6.02408107
_cell_length_b   6.02408107
_cell_length_c   6.02408107
_cell_angle_alpha   125.48431634
_cell_angle_beta   74.54760288
_cell_angle_gamma   133.31096269
_symmetry_Int_Tables_number   1
_chemical_formula_structural   PdPbO2
_chemical_formula_sum   'Pd2 Pb2 O4'
_cell_volume   126.28442020
_cell_formula_units_Z   2
loop_
 _symmetry_equiv_pos_site_id
 _symmetry_equiv_pos_as_xyz
  1  'x, y, z'
loop_
 _atom_site_type_symbol
 _atom_site_label
 _atom_site_symmetry_multiplicity
 _atom_site_fract_x
 _atom_site_fract_y
 _atom_site_fract_z
 _atom_site_occupancy
  Pd  Pd0  1  0.50000000  -0.00000000  0.50000000  1.0
  Pd  Pd1  1  1.00000000  1.00000000  1.00000000  1.0
  Pb  Pb2  1  1.72721904  1.47721904  1.25000000  1.0
  Pb  Pb3  1  1.27278096  0.52278096  0.75000000  1.0
  O  O4  1  1.15138353  0.50000000  1.15138353  1.0
  O  O5  1  1.15138353  1.00000000  1.65138353  1.0
  O  O6  1  0.84861647  1.00000000  1.34861647  1.0
  O  O7  1  0.84861647  0.50000000  0.84861647  1.0
