# generated using pymatgen
data_CuH18(N3F)2
_symmetry_space_group_name_H-M   'P 1'
_cell_length_a   7.34132745
_cell_length_b   6.19859843
_cell_length_c   10.30215929
_cell_angle_alpha   90.00000000
_cell_angle_beta   111.19701438
_cell_angle_gamma   90.00000000
_symmetry_Int_Tables_number   1
_chemical_formula_structural   CuH18(N3F)2
_chemical_formula_sum   'Cu2 H36 N12 F4'
_cell_volume   437.09104341
_cell_formula_units_Z   2
loop_
 _symmetry_equiv_pos_site_id
 _symmetry_equiv_pos_as_xyz
  1  'x, y, z'
loop_
 _atom_site_type_symbol
 _atom_site_label
 _atom_site_symmetry_multiplicity
 _atom_site_fract_x
 _atom_site_fract_y
 _atom_site_fract_z
 _atom_site_occupancy
  N  N0  1  0.34269974  0.51189735  0.20477201  1.0
  N  N1  1  0.65730026  0.01189735  0.79522799  1.0
  N  N2  1  0.59917243  0.98822585  0.27719892  1.0
  N  N3  1  0.40082757  0.48822585  0.72280108  1.0
  N  N4  1  0.14054741  1.00306830  0.16125097  1.0
  N  N5  1  0.85945259  0.50306830  0.83874903  1.0
  N  N6  1  0.63975332  0.63990096  0.48238412  1.0
  N  N7  1  0.36024668  0.13990096  0.51761588  1.0
  N  N8  1  0.64850927  0.65454066  0.09108379  1.0
  N  N9  1  0.35149073  0.15454066  0.90891621  1.0
  N  N10  1  0.88436089  0.44152542  0.34795124  1.0
  N  N11  1  0.11563911  0.94152542  0.65204876  1.0
  Cu  Cu12  1  0.64877304  0.65422207  0.28789857  1.0
  Cu  Cu13  1  0.35122696  0.15422207  0.71210143  1.0
  H  H14  1  0.50747386  0.68559967  0.02319809  1.0
  H  H15  1  0.49252614  0.18559967  0.97680191  1.0
  H  H16  1  0.74057770  0.76739580  0.07634704  1.0
  H  H17  1  0.25942230  0.26739580  0.92365296  1.0
  H  H18  1  0.69038114  0.50234711  0.07096908  1.0
  H  H19  1  0.30961886  0.00234711  0.92903092  1.0
  H  H20  1  0.49689058  0.66473252  0.47554393  1.0
  H  H21  1  0.50310942  0.16473252  0.52445607  1.0
  H  H22  1  0.68464777  0.48815297  0.52305249  1.0
  H  H23  1  0.31535223  -0.01184703  0.47694751  1.0
  H  H24  1  0.72686903  0.75239872  0.54836613  1.0
  H  H25  1  0.27313097  0.25239872  0.45163387  1.0
  H  H26  1  0.27364984  0.57251347  0.26767641  1.0
  H  H27  1  0.72635016  0.07251347  0.73232359  1.0
  H  H28  1  0.27827146  0.57538112  0.10637731  1.0
  H  H29  1  0.72172854  0.07538112  0.89362269  1.0
  H  H30  1  0.31711062  0.34883482  0.19743199  1.0
  H  H31  1  0.68288938  0.84883482  0.80256801  1.0
  H  H32  1  0.87791098  0.34492036  0.42727452  1.0
  H  H33  1  0.12208902  0.84492036  0.57272548  1.0
  H  H34  1  1.01375450  0.52835071  0.38087013  1.0
  H  H35  1  -0.01375450  0.02835071  0.61912987  1.0
  H  H36  1  0.87373578  0.34760563  0.26309476  1.0
  H  H37  1  0.12626422  0.84760563  0.73690524  1.0
  H  H38  1  0.45052634  0.01640617  0.24030227  1.0
  H  H39  1  0.54947366  0.51640617  0.75969773  1.0
  H  H40  1  0.65836800  0.06145317  0.37329190  1.0
  H  H41  1  0.34163200  0.56145317  0.62670810  1.0
  H  H42  1  0.65491533  0.06363369  0.21044695  1.0
  H  H43  1  0.34508467  0.56363369  0.78955305  1.0
  H  H44  1  0.14014197  0.90059557  0.23925172  1.0
  H  H45  1  0.85985803  0.40059557  0.76074828  1.0
  H  H46  1  0.13928420  0.90894298  0.07914030  1.0
  H  H47  1  0.86071580  0.40894298  0.92085970  1.0
  H  H48  1  0.01000418  0.08633881  0.12990097  1.0
  H  H49  1  0.98999582  0.58633881  0.87009903  1.0
  F  F50  1  0.23536376  0.69594414  0.44135099  1.0
  F  F51  1  0.76463624  0.19594414  0.55864901  1.0
  F  F52  1  0.24387625  0.71552196  0.92394706  1.0
  F  F53  1  0.75612375  0.21552196  0.07605294  1.0
