# generated using pymatgen
data_KNaSO4
_symmetry_space_group_name_H-M   'P 1'
_cell_length_a   5.69716509
_cell_length_b   5.69716509
_cell_length_c   7.30103679
_cell_angle_alpha   90.00000000
_cell_angle_beta   90.00000000
_cell_angle_gamma   120.00000000
_symmetry_Int_Tables_number   1
_chemical_formula_structural   KNaSO4
_chemical_formula_sum   'K2 Na2 S2 O8'
_cell_volume   205.22618766
_cell_formula_units_Z   2
loop_
 _symmetry_equiv_pos_site_id
 _symmetry_equiv_pos_as_xyz
  1  'x, y, z'
loop_
 _atom_site_type_symbol
 _atom_site_label
 _atom_site_symmetry_multiplicity
 _atom_site_fract_x
 _atom_site_fract_y
 _atom_site_fract_z
 _atom_site_occupancy
  K  K0  1  0.33333333  0.66666667  0.67019987  1.0
  K  K1  1  0.66666667  0.33333333  0.32980013  1.0
  Na  Na2  1  0.00000000  0.00000000  0.00000000  1.0
  Na  Na3  1  0.00000000  0.00000000  0.50000000  1.0
  S  S4  1  0.33333333  0.66666667  0.22044873  1.0
  S  S5  1  0.66666667  0.33333333  0.77955127  1.0
  O  O6  1  0.33333333  0.66666667  0.01892233  1.0
  O  O7  1  0.66666667  0.33333333  -0.01892233  1.0
  O  O8  1  0.61994984  0.80997492  0.29300730  1.0
  O  O9  1  0.80997492  0.61994984  0.70699270  1.0
  O  O10  1  0.80997492  0.19002508  0.70699270  1.0
  O  O11  1  0.19002508  0.80997492  0.29300730  1.0
  O  O12  1  0.19002508  0.38005016  0.29300730  1.0
  O  O13  1  0.38005016  0.19002508  0.70699270  1.0
