# generated using pymatgen
data_Sn4B3Ir7
_symmetry_space_group_name_H-M   'P 1'
_cell_length_a   9.36812342
_cell_length_b   9.36812342
_cell_length_c   5.68309102
_cell_angle_alpha   90.00000000
_cell_angle_beta   90.00000000
_cell_angle_gamma   120.00000000
_symmetry_Int_Tables_number   1
_chemical_formula_structural   Sn4B3Ir7
_chemical_formula_sum   'Sn8 B6 Ir14'
_cell_volume   431.93704250
_cell_formula_units_Z   2
loop_
 _symmetry_equiv_pos_site_id
 _symmetry_equiv_pos_as_xyz
  1  'x, y, z'
loop_
 _atom_site_type_symbol
 _atom_site_label
 _atom_site_symmetry_multiplicity
 _atom_site_fract_x
 _atom_site_fract_y
 _atom_site_fract_z
 _atom_site_occupancy
  Sn  Sn0  1  0.58940265  0.49753250  0.25000000  1.0
  Sn  Sn1  1  0.49753250  0.90812985  0.75000000  1.0
  Sn  Sn2  1  0.90812985  0.41059735  0.25000000  1.0
  Sn  Sn3  1  0.50246750  0.09187015  0.25000000  1.0
  Sn  Sn4  1  0.41059735  0.50246750  0.75000000  1.0
  Sn  Sn5  1  0.09187015  0.58940265  0.75000000  1.0
  Sn  Sn6  1  0.33333333  0.66666667  0.25000000  1.0
  Sn  Sn7  1  0.66666667  0.33333333  0.75000000  1.0
  B  B8  1  0.03701056  0.82752667  0.25000000  1.0
  B  B9  1  0.82752667  0.79051611  0.75000000  1.0
  B  B10  1  0.79051611  0.96298944  0.25000000  1.0
  B  B11  1  0.17247333  0.20948389  0.25000000  1.0
  B  B12  1  0.96298944  0.17247333  0.75000000  1.0
  B  B13  1  0.20948389  0.03701056  0.75000000  1.0
  Ir  Ir14  1  0.22982875  0.87647778  0.49903945  1.0
  Ir  Ir15  1  0.22982875  0.87647778  0.00096055  1.0
  Ir  Ir16  1  0.87647778  0.64664903  0.99903945  1.0
  Ir  Ir17  1  0.87647778  0.64664903  0.50096055  1.0
  Ir  Ir18  1  0.64664903  0.77017125  0.49903945  1.0
  Ir  Ir19  1  0.64664903  0.77017125  0.00096055  1.0
  Ir  Ir20  1  0.12352222  0.35335097  0.49903945  1.0
  Ir  Ir21  1  0.12352222  0.35335097  0.00096055  1.0
  Ir  Ir22  1  0.77017125  0.12352222  0.99903945  1.0
  Ir  Ir23  1  0.77017125  0.12352222  0.50096055  1.0
  Ir  Ir24  1  0.35335097  0.22982875  0.99903945  1.0
  Ir  Ir25  1  0.35335097  0.22982875  0.50096055  1.0
  Ir  Ir26  1  0.00000000  0.00000000  0.50000000  1.0
  Ir  Ir27  1  0.00000000  0.00000000  0.00000000  1.0
