# generated using pymatgen
data_YB4
_symmetry_space_group_name_H-M   'P 1'
_cell_length_a   7.09691579
_cell_length_b   7.09691579
_cell_length_c   4.01691093
_cell_angle_alpha   90.00000000
_cell_angle_beta   90.00000000
_cell_angle_gamma   90.00000000
_symmetry_Int_Tables_number   1
_chemical_formula_structural   YB4
_chemical_formula_sum   'Y4 B16'
_cell_volume   202.31659442
_cell_formula_units_Z   4
loop_
 _symmetry_equiv_pos_site_id
 _symmetry_equiv_pos_as_xyz
  1  'x, y, z'
loop_
 _atom_site_type_symbol
 _atom_site_label
 _atom_site_symmetry_multiplicity
 _atom_site_fract_x
 _atom_site_fract_y
 _atom_site_fract_z
 _atom_site_occupancy
  Y  Y0  1  0.31753417  0.18246583  0.50000000  1.0
  Y  Y1  1  0.81753417  0.31753417  0.50000000  1.0
  Y  Y2  1  0.68246583  0.81753417  0.50000000  1.0
  Y  Y3  1  0.18246583  0.68246583  0.50000000  1.0
  B  B4  1  0.46145974  0.67613022  0.00000000  1.0
  B  B5  1  0.96145974  0.82386978  0.00000000  1.0
  B  B6  1  0.32386978  0.46145974  0.00000000  1.0
  B  B7  1  0.82386978  0.03854026  0.00000000  1.0
  B  B8  1  0.53854026  0.32386978  0.00000000  1.0
  B  B9  1  0.03854026  0.17613022  0.00000000  1.0
  B  B10  1  0.67613022  0.53854026  0.00000000  1.0
  B  B11  1  0.17613022  0.96145974  0.00000000  1.0
  B  B12  1  0.91297079  0.58702921  0.00000000  1.0
  B  B13  1  0.41297079  0.91297079  0.00000000  1.0
  B  B14  1  0.08702921  0.41297079  0.00000000  1.0
  B  B15  1  0.58702921  0.08702921  0.00000000  1.0
  B  B16  1  0.50000000  0.50000000  0.70307597  1.0
  B  B17  1  0.50000000  0.50000000  0.29692403  1.0
  B  B18  1  0.00000000  0.00000000  0.70307597  1.0
  B  B19  1  0.00000000  0.00000000  0.29692403  1.0
