# generated using pymatgen
data_SrP3
_symmetry_space_group_name_H-M   'P 1'
_cell_length_a   6.86393968
_cell_length_b   6.86393968
_cell_length_c   8.62882918
_cell_angle_alpha   78.59024037
_cell_angle_beta   101.40975963
_cell_angle_gamma   114.19716883
_symmetry_Int_Tables_number   1
_chemical_formula_structural   SrP3
_chemical_formula_sum   'Sr4 P12'
_cell_volume   360.37783544
_cell_formula_units_Z   4
loop_
 _symmetry_equiv_pos_site_id
 _symmetry_equiv_pos_as_xyz
  1  'x, y, z'
loop_
 _atom_site_type_symbol
 _atom_site_label
 _atom_site_symmetry_multiplicity
 _atom_site_fract_x
 _atom_site_fract_y
 _atom_site_fract_z
 _atom_site_occupancy
  Sr  Sr0  1  0.54204307  -0.54204307  0.74114844  1.0
  Sr  Sr1  1  0.45795693  -0.45795693  0.25885156  1.0
  Sr  Sr2  1  0.79350371  -0.79350371  0.22428318  1.0
  Sr  Sr3  1  0.20649629  -0.20649629  0.77571682  1.0
  P  P4  1  0.66390984  -0.13954348  0.97619659  1.0
  P  P5  1  1.13954348  0.33609016  0.97619659  1.0
  P  P6  1  0.86045652  -0.33609016  0.02380341  1.0
  P  P7  1  1.33609016  0.13954348  0.02380341  1.0
  P  P8  1  0.59547882  -0.10308235  0.51236888  1.0
  P  P9  1  1.10308235  0.40452118  0.51236888  1.0
  P  P10  1  0.89691765  -0.40452118  0.48763112  1.0
  P  P11  1  1.40452118  0.10308235  0.48763112  1.0
  P  P12  1  0.91733755  -0.91733755  0.63340827  1.0
  P  P13  1  0.08266245  -0.08266245  0.36659173  1.0
  P  P14  1  0.82597186  -0.82597186  0.83801627  1.0
  P  P15  1  0.17402814  -0.17402814  0.16198373  1.0
