# generated using pymatgen
data_BPb3O4F
_symmetry_space_group_name_H-M   'P 1'
_cell_length_a   7.97840524
_cell_length_b   6.70677273
_cell_length_c   12.09705215
_cell_angle_alpha   90.00000000
_cell_angle_beta   90.00000000
_cell_angle_gamma   90.00000000
_symmetry_Int_Tables_number   1
_chemical_formula_structural   BPb3O4F
_chemical_formula_sum   'B4 Pb12 O16 F4'
_cell_volume   647.30540578
_cell_formula_units_Z   4
loop_
 _symmetry_equiv_pos_site_id
 _symmetry_equiv_pos_as_xyz
  1  'x, y, z'
loop_
 _atom_site_type_symbol
 _atom_site_label
 _atom_site_symmetry_multiplicity
 _atom_site_fract_x
 _atom_site_fract_y
 _atom_site_fract_z
 _atom_site_occupancy
  B  B0  1  0.97991704  0.75000000  0.50000000  1.0
  B  B1  1  0.97991704  0.75000000  0.00000000  1.0
  B  B2  1  0.02008296  0.25000000  0.50000000  1.0
  B  B3  1  0.02008296  0.25000000  0.00000000  1.0
  Pb  Pb4  1  0.67958061  0.47172633  0.39655341  1.0
  Pb  Pb5  1  0.67958061  0.47172633  0.10344659  1.0
  Pb  Pb6  1  0.67958061  0.02827367  0.89655341  1.0
  Pb  Pb7  1  0.67958061  0.02827367  0.60344659  1.0
  Pb  Pb8  1  0.32041939  0.97172633  0.39655341  1.0
  Pb  Pb9  1  0.32041939  0.97172633  0.10344659  1.0
  Pb  Pb10  1  0.32041939  0.52827367  0.89655341  1.0
  Pb  Pb11  1  0.32041939  0.52827367  0.60344659  1.0
  Pb  Pb12  1  0.89754306  0.93964778  0.25000000  1.0
  Pb  Pb13  1  0.89754306  0.56035222  0.75000000  1.0
  Pb  Pb14  1  0.10245694  0.43964778  0.25000000  1.0
  Pb  Pb15  1  0.10245694  0.06035222  0.75000000  1.0
  O  O16  1  0.81028357  0.59377089  0.25000000  1.0
  O  O17  1  0.81028357  0.90622911  0.75000000  1.0
  O  O18  1  0.18971643  0.09377089  0.25000000  1.0
  O  O19  1  0.18971643  0.40622911  0.75000000  1.0
  O  O20  1  0.93314401  0.30136045  0.40438819  1.0
  O  O21  1  0.93314401  0.30136045  0.09561181  1.0
  O  O22  1  0.93314401  0.19863955  0.90438819  1.0
  O  O23  1  0.93314401  0.19863955  0.59561181  1.0
  O  O24  1  0.06685599  0.80136045  0.40438819  1.0
  O  O25  1  0.06685599  0.80136045  0.09561181  1.0
  O  O26  1  0.06685599  0.69863955  0.90438819  1.0
  O  O27  1  0.06685599  0.69863955  0.59561181  1.0
  O  O28  1  0.80640390  0.75000000  0.50000000  1.0
  O  O29  1  0.80640390  0.75000000  0.00000000  1.0
  O  O30  1  0.19359610  0.25000000  0.50000000  1.0
  O  O31  1  0.19359610  0.25000000  0.00000000  1.0
  F  F32  1  0.40500560  0.72347240  0.25000000  1.0
  F  F33  1  0.40500560  0.77652760  0.75000000  1.0
  F  F34  1  0.59499440  0.22347240  0.25000000  1.0
  F  F35  1  0.59499440  0.27652760  0.75000000  1.0
