# generated using pymatgen
data_LiNbZnO4
_symmetry_space_group_name_H-M   'P 1'
_cell_length_a   6.13911573
_cell_length_b   6.13911573
_cell_length_c   8.45275060
_cell_angle_alpha   90.00000000
_cell_angle_beta   90.00000000
_cell_angle_gamma   90.00000000
_symmetry_Int_Tables_number   1
_chemical_formula_structural   LiNbZnO4
_chemical_formula_sum   'Li4 Nb4 Zn4 O16'
_cell_volume   318.57353644
_cell_formula_units_Z   4
loop_
 _symmetry_equiv_pos_site_id
 _symmetry_equiv_pos_as_xyz
  1  'x, y, z'
loop_
 _atom_site_type_symbol
 _atom_site_label
 _atom_site_symmetry_multiplicity
 _atom_site_fract_x
 _atom_site_fract_y
 _atom_site_fract_z
 _atom_site_occupancy
  Li  Li0  1  0.00000000  0.78341768  0.50000000  1.0
  Li  Li1  1  0.00000000  0.21658232  0.00000000  1.0
  Li  Li2  1  0.78341768  0.00000000  0.25000000  1.0
  Li  Li3  1  0.21658232  0.00000000  0.75000000  1.0
  Nb  Nb4  1  0.50000000  0.78579853  0.50000000  1.0
  Nb  Nb5  1  0.50000000  0.21420147  0.00000000  1.0
  Nb  Nb6  1  0.78579853  0.50000000  0.25000000  1.0
  Nb  Nb7  1  0.21420147  0.50000000  0.75000000  1.0
  Zn  Zn8  1  0.74151507  0.74151507  0.87500000  1.0
  Zn  Zn9  1  0.74151507  0.25848493  0.62500000  1.0
  Zn  Zn10  1  0.25848493  0.74151507  0.12500000  1.0
  Zn  Zn11  1  0.25848493  0.25848493  0.37500000  1.0
  O  O12  1  0.73599558  0.98144815  0.50365674  1.0
  O  O13  1  0.73599558  0.01855185  0.99634326  1.0
  O  O14  1  0.98144815  0.73599558  0.24634326  1.0
  O  O15  1  0.98144815  0.26400442  0.25365674  1.0
  O  O16  1  0.26400442  0.98144815  0.49634326  1.0
  O  O17  1  0.26400442  0.01855185  0.00365674  1.0
  O  O18  1  0.01855185  0.73599558  0.75365674  1.0
  O  O19  1  0.01855185  0.26400442  0.74634326  1.0
  O  O20  1  0.48255703  0.73318660  0.73284124  1.0
  O  O21  1  0.48255703  0.26681340  0.76715876  1.0
  O  O22  1  0.73318660  0.48255703  0.01715876  1.0
  O  O23  1  0.73318660  0.51744297  0.48284124  1.0
  O  O24  1  0.51744297  0.73318660  0.26715876  1.0
  O  O25  1  0.51744297  0.26681340  0.23284124  1.0
  O  O26  1  0.26681340  0.48255703  0.98284124  1.0
  O  O27  1  0.26681340  0.51744297  0.51715876  1.0
