# generated using pymatgen
data_H3CS
_symmetry_space_group_name_H-M   'P 1'
_cell_length_a   9.76447894
_cell_length_b   6.98829834
_cell_length_c   8.77725311
_cell_angle_alpha   90.00000000
_cell_angle_beta   89.35762116
_cell_angle_gamma   90.00000000
_symmetry_Int_Tables_number   1
_chemical_formula_structural   H3CS
_chemical_formula_sum   'H24 C8 S8'
_cell_volume   598.89658459
_cell_formula_units_Z   8
loop_
 _symmetry_equiv_pos_site_id
 _symmetry_equiv_pos_as_xyz
  1  'x, y, z'
loop_
 _atom_site_type_symbol
 _atom_site_label
 _atom_site_symmetry_multiplicity
 _atom_site_fract_x
 _atom_site_fract_y
 _atom_site_fract_z
 _atom_site_occupancy
  H  H0  1  0.97011749  0.28866071  0.89647046  1.0
  H  H1  1  0.02988251  0.78866071  0.60352954  1.0
  H  H2  1  0.02988251  0.71133929  0.10352954  1.0
  H  H3  1  0.97011749  0.21133929  0.39647046  1.0
  H  H4  1  0.81770220  0.15770570  0.84585264  1.0
  H  H5  1  0.18229780  0.65770570  0.65414736  1.0
  H  H6  1  0.18229780  0.84229430  0.15414736  1.0
  H  H7  1  0.81770220  0.34229430  0.34585264  1.0
  H  H8  1  0.88374081  0.14153031  0.03439374  1.0
  H  H9  1  0.11625919  0.64153031  0.46560626  1.0
  H  H10  1  0.11625919  0.85846969  0.96560626  1.0
  H  H11  1  0.88374081  0.35846969  0.53439374  1.0
  H  H12  1  0.51194913  0.54484116  0.79000058  1.0
  H  H13  1  0.48805087  0.04484116  0.70999942  1.0
  H  H14  1  0.48805087  0.45515884  0.20999942  1.0
  H  H15  1  0.51194913  0.95515884  0.29000058  1.0
  H  H16  1  0.62142093  0.39399881  0.67472705  1.0
  H  H17  1  0.37857907  0.89399881  0.82527295  1.0
  H  H18  1  0.37857907  0.60600119  0.32527295  1.0
  H  H19  1  0.62142093  0.10600119  0.17472705  1.0
  H  H20  1  0.59653149  0.63879604  0.62335488  1.0
  H  H21  1  0.40346851  0.13879604  0.87664512  1.0
  H  H22  1  0.40346851  0.36120396  0.37664512  1.0
  H  H23  1  0.59653149  0.86120396  0.12335488  1.0
  C  C24  1  0.86995268  0.23682845  0.93601438  1.0
  C  C25  1  0.13004732  0.73682845  0.56398562  1.0
  C  C26  1  0.13004732  0.76317155  0.06398562  1.0
  C  C27  1  0.86995268  0.26317155  0.43601438  1.0
  C  C28  1  0.60519986  0.53878726  0.71950020  1.0
  C  C29  1  0.39480014  0.03878726  0.78049980  1.0
  C  C30  1  0.39480014  0.46121274  0.28049980  1.0
  C  C31  1  0.60519986  0.96121274  0.21950020  1.0
  S  S32  1  0.76581272  0.43505796  0.00649467  1.0
  S  S33  1  0.23418728  0.93505796  0.49350533  1.0
  S  S34  1  0.23418728  0.56494204  0.99350533  1.0
  S  S35  1  0.76581272  0.06494204  0.50649467  1.0
  S  S36  1  0.75284638  0.62068190  0.82678819  1.0
  S  S37  1  0.24715362  0.12068190  0.67321181  1.0
  S  S38  1  0.24715362  0.37931810  0.17321181  1.0
  S  S39  1  0.75284638  0.87931810  0.32678819  1.0
