# generated using pymatgen
data_YCr4(CuO4)3
_symmetry_space_group_name_H-M   'P 1'
_cell_length_a   6.31558966
_cell_length_b   6.31558966
_cell_length_c   6.31558966
_cell_angle_alpha   109.47122063
_cell_angle_beta   109.47122063
_cell_angle_gamma   109.47122063
_symmetry_Int_Tables_number   1
_chemical_formula_structural   YCr4(CuO4)3
_chemical_formula_sum   'Y1 Cr4 Cu3 O12'
_cell_volume   193.91875974
_cell_formula_units_Z   1
loop_
 _symmetry_equiv_pos_site_id
 _symmetry_equiv_pos_as_xyz
  1  'x, y, z'
loop_
 _atom_site_type_symbol
 _atom_site_label
 _atom_site_symmetry_multiplicity
 _atom_site_fract_x
 _atom_site_fract_y
 _atom_site_fract_z
 _atom_site_occupancy
  Y  Y0  1  0.00000000  0.00000000  0.00000000  1.0
  Cr  Cr1  1  0.50000000  1.00000000  1.00000000  1.0
  Cr  Cr2  1  0.50000000  0.50000000  0.50000000  1.0
  Cr  Cr3  1  1.00000000  1.00000000  0.50000000  1.0
  Cr  Cr4  1  1.00000000  0.50000000  1.00000000  1.0
  Cu  Cu5  1  0.50000000  0.50000000  0.00000000  1.0
  Cu  Cu6  1  0.00000000  0.50000000  0.50000000  1.0
  Cu  Cu7  1  0.50000000  0.00000000  0.50000000  1.0
  O  O8  1  0.82095166  1.29753645  1.11848811  1.0
  O  O9  1  0.82095166  0.70246355  0.52341521  1.0
  O  O10  1  0.17904834  0.29753645  0.47658479  1.0
  O  O11  1  0.17904834  0.70246355  0.88151189  1.0
  O  O12  1  0.52341521  0.82095166  0.70246355  1.0
  O  O13  1  1.11848811  0.82095166  1.29753645  1.0
  O  O14  1  0.70246355  0.88151189  0.17904834  1.0
  O  O15  1  0.70246355  0.52341521  0.82095166  1.0
  O  O16  1  0.88151189  0.17904834  0.70246355  1.0
  O  O17  1  0.47658479  0.17904834  0.29753645  1.0
  O  O18  1  0.29753645  0.47658479  0.17904834  1.0
  O  O19  1  1.29753645  1.11848811  0.82095166  1.0
