# generated using pymatgen
data_Eu4Ir
_symmetry_space_group_name_H-M   'P 1'
_cell_length_a   8.16508854
_cell_length_b   8.16508854
_cell_length_c   8.16508854
_cell_angle_alpha   60.00000000
_cell_angle_beta   60.00000000
_cell_angle_gamma   60.00000000
_symmetry_Int_Tables_number   1
_chemical_formula_structural   Eu4Ir
_chemical_formula_sum   'Eu8 Ir2'
_cell_volume   384.91753710
_cell_formula_units_Z   2
loop_
 _symmetry_equiv_pos_site_id
 _symmetry_equiv_pos_as_xyz
  1  'x, y, z'
loop_
 _atom_site_type_symbol
 _atom_site_label
 _atom_site_symmetry_multiplicity
 _atom_site_fract_x
 _atom_site_fract_y
 _atom_site_fract_z
 _atom_site_occupancy
  Eu  Eu0  1  -0.11631383  0.88368617  0.34894148  1.0
  Eu  Eu1  1  0.88368617  -0.65105852  0.88368617  1.0
  Eu  Eu2  1  0.36631383  0.36631383  0.36631383  1.0
  Eu  Eu3  1  -0.09894148  0.36631383  0.36631383  1.0
  Eu  Eu4  1  -0.65105852  0.88368617  0.88368617  1.0
  Eu  Eu5  1  0.88368617  -0.11631383  0.88368617  1.0
  Eu  Eu6  1  0.36631383  -0.09894148  0.36631383  1.0
  Eu  Eu7  1  0.36631383  0.36631383  -0.09894148  1.0
  Ir  Ir8  1  0.50000000  0.50000000  -0.50000000  1.0
  Ir  Ir9  1  0.75000000  -0.25000000  0.75000000  1.0
