# generated using pymatgen
data_La11(In3Ge2)2
_symmetry_space_group_name_H-M   'P 1'
_cell_length_a   12.11907378
_cell_length_b   12.11907378
_cell_length_c   12.11907378
_cell_angle_alpha   119.24031676
_cell_angle_beta   119.24031676
_cell_angle_gamma   91.32092466
_symmetry_Int_Tables_number   1
_chemical_formula_structural   La11(In3Ge2)2
_chemical_formula_sum   'La22 In12 Ge8'
_cell_volume   1272.70225113
_cell_formula_units_Z   2
loop_
 _symmetry_equiv_pos_site_id
 _symmetry_equiv_pos_as_xyz
  1  'x, y, z'
loop_
 _atom_site_type_symbol
 _atom_site_label
 _atom_site_symmetry_multiplicity
 _atom_site_fract_x
 _atom_site_fract_y
 _atom_site_fract_z
 _atom_site_occupancy
  La  La0  1  0.43668301  0.68810800  0.74857502  1.0
  La  La1  1  1.06046702  1.31189200  0.74857502  1.0
  La  La2  1  0.93953298  0.68810800  0.25142498  1.0
  La  La3  1  0.56331699  0.31189200  0.25142498  1.0
  La  La4  1  0.68810800  0.43668301  0.74857502  1.0
  La  La5  1  1.31189200  1.06046702  0.74857502  1.0
  La  La6  1  0.68810800  0.93953298  0.25142498  1.0
  La  La7  1  0.31189200  0.56331699  0.25142498  1.0
  La  La8  1  1.55854746  0.90388355  0.65466391  1.0
  La  La9  1  0.75078036  1.09611645  0.65466391  1.0
  La  La10  1  1.24921964  0.90388355  0.34533609  1.0
  La  La11  1  1.44145254  1.09611645  1.34533609  1.0
  La  La12  1  0.90388355  1.55854746  0.65466391  1.0
  La  La13  1  1.09611645  0.75078036  0.65466391  1.0
  La  La14  1  0.90388355  1.24921964  0.34533609  1.0
  La  La15  1  1.09611645  1.44145254  1.34533609  1.0
  La  La16  1  0.66692273  0.66692273  0.33384545  1.0
  La  La17  1  1.33307727  0.66692273  1.00000000  1.0
  La  La18  1  0.66692273  1.33307727  1.00000000  1.0
  La  La19  1  0.33307727  0.33307727  0.66615455  1.0
  La  La20  1  0.83973552  0.83973552  -0.00000000  1.0
  La  La21  1  0.16026448  0.16026448  -0.00000000  1.0
  In  In22  1  0.62112713  0.62112713  0.58420192  1.0
  In  In23  1  0.96307479  0.96307479  0.58420192  1.0
  In  In24  1  1.03692521  0.62112713  1.00000000  1.0
  In  In25  1  1.37887287  0.96307479  1.00000000  1.0
  In  In26  1  0.62112713  1.03692521  1.00000000  1.0
  In  In27  1  0.96307479  1.37887287  1.00000000  1.0
  In  In28  1  1.03692521  1.03692521  0.41579808  1.0
  In  In29  1  0.37887287  0.37887287  0.41579808  1.0
  In  In30  1  0.87177705  0.87177705  0.74355410  1.0
  In  In31  1  1.12822295  0.87177705  1.00000000  1.0
  In  In32  1  0.87177705  1.12822295  1.00000000  1.0
  In  In33  1  0.12822295  0.12822295  0.25644590  1.0
  Ge  Ge34  1  0.50000000  0.84411468  0.34411468  1.0
  Ge  Ge35  1  0.84411468  0.50000000  0.34411468  1.0
  Ge  Ge36  1  0.15588532  0.50000000  0.65588532  1.0
  Ge  Ge37  1  0.50000000  0.15588532  0.65588532  1.0
  Ge  Ge38  1  0.62277321  0.62277321  0.00000000  1.0
  Ge  Ge39  1  0.37722679  0.37722679  0.00000000  1.0
  Ge  Ge40  1  1.25000000  0.75000000  0.50000000  1.0
  Ge  Ge41  1  0.75000000  1.25000000  0.50000000  1.0
