# generated using pymatgen
data_LuMnO3
_symmetry_space_group_name_H-M   'P 1'
_cell_length_a   6.09527660
_cell_length_b   6.09527660
_cell_length_c   11.44197065
_cell_angle_alpha   90.00000000
_cell_angle_beta   90.00000000
_cell_angle_gamma   120.00000000
_symmetry_Int_Tables_number   1
_chemical_formula_structural   LuMnO3
_chemical_formula_sum   'Lu6 Mn6 O18'
_cell_volume   368.14448477
_cell_formula_units_Z   6
loop_
 _symmetry_equiv_pos_site_id
 _symmetry_equiv_pos_as_xyz
  1  'x, y, z'
loop_
 _atom_site_type_symbol
 _atom_site_label
 _atom_site_symmetry_multiplicity
 _atom_site_fract_x
 _atom_site_fract_y
 _atom_site_fract_z
 _atom_site_occupancy
  Lu  Lu0  1  0.33333333  0.66666667  0.04242810  1.0
  Lu  Lu1  1  0.33333333  0.66666667  0.54242810  1.0
  Lu  Lu2  1  0.66666667  0.33333333  0.04242810  1.0
  Lu  Lu3  1  0.66666667  0.33333333  0.54242810  1.0
  Lu  Lu4  1  0.00000000  0.00000000  -0.00368707  1.0
  Lu  Lu5  1  0.00000000  0.00000000  0.49631293  1.0
  Mn  Mn6  1  0.66637952  0.66637952  0.27259638  1.0
  Mn  Mn7  1  0.66637952  0.00000000  0.77259638  1.0
  Mn  Mn8  1  -0.00000000  0.66637952  0.77259638  1.0
  Mn  Mn9  1  -0.00000000  0.33362048  0.27259638  1.0
  Mn  Mn10  1  0.33362048  0.33362048  0.77259638  1.0
  Mn  Mn11  1  0.33362048  0.00000000  0.27259638  1.0
  O  O12  1  0.69475944  0.69475944  0.10802432  1.0
  O  O13  1  0.69475944  0.00000000  0.60802432  1.0
  O  O14  1  0.00000000  0.69475944  0.60802432  1.0
  O  O15  1  -0.00000000  0.30524056  0.10802432  1.0
  O  O16  1  0.30524056  0.30524056  0.60802432  1.0
  O  O17  1  0.30524056  0.00000000  0.10802432  1.0
  O  O18  1  0.63892278  0.63892278  0.43662211  1.0
  O  O19  1  0.63892278  0.00000000  0.93662211  1.0
  O  O20  1  0.00000000  0.63892278  0.93662211  1.0
  O  O21  1  -0.00000000  0.36107722  0.43662211  1.0
  O  O22  1  0.36107722  0.36107722  0.93662211  1.0
  O  O23  1  0.36107722  0.00000000  0.43662211  1.0
  O  O24  1  0.33333333  0.66666667  0.25190044  1.0
  O  O25  1  0.33333333  0.66666667  0.75190044  1.0
  O  O26  1  0.66666667  0.33333333  0.25190044  1.0
  O  O27  1  0.66666667  0.33333333  0.75190044  1.0
  O  O28  1  0.00000000  0.00000000  0.29710155  1.0
  O  O29  1  0.00000000  0.00000000  0.79710155  1.0
