# generated using pymatgen
data_La(BO2)3
_symmetry_space_group_name_H-M   'P 1'
_cell_length_a   4.27583105
_cell_length_b   11.82404739
_cell_length_c   7.35985789
_cell_angle_alpha   90.00000000
_cell_angle_beta   91.21597404
_cell_angle_gamma   90.00000000
_symmetry_Int_Tables_number   1
_chemical_formula_structural   La(BO2)3
_chemical_formula_sum   'La4 B12 O24'
_cell_volume   372.01317057
_cell_formula_units_Z   4
loop_
 _symmetry_equiv_pos_site_id
 _symmetry_equiv_pos_as_xyz
  1  'x, y, z'
loop_
 _atom_site_type_symbol
 _atom_site_label
 _atom_site_symmetry_multiplicity
 _atom_site_fract_x
 _atom_site_fract_y
 _atom_site_fract_z
 _atom_site_occupancy
  La  La0  1  0.28276138  0.12290314  0.11952911  1.0
  La  La1  1  0.28276138  0.37709686  0.61952911  1.0
  La  La2  1  0.71723862  0.62290314  0.38047089  1.0
  La  La3  1  0.71723862  0.87709686  0.88047089  1.0
  B  B4  1  0.82233723  0.33379115  0.28842109  1.0
  B  B5  1  0.82233723  0.16620885  0.78842109  1.0
  B  B6  1  0.17766277  0.83379115  0.21157891  1.0
  B  B7  1  0.17766277  0.66620885  0.71157891  1.0
  B  B8  1  0.81009653  0.12183406  0.42747019  1.0
  B  B9  1  0.81009653  0.37816594  0.92747019  1.0
  B  B10  1  0.18990347  0.62183406  0.07252981  1.0
  B  B11  1  0.18990347  0.87816594  0.57252981  1.0
  B  B12  1  0.69679422  0.90624341  0.37435222  1.0
  B  B13  1  0.69679422  0.59375659  0.87435222  1.0
  B  B14  1  0.30320578  0.40624341  0.12564778  1.0
  B  B15  1  0.30320578  0.09375659  0.62564778  1.0
  O  O16  1  0.83450381  0.83258871  0.23672859  1.0
  O  O17  1  0.83450381  0.66741129  0.73672859  1.0
  O  O18  1  0.16549619  0.33258871  0.26327141  1.0
  O  O19  1  0.16549619  0.16741129  0.76327141  1.0
  O  O20  1  0.74935723  0.40919850  0.43667236  1.0
  O  O21  1  0.74935723  0.09080150  0.93667236  1.0
  O  O22  1  0.25064277  0.90919850  0.06332764  1.0
  O  O23  1  0.25064277  0.59080150  0.56332764  1.0
  O  O24  1  0.72058846  0.21549424  0.30704613  1.0
  O  O25  1  0.72058846  0.28450576  0.80704613  1.0
  O  O26  1  0.27941154  0.71549424  0.19295387  1.0
  O  O27  1  0.27941154  0.78450576  0.69295387  1.0
  O  O28  1  0.70393470  0.02413428  0.31970982  1.0
  O  O29  1  0.70393470  0.47586572  0.81970982  1.0
  O  O30  1  0.29606530  0.52413428  0.18029018  1.0
  O  O31  1  0.29606530  0.97586572  0.68029018  1.0
  O  O32  1  0.65093855  0.37174737  0.11015038  1.0
  O  O33  1  0.65093855  0.12825263  0.61015038  1.0
  O  O34  1  0.34906145  0.87174737  0.38984962  1.0
  O  O35  1  0.34906145  0.62825263  0.88984962  1.0
  O  O36  1  0.14853300  0.12009825  0.45356668  1.0
  O  O37  1  0.14853300  0.37990175  0.95356668  1.0
  O  O38  1  0.85146700  0.62009825  0.04643332  1.0
  O  O39  1  0.85146700  0.87990175  0.54643332  1.0
