# generated using pymatgen
data_InCu(PSe3)2
_symmetry_space_group_name_H-M   'P 1'
_cell_length_a   6.44790621
_cell_length_b   6.44790621
_cell_length_c   14.59476676
_cell_angle_alpha   90.00000000
_cell_angle_beta   90.00000000
_cell_angle_gamma   120.00000000
_symmetry_Int_Tables_number   1
_chemical_formula_structural   InCu(PSe3)2
_chemical_formula_sum   'In2 Cu2 P4 Se12'
_cell_volume   525.49091725
_cell_formula_units_Z   2
loop_
 _symmetry_equiv_pos_site_id
 _symmetry_equiv_pos_as_xyz
  1  'x, y, z'
loop_
 _atom_site_type_symbol
 _atom_site_label
 _atom_site_symmetry_multiplicity
 _atom_site_fract_x
 _atom_site_fract_y
 _atom_site_fract_z
 _atom_site_occupancy
  In  In0  1  0.00000000  0.00000000  0.25000000  1.0
  In  In1  1  0.00000000  0.00000000  0.75000000  1.0
  Cu  Cu2  1  0.66666667  0.33333333  0.25000000  1.0
  Cu  Cu3  1  0.33333333  0.66666667  0.75000000  1.0
  P  P4  1  0.33333333  0.66666667  0.17229445  1.0
  P  P5  1  0.33333333  0.66666667  0.32770555  1.0
  P  P6  1  0.66666667  0.33333333  0.67229445  1.0
  P  P7  1  0.66666667  0.33333333  0.82770555  1.0
  Se  Se8  1  0.35046640  1.00767970  0.13263421  1.0
  Se  Se9  1  0.35046640  0.34278670  0.36736579  1.0
  Se  Se10  1  1.00767970  0.35046640  0.63263421  1.0
  Se  Se11  1  1.00767970  0.65721330  0.86736579  1.0
  Se  Se12  1  0.65721330  1.00767970  0.36736579  1.0
  Se  Se13  1  0.65721330  0.64953360  0.13263421  1.0
  Se  Se14  1  -0.00767970  0.64953360  0.36736579  1.0
  Se  Se15  1  -0.00767970  0.34278670  0.13263421  1.0
  Se  Se16  1  0.64953360  0.65721330  0.63263421  1.0
  Se  Se17  1  0.64953360  -0.00767970  0.86736579  1.0
  Se  Se18  1  0.34278670  0.35046640  0.86736579  1.0
  Se  Se19  1  0.34278670  -0.00767970  0.63263421  1.0
