# generated using pymatgen
data_CsFe2P5O16
_symmetry_space_group_name_H-M   'P 1'
_cell_length_a   7.65412628
_cell_length_b   9.56363253
_cell_length_c   10.49888224
_cell_angle_alpha   90.00000000
_cell_angle_beta   111.57696972
_cell_angle_gamma   90.00000000
_symmetry_Int_Tables_number   1
_chemical_formula_structural   CsFe2P5O16
_chemical_formula_sum   'Cs2 Fe4 P10 O32'
_cell_volume   714.67600652
_cell_formula_units_Z   2
loop_
 _symmetry_equiv_pos_site_id
 _symmetry_equiv_pos_as_xyz
  1  'x, y, z'
loop_
 _atom_site_type_symbol
 _atom_site_label
 _atom_site_symmetry_multiplicity
 _atom_site_fract_x
 _atom_site_fract_y
 _atom_site_fract_z
 _atom_site_occupancy
  Fe  Fe0  1  0.76063791  0.64192895  0.40418564  1.0
  Fe  Fe1  1  0.76063791  0.35807105  0.90418564  1.0
  Fe  Fe2  1  0.31870520  0.86721303  0.01175115  1.0
  Fe  Fe3  1  0.31870520  0.13278697  0.51175115  1.0
  Cs  Cs4  1  0.37189978  0.30032676  0.10962910  1.0
  Cs  Cs5  1  0.37189978  0.69967324  0.60962910  1.0
  O  O6  1  0.99224368  0.51712992  0.47343037  1.0
  O  O7  1  0.99224368  0.48287008  0.97343037  1.0
  O  O8  1  0.90283187  0.80332208  0.35276488  1.0
  O  O9  1  0.90283187  0.19667792  0.85276488  1.0
  O  O10  1  0.88005098  0.71550940  0.85194246  1.0
  O  O11  1  0.88005098  0.28449060  0.35194246  1.0
  O  O12  1  0.87559176  0.68139207  0.08690015  1.0
  O  O13  1  0.87559176  0.31860793  0.58690015  1.0
  O  O14  1  0.87403690  0.95285137  0.74356188  1.0
  O  O15  1  0.87403690  0.04714863  0.24356188  1.0
  O  O16  1  0.86415264  0.26581654  0.10685199  1.0
  O  O17  1  0.86415264  0.73418346  0.60685199  1.0
  O  O18  1  0.71516931  0.99652371  0.41086757  1.0
  O  O19  1  0.71516931  0.00347629  0.91086757  1.0
  O  O20  1  0.19141043  0.70121991  0.06480724  1.0
  O  O21  1  0.19141043  0.29878009  0.56480724  1.0
  O  O22  1  0.17064771  0.79803605  0.80886318  1.0
  O  O23  1  0.17064771  0.20196395  0.30886318  1.0
  O  O24  1  0.07156168  0.98215850  0.99678945  1.0
  O  O25  1  0.07156168  0.01784150  0.49678945  1.0
  O  O26  1  0.53521428  0.75039495  0.02281771  1.0
  O  O27  1  0.53521428  0.24960505  0.52281771  1.0
  O  O28  1  0.54020518  0.76025081  0.36829686  1.0
  O  O29  1  0.54020518  0.23974919  0.86829686  1.0
  O  O30  1  0.42862243  0.95837531  0.19377964  1.0
  O  O31  1  0.42862243  0.04162469  0.69377964  1.0
  O  O32  1  0.61741003  0.49382642  0.46479295  1.0
  O  O33  1  0.61741003  0.50617358  0.96479295  1.0
  O  O34  1  0.68423495  0.57028261  0.21377538  1.0
  O  O35  1  0.68423495  0.42971739  0.71377538  1.0
  O  O36  1  0.39906857  0.97272786  0.42981358  1.0
  O  O37  1  0.39906857  0.02727214  0.92981358  1.0
  P  P38  1  -0.00302201  0.35980821  0.49741348  1.0
  P  P39  1  -0.00302201  0.64019179  -0.00258652  1.0
  P  P40  1  0.95783069  0.79602791  0.74616750  1.0
  P  P41  1  0.95783069  0.20397209  0.24616750  1.0
  P  P42  1  0.90317903  0.95855495  0.38302439  1.0
  P  P43  1  0.90317903  0.04144505  0.88302439  1.0
  P  P44  1  0.66563721  0.62431633  0.07159959  1.0
  P  P45  1  0.66563721  0.37568367  0.57159959  1.0
  P  P46  1  0.50967979  0.91829054  0.34547386  1.0
  P  P47  1  0.50967979  0.08170946  0.84547386  1.0
