# generated using pymatgen
data_Zn2MoSeO7
_symmetry_space_group_name_H-M   'P 1'
_cell_length_a   5.18805789
_cell_length_b   8.64345863
_cell_length_c   7.40045313
_cell_angle_alpha   90.00000000
_cell_angle_beta   99.31085865
_cell_angle_gamma   90.00000000
_symmetry_Int_Tables_number   1
_chemical_formula_structural   Zn2MoSeO7
_chemical_formula_sum   'Zn4 Mo2 Se2 O14'
_cell_volume   327.48458220
_cell_formula_units_Z   2
loop_
 _symmetry_equiv_pos_site_id
 _symmetry_equiv_pos_as_xyz
  1  'x, y, z'
loop_
 _atom_site_type_symbol
 _atom_site_label
 _atom_site_symmetry_multiplicity
 _atom_site_fract_x
 _atom_site_fract_y
 _atom_site_fract_z
 _atom_site_occupancy
  Zn  Zn0  1  0.93142215  0.02339546  0.47098181  1.0
  Zn  Zn1  1  0.06857785  0.52339546  0.52901819  1.0
  Zn  Zn2  1  0.54230277  0.19714673  0.77445878  1.0
  Zn  Zn3  1  0.45769723  0.69714673  0.22554122  1.0
  Mo  Mo4  1  0.92134429  0.53247253  0.98286537  1.0
  Mo  Mo5  1  0.07865571  0.03247253  0.01713463  1.0
  Se  Se6  1  0.53643546  0.32412784  0.39149917  1.0
  Se  Se7  1  0.46356454  0.82412784  0.60850083  1.0
  O  O8  1  0.98803321  0.09320871  0.22830758  1.0
  O  O9  1  0.01196679  0.59320871  0.77169242  1.0
  O  O10  1  0.79538864  0.01343050  0.84381978  1.0
  O  O11  1  0.20461136  0.51343050  0.15618022  1.0
  O  O12  1  0.74921127  0.21301247  0.54663196  1.0
  O  O13  1  0.25078873  0.71301247  0.45336804  1.0
  O  O14  1  0.75842281  0.35351462  0.94507896  1.0
  O  O15  1  0.24157719  0.85351462  0.05492104  1.0
  O  O16  1  0.33688071  0.35753394  0.55694982  1.0
  O  O17  1  0.66311929  0.85753394  0.44305018  1.0
  O  O18  1  0.28615502  -0.00635957  0.61102947  1.0
  O  O19  1  0.71384498  0.49364043  0.38897053  1.0
  O  O20  1  0.29164279  0.17321676  0.94707899  1.0
  O  O21  1  0.70835721  0.67321676  0.05292101  1.0
