# generated using pymatgen
data_K4Ba(GeO3)3
_symmetry_space_group_name_H-M   'P 1'
_cell_length_a   7.56114705
_cell_length_b   7.56114705
_cell_length_c   11.54619544
_cell_angle_alpha   89.61958096
_cell_angle_beta   90.38041904
_cell_angle_gamma   68.34472729
_symmetry_Int_Tables_number   1
_chemical_formula_structural   K4Ba(GeO3)3
_chemical_formula_sum   'K8 Ba2 Ge6 O18'
_cell_volume   613.47430361
_cell_formula_units_Z   2
loop_
 _symmetry_equiv_pos_site_id
 _symmetry_equiv_pos_as_xyz
  1  'x, y, z'
loop_
 _atom_site_type_symbol
 _atom_site_label
 _atom_site_symmetry_multiplicity
 _atom_site_fract_x
 _atom_site_fract_y
 _atom_site_fract_z
 _atom_site_occupancy
  K  K0  1  1.31298257  0.42122477  0.24519601  1.0
  K  K1  1  1.42122477  0.31298257  0.75480399  1.0
  K  K2  1  0.29002322  -0.15251558  0.74966237  1.0
  K  K3  1  0.84748442  -0.70997678  0.25033763  1.0
  K  K4  1  1.04765175  0.04765175  0.50000000  1.0
  K  K5  1  0.56983402  -0.43016598  0.50000000  1.0
  K  K6  1  -0.00292684  -0.00292684  0.00000000  1.0
  K  K7  1  0.59127366  -0.40872634  0.00000000  1.0
  Ba  Ba8  1  0.79916021  -0.18007253  0.72945386  1.0
  Ba  Ba9  1  0.81992747  -0.20083979  0.27054614  1.0
  Ge  Ge10  1  1.09111602  0.48498333  0.97642058  1.0
  Ge  Ge11  1  1.48498333  0.09111602  0.02357942  1.0
  Ge  Ge12  1  1.10318177  0.49001051  0.53381236  1.0
  Ge  Ge13  1  1.49001051  0.10318177  0.46618764  1.0
  Ge  Ge14  1  0.89256213  -0.66809915  0.75775598  1.0
  Ge  Ge15  1  0.33190085  -0.10743787  0.24224402  1.0
  O  O16  1  0.89765621  -0.89717189  0.74029078  1.0
  O  O17  1  0.10282811  -0.10234379  0.25970922  1.0
  O  O18  1  1.07046668  0.35450723  0.65920710  1.0
  O  O19  1  1.35450723  0.07046668  0.34079290  1.0
  O  O20  1  0.98991388  -0.66994638  0.90305271  1.0
  O  O21  1  0.33005362  -0.01008612  0.09694729  1.0
  O  O22  1  0.94855624  -0.50972021  0.42111414  1.0
  O  O23  1  0.49027979  -0.05144376  0.57888586  1.0
  O  O24  1  1.09011834  0.67108849  0.88635211  1.0
  O  O25  1  1.67108849  0.09011834  0.11364789  1.0
  O  O26  1  1.10573996  0.70528375  0.58375501  1.0
  O  O27  1  1.70528375  0.10573996  0.41624499  1.0
  O  O28  1  0.67140321  -0.47976110  0.74557191  1.0
  O  O29  1  0.52023890  -0.32859679  0.25442809  1.0
  O  O30  1  0.53434313  -0.02594282  0.89073491  1.0
  O  O31  1  0.97405718  -0.46565687  0.10926509  1.0
  O  O32  1  1.35237825  0.35237825  0.50000000  1.0
  O  O33  1  1.34599716  0.34599716  0.00000000  1.0
