# generated using pymatgen
data_Sr2GeO4
_symmetry_space_group_name_H-M   'P 1'
_cell_length_a   12.13415717
_cell_length_b   7.31803421
_cell_length_c   5.47070215
_cell_angle_alpha   90.00000000
_cell_angle_beta   90.00000000
_cell_angle_gamma   90.00000000
_symmetry_Int_Tables_number   1
_chemical_formula_structural   Sr2GeO4
_chemical_formula_sum   'Sr8 Ge4 O16'
_cell_volume   485.78837909
_cell_formula_units_Z   4
loop_
 _symmetry_equiv_pos_site_id
 _symmetry_equiv_pos_as_xyz
  1  'x, y, z'
loop_
 _atom_site_type_symbol
 _atom_site_label
 _atom_site_symmetry_multiplicity
 _atom_site_fract_x
 _atom_site_fract_y
 _atom_site_fract_z
 _atom_site_occupancy
  Sr  Sr0  1  0.78185182  0.25000000  0.50879343  1.0
  Sr  Sr1  1  0.28185182  0.25000000  0.99120657  1.0
  Sr  Sr2  1  0.21814818  0.75000000  0.49120657  1.0
  Sr  Sr3  1  0.71814818  0.75000000  0.00879343  1.0
  Sr  Sr4  1  0.00000000  0.50000000  0.00000000  1.0
  Sr  Sr5  1  0.00000000  0.00000000  0.00000000  1.0
  Sr  Sr6  1  0.50000000  0.50000000  0.50000000  1.0
  Sr  Sr7  1  0.50000000  0.00000000  0.50000000  1.0
  Ge  Ge8  1  0.59707717  0.25000000  0.06972779  1.0
  Ge  Ge9  1  0.09707717  0.25000000  0.43027221  1.0
  Ge  Ge10  1  0.40292283  0.75000000  0.93027221  1.0
  Ge  Ge11  1  0.90292283  0.75000000  0.56972779  1.0
  O  O12  1  0.66317581  0.44473199  0.20580614  1.0
  O  O13  1  0.66317581  0.05526801  0.20580614  1.0
  O  O14  1  0.16317581  0.44473199  0.29419386  1.0
  O  O15  1  0.16317581  0.05526801  0.29419386  1.0
  O  O16  1  0.33682419  0.94473199  0.79419386  1.0
  O  O17  1  0.33682419  0.55526801  0.79419386  1.0
  O  O18  1  0.83682419  0.94473199  0.70580614  1.0
  O  O19  1  0.83682419  0.55526801  0.70580614  1.0
  O  O20  1  0.96069269  0.25000000  0.29627915  1.0
  O  O21  1  0.46069269  0.25000000  0.20372085  1.0
  O  O22  1  0.03930731  0.75000000  0.70372085  1.0
  O  O23  1  0.53930731  0.75000000  0.79627915  1.0
  O  O24  1  0.59306567  0.25000000  0.74564096  1.0
  O  O25  1  0.09306567  0.25000000  0.75435904  1.0
  O  O26  1  0.40693433  0.75000000  0.25435904  1.0
  O  O27  1  0.90693433  0.75000000  0.24564096  1.0
