# generated using pymatgen
data_Cs2CrH4F10
_symmetry_space_group_name_H-M   'P 1'
_cell_length_a   7.77825126
_cell_length_b   7.14069135
_cell_length_c   11.07053857
_cell_angle_alpha   90.00000000
_cell_angle_beta   115.60890783
_cell_angle_gamma   90.00000000
_symmetry_Int_Tables_number   1
_chemical_formula_structural   Cs2CrH4F10
_chemical_formula_sum   'Cs4 Cr2 H8 F20'
_cell_volume   554.47825193
_cell_formula_units_Z   2
loop_
 _symmetry_equiv_pos_site_id
 _symmetry_equiv_pos_as_xyz
  1  'x, y, z'
loop_
 _atom_site_type_symbol
 _atom_site_label
 _atom_site_symmetry_multiplicity
 _atom_site_fract_x
 _atom_site_fract_y
 _atom_site_fract_z
 _atom_site_occupancy
  Cs  Cs0  1  0.35748614  0.27455051  0.33492496  1.0
  Cs  Cs1  1  0.35748614  0.22544949  0.83492496  1.0
  Cs  Cs2  1  0.64251386  0.77455051  0.16507504  1.0
  Cs  Cs3  1  0.64251386  0.72544949  0.66507504  1.0
  Cr  Cr4  1  0.00000000  0.50000000  0.50000000  1.0
  Cr  Cr5  1  0.00000000  0.00000000  0.00000000  1.0
  H  H6  1  0.83143038  0.38247597  0.01501592  1.0
  H  H7  1  0.83143038  0.11752403  0.51501592  1.0
  H  H8  1  0.16856962  0.88247597  0.48498408  1.0
  H  H9  1  0.16856962  0.61752403  0.98498408  1.0
  H  H10  1  0.77715027  0.28446813  0.25287265  1.0
  H  H11  1  0.77715027  0.21553187  0.75287265  1.0
  H  H12  1  0.22284973  0.78446813  0.24712735  1.0
  H  H13  1  0.22284973  0.71553187  0.74712735  1.0
  F  F14  1  0.98381840  0.23380954  0.06655740  1.0
  F  F15  1  0.98381840  0.26619046  0.56655740  1.0
  F  F16  1  0.01618160  0.73380954  0.43344260  1.0
  F  F17  1  0.01618160  0.76619046  0.93344260  1.0
  F  F18  1  0.94821209  0.39321839  0.33096821  1.0
  F  F19  1  0.94821209  0.10678161  0.83096821  1.0
  F  F20  1  0.05178791  0.89321839  0.16903179  1.0
  F  F21  1  0.05178791  0.60678161  0.66903179  1.0
  F  F22  1  0.74764954  0.96646721  0.94639535  1.0
  F  F23  1  0.74764954  0.53353279  0.44639535  1.0
  F  F24  1  0.25235046  0.46646721  0.55360465  1.0
  F  F25  1  0.25235046  0.03353279  0.05360465  1.0
  F  F26  1  0.72834536  0.02547912  0.48236956  1.0
  F  F27  1  0.72834536  0.47452088  0.98236956  1.0
  F  F28  1  0.27165464  0.52547912  0.01763044  1.0
  F  F29  1  0.27165464  0.97452088  0.51763044  1.0
  F  F30  1  0.65698873  0.21683604  0.19981115  1.0
  F  F31  1  0.65698873  0.28316396  0.69981115  1.0
  F  F32  1  0.34301127  0.71683604  0.30018885  1.0
  F  F33  1  0.34301127  0.78316396  0.80018885  1.0
