# generated using pymatgen
data_K2Hf2O5
_symmetry_space_group_name_H-M   'P 1'
_cell_length_a   5.85520599
_cell_length_b   10.74341488
_cell_length_c   8.80849743
_cell_angle_alpha   90.00000000
_cell_angle_beta   90.00000000
_cell_angle_gamma   90.00000000
_symmetry_Int_Tables_number   1
_chemical_formula_structural   K2Hf2O5
_chemical_formula_sum   'K8 Hf8 O20'
_cell_volume   554.09771286
_cell_formula_units_Z   4
loop_
 _symmetry_equiv_pos_site_id
 _symmetry_equiv_pos_as_xyz
  1  'x, y, z'
loop_
 _atom_site_type_symbol
 _atom_site_label
 _atom_site_symmetry_multiplicity
 _atom_site_fract_x
 _atom_site_fract_y
 _atom_site_fract_z
 _atom_site_occupancy
  K  K0  1  0.56651812  0.33382016  0.07745313  1.0
  K  K1  1  0.56651812  0.16617984  0.42254687  1.0
  K  K2  1  0.06651812  0.33382016  0.92254687  1.0
  K  K3  1  0.06651812  0.16617984  0.57745313  1.0
  K  K4  1  0.43348188  0.83382016  0.57745313  1.0
  K  K5  1  0.43348188  0.66617984  0.92254687  1.0
  K  K6  1  0.93348188  0.83382016  0.42254687  1.0
  K  K7  1  0.93348188  0.66617984  0.07745313  1.0
  Hf  Hf8  1  0.53219760  0.42353748  0.65871512  1.0
  Hf  Hf9  1  0.53219760  0.07646252  0.84128488  1.0
  Hf  Hf10  1  0.03219760  0.42353748  0.34128488  1.0
  Hf  Hf11  1  0.03219760  0.07646252  0.15871512  1.0
  Hf  Hf12  1  0.46780240  0.92353748  0.15871512  1.0
  Hf  Hf13  1  0.46780240  0.57646252  0.34128488  1.0
  Hf  Hf14  1  0.96780240  0.92353748  0.84128488  1.0
  Hf  Hf15  1  0.96780240  0.57646252  0.65871512  1.0
  O  O16  1  0.87237104  0.39307966  0.54964414  1.0
  O  O17  1  0.87237104  0.10692034  0.95035586  1.0
  O  O18  1  0.37237104  0.39307966  0.45035586  1.0
  O  O19  1  0.37237104  0.10692034  0.04964414  1.0
  O  O20  1  0.12762896  0.89307966  0.04964414  1.0
  O  O21  1  0.12762896  0.60692034  0.45035586  1.0
  O  O22  1  0.62762896  0.89307966  0.95035586  1.0
  O  O23  1  0.62762896  0.60692034  0.54964414  1.0
  O  O24  1  0.49492438  0.25000000  0.75000000  1.0
  O  O25  1  0.99492438  0.25000000  0.25000000  1.0
  O  O26  1  0.50507562  0.75000000  0.25000000  1.0
  O  O27  1  0.00507562  0.75000000  0.75000000  1.0
  O  O28  1  0.75000000  0.50000000  0.82131698  1.0
  O  O29  1  0.75000000  0.00000000  0.67868302  1.0
  O  O30  1  0.25000000  0.50000000  0.17868302  1.0
  O  O31  1  0.25000000  0.00000000  0.32131698  1.0
  O  O32  1  0.75000000  0.50000000  0.24777017  1.0
  O  O33  1  0.75000000  0.00000000  0.25222983  1.0
  O  O34  1  0.25000000  0.50000000  0.75222983  1.0
  O  O35  1  0.25000000  0.00000000  0.74777017  1.0
