# generated using pymatgen
data_Cs4ZnO3
_symmetry_space_group_name_H-M   'P 1'
_cell_length_a   7.26877047
_cell_length_b   19.14470958
_cell_length_c   7.14538232
_cell_angle_alpha   90.00000000
_cell_angle_beta   116.47887639
_cell_angle_gamma   90.00000000
_symmetry_Int_Tables_number   1
_chemical_formula_structural   Cs4ZnO3
_chemical_formula_sum   'Cs16 Zn4 O12'
_cell_volume   890.03315603
_cell_formula_units_Z   4
loop_
 _symmetry_equiv_pos_site_id
 _symmetry_equiv_pos_as_xyz
  1  'x, y, z'
loop_
 _atom_site_type_symbol
 _atom_site_label
 _atom_site_symmetry_multiplicity
 _atom_site_fract_x
 _atom_site_fract_y
 _atom_site_fract_z
 _atom_site_occupancy
  Cs  Cs0  1  0.84817538  0.42241734  0.84749692  1.0
  Cs  Cs1  1  0.84817538  0.07758266  0.34749692  1.0
  Cs  Cs2  1  0.15182462  0.92241734  0.65250308  1.0
  Cs  Cs3  1  0.15182462  0.57758266  0.15250308  1.0
  Cs  Cs4  1  0.78538741  0.80731942  0.83010679  1.0
  Cs  Cs5  1  0.78538741  0.69268058  0.33010679  1.0
  Cs  Cs6  1  0.21461259  0.30731942  0.66989321  1.0
  Cs  Cs7  1  0.21461259  0.19268058  0.16989321  1.0
  Cs  Cs8  1  0.71182693  0.99996841  0.78892163  1.0
  Cs  Cs9  1  0.71182693  0.50003159  0.28892163  1.0
  Cs  Cs10  1  0.28817307  0.49996841  0.71107837  1.0
  Cs  Cs11  1  0.28817307  0.00003159  0.21107837  1.0
  Cs  Cs12  1  0.33521402  0.69373141  0.78064272  1.0
  Cs  Cs13  1  0.33521402  0.80626859  0.28064272  1.0
  Cs  Cs14  1  0.66478598  0.19373141  0.71935728  1.0
  Cs  Cs15  1  0.66478598  0.30626859  0.21935728  1.0
  Zn  Zn16  1  0.71486416  0.61633774  0.71395633  1.0
  Zn  Zn17  1  0.71486416  0.88366226  0.21395633  1.0
  Zn  Zn18  1  0.28513584  0.11633774  0.78604367  1.0
  Zn  Zn19  1  0.28513584  0.38366226  0.28604367  1.0
  O  O20  1  0.96163999  0.59212764  0.69141769  1.0
  O  O21  1  0.96163999  0.90787236  0.19141769  1.0
  O  O22  1  0.03836001  0.09212764  0.80858231  1.0
  O  O23  1  0.03836001  0.40787236  0.30858231  1.0
  O  O24  1  0.69190060  0.59843914  0.96866966  1.0
  O  O25  1  0.69190060  0.90156086  0.46866966  1.0
  O  O26  1  0.30809940  0.09843914  0.53133034  1.0
  O  O27  1  0.30809940  0.40156086  0.03133034  1.0
  O  O28  1  0.49497888  0.83465819  0.98616635  1.0
  O  O29  1  0.49497888  0.66534181  0.48616635  1.0
  O  O30  1  0.50502112  0.33465819  0.51383365  1.0
  O  O31  1  0.50502112  0.16534181  0.01383365  1.0
