# generated using pymatgen
data_La3Os
_symmetry_space_group_name_H-M   'P 1'
_cell_length_a   7.49366267
_cell_length_b   10.08269748
_cell_length_c   6.63922462
_cell_angle_alpha   90.00000000
_cell_angle_beta   90.00000000
_cell_angle_gamma   90.00000000
_symmetry_Int_Tables_number   1
_chemical_formula_structural   La3Os
_chemical_formula_sum   'La12 Os4'
_cell_volume   501.63547065
_cell_formula_units_Z   4
loop_
 _symmetry_equiv_pos_site_id
 _symmetry_equiv_pos_as_xyz
  1  'x, y, z'
loop_
 _atom_site_type_symbol
 _atom_site_label
 _atom_site_symmetry_multiplicity
 _atom_site_fract_x
 _atom_site_fract_y
 _atom_site_fract_z
 _atom_site_occupancy
  La  La0  1  0.32973677  0.92976667  0.67424097  1.0
  La  La1  1  0.32973677  0.57023333  0.67424097  1.0
  La  La2  1  0.82973677  0.92976667  0.82575903  1.0
  La  La3  1  0.82973677  0.57023333  0.82575903  1.0
  La  La4  1  0.67026323  0.42976667  0.32575903  1.0
  La  La5  1  0.67026323  0.07023333  0.32575903  1.0
  La  La6  1  0.17026323  0.42976667  0.17424097  1.0
  La  La7  1  0.17026323  0.07023333  0.17424097  1.0
  La  La8  1  0.44929146  0.75000000  0.15195106  1.0
  La  La9  1  0.94929146  0.75000000  0.34804894  1.0
  La  La10  1  0.55070854  0.25000000  0.84804894  1.0
  La  La11  1  0.05070854  0.25000000  0.65195106  1.0
  Os  Os12  1  0.11496722  0.75000000  0.94602460  1.0
  Os  Os13  1  0.61496722  0.75000000  0.55397540  1.0
  Os  Os14  1  0.88503278  0.25000000  0.05397540  1.0
  Os  Os15  1  0.38503278  0.25000000  0.44602460  1.0
