# generated using pymatgen
data_K3Bi2(AsO4)3
_symmetry_space_group_name_H-M   'P 1'
_cell_length_a   10.04033220
_cell_length_b   10.04033220
_cell_length_c   7.21642861
_cell_angle_alpha   72.46170106
_cell_angle_beta   107.53829894
_cell_angle_gamma   90.74305840
_symmetry_Int_Tables_number   1
_chemical_formula_structural   K3Bi2(AsO4)3
_chemical_formula_sum   'K6 Bi4 As6 O24'
_cell_volume   658.98681442
_cell_formula_units_Z   2
loop_
 _symmetry_equiv_pos_site_id
 _symmetry_equiv_pos_as_xyz
  1  'x, y, z'
loop_
 _atom_site_type_symbol
 _atom_site_label
 _atom_site_symmetry_multiplicity
 _atom_site_fract_x
 _atom_site_fract_y
 _atom_site_fract_z
 _atom_site_occupancy
  K  K0  1  0.77603264  0.77603264  0.25000000  1.0
  K  K1  1  0.22396736  0.22396736  0.75000000  1.0
  K  K2  1  0.50861316  0.50861316  0.25000000  1.0
  K  K3  1  0.49138684  0.49138684  0.75000000  1.0
  K  K4  1  0.00000000  -0.00000000  0.50000000  1.0
  K  K5  1  0.00000000  -0.00000000  0.00000000  1.0
  Bi  Bi6  1  1.41499202  -0.11581130  0.33401060  1.0
  Bi  Bi7  1  1.11581130  -0.41499202  0.83401060  1.0
  Bi  Bi8  1  0.88418870  0.41499202  0.16598940  1.0
  Bi  Bi9  1  0.58500798  0.11581130  0.66598940  1.0
  As  As10  1  0.63830687  0.15179129  0.13667987  1.0
  As  As11  1  0.84820871  0.36169313  0.63667987  1.0
  As  As12  1  1.15179129  -0.36169313  0.36332013  1.0
  As  As13  1  1.36169313  -0.15179129  0.86332013  1.0
  As  As14  1  0.24973675  0.24973675  0.25000000  1.0
  As  As15  1  0.75026325  0.75026325  0.75000000  1.0
  O  O16  1  0.79000693  0.07376730  0.13993582  1.0
  O  O17  1  0.92623270  0.20999307  0.63993582  1.0
  O  O18  1  1.07376730  -0.20999307  0.36006418  1.0
  O  O19  1  1.20999307  -0.07376730  0.86006418  1.0
  O  O20  1  1.49378046  -0.16458682  0.09434706  1.0
  O  O21  1  1.16458682  -0.49378046  0.59434706  1.0
  O  O22  1  0.83541318  0.49378046  0.40565294  1.0
  O  O23  1  0.50621954  0.16458682  0.90565294  1.0
  O  O24  1  0.58121516  0.05311240  0.34223090  1.0
  O  O25  1  0.94688760  0.41878484  0.84223090  1.0
  O  O26  1  1.05311240  -0.41878484  0.15776910  1.0
  O  O27  1  1.41878484  -0.05311240  0.65776910  1.0
  O  O28  1  0.65730008  0.32038239  0.15391840  1.0
  O  O29  1  0.67961761  0.34269992  0.65391840  1.0
  O  O30  1  1.32038239  -0.34269992  0.34608160  1.0
  O  O31  1  1.34269992  -0.32038239  0.84608160  1.0
  O  O32  1  0.25369549  0.10319998  0.17271253  1.0
  O  O33  1  0.89680002  0.74630451  0.67271253  1.0
  O  O34  1  1.10319998  -0.74630451  0.32728747  1.0
  O  O35  1  1.74630451  -0.10319998  0.82728747  1.0
  O  O36  1  0.39497594  0.26163603  0.45350441  1.0
  O  O37  1  0.73836397  0.60502406  0.95350441  1.0
  O  O38  1  1.26163603  -0.60502406  0.04649559  1.0
  O  O39  1  1.60502406  -0.26163603  0.54649559  1.0
