# generated using pymatgen
data_MgVO3
_symmetry_space_group_name_H-M   'P 1'
_cell_length_a   5.74729275
_cell_length_b   5.74729275
_cell_length_c   5.26772192
_cell_angle_alpha   90.00000000
_cell_angle_beta   90.00000000
_cell_angle_gamma   125.21397583
_symmetry_Int_Tables_number   1
_chemical_formula_structural   MgVO3
_chemical_formula_sum   'Mg2 V2 O6'
_cell_volume   142.15881802
_cell_formula_units_Z   2
loop_
 _symmetry_equiv_pos_site_id
 _symmetry_equiv_pos_as_xyz
  1  'x, y, z'
loop_
 _atom_site_type_symbol
 _atom_site_label
 _atom_site_symmetry_multiplicity
 _atom_site_fract_x
 _atom_site_fract_y
 _atom_site_fract_z
 _atom_site_occupancy
  Mg  Mg0  1  -0.57568289  0.57568289  0.48778706  1.0
  Mg  Mg1  1  -0.42431711  1.42431711  0.98778706  1.0
  V  V2  1  -0.92992345  0.92992345  0.48783694  1.0
  V  V3  1  -0.07007655  1.07007655  0.98783694  1.0
  O  O4  1  -0.76282023  1.23708985  0.23779209  1.0
  O  O5  1  0.23708985  1.23717977  0.73779209  1.0
  O  O6  1  -0.23708985  1.76282023  0.23779209  1.0
  O  O7  1  -0.23717977  0.76291015  0.73779209  1.0
  O  O8  1  -0.76745753  0.76745753  0.48779181  1.0
  O  O9  1  -0.23254247  1.23254247  -0.01220819  1.0
