# generated using pymatgen
data_LuNiO3
_symmetry_space_group_name_H-M   'P 1'
_cell_length_a   5.56183590
_cell_length_b   7.35738916
_cell_length_c   5.14060815
_cell_angle_alpha   90.00000000
_cell_angle_beta   90.00000000
_cell_angle_gamma   90.00000000
_symmetry_Int_Tables_number   1
_chemical_formula_structural   LuNiO3
_chemical_formula_sum   'Lu4 Ni4 O12'
_cell_volume   210.35672429
_cell_formula_units_Z   4
loop_
 _symmetry_equiv_pos_site_id
 _symmetry_equiv_pos_as_xyz
  1  'x, y, z'
loop_
 _atom_site_type_symbol
 _atom_site_label
 _atom_site_symmetry_multiplicity
 _atom_site_fract_x
 _atom_site_fract_y
 _atom_site_fract_z
 _atom_site_occupancy
  Lu  Lu0  1  0.08111448  0.75000000  0.52346969  1.0
  Lu  Lu1  1  0.58111448  0.75000000  0.97653031  1.0
  Lu  Lu2  1  0.91888552  0.25000000  0.47653031  1.0
  Lu  Lu3  1  0.41888552  0.25000000  0.02346969  1.0
  Ni  Ni4  1  0.50000000  0.00000000  0.50000000  1.0
  Ni  Ni5  1  0.50000000  0.50000000  0.50000000  1.0
  Ni  Ni6  1  0.00000000  0.00000000  0.00000000  1.0
  Ni  Ni7  1  0.00000000  0.50000000  0.00000000  1.0
  O  O8  1  0.30761374  0.94484355  0.80948207  1.0
  O  O9  1  0.30761374  0.55515645  0.80948207  1.0
  O  O10  1  0.80761374  0.94484355  0.69051793  1.0
  O  O11  1  0.80761374  0.55515645  0.69051793  1.0
  O  O12  1  0.69238626  0.44484355  0.19051793  1.0
  O  O13  1  0.69238626  0.05515645  0.19051793  1.0
  O  O14  1  0.19238626  0.44484355  0.30948207  1.0
  O  O15  1  0.19238626  0.05515645  0.30948207  1.0
  O  O16  1  0.96355220  0.75000000  0.11327346  1.0
  O  O17  1  0.46355220  0.75000000  0.38672654  1.0
  O  O18  1  0.03644780  0.25000000  0.88672654  1.0
  O  O19  1  0.53644780  0.25000000  0.61327346  1.0
