# generated using pymatgen
data_YZn12
_symmetry_space_group_name_H-M   'P 1'
_cell_length_a   6.78830928
_cell_length_b   6.78830928
_cell_length_c   6.78830928
_cell_angle_alpha   98.52145099
_cell_angle_beta   98.52145099
_cell_angle_gamma   134.71982798
_symmetry_Int_Tables_number   1
_chemical_formula_structural   YZn12
_chemical_formula_sum   'Y1 Zn12'
_cell_volume   205.14322486
_cell_formula_units_Z   1
loop_
 _symmetry_equiv_pos_site_id
 _symmetry_equiv_pos_as_xyz
  1  'x, y, z'
loop_
 _atom_site_type_symbol
 _atom_site_label
 _atom_site_symmetry_multiplicity
 _atom_site_fract_x
 _atom_site_fract_y
 _atom_site_fract_z
 _atom_site_occupancy
  Y  Y0  1  0.00000000  0.00000000  0.00000000  1.0
  Zn  Zn1  1  0.50000000  0.71652796  0.21652796  1.0
  Zn  Zn2  1  0.71652796  0.50000000  1.21652796  1.0
  Zn  Zn3  1  0.28347204  0.50000000  0.78347204  1.0
  Zn  Zn4  1  0.50000000  1.28347204  0.78347204  1.0
  Zn  Zn5  1  -0.00000000  0.64618959  0.64618959  1.0
  Zn  Zn6  1  0.64618959  1.00000000  0.64618959  1.0
  Zn  Zn7  1  1.35381041  1.00000000  1.35381041  1.0
  Zn  Zn8  1  -0.00000000  0.35381041  0.35381041  1.0
  Zn  Zn9  1  0.50000000  0.50000000  0.50000000  1.0
  Zn  Zn10  1  1.00000000  1.00000000  0.50000000  1.0
  Zn  Zn11  1  1.00000000  0.50000000  1.00000000  1.0
  Zn  Zn12  1  1.50000000  1.00000000  1.00000000  1.0
