# generated using pymatgen
data_Rh2WO6
_symmetry_space_group_name_H-M   'P 1'
_cell_length_a   4.67010831
_cell_length_b   4.67010831
_cell_length_c   9.11859478
_cell_angle_alpha   90.00000000
_cell_angle_beta   90.00000000
_cell_angle_gamma   90.00000000
_symmetry_Int_Tables_number   1
_chemical_formula_structural   Rh2WO6
_chemical_formula_sum   'Rh4 W2 O12'
_cell_volume   198.87574651
_cell_formula_units_Z   2
loop_
 _symmetry_equiv_pos_site_id
 _symmetry_equiv_pos_as_xyz
  1  'x, y, z'
loop_
 _atom_site_type_symbol
 _atom_site_label
 _atom_site_symmetry_multiplicity
 _atom_site_fract_x
 _atom_site_fract_y
 _atom_site_fract_z
 _atom_site_occupancy
  Rh  Rh0  1  0.50000000  0.50000000  0.16900573  1.0
  Rh  Rh1  1  0.50000000  0.50000000  0.83099427  1.0
  Rh  Rh2  1  0.00000000  0.00000000  0.66900573  1.0
  Rh  Rh3  1  0.00000000  0.00000000  0.33099427  1.0
  W  W4  1  0.50000000  0.50000000  0.50000000  1.0
  W  W5  1  0.00000000  0.00000000  0.00000000  1.0
  O  O6  1  0.19743762  0.80256238  0.15631560  1.0
  O  O7  1  0.19743762  0.80256238  0.84368440  1.0
  O  O8  1  0.69743762  0.69743762  0.65631560  1.0
  O  O9  1  0.69743762  0.69743762  0.34368440  1.0
  O  O10  1  0.80256238  0.19743762  0.15631560  1.0
  O  O11  1  0.80256238  0.19743762  0.84368440  1.0
  O  O12  1  0.30256238  0.30256238  0.65631560  1.0
  O  O13  1  0.30256238  0.30256238  0.34368440  1.0
  O  O14  1  0.20009765  0.79990235  0.50000000  1.0
  O  O15  1  0.70009765  0.70009765  0.00000000  1.0
  O  O16  1  0.79990235  0.20009765  0.50000000  1.0
  O  O17  1  0.29990235  0.29990235  0.00000000  1.0
