# generated using pymatgen
data_KTb3F10
_symmetry_space_group_name_H-M   'P 1'
_cell_length_a   8.36505897
_cell_length_b   8.36505897
_cell_length_c   8.36505897
_cell_angle_alpha   60.00000000
_cell_angle_beta   60.00000000
_cell_angle_gamma   60.00000000
_symmetry_Int_Tables_number   1
_chemical_formula_structural   KTb3F10
_chemical_formula_sum   'K2 Tb6 F20'
_cell_volume   413.89675628
_cell_formula_units_Z   2
loop_
 _symmetry_equiv_pos_site_id
 _symmetry_equiv_pos_as_xyz
  1  'x, y, z'
loop_
 _atom_site_type_symbol
 _atom_site_label
 _atom_site_symmetry_multiplicity
 _atom_site_fract_x
 _atom_site_fract_y
 _atom_site_fract_z
 _atom_site_occupancy
  K  K0  1  0.75000000  0.75000000  -0.25000000  1.0
  K  K1  1  1.25000000  0.25000000  0.25000000  1.0
  Tb  Tb2  1  -0.75955250  0.75955250  0.75955250  1.0
  Tb  Tb3  1  -0.24044750  0.24044750  0.75955250  1.0
  Tb  Tb4  1  0.75955250  0.75955250  -0.75955250  1.0
  Tb  Tb5  1  0.24044750  1.24044750  -0.24044750  1.0
  Tb  Tb6  1  0.24044750  -0.24044750  1.24044750  1.0
  Tb  Tb7  1  -0.24044750  0.24044750  0.24044750  1.0
  F  F8  1  1.16949990  0.50000000  0.50000000  1.0
  F  F9  1  1.50000000  -0.16949990  0.16949990  1.0
  F  F10  1  0.50000000  1.16949990  -0.16949990  1.0
  F  F11  1  0.83050010  0.50000000  -0.50000000  1.0
  F  F12  1  0.50000000  1.16949990  -0.50000000  1.0
  F  F13  1  -0.16949990  1.50000000  0.16949990  1.0
  F  F14  1  0.50000000  -0.50000000  1.16949990  1.0
  F  F15  1  -0.16949990  0.16949990  0.50000000  1.0
  F  F16  1  0.16949990  1.50000000  -0.16949990  1.0
  F  F17  1  0.50000000  0.83050010  -0.50000000  1.0
  F  F18  1  0.16949990  -0.16949990  1.50000000  1.0
  F  F19  1  -0.50000000  0.50000000  0.83050010  1.0
  F  F20  1  0.88785996  0.88785996  -0.11214004  1.0
  F  F21  1  1.11214004  0.11214004  0.66357989  1.0
  F  F22  1  1.11214004  0.66357989  0.11214004  1.0
  F  F23  1  0.33642011  0.88785996  -0.11214004  1.0
  F  F24  1  1.66357989  0.11214004  0.11214004  1.0
  F  F25  1  0.88785996  0.33642011  -0.11214004  1.0
  F  F26  1  0.88785996  0.88785996  -0.66357989  1.0
  F  F27  1  1.11214004  0.11214004  0.11214004  1.0
