# generated using pymatgen
data_Pb3WO6
_symmetry_space_group_name_H-M   'P 1'
_cell_length_a   8.05914618
_cell_length_b   9.43592261
_cell_length_c   12.11870005
_cell_angle_alpha   90.00000000
_cell_angle_beta   130.06684389
_cell_angle_gamma   90.00000000
_symmetry_Int_Tables_number   1
_chemical_formula_structural   Pb3WO6
_chemical_formula_sum   'Pb12 W4 O24'
_cell_volume   705.27381157
_cell_formula_units_Z   4
loop_
 _symmetry_equiv_pos_site_id
 _symmetry_equiv_pos_as_xyz
  1  'x, y, z'
loop_
 _atom_site_type_symbol
 _atom_site_label
 _atom_site_symmetry_multiplicity
 _atom_site_fract_x
 _atom_site_fract_y
 _atom_site_fract_z
 _atom_site_occupancy
  Pb  Pb0  1  0.95983540  0.49804105  0.19169271  1.0
  Pb  Pb1  1  0.95983540  0.00195895  0.69169271  1.0
  Pb  Pb2  1  0.04016460  0.99804105  0.30830729  1.0
  Pb  Pb3  1  0.04016460  0.50195895  0.80830729  1.0
  Pb  Pb4  1  0.48953392  0.30830938  0.49666704  1.0
  Pb  Pb5  1  0.48953392  0.19169062  0.99666704  1.0
  Pb  Pb6  1  0.51046608  0.80830938  0.00333296  1.0
  Pb  Pb7  1  0.51046608  0.69169062  0.50333296  1.0
  Pb  Pb8  1  0.48645586  0.48209121  0.23198001  1.0
  Pb  Pb9  1  0.48645586  0.01790879  0.73198001  1.0
  Pb  Pb10  1  0.51354414  0.98209121  0.26801999  1.0
  Pb  Pb11  1  0.51354414  0.51790879  0.76801999  1.0
  W  W12  1  0.99139759  0.67693381  0.47019883  1.0
  W  W13  1  0.99139759  0.82306619  0.97019883  1.0
  W  W14  1  0.00860241  0.17693381  0.02980117  1.0
  W  W15  1  0.00860241  0.32306619  0.52980117  1.0
  O  O16  1  0.95478382  0.72195052  0.30372917  1.0
  O  O17  1  0.95478382  0.77804948  0.80372917  1.0
  O  O18  1  0.04521618  0.22195052  0.19627083  1.0
  O  O19  1  0.04521618  0.27804948  0.69627083  1.0
  O  O20  1  0.96737895  0.15310501  0.44967510  1.0
  O  O21  1  0.96737895  0.34689499  0.94967510  1.0
  O  O22  1  0.03262105  0.65310501  0.05032490  1.0
  O  O23  1  0.03262105  0.84689499  0.55032490  1.0
  O  O24  1  0.93586120  0.45543756  0.37887310  1.0
  O  O25  1  0.93586120  0.04456244  0.87887310  1.0
  O  O26  1  0.06413880  0.95543756  0.12112690  1.0
  O  O27  1  0.06413880  0.54456244  0.62112690  1.0
  O  O28  1  0.69418231  0.34630916  0.43006568  1.0
  O  O29  1  0.69418231  0.15369084  0.93006568  1.0
  O  O30  1  0.30581769  0.84630916  0.06993432  1.0
  O  O31  1  0.30581769  0.65369084  0.56993432  1.0
  O  O32  1  0.67368019  0.00079682  0.15707408  1.0
  O  O33  1  0.67368019  0.49920318  0.65707408  1.0
  O  O34  1  0.32631981  0.50079682  0.34292592  1.0
  O  O35  1  0.32631981  0.99920318  0.84292592  1.0
  O  O36  1  0.30905844  0.17101535  0.12370354  1.0
  O  O37  1  0.30905844  0.32898465  0.62370354  1.0
  O  O38  1  0.69094156  0.67101535  0.37629646  1.0
  O  O39  1  0.69094156  0.82898465  0.87629646  1.0
