# generated using pymatgen
data_EuH2ClO2
_symmetry_space_group_name_H-M   'P 1'
_cell_length_a   6.32842665
_cell_length_b   3.81628711
_cell_length_c   6.77830238
_cell_angle_alpha   90.00000000
_cell_angle_beta   110.33531200
_cell_angle_gamma   90.00000000
_symmetry_Int_Tables_number   1
_chemical_formula_structural   EuH2ClO2
_chemical_formula_sum   'Eu2 H4 Cl2 O4'
_cell_volume   153.50058583
_cell_formula_units_Z   2
loop_
 _symmetry_equiv_pos_site_id
 _symmetry_equiv_pos_as_xyz
  1  'x, y, z'
loop_
 _atom_site_type_symbol
 _atom_site_label
 _atom_site_symmetry_multiplicity
 _atom_site_fract_x
 _atom_site_fract_y
 _atom_site_fract_z
 _atom_site_occupancy
  Eu  Eu0  1  0.19957361  0.25000000  0.38040049  1.0
  Eu  Eu1  1  0.80042639  0.75000000  0.61959951  1.0
  H  H2  1  0.61210043  0.25000000  0.27359145  1.0
  H  H3  1  0.38789957  0.75000000  0.72640855  1.0
  H  H4  1  0.16700539  0.25000000  0.81362858  1.0
  H  H5  1  0.83299461  0.75000000  0.18637142  1.0
  Cl  Cl6  1  0.74228068  0.25000000  0.93595247  1.0
  Cl  Cl7  1  0.25771932  0.75000000  0.06404753  1.0
  O  O8  1  0.60224016  0.25000000  0.41430765  1.0
  O  O9  1  0.39775984  0.75000000  0.58569235  1.0
  O  O10  1  0.06356200  0.25000000  0.66767277  1.0
  O  O11  1  0.93643800  0.75000000  0.33232723  1.0
