# generated using pymatgen
data_KPH3NO3
_symmetry_space_group_name_H-M   'P 1'
_cell_length_a   6.17417209
_cell_length_b   6.99421968
_cell_length_c   12.02855290
_cell_angle_alpha   90.00000000
_cell_angle_beta   120.31166944
_cell_angle_gamma   90.00000000
_symmetry_Int_Tables_number   1
_chemical_formula_structural   KPH3NO3
_chemical_formula_sum   'K4 P4 H12 N4 O12'
_cell_volume   448.42466045
_cell_formula_units_Z   4
loop_
 _symmetry_equiv_pos_site_id
 _symmetry_equiv_pos_as_xyz
  1  'x, y, z'
loop_
 _atom_site_type_symbol
 _atom_site_label
 _atom_site_symmetry_multiplicity
 _atom_site_fract_x
 _atom_site_fract_y
 _atom_site_fract_z
 _atom_site_occupancy
  K  K0  1  0.95875632  0.99041436  0.20823036  1.0
  K  K1  1  0.95875632  0.50958564  0.70823036  1.0
  K  K2  1  0.04124368  0.49041436  0.29176964  1.0
  K  K3  1  0.04124368  0.00958564  0.79176964  1.0
  P  P4  1  0.65945962  0.16239159  0.41088040  1.0
  P  P5  1  0.65945962  0.33760841  0.91088040  1.0
  P  P6  1  0.34054038  0.66239159  0.08911960  1.0
  P  P7  1  0.34054038  0.83760841  0.58911960  1.0
  H  H8  1  0.84062823  0.85383528  0.42613538  1.0
  H  H9  1  0.84062823  0.64616472  0.92613538  1.0
  H  H10  1  0.15937177  0.35383528  0.07386462  1.0
  H  H11  1  0.15937177  0.14616472  0.57386462  1.0
  H  H12  1  0.64177464  0.85320257  0.48604067  1.0
  H  H13  1  0.64177464  0.64679743  0.98604067  1.0
  H  H14  1  0.35822536  0.35320257  0.01395933  1.0
  H  H15  1  0.35822536  0.14679743  0.51395933  1.0
  H  H16  1  0.47697660  0.34135434  0.17587942  1.0
  H  H17  1  0.47697660  0.15864566  0.67587942  1.0
  H  H18  1  0.52302340  0.84135434  0.32412058  1.0
  H  H19  1  0.52302340  0.65864566  0.82412058  1.0
  N  N20  1  0.66543002  0.90259201  0.41017814  1.0
  N  N21  1  0.66543002  0.59740799  0.91017814  1.0
  N  N22  1  0.33456998  0.40259201  0.08982186  1.0
  N  N23  1  0.33456998  0.09740799  0.58982186  1.0
  O  O24  1  0.86580429  0.29163658  0.04896365  1.0
  O  O25  1  0.86580429  0.20836342  0.54896365  1.0
  O  O26  1  0.13419571  0.79163658  0.45103635  1.0
  O  O27  1  0.13419571  0.70836342  0.95103635  1.0
  O  O28  1  0.72001570  0.21960135  0.30673853  1.0
  O  O29  1  0.72001570  0.28039865  0.80673853  1.0
  O  O30  1  0.27998430  0.71960135  0.19326147  1.0
  O  O31  1  0.27998430  0.78039865  0.69326147  1.0
  O  O32  1  0.39214317  0.20715826  0.38028128  1.0
  O  O33  1  0.39214317  0.29284174  0.88028128  1.0
  O  O34  1  0.60785683  0.70715826  0.11971872  1.0
  O  O35  1  0.60785683  0.79284174  0.61971872  1.0
