# generated using pymatgen
data_Eu(Ni5P3)2
_symmetry_space_group_name_H-M   'P 1'
_cell_length_a   8.63295589
_cell_length_b   8.63295589
_cell_length_c   8.71642933
_cell_angle_alpha   90.00000000
_cell_angle_beta   90.00000000
_cell_angle_gamma   136.19417245
_symmetry_Int_Tables_number   1
_chemical_formula_structural   Eu(Ni5P3)2
_chemical_formula_sum   'Eu2 Ni20 P12'
_cell_volume   449.67594345
_cell_formula_units_Z   2
loop_
 _symmetry_equiv_pos_site_id
 _symmetry_equiv_pos_as_xyz
  1  'x, y, z'
loop_
 _atom_site_type_symbol
 _atom_site_label
 _atom_site_symmetry_multiplicity
 _atom_site_fract_x
 _atom_site_fract_y
 _atom_site_fract_z
 _atom_site_occupancy
  Eu  Eu0  1  0.00000000  0.00000000  0.00000000  1.0
  Eu  Eu1  1  0.50000000  0.50000000  0.50000000  1.0
  Ni  Ni2  1  0.12605161  0.47159464  0.96973548  1.0
  Ni  Ni3  1  0.62605161  0.97159464  0.53026452  1.0
  Ni  Ni4  1  0.47159464  1.12605161  0.03026452  1.0
  Ni  Ni5  1  -0.02840536  0.62605161  0.46973548  1.0
  Ni  Ni6  1  0.52840536  0.87394839  0.96973548  1.0
  Ni  Ni7  1  0.02840536  0.37394839  0.53026452  1.0
  Ni  Ni8  1  -0.12605161  0.52840536  0.03026452  1.0
  Ni  Ni9  1  0.37394839  1.02840536  0.46973548  1.0
  Ni  Ni10  1  0.29457033  0.70542967  0.71051016  1.0
  Ni  Ni11  1  -0.20542967  0.20542967  0.78948984  1.0
  Ni  Ni12  1  -0.29457033  0.29457033  0.28948984  1.0
  Ni  Ni13  1  0.20542967  0.79457033  0.21051016  1.0
  Ni  Ni14  1  0.45712546  0.54287454  0.88037313  1.0
  Ni  Ni15  1  -0.04287454  0.04287454  0.61962687  1.0
  Ni  Ni16  1  -0.45712546  0.45712546  0.11962687  1.0
  Ni  Ni17  1  0.04287454  0.95712546  0.38037313  1.0
  Ni  Ni18  1  -0.08605149  0.58605149  0.75000000  1.0
  Ni  Ni19  1  0.41394851  1.08605149  0.75000000  1.0
  Ni  Ni20  1  0.58605149  0.91394851  0.25000000  1.0
  Ni  Ni21  1  0.08605149  0.41394851  0.25000000  1.0
  P  P22  1  0.09169700  0.90830300  0.62939805  1.0
  P  P23  1  -0.40830300  0.40830300  0.87060195  1.0
  P  P24  1  -0.09169700  0.09169700  0.37060195  1.0
  P  P25  1  0.40830300  0.59169700  0.12939805  1.0
  P  P26  1  0.20850972  0.79149028  0.92807257  1.0
  P  P27  1  -0.29149028  0.29149028  0.57192743  1.0
  P  P28  1  -0.20850972  0.20850972  0.07192743  1.0
  P  P29  1  0.29149028  0.70850972  0.42807257  1.0
  P  P30  1  0.14666463  0.35333537  0.75000000  1.0
  P  P31  1  0.64666463  0.85333537  0.75000000  1.0
  P  P32  1  0.35333537  1.14666463  0.25000000  1.0
  P  P33  1  -0.14666463  0.64666463  0.25000000  1.0
