# generated using pymatgen
data_K2GaSb2
_symmetry_space_group_name_H-M   'P 1'
_cell_length_a   15.20227545
_cell_length_b   10.54495193
_cell_length_c   9.30529495
_cell_angle_alpha   90.00000000
_cell_angle_beta   90.00000000
_cell_angle_gamma   90.00000000
_symmetry_Int_Tables_number   1
_chemical_formula_structural   K2GaSb2
_chemical_formula_sum   'K16 Ga8 Sb16'
_cell_volume   1491.70637340
_cell_formula_units_Z   8
loop_
 _symmetry_equiv_pos_site_id
 _symmetry_equiv_pos_as_xyz
  1  'x, y, z'
loop_
 _atom_site_type_symbol
 _atom_site_label
 _atom_site_symmetry_multiplicity
 _atom_site_fract_x
 _atom_site_fract_y
 _atom_site_fract_z
 _atom_site_occupancy
  K  K0  1  0.98833226  0.97628852  0.26612469  1.0
  K  K1  1  0.98833226  0.52371148  0.26612469  1.0
  K  K2  1  0.48833226  0.97628852  0.23387531  1.0
  K  K3  1  0.48833226  0.52371148  0.23387531  1.0
  K  K4  1  0.01166774  0.47628852  0.73387531  1.0
  K  K5  1  0.01166774  0.02371148  0.73387531  1.0
  K  K6  1  0.51166774  0.47628852  0.76612469  1.0
  K  K7  1  0.51166774  0.02371148  0.76612469  1.0
  K  K8  1  0.73738419  0.97066164  0.41988818  1.0
  K  K9  1  0.73738419  0.52933836  0.41988818  1.0
  K  K10  1  0.23738419  0.97066164  0.08011182  1.0
  K  K11  1  0.23738419  0.52933836  0.08011182  1.0
  K  K12  1  0.26261581  0.47066164  0.58011182  1.0
  K  K13  1  0.26261581  0.02933836  0.58011182  1.0
  K  K14  1  0.76261581  0.47066164  0.91988818  1.0
  K  K15  1  0.76261581  0.02933836  0.91988818  1.0
  Ga  Ga16  1  0.82357700  0.25000000  0.22917159  1.0
  Ga  Ga17  1  0.32357700  0.25000000  0.27082841  1.0
  Ga  Ga18  1  0.17642300  0.75000000  0.77082841  1.0
  Ga  Ga19  1  0.67642300  0.75000000  0.72917159  1.0
  Ga  Ga20  1  0.59654946  0.25000000  0.42353091  1.0
  Ga  Ga21  1  0.09654946  0.25000000  0.07646909  1.0
  Ga  Ga22  1  0.40345054  0.75000000  0.57646909  1.0
  Ga  Ga23  1  0.90345054  0.75000000  0.92353091  1.0
  Sb  Sb24  1  0.93026361  0.25000000  0.00323974  1.0
  Sb  Sb25  1  0.43026361  0.25000000  0.49676026  1.0
  Sb  Sb26  1  0.06973639  0.75000000  0.99676026  1.0
  Sb  Sb27  1  0.56973639  0.75000000  0.50323974  1.0
  Sb  Sb28  1  0.87482239  0.25000000  0.49876660  1.0
  Sb  Sb29  1  0.37482239  0.25000000  0.00123340  1.0
  Sb  Sb30  1  0.12517761  0.75000000  0.50123340  1.0
  Sb  Sb31  1  0.62517761  0.75000000  0.99876660  1.0
  Sb  Sb32  1  0.70576961  0.25000000  0.64019783  1.0
  Sb  Sb33  1  0.20576961  0.25000000  0.85980217  1.0
  Sb  Sb34  1  0.29423039  0.75000000  0.35980217  1.0
  Sb  Sb35  1  0.79423039  0.75000000  0.14019783  1.0
  Sb  Sb36  1  0.65371614  0.25000000  0.15993810  1.0
  Sb  Sb37  1  0.15371614  0.25000000  0.34006190  1.0
  Sb  Sb38  1  0.34628386  0.75000000  0.84006190  1.0
  Sb  Sb39  1  0.84628386  0.75000000  0.65993810  1.0
