# generated using pymatgen
data_Ni3AgP3(HO6)2
_symmetry_space_group_name_H-M   'P 1'
_cell_length_a   8.54304929
_cell_length_b   8.54304929
_cell_length_c   6.50675332
_cell_angle_alpha   73.47892838
_cell_angle_beta   106.52107162
_cell_angle_gamma   88.82699099
_symmetry_Int_Tables_number   1
_chemical_formula_structural   Ni3AgP3(HO6)2
_chemical_formula_sum   'Ni6 Ag2 P6 H4 O24'
_cell_volume   433.82412090
_cell_formula_units_Z   2
loop_
 _symmetry_equiv_pos_site_id
 _symmetry_equiv_pos_as_xyz
  1  'x, y, z'
loop_
 _atom_site_type_symbol
 _atom_site_label
 _atom_site_symmetry_multiplicity
 _atom_site_fract_x
 _atom_site_fract_y
 _atom_site_fract_z
 _atom_site_occupancy
  Ag  Ag0  1  0.95751299  -0.04248701  0.75000000  1.0
  Ag  Ag1  1  1.04248701  0.04248701  0.25000000  1.0
  H  H2  1  1.60673059  0.37677670  0.80917173  1.0
  H  H3  1  0.62322330  -0.60673059  0.30917173  1.0
  H  H4  1  1.37677670  0.60673059  0.69082827  1.0
  H  H5  1  0.39326941  -0.37677670  0.19082827  1.0
  P  P6  1  1.66545395  0.10890144  0.88832954  1.0
  P  P7  1  0.89109856  -0.66545395  0.38832954  1.0
  P  P8  1  1.10890144  0.66545395  0.61167046  1.0
  P  P9  1  0.33454605  -0.10890144  0.11167046  1.0
  P  P10  1  0.68106519  -0.31893481  0.75000000  1.0
  P  P11  1  1.31893481  0.31893481  0.25000000  1.0
  Ni  Ni12  1  0.37545272  -0.04864686  0.62151523  1.0
  Ni  Ni13  1  1.04864686  0.62454728  0.12151523  1.0
  Ni  Ni14  1  0.95135314  -0.62454728  0.87848477  1.0
  Ni  Ni15  1  1.62454728  0.04864686  0.37848477  1.0
  Ni  Ni16  1  1.27466231  0.27466231  0.75000000  1.0
  Ni  Ni17  1  0.72533769  -0.27466231  0.25000000  1.0
  O  O18  1  0.49693696  -0.28613913  0.73283678  1.0
  O  O19  1  1.28613913  0.50306304  0.23283678  1.0
  O  O20  1  0.71386087  -0.50306304  0.76716322  1.0
  O  O21  1  1.50306304  0.28613913  0.26716322  1.0
  O  O22  1  1.83818184  0.16116047  0.39724315  1.0
  O  O23  1  0.83883953  -0.83818184  0.89724315  1.0
  O  O24  1  1.16116047  0.83818184  0.10275685  1.0
  O  O25  1  0.16181816  -0.16116047  0.60275685  1.0
  O  O26  1  1.54404415  0.26891049  0.84419407  1.0
  O  O27  1  0.73108951  -0.54404415  0.34419407  1.0
  O  O28  1  1.26891049  0.54404415  0.65580593  1.0
  O  O29  1  0.45595585  -0.26891049  0.15580593  1.0
  O  O30  1  0.72157150  -0.20905439  0.53578329  1.0
  O  O31  1  1.20905439  0.27842850  0.03578329  1.0
  O  O32  1  0.79094561  -0.27842850  0.96421671  1.0
  O  O33  1  1.27842850  0.20905439  0.46421671  1.0
  O  O34  1  1.60031427  0.03593502  0.69174296  1.0
  O  O35  1  0.96406498  -0.60031427  0.19174296  1.0
  O  O36  1  1.03593502  0.60031427  0.80825704  1.0
  O  O37  1  0.39968573  -0.03593502  0.30825704  1.0
  O  O38  1  1.33116253  0.01621286  0.88367890  1.0
  O  O39  1  0.98378714  -0.33116253  0.38367890  1.0
  O  O40  1  1.01621286  0.33116253  0.61632110  1.0
  O  O41  1  0.66883747  -0.01621286  0.11632110  1.0
