# generated using pymatgen
data_SrV4O9
_symmetry_space_group_name_H-M   'P 1'
_cell_length_a   8.37089854
_cell_length_b   8.37089854
_cell_length_c   5.57851977
_cell_angle_alpha   90.00000000
_cell_angle_beta   90.00000000
_cell_angle_gamma   90.00000000
_symmetry_Int_Tables_number   1
_chemical_formula_structural   SrV4O9
_chemical_formula_sum   'Sr2 V8 O18'
_cell_volume   390.89771608
_cell_formula_units_Z   2
loop_
 _symmetry_equiv_pos_site_id
 _symmetry_equiv_pos_as_xyz
  1  'x, y, z'
loop_
 _atom_site_type_symbol
 _atom_site_label
 _atom_site_symmetry_multiplicity
 _atom_site_fract_x
 _atom_site_fract_y
 _atom_site_fract_z
 _atom_site_occupancy
  Sr  Sr0  1  -0.00000000  0.50000000  0.86147161  1.0
  Sr  Sr1  1  0.50000000  0.00000000  0.13852839  1.0
  V  V2  1  0.71537005  0.41000288  0.38604568  1.0
  V  V3  1  0.28462995  0.58999712  0.38604568  1.0
  V  V4  1  0.91000288  0.78462995  0.38604568  1.0
  V  V5  1  0.08999712  0.21537005  0.38604568  1.0
  V  V6  1  0.78462995  0.08999712  0.61395432  1.0
  V  V7  1  0.21537005  0.91000288  0.61395432  1.0
  V  V8  1  0.58999712  0.71537005  0.61395432  1.0
  V  V9  1  0.41000288  0.28462995  0.61395432  1.0
  O  O10  1  0.89220062  0.29135020  0.53837872  1.0
  O  O11  1  0.10779938  0.70864980  0.53837872  1.0
  O  O12  1  0.79135020  0.60779938  0.53837872  1.0
  O  O13  1  0.20864980  0.39220062  0.53837872  1.0
  O  O14  1  0.60779938  0.20864980  0.46162128  1.0
  O  O15  1  0.39220062  0.79135020  0.46162128  1.0
  O  O16  1  0.70864980  0.89220062  0.46162128  1.0
  O  O17  1  0.29135020  0.10779938  0.46162128  1.0
  O  O18  1  0.74790075  0.42669340  0.10141820  1.0
  O  O19  1  0.25209925  0.57330660  0.10141820  1.0
  O  O20  1  0.92669340  0.75209925  0.10141820  1.0
  O  O21  1  0.07330660  0.24790075  0.10141820  1.0
  O  O22  1  0.75209925  0.07330660  0.89858180  1.0
  O  O23  1  0.24790075  0.92669340  0.89858180  1.0
  O  O24  1  0.57330660  0.74790075  0.89858180  1.0
  O  O25  1  0.42669340  0.25209925  0.89858180  1.0
  O  O26  1  0.50000000  0.50000000  0.50000000  1.0
  O  O27  1  0.00000000  0.00000000  0.50000000  1.0
