# generated using pymatgen
data_Be2Cr
_symmetry_space_group_name_H-M   'P 1'
_cell_length_a   4.20432204
_cell_length_b   4.20432204
_cell_length_c   6.89063158
_cell_angle_alpha   90.00000000
_cell_angle_beta   90.00000000
_cell_angle_gamma   120.00000000
_symmetry_Int_Tables_number   1
_chemical_formula_structural   Be2Cr
_chemical_formula_sum   'Be8 Cr4'
_cell_volume   105.48279090
_cell_formula_units_Z   4
loop_
 _symmetry_equiv_pos_site_id
 _symmetry_equiv_pos_as_xyz
  1  'x, y, z'
loop_
 _atom_site_type_symbol
 _atom_site_label
 _atom_site_symmetry_multiplicity
 _atom_site_fract_x
 _atom_site_fract_y
 _atom_site_fract_z
 _atom_site_occupancy
  Be  Be0  1  0.17019998  0.82980002  0.25000000  1.0
  Be  Be1  1  0.17019998  0.34039996  0.25000000  1.0
  Be  Be2  1  0.82980002  0.17019998  0.75000000  1.0
  Be  Be3  1  0.82980002  0.65960004  0.75000000  1.0
  Be  Be4  1  0.65960004  0.82980002  0.25000000  1.0
  Be  Be5  1  0.34039996  0.17019998  0.75000000  1.0
  Be  Be6  1  -0.00000000  -0.00000000  0.50000000  1.0
  Be  Be7  1  0.00000000  0.00000000  -0.00000000  1.0
  Cr  Cr8  1  0.33333333  0.66666667  0.93825953  1.0
  Cr  Cr9  1  0.33333333  0.66666667  0.56174047  1.0
  Cr  Cr10  1  0.66666667  0.33333333  0.43825953  1.0
  Cr  Cr11  1  0.66666667  0.33333333  0.06174047  1.0
