# generated using pymatgen
data_FeCu2SnTe4
_symmetry_space_group_name_H-M   'P 1'
_cell_length_a   8.71285023
_cell_length_b   7.47386087
_cell_length_c   7.18111560
_cell_angle_alpha   90.00000000
_cell_angle_beta   90.00000000
_cell_angle_gamma   90.00000000
_symmetry_Int_Tables_number   1
_chemical_formula_structural   FeCu2SnTe4
_chemical_formula_sum   'Fe2 Cu4 Sn2 Te8'
_cell_volume   467.62441246
_cell_formula_units_Z   2
loop_
 _symmetry_equiv_pos_site_id
 _symmetry_equiv_pos_as_xyz
  1  'x, y, z'
loop_
 _atom_site_type_symbol
 _atom_site_label
 _atom_site_symmetry_multiplicity
 _atom_site_fract_x
 _atom_site_fract_y
 _atom_site_fract_z
 _atom_site_occupancy
  Fe  Fe0  1  0.50000000  0.67080461  0.00607282  1.0
  Fe  Fe1  1  0.00000000  0.32919539  0.50607282  1.0
  Cu  Cu2  1  0.25030402  0.16962912  0.00795417  1.0
  Cu  Cu3  1  0.75030402  0.83037088  0.50795417  1.0
  Cu  Cu4  1  0.74969598  0.16962912  0.00795417  1.0
  Cu  Cu5  1  0.24969598  0.83037088  0.50795417  1.0
  Sn  Sn6  1  0.50000000  0.33492137  0.50864454  1.0
  Sn  Sn7  1  0.00000000  0.66507863  0.00864454  1.0
  Te  Te8  1  0.23116574  0.15327303  0.37044002  1.0
  Te  Te9  1  0.73116574  0.84672697  0.87044002  1.0
  Te  Te10  1  0.76883426  0.15327303  0.37044002  1.0
  Te  Te11  1  0.26883426  0.84672697  0.87044002  1.0
  Te  Te12  1  0.50000000  0.33606035  0.91146931  1.0
  Te  Te13  1  0.00000000  0.66393965  0.41146931  1.0
  Te  Te14  1  0.50000000  0.69472576  0.36952494  1.0
  Te  Te15  1  0.00000000  0.30527424  0.86952494  1.0
