# generated using pymatgen
data_TeO2
_symmetry_space_group_name_H-M   'P 1'
_cell_length_a   6.27764279
_cell_length_b   3.39185326
_cell_length_c   8.18602443
_cell_angle_alpha   90.00000000
_cell_angle_beta   90.00000000
_cell_angle_gamma   90.00000000
_symmetry_Int_Tables_number   1
_chemical_formula_structural   TeO2
_chemical_formula_sum   'Te4 O8'
_cell_volume   174.30373425
_cell_formula_units_Z   4
loop_
 _symmetry_equiv_pos_site_id
 _symmetry_equiv_pos_as_xyz
  1  'x, y, z'
loop_
 _atom_site_type_symbol
 _atom_site_label
 _atom_site_symmetry_multiplicity
 _atom_site_fract_x
 _atom_site_fract_y
 _atom_site_fract_z
 _atom_site_occupancy
  Te  Te0  1  0.77124614  0.75000000  0.44388465  1.0
  Te  Te1  1  0.27124614  0.75000000  0.05611535  1.0
  Te  Te2  1  0.22875386  0.25000000  0.55611535  1.0
  Te  Te3  1  0.72875386  0.25000000  0.94388465  1.0
  O  O4  1  0.98613724  0.75000000  0.62835521  1.0
  O  O5  1  0.48613724  0.75000000  0.87164479  1.0
  O  O6  1  0.01386276  0.25000000  0.37164479  1.0
  O  O7  1  0.51386276  0.25000000  0.12835521  1.0
  O  O8  1  0.85617458  0.75000000  0.06422132  1.0
  O  O9  1  0.35617458  0.75000000  0.43577868  1.0
  O  O10  1  0.14382542  0.25000000  0.93577868  1.0
  O  O11  1  0.64382542  0.25000000  0.56422132  1.0
