# generated using pymatgen
data_GdTl(MoO4)2
_symmetry_space_group_name_H-M   'P 1'
_cell_length_a   5.14968148
_cell_length_b   19.25985770
_cell_length_c   8.26570183
_cell_angle_alpha   90.00000000
_cell_angle_beta   90.00000000
_cell_angle_gamma   90.00000000
_symmetry_Int_Tables_number   1
_chemical_formula_structural   GdTl(MoO4)2
_chemical_formula_sum   'Gd4 Tl4 Mo8 O32'
_cell_volume   819.80993513
_cell_formula_units_Z   4
loop_
 _symmetry_equiv_pos_site_id
 _symmetry_equiv_pos_as_xyz
  1  'x, y, z'
loop_
 _atom_site_type_symbol
 _atom_site_label
 _atom_site_symmetry_multiplicity
 _atom_site_fract_x
 _atom_site_fract_y
 _atom_site_fract_z
 _atom_site_occupancy
  Gd  Gd0  1  0.50000000  0.49610600  0.25000000  1.0
  Gd  Gd1  1  0.50000000  0.50389400  0.75000000  1.0
  Gd  Gd2  1  0.00000000  0.99610600  0.25000000  1.0
  Gd  Gd3  1  0.00000000  0.00389400  0.75000000  1.0
  Tl  Tl4  1  0.50000000  0.72584313  0.25000000  1.0
  Tl  Tl5  1  0.50000000  0.27415687  0.75000000  1.0
  Tl  Tl6  1  -0.00000000  0.22584313  0.25000000  1.0
  Tl  Tl7  1  0.00000000  0.77415687  0.75000000  1.0
  Mo  Mo8  1  0.47677106  0.09941579  0.00835307  1.0
  Mo  Mo9  1  0.47677106  0.90058421  0.50835307  1.0
  Mo  Mo10  1  0.97677106  0.59941579  0.49164693  1.0
  Mo  Mo11  1  0.97677106  0.40058421  0.99164693  1.0
  Mo  Mo12  1  0.52322894  0.09941579  0.49164693  1.0
  Mo  Mo13  1  0.52322894  0.90058421  0.99164693  1.0
  Mo  Mo14  1  0.02322894  0.59941579  0.00835307  1.0
  Mo  Mo15  1  0.02322894  0.40058421  0.50835307  1.0
  O  O16  1  0.40304557  0.18422690  0.48573917  1.0
  O  O17  1  0.40304557  0.81577310  0.98573917  1.0
  O  O18  1  0.90304557  0.68422690  0.01426083  1.0
  O  O19  1  0.90304557  0.31577310  0.51426083  1.0
  O  O20  1  0.59695443  0.18422690  0.01426083  1.0
  O  O21  1  0.59695443  0.81577310  0.51426083  1.0
  O  O22  1  0.09695443  0.68422690  0.48573917  1.0
  O  O23  1  0.09695443  0.31577310  0.98573917  1.0
  O  O24  1  0.26210404  0.08991958  0.17828130  1.0
  O  O25  1  0.26210404  0.91008042  0.67828130  1.0
  O  O26  1  0.76210404  0.58991958  0.32171870  1.0
  O  O27  1  0.76210404  0.41008042  0.82171870  1.0
  O  O28  1  0.73789596  0.08991958  0.32171870  1.0
  O  O29  1  0.73789596  0.91008042  0.82171870  1.0
  O  O30  1  0.23789596  0.58991958  0.17828130  1.0
  O  O31  1  0.23789596  0.41008042  0.67828130  1.0
  O  O32  1  0.24898916  0.46216259  0.00177385  1.0
  O  O33  1  0.24898916  0.53783741  0.50177385  1.0
  O  O34  1  0.74898916  0.96216259  0.49822615  1.0
  O  O35  1  0.74898916  0.03783741  0.99822615  1.0
  O  O36  1  0.75101084  0.46216259  0.49822615  1.0
  O  O37  1  0.75101084  0.53783741  0.99822615  1.0
  O  O38  1  0.25101084  0.96216259  0.00177385  1.0
  O  O39  1  0.25101084  0.03783741  0.50177385  1.0
  O  O40  1  0.22864379  0.40631003  0.33631795  1.0
  O  O41  1  0.22864379  0.59368997  0.83631795  1.0
  O  O42  1  0.72864379  0.90631003  0.16368205  1.0
  O  O43  1  0.72864379  0.09368997  0.66368205  1.0
  O  O44  1  0.77135621  0.40631003  0.16368205  1.0
  O  O45  1  0.77135621  0.59368997  0.66368205  1.0
  O  O46  1  0.27135621  0.90631003  0.33631795  1.0
  O  O47  1  0.27135621  0.09368997  0.83631795  1.0
