# generated using pymatgen
data_Li4CO4
_symmetry_space_group_name_H-M   'P 1'
_cell_length_a   4.66454702
_cell_length_b   4.66454702
_cell_length_c   4.66454702
_cell_angle_alpha   72.67660887
_cell_angle_beta   72.67660887
_cell_angle_gamma   72.67660887
_symmetry_Int_Tables_number   1
_chemical_formula_structural   Li4CO4
_chemical_formula_sum   'Li4 C1 O4'
_cell_volume   90.02507921
_cell_formula_units_Z   1
loop_
 _symmetry_equiv_pos_site_id
 _symmetry_equiv_pos_as_xyz
  1  'x, y, z'
loop_
 _atom_site_type_symbol
 _atom_site_label
 _atom_site_symmetry_multiplicity
 _atom_site_fract_x
 _atom_site_fract_y
 _atom_site_fract_z
 _atom_site_occupancy
  Li  Li0  1  1.18212527  1.18212527  0.18212527  1.0
  Li  Li1  1  1.05457836  0.57141523  -0.42858477  1.0
  Li  Li2  1  0.57141523  0.57141523  0.05457836  1.0
  Li  Li3  1  0.57141523  1.05457836  -0.42858477  1.0
  C  C4  1  0.96001384  0.96001384  -0.03998616  1.0
  O  O5  1  0.72844557  0.14891135  -0.85108865  1.0
  O  O6  1  0.14891135  0.14891135  -0.27155443  1.0
  O  O7  1  0.14891135  0.72844557  -0.85108865  1.0
  O  O8  1  0.82584378  0.82584378  -0.17415622  1.0
