# generated using pymatgen
data_MnH8C2N4(ClO)2
_symmetry_space_group_name_H-M   'P 1'
_cell_length_a   8.69099598
_cell_length_b   8.69099598
_cell_length_c   8.69099598
_cell_angle_alpha   115.81506545
_cell_angle_beta   86.67450619
_cell_angle_gamma   128.50188756
_symmetry_Int_Tables_number   1
_chemical_formula_structural   MnH8C2N4(ClO)2
_chemical_formula_sum   'Mn2 H16 C4 N8 Cl4 O4'
_cell_volume   440.80625609
_cell_formula_units_Z   2
loop_
 _symmetry_equiv_pos_site_id
 _symmetry_equiv_pos_as_xyz
  1  'x, y, z'
loop_
 _atom_site_type_symbol
 _atom_site_label
 _atom_site_symmetry_multiplicity
 _atom_site_fract_x
 _atom_site_fract_y
 _atom_site_fract_z
 _atom_site_occupancy
  Mn  Mn0  1  -0.00583513  -0.00583513  -0.00000000  1.0
  Mn  Mn1  1  0.49416487  0.49416487  0.00000000  1.0
  H  H2  1  0.71522979  0.99336622  0.49410671  1.0
  H  H3  1  0.99925952  0.49336622  1.27813643  1.0
  H  H4  1  0.21522979  0.72112308  0.72186357  1.0
  H  H5  1  1.49925952  1.22112308  1.50589329  1.0
  H  H6  1  1.23441715  1.23751034  1.57039739  1.0
  H  H7  1  1.16711295  1.73751034  1.00309319  1.0
  H  H8  1  1.73441715  1.16401976  0.99690681  1.0
  H  H9  1  0.66711295  0.66401976  0.42960261  1.0
  H  H10  1  1.02947036  1.08982725  0.38551586  1.0
  H  H11  1  1.20431138  0.58982725  1.06035689  1.0
  H  H12  1  0.52947036  1.14395449  0.93964311  1.0
  H  H13  1  1.70431138  1.64395449  1.61448414  1.0
  H  H14  1  0.99643526  0.71414258  1.39248553  1.0
  H  H15  1  0.82165705  1.21414258  0.71770732  1.0
  H  H16  1  1.49643526  1.10394973  1.28229268  1.0
  H  H17  1  0.32165705  0.60394973  0.60751447  1.0
  C  C18  1  0.76682745  0.93520348  0.68541025  1.0
  C  C19  1  0.74979324  0.43520348  1.16837603  1.0
  C  C20  1  0.26682745  0.58141720  0.83162397  1.0
  C  C21  1  1.24979324  1.08141720  1.31458975  1.0
  N  N22  1  0.76101069  1.05296881  0.62710542  1.0
  N  N23  1  0.92586339  0.55296881  1.29195813  1.0
  N  N24  1  0.26101069  0.63390527  0.70804187  1.0
  N  N25  1  1.42586339  1.13390527  1.37289458  1.0
  N  N26  1  1.16065923  1.12977288  1.43514806  1.0
  N  N27  1  1.19462482  1.62977288  0.96911365  1.0
  N  N28  1  1.66065923  1.22551117  1.03088635  1.0
  N  N29  1  0.69462482  0.72551117  0.56485194  1.0
  Cl  Cl30  1  1.23437397  1.04447977  1.79918097  1.0
  Cl  Cl31  1  0.74529881  1.54447977  0.81010580  1.0
  Cl  Cl32  1  1.73437397  0.93519301  1.18989420  1.0
  Cl  Cl33  1  0.24529881  0.43519301  0.20081903  1.0
  O  O34  1  0.33266222  0.47956303  0.81233517  1.0
  O  O35  1  1.16722786  0.97956303  1.14690080  1.0
  O  O36  1  0.83266222  1.02032705  0.85309920  1.0
  O  O37  1  0.66722786  0.52032705  1.18766483  1.0
