# generated using pymatgen
data_FeAu2C4(N2O)2
_symmetry_space_group_name_H-M   'P 1'
_cell_length_a   2.87239352
_cell_length_b   27.80240341
_cell_length_c   6.28580465
_cell_angle_alpha   90.00000000
_cell_angle_beta   90.97438780
_cell_angle_gamma   90.00000000
_symmetry_Int_Tables_number   1
_chemical_formula_structural   FeAu2C4(N2O)2
_chemical_formula_sum   'Fe2 Au4 C8 N8 O4'
_cell_volume   501.90827207
_cell_formula_units_Z   2
loop_
 _symmetry_equiv_pos_site_id
 _symmetry_equiv_pos_as_xyz
  1  'x, y, z'
loop_
 _atom_site_type_symbol
 _atom_site_label
 _atom_site_symmetry_multiplicity
 _atom_site_fract_x
 _atom_site_fract_y
 _atom_site_fract_z
 _atom_site_occupancy
  Fe  Fe0  1  0.00000000  0.50000000  0.00000000  1.0
  Fe  Fe1  1  0.50000000  0.00000000  0.50000000  1.0
  Au  Au2  1  0.00000000  0.68217399  0.00000000  1.0
  Au  Au3  1  0.00000000  0.31782601  0.00000000  1.0
  Au  Au4  1  0.50000000  0.81783155  0.50000000  1.0
  Au  Au5  1  0.50000000  0.18216845  0.50000000  1.0
  C  C6  1  0.00000000  0.75326633  0.00000000  1.0
  C  C7  1  0.00000000  0.24673367  0.00000000  1.0
  C  C8  1  0.00000000  0.61066294  0.00000000  1.0
  C  C9  1  0.00000000  0.38933706  0.00000000  1.0
  C  C10  1  0.50000000  0.88934053  0.50000000  1.0
  C  C11  1  0.50000000  0.11065947  0.50000000  1.0
  C  C12  1  0.50000000  0.74674025  0.50000000  1.0
  C  C13  1  0.50000000  0.25325975  0.50000000  1.0
  N  N14  1  0.00000000  0.79535694  0.00000000  1.0
  N  N15  1  0.00000000  0.20464306  0.00000000  1.0
  N  N16  1  0.00000000  0.56891507  0.00000000  1.0
  N  N17  1  0.00000000  0.43108493  0.00000000  1.0
  N  N18  1  0.50000000  0.93108841  0.50000000  1.0
  N  N19  1  0.50000000  0.06891159  0.50000000  1.0
  N  N20  1  0.50000000  0.70464972  0.50000000  1.0
  N  N21  1  0.50000000  0.29535028  0.50000000  1.0
  O  O22  1  0.49296202  0.50000000  0.81034298  1.0
  O  O23  1  0.50703798  0.50000000  0.18965702  1.0
  O  O24  1  1.00704875  0.00000000  0.68966222  1.0
  O  O25  1  -0.00704875  0.00000000  0.31033778  1.0
