# generated using pymatgen
data_Eu(Cu2As)2
_symmetry_space_group_name_H-M   'P 1'
_cell_length_a   8.01823072
_cell_length_b   8.01823072
_cell_length_c   8.01823072
_cell_angle_alpha   30.14486729
_cell_angle_beta   30.14486729
_cell_angle_gamma   30.14486729
_symmetry_Int_Tables_number   1
_chemical_formula_structural   Eu(Cu2As)2
_chemical_formula_sum   'Eu1 Cu4 As2'
_cell_volume   115.18309313
_cell_formula_units_Z   1
loop_
 _symmetry_equiv_pos_site_id
 _symmetry_equiv_pos_as_xyz
  1  'x, y, z'
loop_
 _atom_site_type_symbol
 _atom_site_label
 _atom_site_symmetry_multiplicity
 _atom_site_fract_x
 _atom_site_fract_y
 _atom_site_fract_z
 _atom_site_occupancy
  Eu  Eu0  1  0.00000000  -0.00000000  0.00000000  1.0
  Cu  Cu1  1  0.85347139  0.85347139  0.85347139  1.0
  Cu  Cu2  1  1.14652861  1.14652861  0.14652861  1.0
  Cu  Cu3  1  1.56059341  0.56059341  0.56059341  1.0
  Cu  Cu4  1  1.43940659  0.43940659  0.43940659  1.0
  As  As5  1  0.74633587  0.74633587  0.74633587  1.0
  As  As6  1  1.25366413  1.25366413  0.25366413  1.0
