# generated using pymatgen
data_Nd2Pt2O7
_symmetry_space_group_name_H-M   'P 1'
_cell_length_a   7.40158779
_cell_length_b   7.40158779
_cell_length_c   7.40158779
_cell_angle_alpha   60.00000000
_cell_angle_beta   60.00000000
_cell_angle_gamma   60.00000000
_symmetry_Int_Tables_number   1
_chemical_formula_structural   Nd2Pt2O7
_chemical_formula_sum   'Nd4 Pt4 O14'
_cell_volume   286.72112092
_cell_formula_units_Z   2
loop_
 _symmetry_equiv_pos_site_id
 _symmetry_equiv_pos_as_xyz
  1  'x, y, z'
loop_
 _atom_site_type_symbol
 _atom_site_label
 _atom_site_symmetry_multiplicity
 _atom_site_fract_x
 _atom_site_fract_y
 _atom_site_fract_z
 _atom_site_occupancy
  Nd  Nd0  1  1.12500000  0.62500000  0.62500000  1.0
  Nd  Nd1  1  0.62500000  1.12500000  -0.37500000  1.0
  Nd  Nd2  1  -0.37500000  0.62500000  1.12500000  1.0
  Nd  Nd3  1  -0.37500000  0.62500000  0.62500000  1.0
  Pt  Pt4  1  0.62500000  1.12500000  0.12500000  1.0
  Pt  Pt5  1  0.12500000  1.62500000  0.12500000  1.0
  Pt  Pt6  1  0.12500000  0.12500000  1.62500000  1.0
  Pt  Pt7  1  0.12500000  0.12500000  0.12500000  1.0
  O  O8  1  0.78942801  0.78942801  -0.78942801  1.0
  O  O9  1  0.21057199  1.21057199  -0.21057199  1.0
  O  O10  1  0.78942801  -0.78942801  0.78942801  1.0
  O  O11  1  0.21057199  -0.21057199  0.21057199  1.0
  O  O12  1  -0.78942801  0.78942801  0.78942801  1.0
  O  O13  1  -0.21057199  0.21057199  0.21057199  1.0
  O  O14  1  0.46057199  1.46057199  0.03942801  1.0
  O  O15  1  0.03942801  0.03942801  0.46057199  1.0
  O  O16  1  0.46057199  1.03942801  0.46057199  1.0
  O  O17  1  0.03942801  1.46057199  0.03942801  1.0
  O  O18  1  0.03942801  1.46057199  0.46057199  1.0
  O  O19  1  0.46057199  1.03942801  0.03942801  1.0
  O  O20  1  0.50000000  -0.50000000  0.50000000  1.0
  O  O21  1  0.75000000  0.75000000  0.75000000  1.0
