# generated using pymatgen
data_Gd5CoBi2
_symmetry_space_group_name_H-M   'P 1'
_cell_length_a   12.40876331
_cell_length_b   9.08357669
_cell_length_c   8.08359141
_cell_angle_alpha   90.00000000
_cell_angle_beta   90.00000000
_cell_angle_gamma   90.00000000
_symmetry_Int_Tables_number   1
_chemical_formula_structural   Gd5CoBi2
_chemical_formula_sum   'Gd20 Co4 Bi8'
_cell_volume   911.14971087
_cell_formula_units_Z   4
loop_
 _symmetry_equiv_pos_site_id
 _symmetry_equiv_pos_as_xyz
  1  'x, y, z'
loop_
 _atom_site_type_symbol
 _atom_site_label
 _atom_site_symmetry_multiplicity
 _atom_site_fract_x
 _atom_site_fract_y
 _atom_site_fract_z
 _atom_site_occupancy
  Gd  Gd0  1  0.93571168  0.95880683  0.17964940  1.0
  Gd  Gd1  1  0.93571168  0.54119317  0.17964940  1.0
  Gd  Gd2  1  0.43571168  0.95880683  0.32035060  1.0
  Gd  Gd3  1  0.43571168  0.54119317  0.32035060  1.0
  Gd  Gd4  1  0.06428832  0.45880683  0.82035060  1.0
  Gd  Gd5  1  0.06428832  0.04119317  0.82035060  1.0
  Gd  Gd6  1  0.56428832  0.45880683  0.67964940  1.0
  Gd  Gd7  1  0.56428832  0.04119317  0.67964940  1.0
  Gd  Gd8  1  0.99678884  0.25000000  0.44276424  1.0
  Gd  Gd9  1  0.49678884  0.25000000  0.05723576  1.0
  Gd  Gd10  1  0.00321116  0.75000000  0.55723576  1.0
  Gd  Gd11  1  0.50321116  0.75000000  0.94276424  1.0
  Gd  Gd12  1  0.81026831  0.25000000  0.88934287  1.0
  Gd  Gd13  1  0.31026831  0.25000000  0.61065713  1.0
  Gd  Gd14  1  0.18973169  0.75000000  0.11065713  1.0
  Gd  Gd15  1  0.68973169  0.75000000  0.38934287  1.0
  Gd  Gd16  1  0.70061245  0.25000000  0.35054125  1.0
  Gd  Gd17  1  0.20061245  0.25000000  0.14945875  1.0
  Gd  Gd18  1  0.29938755  0.75000000  0.64945875  1.0
  Gd  Gd19  1  0.79938755  0.75000000  0.85054125  1.0
  Co  Co20  1  0.99076014  0.25000000  0.07238480  1.0
  Co  Co21  1  0.49076014  0.25000000  0.42761520  1.0
  Co  Co22  1  0.00923986  0.75000000  0.92761521  1.0
  Co  Co23  1  0.50923986  0.75000000  0.57238480  1.0
  Bi  Bi24  1  0.67240896  0.50910619  0.07676115  1.0
  Bi  Bi25  1  0.67240896  -0.00910619  0.07676115  1.0
  Bi  Bi26  1  0.17240896  0.50910619  0.42323885  1.0
  Bi  Bi27  1  0.17240896  -0.00910619  0.42323885  1.0
  Bi  Bi28  1  0.32759104  1.00910619  0.92323885  1.0
  Bi  Bi29  1  0.32759104  0.49089381  0.92323885  1.0
  Bi  Bi30  1  0.82759104  1.00910619  0.57676115  1.0
  Bi  Bi31  1  0.82759104  0.49089381  0.57676115  1.0
