# generated using pymatgen
data_CsTbF5
_symmetry_space_group_name_H-M   'P 1'
_cell_length_a   8.29313262
_cell_length_b   8.29313262
_cell_length_c   8.43976651
_cell_angle_alpha   90.00000000
_cell_angle_beta   90.00000000
_cell_angle_gamma   61.16719228
_symmetry_Int_Tables_number   1
_chemical_formula_structural   CsTbF5
_chemical_formula_sum   'Cs4 Tb4 F20'
_cell_volume   508.49533146
_cell_formula_units_Z   4
loop_
 _symmetry_equiv_pos_site_id
 _symmetry_equiv_pos_as_xyz
  1  'x, y, z'
loop_
 _atom_site_type_symbol
 _atom_site_label
 _atom_site_symmetry_multiplicity
 _atom_site_fract_x
 _atom_site_fract_y
 _atom_site_fract_z
 _atom_site_occupancy
  Cs  Cs0  1  0.20303835  1.20303835  0.50000000  1.0
  Cs  Cs1  1  -0.29696165  0.70303835  0.00000000  1.0
  Cs  Cs2  1  -0.20303835  0.79696165  0.50000000  1.0
  Cs  Cs3  1  0.29696165  1.29696165  0.00000000  1.0
  Tb  Tb4  1  -0.16193196  1.16193196  0.16116441  1.0
  Tb  Tb5  1  0.33806804  0.66193196  0.33883559  1.0
  Tb  Tb6  1  0.16193196  0.83806804  0.83883559  1.0
  Tb  Tb7  1  -0.33806804  1.33806804  0.66116441  1.0
  F  F8  1  -0.35325791  1.06731129  0.20678679  1.0
  F  F9  1  0.14674209  0.56731129  0.29321321  1.0
  F  F10  1  0.06731129  0.64674209  0.79321321  1.0
  F  F11  1  -0.43268871  1.14674209  0.70678679  1.0
  F  F12  1  -0.06731129  1.35325791  0.20678679  1.0
  F  F13  1  0.43268871  0.85325791  0.29321321  1.0
  F  F14  1  0.35325791  0.93268871  0.79321321  1.0
  F  F15  1  -0.14674209  1.43268871  0.70678679  1.0
  F  F16  1  -0.43603098  1.43603098  0.20944140  1.0
  F  F17  1  0.06396902  0.93603098  0.29055860  1.0
  F  F18  1  0.43603098  0.56396902  0.79055860  1.0
  F  F19  1  -0.06396902  1.06396902  0.70944140  1.0
  F  F20  1  -0.20953737  1.20953737  0.43478369  1.0
  F  F21  1  0.29046263  0.70953737  0.06521631  1.0
  F  F22  1  0.20953737  0.79046263  0.56521631  1.0
  F  F23  1  -0.29046263  1.29046263  0.93478369  1.0
  F  F24  1  0.41416068  1.41416068  0.50000000  1.0
  F  F25  1  -0.08583932  0.91416068  0.00000000  1.0
  F  F26  1  -0.41416068  0.58583932  0.50000000  1.0
  F  F27  1  0.08583932  1.08583932  0.00000000  1.0
