# generated using pymatgen
data_Na2ZnSi3O8
_symmetry_space_group_name_H-M   'P 1'
_cell_length_a   6.47713018
_cell_length_b   8.75862925
_cell_length_c   6.77257597
_cell_angle_alpha   90.00000000
_cell_angle_beta   103.53223570
_cell_angle_gamma   90.00000000
_symmetry_Int_Tables_number   1
_chemical_formula_structural   Na2ZnSi3O8
_chemical_formula_sum   'Na4 Zn2 Si6 O16'
_cell_volume   373.54715708
_cell_formula_units_Z   2
loop_
 _symmetry_equiv_pos_site_id
 _symmetry_equiv_pos_as_xyz
  1  'x, y, z'
loop_
 _atom_site_type_symbol
 _atom_site_label
 _atom_site_symmetry_multiplicity
 _atom_site_fract_x
 _atom_site_fract_y
 _atom_site_fract_z
 _atom_site_occupancy
  Na  Na0  1  0.59232533  0.36719022  0.47137668  1.0
  Na  Na1  1  0.40767467  0.86719022  0.52862332  1.0
  Na  Na2  1  0.16827752  0.30935709  0.77921156  1.0
  Na  Na3  1  0.83172248  0.80935709  0.22078844  1.0
  Zn  Zn4  1  0.96290279  -0.00217822  0.61182133  1.0
  Zn  Zn5  1  0.03709721  0.49782178  0.38817867  1.0
  Si  Si6  1  0.85562358  0.66769706  0.73170832  1.0
  Si  Si7  1  0.14437642  0.16769706  0.26829168  1.0
  Si  Si8  1  0.75034617  0.18561502  0.90046557  1.0
  Si  Si9  1  0.24965383  0.68561502  0.09953443  1.0
  Si  Si10  1  0.59457995  0.50335144  0.98838754  1.0
  Si  Si11  1  0.40542005  0.00335144  0.01161246  1.0
  O  O12  1  0.97565405  0.23079211  0.05793594  1.0
  O  O13  1  0.02434595  0.73079211  0.94206406  1.0
  O  O14  1  0.94079190  0.51500535  0.64313430  1.0
  O  O15  1  0.05920810  0.01500535  0.35686570  1.0
  O  O16  1  0.79208150  0.80959126  0.57474148  1.0
  O  O17  1  0.20791850  0.30959126  0.42525852  1.0
  O  O18  1  0.78328337  0.16238803  0.67435273  1.0
  O  O19  1  0.21671663  0.66238803  0.32564727  1.0
  O  O20  1  0.65307627  0.03505088  0.99514397  1.0
  O  O21  1  0.34692373  0.53505088  0.00485603  1.0
  O  O22  1  0.63804562  0.62199221  0.81301013  1.0
  O  O23  1  0.36195438  0.12199221  0.18698987  1.0
  O  O24  1  0.57955625  0.32860519  0.89130833  1.0
  O  O25  1  0.42044375  0.82860519  0.10869167  1.0
  O  O26  1  0.24895853  0.02024234  0.79237671  1.0
  O  O27  1  0.75104147  0.52024234  0.20762329  1.0
