# generated using pymatgen
data_Ti5Te4
_symmetry_space_group_name_H-M   'P 1'
_cell_length_a   7.47118948
_cell_length_b   7.47118948
_cell_length_c   7.47118948
_cell_angle_alpha   93.59563778
_cell_angle_beta   93.59563778
_cell_angle_gamma   150.99423607
_symmetry_Int_Tables_number   1
_chemical_formula_structural   Ti5Te4
_chemical_formula_sum   'Ti5 Te4'
_cell_volume   195.77409792
_cell_formula_units_Z   1
loop_
 _symmetry_equiv_pos_site_id
 _symmetry_equiv_pos_as_xyz
  1  'x, y, z'
loop_
 _atom_site_type_symbol
 _atom_site_label
 _atom_site_symmetry_multiplicity
 _atom_site_fract_x
 _atom_site_fract_y
 _atom_site_fract_z
 _atom_site_occupancy
  Ti  Ti0  1  0.68612163  0.62249511  0.30861675  1.0
  Ti  Ti1  1  0.62249511  0.31387837  0.93637348  1.0
  Ti  Ti2  1  1.31387837  1.37750489  1.69138325  1.0
  Ti  Ti3  1  0.37750489  0.68612163  1.06362652  1.0
  Ti  Ti4  1  0.00000000  0.00000000  0.00000000  1.0
  Te  Te5  1  0.94160058  0.72031506  0.66191564  1.0
  Te  Te6  1  0.72031506  0.05839942  0.77871448  1.0
  Te  Te7  1  1.05839942  1.27968494  1.33808436  1.0
  Te  Te8  1  0.27968494  0.94160058  1.22128552  1.0
