# generated using pymatgen
data_CrCoAs
_symmetry_space_group_name_H-M   'P 1'
_cell_length_a   6.09492812
_cell_length_b   6.09492812
_cell_length_c   3.66047236
_cell_angle_alpha   90.00000000
_cell_angle_beta   90.00000000
_cell_angle_gamma   120.00000000
_symmetry_Int_Tables_number   1
_chemical_formula_structural   CrCoAs
_chemical_formula_sum   'Cr3 Co3 As3'
_cell_volume   117.76193674
_cell_formula_units_Z   3
loop_
 _symmetry_equiv_pos_site_id
 _symmetry_equiv_pos_as_xyz
  1  'x, y, z'
loop_
 _atom_site_type_symbol
 _atom_site_label
 _atom_site_symmetry_multiplicity
 _atom_site_fract_x
 _atom_site_fract_y
 _atom_site_fract_z
 _atom_site_occupancy
  As  As0  1  0.00000000  0.00000000  0.00000000  1.0
  As  As1  1  0.33333333  0.66666667  0.50000000  1.0
  As  As2  1  0.66666667  0.33333333  0.50000000  1.0
  Co  Co3  1  0.75329059  0.75329059  0.50000000  1.0
  Co  Co4  1  0.00000000  0.24670941  0.50000000  1.0
  Co  Co5  1  0.24670941  0.00000000  0.50000000  1.0
  Cr  Cr6  1  0.41576446  0.41576446  0.00000000  1.0
  Cr  Cr7  1  -0.00000000  0.58423554  0.00000000  1.0
  Cr  Cr8  1  0.58423554  0.00000000  0.00000000  1.0
