# generated using pymatgen
data_P2PbAu2
_symmetry_space_group_name_H-M   'P 1'
_cell_length_a   5.98406103
_cell_length_b   5.98406103
_cell_length_c   11.34506103
_cell_angle_alpha   90.00000000
_cell_angle_beta   90.00000000
_cell_angle_gamma   147.93669941
_symmetry_Int_Tables_number   1
_chemical_formula_structural   P2PbAu2
_chemical_formula_sum   'P4 Pb2 Au4'
_cell_volume   215.66292279
_cell_formula_units_Z   2
loop_
 _symmetry_equiv_pos_site_id
 _symmetry_equiv_pos_as_xyz
  1  'x, y, z'
loop_
 _atom_site_type_symbol
 _atom_site_label
 _atom_site_symmetry_multiplicity
 _atom_site_fract_x
 _atom_site_fract_y
 _atom_site_fract_z
 _atom_site_occupancy
  P  P0  1  0.20141875  0.79858125  0.95600902  1.0
  P  P1  1  0.20141875  0.79858125  0.54399098  1.0
  P  P2  1  -0.20141875  0.20141875  0.45600902  1.0
  P  P3  1  -0.20141875  0.20141875  0.04399098  1.0
  Pb  Pb4  1  0.47852801  0.52147199  0.75000000  1.0
  Pb  Pb5  1  -0.47852801  0.47852801  0.25000000  1.0
  Au  Au6  1  0.22402591  0.77597409  0.75000000  1.0
  Au  Au7  1  -0.22402591  0.22402591  0.25000000  1.0
  Au  Au8  1  0.00000000  0.00000000  0.00000000  1.0
  Au  Au9  1  0.00000000  0.00000000  0.50000000  1.0
