# generated using pymatgen
data_NCl2O11
_symmetry_space_group_name_H-M   'P 1'
_cell_length_a   6.04124652
_cell_length_b   6.04124652
_cell_length_c   14.67395502
_cell_angle_alpha   74.78327260
_cell_angle_beta   105.21672740
_cell_angle_gamma   122.29061656
_symmetry_Int_Tables_number   1
_chemical_formula_structural   NCl2O11
_chemical_formula_sum   'N2 Cl4 O22'
_cell_volume   431.92013130
_cell_formula_units_Z   2
loop_
 _symmetry_equiv_pos_site_id
 _symmetry_equiv_pos_as_xyz
  1  'x, y, z'
loop_
 _atom_site_type_symbol
 _atom_site_label
 _atom_site_symmetry_multiplicity
 _atom_site_fract_x
 _atom_site_fract_y
 _atom_site_fract_z
 _atom_site_occupancy
  N  N0  1  1.50000000  0.00000000  0.50000000  1.0
  N  N1  1  1.00000000  0.50000000  0.00000000  1.0
  O  O2  1  1.65726015  0.10845831  0.45185489  1.0
  O  O3  1  0.89154169  0.34273985  0.95185489  1.0
  O  O4  1  1.10845831  0.65726015  0.04814511  1.0
  O  O5  1  1.34273985  -0.10845831  0.54814511  1.0
  O  O6  1  1.20664307  0.21179886  0.39553817  1.0
  O  O7  1  1.78820114  -0.20664307  0.89553817  1.0
  O  O8  1  1.21179886  0.20664307  0.10446183  1.0
  O  O9  1  0.79335693  0.78820114  0.60446183  1.0
  O  O10  1  0.80155461  0.80155461  0.25000000  1.0
  O  O11  1  1.19844539  0.19844539  0.75000000  1.0
  O  O12  1  0.57962566  -0.34957109  0.36325098  1.0
  O  O13  1  1.34957109  -0.57962566  0.86325098  1.0
  O  O14  1  0.65042891  -0.42037434  0.13674902  1.0
  O  O15  1  0.42037434  0.34957109  0.63674902  1.0
  O  O16  1  0.59494305  0.18944132  0.10020813  1.0
  O  O17  1  0.81055868  0.40505695  0.60020813  1.0
  O  O18  1  1.18944132  0.59494305  0.39979187  1.0
  O  O19  1  0.40505695  -0.18944132  0.89979187  1.0
  O  O20  1  1.49410582  0.17388316  0.25024292  1.0
  O  O21  1  0.82611684  0.50589418  0.75024292  1.0
  O  O22  1  1.17388316  0.49410582  0.24975708  1.0
  O  O23  1  1.50589418  -0.17388316  0.74975708  1.0
  Cl  Cl24  1  1.48272179  0.27932462  0.15000469  1.0
  Cl  Cl25  1  0.72067538  0.51727821  0.65000469  1.0
  Cl  Cl26  1  1.27932462  0.48272179  0.34999531  1.0
  Cl  Cl27  1  1.51727821  -0.27932462  0.84999531  1.0
