# generated using pymatgen
data_Cs3B6H12Se4Br
_symmetry_space_group_name_H-M   'P 1'
_cell_length_a   11.03803474
_cell_length_b   11.03803474
_cell_length_c   8.96480022
_cell_angle_alpha   90.00000000
_cell_angle_beta   90.00000000
_cell_angle_gamma   120.00000000
_symmetry_Int_Tables_number   1
_chemical_formula_structural   Cs3B6H12Se4Br
_chemical_formula_sum   'Cs6 B12 H24 Se8 Br2'
_cell_volume   945.92076834
_cell_formula_units_Z   2
loop_
 _symmetry_equiv_pos_site_id
 _symmetry_equiv_pos_as_xyz
  1  'x, y, z'
loop_
 _atom_site_type_symbol
 _atom_site_label
 _atom_site_symmetry_multiplicity
 _atom_site_fract_x
 _atom_site_fract_y
 _atom_site_fract_z
 _atom_site_occupancy
  Cs  Cs0  1  0.69365765  0.84682883  0.75087617  1.0
  Cs  Cs1  1  0.15317117  0.84682883  0.75087617  1.0
  Cs  Cs2  1  0.15317117  0.30634235  0.75087617  1.0
  Cs  Cs3  1  0.30634235  0.15317117  0.25087617  1.0
  Cs  Cs4  1  0.84682883  0.15317117  0.25087617  1.0
  Cs  Cs5  1  0.84682883  0.69365765  0.25087617  1.0
  B  B6  1  0.76664835  0.23335165  0.88558996  1.0
  B  B7  1  0.76664835  0.53329669  0.88558996  1.0
  B  B8  1  0.46670331  0.23335165  0.88558996  1.0
  B  B9  1  0.23335165  0.76664835  0.38558996  1.0
  B  B10  1  0.23335165  0.46670331  0.38558996  1.0
  B  B11  1  0.53329669  0.76664835  0.38558996  1.0
  B  B12  1  0.56634072  0.43365928  0.58362867  1.0
  B  B13  1  0.56634072  0.13268145  0.58362867  1.0
  B  B14  1  0.86731855  0.43365928  0.58362867  1.0
  B  B15  1  0.43365928  0.56634072  0.08362867  1.0
  B  B16  1  0.43365928  0.86731855  0.08362867  1.0
  B  B17  1  0.13268145  0.56634072  0.08362867  1.0
  H  H18  1  0.70225462  0.11305492  0.92739835  1.0
  H  H19  1  0.88694508  0.58919970  0.92739835  1.0
  H  H20  1  0.41080030  0.29774538  0.92739835  1.0
  H  H21  1  0.88694508  0.29774538  0.92739835  1.0
  H  H22  1  0.41080030  0.11305492  0.92739835  1.0
  H  H23  1  0.70225462  0.58919970  0.92739835  1.0
  H  H24  1  0.29774538  0.88694508  0.42739835  1.0
  H  H25  1  0.11305492  0.41080030  0.42739835  1.0
  H  H26  1  0.58919970  0.70225462  0.42739835  1.0
  H  H27  1  0.11305492  0.70225462  0.42739835  1.0
  H  H28  1  0.58919970  0.88694508  0.42739835  1.0
  H  H29  1  0.29774538  0.41080030  0.42739835  1.0
  H  H30  1  0.50773059  0.49226941  0.63442799  1.0
  H  H31  1  0.50773059  0.01546119  0.63442799  1.0
  H  H32  1  0.98453881  0.49226941  0.63442799  1.0
  H  H33  1  0.49226941  0.50773059  0.13442799  1.0
  H  H34  1  0.49226941  0.98453881  0.13442799  1.0
  H  H35  1  0.01546119  0.50773059  0.13442799  1.0
  H  H36  1  0.56904620  0.43095380  0.44860386  1.0
  H  H37  1  0.56904620  0.13809239  0.44860386  1.0
  H  H38  1  0.86190761  0.43095380  0.44860386  1.0
  H  H39  1  0.43095380  0.56904620  0.94860386  1.0
  H  H40  1  0.43095380  0.86190761  0.94860386  1.0
  H  H41  1  0.13809239  0.56904620  0.94860386  1.0
  Se  Se42  1  0.77174216  0.22825784  0.65535723  1.0
  Se  Se43  1  0.77174216  0.54348431  0.65535723  1.0
  Se  Se44  1  0.45651569  0.22825784  0.65535723  1.0
  Se  Se45  1  0.22825784  0.77174216  0.15535723  1.0
  Se  Se46  1  0.22825784  0.45651569  0.15535723  1.0
  Se  Se47  1  0.54348431  0.77174216  0.15535723  1.0
  Se  Se48  1  0.66666667  0.33333333  0.97459371  1.0
  Se  Se49  1  0.33333333  0.66666667  0.47459371  1.0
  Br  Br50  1  0.00000000  0.00000000  0.49837456  1.0
  Br  Br51  1  0.00000000  0.00000000  0.99837456  1.0
