# generated using pymatgen
data_NaClO4
_symmetry_space_group_name_H-M   'P 1'
_cell_length_a   7.93426690
_cell_length_b   5.60616226
_cell_length_c   7.63788630
_cell_angle_alpha   90.00000000
_cell_angle_beta   90.00000000
_cell_angle_gamma   90.00000000
_symmetry_Int_Tables_number   1
_chemical_formula_structural   NaClO4
_chemical_formula_sum   'Na4 Cl4 O16'
_cell_volume   339.73919854
_cell_formula_units_Z   4
loop_
 _symmetry_equiv_pos_site_id
 _symmetry_equiv_pos_as_xyz
  1  'x, y, z'
loop_
 _atom_site_type_symbol
 _atom_site_label
 _atom_site_symmetry_multiplicity
 _atom_site_fract_x
 _atom_site_fract_y
 _atom_site_fract_z
 _atom_site_occupancy
  Na  Na0  1  0.25062553  0.75000000  0.24960207  1.0
  Na  Na1  1  0.75062553  0.75000000  0.25039793  1.0
  Na  Na2  1  0.74937447  0.25000000  0.75039793  1.0
  Na  Na3  1  0.24937447  0.25000000  0.74960207  1.0
  Cl  Cl4  1  0.49924812  0.75000000  0.67328355  1.0
  Cl  Cl5  1  0.99924812  0.75000000  0.82671645  1.0
  Cl  Cl6  1  0.50075188  0.25000000  0.32671645  1.0
  Cl  Cl7  1  0.00075188  0.25000000  0.17328355  1.0
  O  O8  1  0.49920691  0.96532675  0.78396815  1.0
  O  O9  1  0.49920691  0.53467325  0.78396815  1.0
  O  O10  1  0.99920691  0.96532675  0.71603185  1.0
  O  O11  1  0.99920691  0.53467325  0.71603185  1.0
  O  O12  1  0.50079309  0.46532675  0.21603185  1.0
  O  O13  1  0.50079309  0.03467325  0.21603185  1.0
  O  O14  1  0.00079309  0.46532675  0.28396815  1.0
  O  O15  1  0.00079309  0.03467325  0.28396815  1.0
  O  O16  1  0.34684966  0.75000000  0.56522273  1.0
  O  O17  1  0.84684966  0.75000000  0.93477727  1.0
  O  O18  1  0.65315034  0.25000000  0.43477727  1.0
  O  O19  1  0.15315034  0.25000000  0.06522273  1.0
  O  O20  1  0.15166384  0.75000000  0.93471548  1.0
  O  O21  1  0.65166384  0.75000000  0.56528452  1.0
  O  O22  1  0.84833616  0.25000000  0.06528452  1.0
  O  O23  1  0.34833616  0.25000000  0.43471548  1.0
