# generated using pymatgen
data_KB11H13C2NO
_symmetry_space_group_name_H-M   'P 1'
_cell_length_a   7.32026976
_cell_length_b   7.32026976
_cell_length_c   11.91311655
_cell_angle_alpha   82.90481782
_cell_angle_beta   97.09518218
_cell_angle_gamma   97.11993281
_symmetry_Int_Tables_number   1
_chemical_formula_structural   KB11H13C2NO
_chemical_formula_sum   'K2 B22 H26 C4 N2 O2'
_cell_volume   624.79993061
_cell_formula_units_Z   2
loop_
 _symmetry_equiv_pos_site_id
 _symmetry_equiv_pos_as_xyz
  1  'x, y, z'
loop_
 _atom_site_type_symbol
 _atom_site_label
 _atom_site_symmetry_multiplicity
 _atom_site_fract_x
 _atom_site_fract_y
 _atom_site_fract_z
 _atom_site_occupancy
  K  K0  1  1.24358021  -0.24358021  0.83792626  1.0
  K  K1  1  0.75641979  0.24358021  0.16207374  1.0
  B  B2  1  1.35279625  -0.35279625  0.11652893  1.0
  B  B3  1  0.64720375  0.35279625  0.88347107  1.0
  B  B4  1  1.12258867  -0.12258867  0.19889624  1.0
  B  B5  1  0.87741133  0.12258867  0.80110376  1.0
  B  B6  1  1.25017575  -0.43455666  0.34322154  1.0
  B  B7  1  1.43455666  -0.25017575  0.34322154  1.0
  B  B8  1  0.74982425  0.43455666  0.65677846  1.0
  B  B9  1  0.56544334  0.25017575  0.65677846  1.0
  B  B10  1  1.43300122  -0.43300122  0.25913317  1.0
  B  B11  1  0.56699878  0.43300122  0.74086683  1.0
  B  B12  1  1.12004587  -0.30412232  0.11352653  1.0
  B  B13  1  1.30412232  -0.12004587  0.11352653  1.0
  B  B14  1  0.87995413  0.30412232  0.88647347  1.0
  B  B15  1  0.69587768  0.12004587  0.88647347  1.0
  B  B16  1  1.05762009  -0.35548697  0.25328631  1.0
  B  B17  1  1.35548697  -0.05762009  0.25328631  1.0
  B  B18  1  0.94237991  0.35548697  0.74671369  1.0
  B  B19  1  0.64451303  0.05762009  0.74671369  1.0
  B  B20  1  1.20033034  -0.49754328  0.20289380  1.0
  B  B21  1  1.49754328  -0.20033034  0.20289380  1.0
  B  B22  1  0.79966966  0.49754328  0.79710620  1.0
  B  B23  1  0.50245672  0.20033034  0.79710620  1.0
  H  H24  1  1.04289642  -0.04289642  0.40638842  1.0
  H  H25  1  0.95710358  0.04289642  0.59361158  1.0
  H  H26  1  1.29265260  -0.29265260  0.55036999  1.0
  H  H27  1  0.70734740  0.29265260  0.44963001  1.0
  H  H28  1  1.40830351  -0.40830351  0.03789814  1.0
  H  H29  1  0.59169649  0.40830351  0.96210186  1.0
  H  H30  1  1.01311741  -0.01311741  0.19033589  1.0
  H  H31  1  0.98688259  0.01311741  0.80966411  1.0
  H  H32  1  1.22481450  -0.53131583  0.42902984  1.0
  H  H33  1  1.53131583  -0.22481450  0.42902984  1.0
  H  H34  1  0.77518550  0.53131583  0.57097016  1.0
  H  H35  1  0.46868417  0.22481450  0.57097016  1.0
  H  H36  1  0.54332824  0.45667176  0.28335337  1.0
  H  H37  1  1.45667176  -0.45667176  0.71664663  1.0
  H  H38  1  1.00556790  -0.32062242  0.03341370  1.0
  H  H39  1  1.32062242  -0.00556790  0.03341370  1.0
  H  H40  1  0.99443210  0.32062242  0.96658630  1.0
  H  H41  1  0.67937758  0.00556790  0.96658630  1.0
  H  H42  1  0.90552452  0.60291912  0.28086759  1.0
  H  H43  1  0.39708088  0.09447548  0.28086759  1.0
  H  H44  1  1.09447548  -0.60291912  0.71913241  1.0
  H  H45  1  1.60291912  -0.09447548  0.71913241  1.0
  H  H46  1  1.14670984  -0.65419730  0.18683554  1.0
  H  H47  1  1.65419730  -0.14670984  0.18683554  1.0
  H  H48  1  0.85329016  0.65419730  0.81316446  1.0
  H  H49  1  0.34580270  0.14670984  0.81316446  1.0
  C  C50  1  1.20718615  -0.20718615  0.33272639  1.0
  C  C51  1  0.79281385  0.20718615  0.66727361  1.0
  C  C52  1  1.19067186  -0.19067186  0.53559693  1.0
  C  C53  1  0.80932814  0.19067186  0.46440307  1.0
  N  N54  1  1.13862506  -0.13862506  0.42552966  1.0
  N  N55  1  0.86137494  0.13862506  0.57447034  1.0
  O  O56  1  1.13143551  -0.13143551  0.61646521  1.0
  O  O57  1  0.86856449  0.13143551  0.38353479  1.0
