# generated using pymatgen
data_ZnO
_symmetry_space_group_name_H-M   'P 1'
_cell_length_a   10.79461086
_cell_length_b   10.79461086
_cell_length_c   10.79461086
_cell_angle_alpha   17.42753788
_cell_angle_beta   17.42753788
_cell_angle_gamma   17.42753788
_symmetry_Int_Tables_number   1
_chemical_formula_structural   ZnO
_chemical_formula_sum   'Zn4 O4'
_cell_volume   98.46422480
_cell_formula_units_Z   4
loop_
 _symmetry_equiv_pos_site_id
 _symmetry_equiv_pos_as_xyz
  1  'x, y, z'
loop_
 _atom_site_type_symbol
 _atom_site_label
 _atom_site_symmetry_multiplicity
 _atom_site_fract_x
 _atom_site_fract_y
 _atom_site_fract_z
 _atom_site_occupancy
  Zn  Zn0  1  0.00028738  0.00028738  0.00028738  1.0
  Zn  Zn1  1  0.41705709  0.41705709  -0.58294291  1.0
  Zn  Zn2  1  0.83377744  -0.16622256  -0.16622256  1.0
  Zn  Zn3  1  0.58368435  0.58368435  -0.41631565  1.0
  O  O4  1  0.06315418  0.06315418  0.06315418  1.0
  O  O5  1  0.47993588  0.47993588  -0.52006412  1.0
  O  O6  1  0.89652292  -0.10347708  -0.10347708  1.0
  O  O7  1  0.64641375  0.64641375  -0.35358625  1.0
