# generated using pymatgen
data_Sb2Pd5
_symmetry_space_group_name_H-M   'P 1'
_cell_length_a   7.71953036
_cell_length_b   7.71953036
_cell_length_c   14.08560754
_cell_angle_alpha   90.00000000
_cell_angle_beta   90.00000000
_cell_angle_gamma   120.00000000
_symmetry_Int_Tables_number   1
_chemical_formula_structural   Sb2Pd5
_chemical_formula_sum   'Sb12 Pd30'
_cell_volume   726.92227085
_cell_formula_units_Z   6
loop_
 _symmetry_equiv_pos_site_id
 _symmetry_equiv_pos_as_xyz
  1  'x, y, z'
loop_
 _atom_site_type_symbol
 _atom_site_label
 _atom_site_symmetry_multiplicity
 _atom_site_fract_x
 _atom_site_fract_y
 _atom_site_fract_z
 _atom_site_occupancy
  Sb  Sb0  1  0.66818211  0.66818211  0.21805163  1.0
  Sb  Sb1  1  0.66818211  -0.00000000  0.71805163  1.0
  Sb  Sb2  1  -0.00000000  0.66818211  0.71805163  1.0
  Sb  Sb3  1  -0.00000000  0.33181789  0.21805163  1.0
  Sb  Sb4  1  0.33181789  0.33181789  0.71805163  1.0
  Sb  Sb5  1  0.33181789  0.00000000  0.21805163  1.0
  Sb  Sb6  1  0.33333333  0.66666667  0.44289967  1.0
  Sb  Sb7  1  0.33333333  0.66666667  0.94289967  1.0
  Sb  Sb8  1  0.66666667  0.33333333  0.44289967  1.0
  Sb  Sb9  1  0.66666667  0.33333333  0.94289967  1.0
  Sb  Sb10  1  -0.00000000  0.00000000  -0.00707548  1.0
  Sb  Sb11  1  -0.00000000  -0.00000000  0.49292452  1.0
  Pd  Pd12  1  0.73537091  0.73537091  0.61999348  1.0
  Pd  Pd13  1  0.73537091  -0.00000000  0.11999348  1.0
  Pd  Pd14  1  -0.00000000  0.73537091  0.11999348  1.0
  Pd  Pd15  1  0.00000000  0.26462909  0.61999348  1.0
  Pd  Pd16  1  0.26462909  0.26462909  0.11999348  1.0
  Pd  Pd17  1  0.26462909  0.00000000  0.61999348  1.0
  Pd  Pd18  1  0.69164967  0.69164967  0.41289365  1.0
  Pd  Pd19  1  0.69164967  -0.00000000  0.91289365  1.0
  Pd  Pd20  1  -0.00000000  0.69164967  0.91289365  1.0
  Pd  Pd21  1  0.00000000  0.30835033  0.41289365  1.0
  Pd  Pd22  1  0.30835033  0.30835033  0.91289365  1.0
  Pd  Pd23  1  0.30835033  0.00000000  0.41289365  1.0
  Pd  Pd24  1  0.62787698  0.62787698  0.02226109  1.0
  Pd  Pd25  1  0.62787698  0.00000000  0.52226109  1.0
  Pd  Pd26  1  -0.00000000  0.62787698  0.52226109  1.0
  Pd  Pd27  1  -0.00000000  0.37212302  0.02226109  1.0
  Pd  Pd28  1  0.37212302  0.37212302  0.52226109  1.0
  Pd  Pd29  1  0.37212302  -0.00000000  0.02226109  1.0
  Pd  Pd30  1  0.37195596  0.37195596  0.31244018  1.0
  Pd  Pd31  1  0.37195596  -0.00000000  0.81244018  1.0
  Pd  Pd32  1  -0.00000000  0.37195596  0.81244018  1.0
  Pd  Pd33  1  0.00000000  0.62804404  0.31244018  1.0
  Pd  Pd34  1  0.62804404  0.62804404  0.81244018  1.0
  Pd  Pd35  1  0.62804404  0.00000000  0.31244018  1.0
  Pd  Pd36  1  0.33333333  0.66666667  0.14569356  1.0
  Pd  Pd37  1  0.33333333  0.66666667  0.64569356  1.0
  Pd  Pd38  1  0.66666667  0.33333333  0.14569356  1.0
  Pd  Pd39  1  0.66666667  0.33333333  0.64569356  1.0
  Pd  Pd40  1  0.00000000  0.00000000  0.28996895  1.0
  Pd  Pd41  1  -0.00000000  0.00000000  0.78996895  1.0
