# generated using pymatgen
data_AgPO3
_symmetry_space_group_name_H-M   'P 1'
_cell_length_a   7.51109619
_cell_length_b   6.05117580
_cell_length_c   14.22709140
_cell_angle_alpha   90.00000000
_cell_angle_beta   119.33037785
_cell_angle_gamma   90.00000000
_symmetry_Int_Tables_number   1
_chemical_formula_structural   AgPO3
_chemical_formula_sum   'Ag8 P8 O24'
_cell_volume   563.74266414
_cell_formula_units_Z   8
loop_
 _symmetry_equiv_pos_site_id
 _symmetry_equiv_pos_as_xyz
  1  'x, y, z'
loop_
 _atom_site_type_symbol
 _atom_site_label
 _atom_site_symmetry_multiplicity
 _atom_site_fract_x
 _atom_site_fract_y
 _atom_site_fract_z
 _atom_site_occupancy
  Ag  Ag0  1  0.49823959  0.33873055  0.37514216  1.0
  Ag  Ag1  1  0.49823959  0.16126945  0.87514216  1.0
  Ag  Ag2  1  0.50176041  0.83873055  0.12485784  1.0
  Ag  Ag3  1  0.50176041  0.66126945  0.62485784  1.0
  Ag  Ag4  1  0.73703354  0.90793815  0.46728383  1.0
  Ag  Ag5  1  0.73703354  0.59206185  0.96728383  1.0
  Ag  Ag6  1  0.26296646  0.40793815  0.03271617  1.0
  Ag  Ag7  1  0.26296646  0.09206185  0.53271617  1.0
  P  P8  1  0.93300894  0.11486067  0.11124754  1.0
  P  P9  1  0.93300894  0.38513933  0.61124754  1.0
  P  P10  1  0.06699106  0.61486067  0.38875246  1.0
  P  P11  1  0.06699106  0.88513933  0.88875246  1.0
  P  P12  1  0.74004335  0.32025550  0.22413952  1.0
  P  P13  1  0.74004335  0.17974450  0.72413952  1.0
  P  P14  1  0.25995665  0.82025550  0.27586048  1.0
  P  P15  1  0.25995665  0.67974450  0.77586048  1.0
  O  O16  1  0.97802885  0.30257416  0.05625025  1.0
  O  O17  1  0.97802885  0.19742584  0.55625025  1.0
  O  O18  1  0.02197115  0.80257416  0.44374975  1.0
  O  O19  1  0.02197115  0.69742584  0.94374975  1.0
  O  O20  1  0.92975732  0.20267257  0.21883254  1.0
  O  O21  1  0.92975732  0.29732743  0.71883254  1.0
  O  O22  1  0.07024268  0.70267257  0.28116746  1.0
  O  O23  1  0.07024268  0.79732743  0.78116746  1.0
  O  O24  1  0.86313245  0.46384684  0.33334755  1.0
  O  O25  1  0.86313245  0.03615316  0.83334755  1.0
  O  O26  1  0.13686755  0.96384684  0.16665245  1.0
  O  O27  1  0.13686755  0.53615316  0.66665245  1.0
  O  O28  1  0.74508544  0.97386609  0.04496400  1.0
  O  O29  1  0.74508544  0.52613391  0.54496400  1.0
  O  O30  1  0.25491456  0.47386609  0.45503600  1.0
  O  O31  1  0.25491456  0.02613391  0.95503600  1.0
  O  O32  1  0.62816351  0.46996374  0.12652644  1.0
  O  O33  1  0.62816351  0.03003626  0.62652644  1.0
  O  O34  1  0.37183649  0.96996374  0.37347356  1.0
  O  O35  1  0.37183649  0.53003626  0.87347356  1.0
  O  O36  1  0.61734663  0.15176589  0.24673956  1.0
  O  O37  1  0.61734663  0.34823411  0.74673956  1.0
  O  O38  1  0.38265337  0.65176589  0.25326044  1.0
  O  O39  1  0.38265337  0.84823411  0.75326044  1.0
