# generated using pymatgen
data_TaS2
_symmetry_space_group_name_H-M   'P 1'
_cell_length_a   6.83092173
_cell_length_b   6.83092173
_cell_length_c   6.83092173
_cell_angle_alpha   28.58419597
_cell_angle_beta   28.58419597
_cell_angle_gamma   28.58419597
_symmetry_Int_Tables_number   1
_chemical_formula_structural   TaS2
_chemical_formula_sum   'Ta1 S2'
_cell_volume   64.49796058
_cell_formula_units_Z   1
loop_
 _symmetry_equiv_pos_site_id
 _symmetry_equiv_pos_as_xyz
  1  'x, y, z'
loop_
 _atom_site_type_symbol
 _atom_site_label
 _atom_site_symmetry_multiplicity
 _atom_site_fract_x
 _atom_site_fract_y
 _atom_site_fract_z
 _atom_site_occupancy
  Ta  Ta0  1  0.00000000  0.00000000  0.00000000  1.0
  S  S1  1  0.74482028  0.74482028  0.74482028  1.0
  S  S2  1  1.25517972  1.25517972  0.25517972  1.0
