# generated using pymatgen
data_LuGeRu
_symmetry_space_group_name_H-M   'P 1'
_cell_length_a   6.91012265
_cell_length_b   4.33322909
_cell_length_c   7.26639366
_cell_angle_alpha   90.00000000
_cell_angle_beta   90.00000000
_cell_angle_gamma   90.00000000
_symmetry_Int_Tables_number   1
_chemical_formula_structural   LuGeRu
_chemical_formula_sum   'Lu4 Ge4 Ru4'
_cell_volume   217.57867509
_cell_formula_units_Z   4
loop_
 _symmetry_equiv_pos_site_id
 _symmetry_equiv_pos_as_xyz
  1  'x, y, z'
loop_
 _atom_site_type_symbol
 _atom_site_label
 _atom_site_symmetry_multiplicity
 _atom_site_fract_x
 _atom_site_fract_y
 _atom_site_fract_z
 _atom_site_occupancy
  Lu  Lu0  1  0.00733269  0.75000000  0.69102818  1.0
  Lu  Lu1  1  0.50733269  0.75000000  0.80897182  1.0
  Lu  Lu2  1  0.99266731  0.25000000  0.30897182  1.0
  Lu  Lu3  1  0.49266731  0.25000000  0.19102818  1.0
  Ge  Ge4  1  0.70642325  0.75000000  0.39053050  1.0
  Ge  Ge5  1  0.20642325  0.75000000  0.10946950  1.0
  Ge  Ge6  1  0.29357675  0.25000000  0.60946950  1.0
  Ge  Ge7  1  0.79357675  0.25000000  0.89053050  1.0
  Ru  Ru8  1  0.84300462  0.75000000  0.06113594  1.0
  Ru  Ru9  1  0.34300462  0.75000000  0.43886406  1.0
  Ru  Ru10  1  0.15699538  0.25000000  0.93886406  1.0
  Ru  Ru11  1  0.65699538  0.25000000  0.56113594  1.0
