# generated using pymatgen
data_Rb2ZnN4
_symmetry_space_group_name_H-M   'P 1'
_cell_length_a   8.23257465
_cell_length_b   6.98734343
_cell_length_c   13.26033633
_cell_angle_alpha   90.00000000
_cell_angle_beta   109.41843219
_cell_angle_gamma   90.00000000
_symmetry_Int_Tables_number   1
_chemical_formula_structural   Rb2ZnN4
_chemical_formula_sum   'Rb8 Zn4 N16'
_cell_volume   719.39481712
_cell_formula_units_Z   4
loop_
 _symmetry_equiv_pos_site_id
 _symmetry_equiv_pos_as_xyz
  1  'x, y, z'
loop_
 _atom_site_type_symbol
 _atom_site_label
 _atom_site_symmetry_multiplicity
 _atom_site_fract_x
 _atom_site_fract_y
 _atom_site_fract_z
 _atom_site_occupancy
  Rb  Rb0  1  0.96932004  0.20016524  0.15855645  1.0
  Rb  Rb1  1  0.96932004  0.29983476  0.65855645  1.0
  Rb  Rb2  1  0.03067996  0.70016524  0.34144355  1.0
  Rb  Rb3  1  0.03067996  0.79983476  0.84144355  1.0
  Rb  Rb4  1  0.42080923  0.22776548  0.09934657  1.0
  Rb  Rb5  1  0.42080923  0.27223452  0.59934657  1.0
  Rb  Rb6  1  0.57919077  0.72776548  0.40065343  1.0
  Rb  Rb7  1  0.57919077  0.77223452  0.90065343  1.0
  Zn  Zn8  1  0.79193989  0.24440339  0.37023805  1.0
  Zn  Zn9  1  0.79193989  0.25559661  0.87023805  1.0
  Zn  Zn10  1  0.20806011  0.74440339  0.12976195  1.0
  Zn  Zn11  1  0.20806011  0.75559661  0.62976195  1.0
  N  N12  1  0.96208210  0.77520721  0.05232993  1.0
  N  N13  1  0.96208210  0.72479279  0.55232993  1.0
  N  N14  1  0.03791790  0.27520721  0.44767007  1.0
  N  N15  1  0.03791790  0.22479279  0.94767007  1.0
  N  N16  1  0.73065958  0.43944167  0.26031386  1.0
  N  N17  1  0.73065958  0.06055833  0.76031386  1.0
  N  N18  1  0.26934042  0.93944167  0.23968614  1.0
  N  N19  1  0.26934042  0.56055833  0.73968614  1.0
  N  N20  1  0.76179821  1.00492084  0.29477552  1.0
  N  N21  1  0.76179821  0.49507916  0.79477552  1.0
  N  N22  1  0.23820179  0.50492084  0.20522448  1.0
  N  N23  1  0.23820179  -0.00492084  0.70522448  1.0
  N  N24  1  0.66032551  0.27574739  0.46441819  1.0
  N  N25  1  0.66032551  0.22425261  0.96441819  1.0
  N  N26  1  0.33967449  0.77574739  0.03558181  1.0
  N  N27  1  0.33967449  0.72425261  0.53558181  1.0
