# generated using pymatgen
data_CaCd2Pd
_symmetry_space_group_name_H-M   'P 1'
_cell_length_a   8.01008634
_cell_length_b   8.23378929
_cell_length_c   5.57638007
_cell_angle_alpha   90.00000000
_cell_angle_beta   90.00000000
_cell_angle_gamma   90.00000000
_symmetry_Int_Tables_number   1
_chemical_formula_structural   CaCd2Pd
_chemical_formula_sum   'Ca4 Cd8 Pd4'
_cell_volume   367.78101999
_cell_formula_units_Z   4
loop_
 _symmetry_equiv_pos_site_id
 _symmetry_equiv_pos_as_xyz
  1  'x, y, z'
loop_
 _atom_site_type_symbol
 _atom_site_label
 _atom_site_symmetry_multiplicity
 _atom_site_fract_x
 _atom_site_fract_y
 _atom_site_fract_z
 _atom_site_occupancy
  Ca  Ca0  1  0.46611245  0.75000000  0.10099987  1.0
  Ca  Ca1  1  0.96611245  0.75000000  0.39900013  1.0
  Ca  Ca2  1  0.53388755  0.25000000  0.89900013  1.0
  Ca  Ca3  1  0.03388755  0.25000000  0.60099987  1.0
  Cd  Cd4  1  0.32676291  0.94491638  0.59546687  1.0
  Cd  Cd5  1  0.32676291  0.55508362  0.59546687  1.0
  Cd  Cd6  1  0.82676291  0.94491638  0.90453313  1.0
  Cd  Cd7  1  0.82676291  0.55508362  0.90453313  1.0
  Cd  Cd8  1  0.67323709  0.44491638  0.40453313  1.0
  Cd  Cd9  1  0.67323709  0.05508362  0.40453313  1.0
  Cd  Cd10  1  0.17323709  0.44491638  0.09546687  1.0
  Cd  Cd11  1  0.17323709  0.05508362  0.09546687  1.0
  Pd  Pd12  1  0.12115317  0.75000000  0.88428127  1.0
  Pd  Pd13  1  0.62115317  0.75000000  0.61571873  1.0
  Pd  Pd14  1  0.87884683  0.25000000  0.11571873  1.0
  Pd  Pd15  1  0.37884683  0.25000000  0.38428127  1.0
