# generated using pymatgen
data_La4Ni3O10
_symmetry_space_group_name_H-M   'P 1'
_cell_length_a   14.18127270
_cell_length_b   14.18127270
_cell_length_c   5.53023742
_cell_angle_alpha   90.00000000
_cell_angle_beta   90.00000000
_cell_angle_gamma   157.90497742
_symmetry_Int_Tables_number   1
_chemical_formula_structural   La4Ni3O10
_chemical_formula_sum   'La8 Ni6 O20'
_cell_volume   418.33872517
_cell_formula_units_Z   2
loop_
 _symmetry_equiv_pos_site_id
 _symmetry_equiv_pos_as_xyz
  1  'x, y, z'
loop_
 _atom_site_type_symbol
 _atom_site_label
 _atom_site_symmetry_multiplicity
 _atom_site_fract_x
 _atom_site_fract_y
 _atom_site_fract_z
 _atom_site_occupancy
  La  La0  1  -0.19831950  0.19831950  0.48816648  1.0
  La  La1  1  0.30168050  0.69831950  0.01183352  1.0
  La  La2  1  0.19831950  0.80168050  0.51183352  1.0
  La  La3  1  -0.30168050  0.30168050  0.98816648  1.0
  La  La4  1  -0.06722489  0.06722489  0.49934839  1.0
  La  La5  1  0.43277511  0.56722489  0.00065161  1.0
  La  La6  1  0.06722489  0.93277511  0.50065161  1.0
  La  La7  1  -0.43277511  0.43277511  0.99934839  1.0
  Ni  Ni8  1  -0.36079237  0.36079237  0.49708761  1.0
  Ni  Ni9  1  0.13920763  0.86079237  0.00291239  1.0
  Ni  Ni10  1  0.36079237  0.63920763  0.50291239  1.0
  Ni  Ni11  1  -0.13920763  0.13920763  0.99708761  1.0
  Ni  Ni12  1  -0.50000000  0.50000000  0.50000000  1.0
  Ni  Ni13  1  -0.00000000  1.00000000  0.00000000  1.0
  O  O14  1  -0.42975198  0.42975198  0.44429940  1.0
  O  O15  1  0.07024802  0.92975198  0.05570060  1.0
  O  O16  1  0.42975198  0.57024802  0.55570060  1.0
  O  O17  1  -0.07024802  0.07024802  0.94429940  1.0
  O  O18  1  -0.21584319  0.21584319  0.03994429  1.0
  O  O19  1  0.28415681  0.71584319  0.46005571  1.0
  O  O20  1  0.21584319  0.78415681  0.96005571  1.0
  O  O21  1  -0.28415681  0.28415681  0.53994429  1.0
  O  O22  1  0.39637220  1.10362780  0.25000000  1.0
  O  O23  1  -0.10362780  0.60362780  0.25000000  1.0
  O  O24  1  0.10362780  0.39637220  0.75000000  1.0
  O  O25  1  0.60362780  0.89637220  0.75000000  1.0
  O  O26  1  0.61680075  0.88319925  0.25000000  1.0
  O  O27  1  0.11680075  0.38319925  0.25000000  1.0
  O  O28  1  -0.11680075  0.61680075  0.75000000  1.0
  O  O29  1  0.38319925  1.11680075  0.75000000  1.0
  O  O30  1  0.74194165  0.75805835  0.25000000  1.0
  O  O31  1  0.24194165  0.25805835  0.25000000  1.0
  O  O32  1  -0.24194165  0.74194165  0.75000000  1.0
  O  O33  1  0.25805835  1.24194165  0.75000000  1.0
