# generated using pymatgen
data_MgZrP2(H2O3)4
_symmetry_space_group_name_H-M   'P 1'
_cell_length_a   9.52534800
_cell_length_b   5.32598305
_cell_length_c   9.73817517
_cell_angle_alpha   92.58296902
_cell_angle_beta   96.79764809
_cell_angle_gamma   90.66127088
_symmetry_Int_Tables_number   1
_chemical_formula_structural   MgZrP2(H2O3)4
_chemical_formula_sum   'Mg2 Zr2 P4 H16 O24'
_cell_volume   489.99334860
_cell_formula_units_Z   2
loop_
 _symmetry_equiv_pos_site_id
 _symmetry_equiv_pos_as_xyz
  1  'x, y, z'
loop_
 _atom_site_type_symbol
 _atom_site_label
 _atom_site_symmetry_multiplicity
 _atom_site_fract_x
 _atom_site_fract_y
 _atom_site_fract_z
 _atom_site_occupancy
  Mg  Mg0  1  -0.50000000  -0.50000000  -0.00000000  1.0
  Mg  Mg1  1  0.00000000  0.00000000  0.00000000  1.0
  Zr  Zr2  1  -0.25288351  -0.74313202  -0.51092029  1.0
  Zr  Zr3  1  -0.74711649  -0.25686798  -0.48907971  1.0
  P  P4  1  -0.93839511  -0.78052908  -0.67568253  1.0
  P  P5  1  -0.06160489  -0.21947092  -0.32431747  1.0
  P  P6  1  -0.55008495  -0.72604617  -0.32144882  1.0
  P  P7  1  -0.44991505  -0.27395383  -0.67855118  1.0
  H  H8  1  -0.55545523  -0.95138898  -0.87034183  1.0
  H  H9  1  -0.44454477  -0.04861102  -0.12965817  1.0
  H  H10  1  -0.82006620  -0.95825352  -0.18474359  1.0
  H  H11  1  -0.17993380  -0.04174648  -0.81525641  1.0
  H  H12  1  -0.74050063  -0.85587282  -0.04082911  1.0
  H  H13  1  -0.25949937  -0.14412718  -0.95917089  1.0
  H  H14  1  -0.65254632  -0.73922147  -0.81514817  1.0
  H  H15  1  -0.34745368  -0.26077853  -0.18485183  1.0
  H  H16  1  -0.23870232  -0.67022148  -0.99046237  1.0
  H  H17  1  -0.76129768  -0.32977852  -0.00953763  1.0
  H  H18  1  -0.27279480  -0.58605962  -0.83674938  1.0
  H  H19  1  -0.72720520  -0.41394038  -0.16325062  1.0
  H  H20  1  -0.91180037  -0.45195497  -0.87416596  1.0
  H  H21  1  -0.08819963  -0.54804503  -0.12583404  1.0
  H  H22  1  -0.84714477  -0.19954716  -0.79981587  1.0
  H  H23  1  -0.15285523  -0.80045284  -0.20018413  1.0
  O  O24  1  -0.09218831  -0.82137519  -0.63941005  1.0
  O  O25  1  -0.90781169  -0.17862481  -0.36058995  1.0
  O  O26  1  -0.84796973  -1.01741252  -0.63898259  1.0
  O  O27  1  -0.15203027  0.01741252  -0.36101741  1.0
  O  O28  1  -0.62655242  -0.96633422  -0.39099795  1.0
  O  O29  1  -0.37344758  -0.03366578  -0.60900205  1.0
  O  O30  1  -0.83353120  -0.86731084  -0.09786561  1.0
  O  O31  1  -0.16646880  -0.13268916  -0.90213439  1.0
  O  O32  1  -0.60442863  -0.78956860  -0.89452399  1.0
  O  O33  1  -0.39557137  -0.21043140  -0.10547601  1.0
  O  O34  1  -0.94233545  -0.74661686  -0.83324358  1.0
  O  O35  1  -0.05766455  -0.25338314  -0.16675642  1.0
  O  O36  1  -0.31364299  -0.65256095  -0.92805807  1.0
  O  O37  1  -0.68635701  -0.34743905  -0.07194193  1.0
  O  O38  1  -0.86857360  -0.54719417  -0.59344151  1.0
  O  O39  1  -0.13142640  -0.45280583  -0.40655849  1.0
  O  O40  1  -0.65297431  -0.50169009  -0.34484804  1.0
  O  O41  1  -0.34702569  -0.49830991  -0.65515196  1.0
  O  O42  1  -0.58786317  -0.32675642  -0.61288064  1.0
  O  O43  1  -0.41213683  -0.67324358  -0.38711936  1.0
  O  O44  1  -0.87630606  -0.27925967  -0.89307223  1.0
  O  O45  1  -0.12369394  -0.72074033  -0.10692777  1.0
  O  O46  1  -0.48723659  -0.23921136  -0.83481445  1.0
  O  O47  1  -0.51276341  -0.76078864  -0.16518555  1.0
