# generated using pymatgen
data_CsAgBr2
_symmetry_space_group_name_H-M   'P 1'
_cell_length_a   10.44722239
_cell_length_b   10.44722239
_cell_length_c   6.00450939
_cell_angle_alpha   90.00000000
_cell_angle_beta   90.00000000
_cell_angle_gamma   154.13160496
_symmetry_Int_Tables_number   1
_chemical_formula_structural   CsAgBr2
_chemical_formula_sum   'Cs2 Ag2 Br4'
_cell_volume   285.93670723
_cell_formula_units_Z   2
loop_
 _symmetry_equiv_pos_site_id
 _symmetry_equiv_pos_as_xyz
  1  'x, y, z'
loop_
 _atom_site_type_symbol
 _atom_site_label
 _atom_site_symmetry_multiplicity
 _atom_site_fract_x
 _atom_site_fract_y
 _atom_site_fract_z
 _atom_site_occupancy
  Cs  Cs0  1  -0.58625761  0.58625761  0.25000000  1.0
  Cs  Cs1  1  -0.41374239  1.41374239  0.75000000  1.0
  Ag  Ag2  1  -0.79860406  0.79860406  0.25000000  1.0
  Ag  Ag3  1  -0.20139594  1.20139594  0.75000000  1.0
  Br  Br4  1  -0.92966765  0.92966765  0.25000000  1.0
  Br  Br5  1  -0.07033235  1.07033235  0.75000000  1.0
  Br  Br6  1  -0.22618014  1.22618014  0.25000000  1.0
  Br  Br7  1  -0.77381986  0.77381986  0.75000000  1.0
