# generated using pymatgen
data_RbLaNb2O7
_symmetry_space_group_name_H-M   'P 1'
_cell_length_a   3.91173359
_cell_length_b   3.91173359
_cell_length_c   11.31045482
_cell_angle_alpha   90.00000000
_cell_angle_beta   90.00000000
_cell_angle_gamma   90.00000000
_symmetry_Int_Tables_number   1
_chemical_formula_structural   RbLaNb2O7
_chemical_formula_sum   'Rb1 La1 Nb2 O7'
_cell_volume   173.06873070
_cell_formula_units_Z   1
loop_
 _symmetry_equiv_pos_site_id
 _symmetry_equiv_pos_as_xyz
  1  'x, y, z'
loop_
 _atom_site_type_symbol
 _atom_site_label
 _atom_site_symmetry_multiplicity
 _atom_site_fract_x
 _atom_site_fract_y
 _atom_site_fract_z
 _atom_site_occupancy
  Rb  Rb0  1  0.50000000  0.50000000  0.50000000  1.0
  La  La1  1  0.50000000  0.50000000  0.00000000  1.0
  Nb  Nb2  1  0.00000000  0.00000000  0.79705236  1.0
  Nb  Nb3  1  0.00000000  0.00000000  0.20294764  1.0
  O  O4  1  0.00000000  0.50000000  0.83467940  1.0
  O  O5  1  0.00000000  0.50000000  0.16532060  1.0
  O  O6  1  0.50000000  0.00000000  0.83467940  1.0
  O  O7  1  0.50000000  0.00000000  0.16532060  1.0
  O  O8  1  0.00000000  0.00000000  0.63902493  1.0
  O  O9  1  0.00000000  0.00000000  0.36097507  1.0
  O  O10  1  0.00000000  0.00000000  0.00000000  1.0
