# generated using pymatgen
data_BaAl5O9
_symmetry_space_group_name_H-M   'P 1'
_cell_length_a   5.70950316
_cell_length_b   5.70950316
_cell_length_c   13.48659192
_cell_angle_alpha   90.00000000
_cell_angle_beta   90.00000000
_cell_angle_gamma   120.00000000
_symmetry_Int_Tables_number   1
_chemical_formula_structural   BaAl5O9
_chemical_formula_sum   'Ba2 Al10 O18'
_cell_volume   380.74085814
_cell_formula_units_Z   2
loop_
 _symmetry_equiv_pos_site_id
 _symmetry_equiv_pos_as_xyz
  1  'x, y, z'
loop_
 _atom_site_type_symbol
 _atom_site_label
 _atom_site_symmetry_multiplicity
 _atom_site_fract_x
 _atom_site_fract_y
 _atom_site_fract_z
 _atom_site_occupancy
  O  O0  1  0.17206233  0.82793767  0.41957301  1.0
  O  O1  1  0.17206233  0.82793767  0.08042699  1.0
  O  O2  1  0.17206233  0.34412466  0.41957301  1.0
  O  O3  1  0.17206233  0.34412466  0.08042699  1.0
  O  O4  1  0.82793767  0.17206233  0.91957301  1.0
  O  O5  1  0.82793767  0.17206233  0.58042699  1.0
  O  O6  1  0.82793767  0.65587534  0.91957301  1.0
  O  O7  1  0.82793767  0.65587534  0.58042699  1.0
  O  O8  1  0.65587534  0.82793767  0.41957301  1.0
  O  O9  1  0.65587534  0.82793767  0.08042699  1.0
  O  O10  1  0.34412466  0.17206233  0.91957301  1.0
  O  O11  1  0.34412466  0.17206233  0.58042699  1.0
  O  O12  1  -0.00000000  -0.00000000  0.25000000  1.0
  O  O13  1  0.00000000  0.00000000  0.75000000  1.0
  O  O14  1  0.33333333  0.66666667  0.93341769  1.0
  O  O15  1  0.33333333  0.66666667  0.56658231  1.0
  O  O16  1  0.66666667  0.33333333  0.43341769  1.0
  O  O17  1  0.66666667  0.33333333  0.06658231  1.0
  Ba  Ba18  1  0.33333333  0.66666667  0.25000000  1.0
  Ba  Ba19  1  0.66666667  0.33333333  0.75000000  1.0
  Al  Al20  1  0.50000000  0.50000000  0.50000000  1.0
  Al  Al21  1  0.50000000  0.50000000  0.00000000  1.0
  Al  Al22  1  0.50000000  -0.00000000  0.50000000  1.0
  Al  Al23  1  0.50000000  0.00000000  -0.00000000  1.0
  Al  Al24  1  0.00000000  0.50000000  0.50000000  1.0
  Al  Al25  1  0.00000000  0.50000000  0.00000000  1.0
  Al  Al26  1  0.00000000  0.00000000  0.37959031  1.0
  Al  Al27  1  0.00000000  0.00000000  0.12040969  1.0
  Al  Al28  1  0.00000000  0.00000000  0.87959031  1.0
  Al  Al29  1  0.00000000  0.00000000  0.62040969  1.0
