# generated using pymatgen
data_SnO2
_symmetry_space_group_name_H-M   'P 1'
_cell_length_a   4.79262582
_cell_length_b   5.83299396
_cell_length_c   16.12027857
_cell_angle_alpha   90.00000000
_cell_angle_beta   90.00000000
_cell_angle_gamma   90.00000000
_symmetry_Int_Tables_number   1
_chemical_formula_structural   SnO2
_chemical_formula_sum   'Sn12 O24'
_cell_volume   450.64814957
_cell_formula_units_Z   12
loop_
 _symmetry_equiv_pos_site_id
 _symmetry_equiv_pos_as_xyz
  1  'x, y, z'
loop_
 _atom_site_type_symbol
 _atom_site_label
 _atom_site_symmetry_multiplicity
 _atom_site_fract_x
 _atom_site_fract_y
 _atom_site_fract_z
 _atom_site_occupancy
  Sn  Sn0  1  0.49674975  0.15179357  0.58414505  1.0
  Sn  Sn1  1  0.49674975  0.84820643  0.08414505  1.0
  Sn  Sn2  1  -0.00325025  0.65179357  0.91585495  1.0
  Sn  Sn3  1  -0.00325025  0.34820643  0.41585495  1.0
  Sn  Sn4  1  0.50325025  0.15179357  0.91585495  1.0
  Sn  Sn5  1  0.50325025  0.84820643  0.41585495  1.0
  Sn  Sn6  1  0.00325025  0.65179357  0.58414505  1.0
  Sn  Sn7  1  0.00325025  0.34820643  0.08414505  1.0
  Sn  Sn8  1  0.50000000  0.47007873  0.75000000  1.0
  Sn  Sn9  1  0.50000000  0.52992127  0.25000000  1.0
  Sn  Sn10  1  0.00000000  -0.02992127  0.75000000  1.0
  Sn  Sn11  1  0.00000000  0.02992127  0.25000000  1.0
  O  O12  1  0.28844601  0.42743301  0.86212999  1.0
  O  O13  1  0.28844601  0.57256699  0.36212999  1.0
  O  O14  1  0.78844601  0.92743301  0.63787001  1.0
  O  O15  1  0.78844601  0.07256699  0.13787001  1.0
  O  O16  1  0.71155399  0.42743301  0.63787001  1.0
  O  O17  1  0.71155399  0.57256699  0.13787001  1.0
  O  O18  1  0.21155399  0.92743301  0.86212999  1.0
  O  O19  1  0.21155399  0.07256699  0.36212999  1.0
  O  O20  1  0.27273903  0.19666074  0.69472591  1.0
  O  O21  1  0.27273903  0.80333926  0.19472591  1.0
  O  O22  1  0.77273903  0.69666074  0.80527409  1.0
  O  O23  1  0.77273903  0.30333926  0.30527409  1.0
  O  O24  1  0.72726097  0.19666074  0.80527409  1.0
  O  O25  1  0.72726097  0.80333926  0.30527409  1.0
  O  O26  1  0.22726097  0.69666074  0.69472591  1.0
  O  O27  1  0.22726097  0.30333926  0.19472591  1.0
  O  O28  1  0.20647200  0.37394312  0.52937824  1.0
  O  O29  1  0.20647200  0.62605688  0.02937824  1.0
  O  O30  1  0.70647200  0.87394312  0.97062176  1.0
  O  O31  1  0.70647200  0.12605688  0.47062176  1.0
  O  O32  1  0.79352800  0.37394312  0.97062176  1.0
  O  O33  1  0.79352800  0.62605688  0.47062176  1.0
  O  O34  1  0.29352800  0.87394312  0.52937824  1.0
  O  O35  1  0.29352800  0.12605688  0.02937824  1.0
