# generated using pymatgen
data_Gd2Co17
_symmetry_space_group_name_H-M   'P 1'
_cell_length_a   6.27639832
_cell_length_b   6.27639832
_cell_length_c   6.27639832
_cell_angle_alpha   82.94104400
_cell_angle_beta   82.94104400
_cell_angle_gamma   82.94104400
_symmetry_Int_Tables_number   1
_chemical_formula_structural   Gd2Co17
_chemical_formula_sum   'Gd2 Co17'
_cell_volume   242.05059038
_cell_formula_units_Z   1
loop_
 _symmetry_equiv_pos_site_id
 _symmetry_equiv_pos_as_xyz
  1  'x, y, z'
loop_
 _atom_site_type_symbol
 _atom_site_label
 _atom_site_symmetry_multiplicity
 _atom_site_fract_x
 _atom_site_fract_y
 _atom_site_fract_z
 _atom_site_occupancy
  Gd  Gd0  1  0.65567881  0.65567881  -0.34432119  1.0
  Gd  Gd1  1  1.34432119  1.34432119  0.34432119  1.0
  Co  Co2  1  0.34462104  0.34462104  -0.15036497  1.0
  Co  Co3  1  0.34462104  0.84963503  -0.65537896  1.0
  Co  Co4  1  0.15036497  0.65537896  -0.34462104  1.0
  Co  Co5  1  0.65537896  0.15036497  -0.34462104  1.0
  Co  Co6  1  0.65537896  -0.34462104  0.15036497  1.0
  Co  Co7  1  0.84963503  0.34462104  -0.65537896  1.0
  Co  Co8  1  0.71218907  -0.00000000  0.28781093  1.0
  Co  Co9  1  0.71218907  -0.71218907  0.00000000  1.0
  Co  Co10  1  -0.00000000  0.71218907  -0.71218907  1.0
  Co  Co11  1  -0.00000000  0.28781093  -0.28781093  1.0
  Co  Co12  1  1.28781093  0.00000000  -0.28781093  1.0
  Co  Co13  1  0.28781093  -0.28781093  0.00000000  1.0
  Co  Co14  1  1.00000000  1.50000000  0.00000000  1.0
  Co  Co15  1  1.00000000  0.00000000  -0.50000000  1.0
  Co  Co16  1  0.50000000  0.00000000  -0.00000000  1.0
  Co  Co17  1  0.90393803  0.90393803  -0.09606197  1.0
  Co  Co18  1  1.09606197  1.09606197  0.09606197  1.0
