# generated using pymatgen
data_Eu2InPd2
_symmetry_space_group_name_H-M   'P 1'
_cell_length_a   5.93887715
_cell_length_b   5.93887715
_cell_length_c   8.31887824
_cell_angle_alpha   77.10926317
_cell_angle_beta   102.89073683
_cell_angle_gamma   120.91596679
_symmetry_Int_Tables_number   1
_chemical_formula_structural   Eu2InPd2
_chemical_formula_sum   'Eu4 In2 Pd4'
_cell_volume   243.30511104
_cell_formula_units_Z   2
loop_
 _symmetry_equiv_pos_site_id
 _symmetry_equiv_pos_as_xyz
  1  'x, y, z'
loop_
 _atom_site_type_symbol
 _atom_site_label
 _atom_site_symmetry_multiplicity
 _atom_site_fract_x
 _atom_site_fract_y
 _atom_site_fract_z
 _atom_site_occupancy
  Eu  Eu0  1  0.50085620  0.20514159  0.64816473  1.0
  Eu  Eu1  1  0.79485841  0.49914380  0.14816473  1.0
  Eu  Eu2  1  1.20514159  0.50085620  0.85183527  1.0
  Eu  Eu3  1  0.49914380  -0.20514159  0.35183527  1.0
  In  In4  1  0.84413501  0.84413501  0.75000000  1.0
  In  In5  1  0.15586499  0.15586499  0.25000000  1.0
  Pd  Pd6  1  0.72751524  -0.00171054  0.99800359  1.0
  Pd  Pd7  1  1.00171054  0.27248476  0.49800359  1.0
  Pd  Pd8  1  0.99828946  0.72751524  0.50199641  1.0
  Pd  Pd9  1  0.27248476  0.00171054  0.00199641  1.0
