# generated using pymatgen
data_Tl2Pb(SeO4)2
_symmetry_space_group_name_H-M   'P 1'
_cell_length_a   8.32180037
_cell_length_b   8.32180037
_cell_length_c   8.32180037
_cell_angle_alpha   41.57345468
_cell_angle_beta   41.57345468
_cell_angle_gamma   41.57345468
_symmetry_Int_Tables_number   1
_chemical_formula_structural   Tl2Pb(SeO4)2
_chemical_formula_sum   'Tl2 Pb1 Se2 O8'
_cell_volume   229.35649451
_cell_formula_units_Z   1
loop_
 _symmetry_equiv_pos_site_id
 _symmetry_equiv_pos_as_xyz
  1  'x, y, z'
loop_
 _atom_site_type_symbol
 _atom_site_label
 _atom_site_symmetry_multiplicity
 _atom_site_fract_x
 _atom_site_fract_y
 _atom_site_fract_z
 _atom_site_occupancy
  Tl  Tl0  1  0.79509695  0.79509695  0.79509695  1.0
  Tl  Tl1  1  1.20490305  1.20490305  0.20490305  1.0
  Pb  Pb2  1  0.00000000  0.00000000  0.00000000  1.0
  Se  Se3  1  1.60595423  0.60595423  0.60595423  1.0
  Se  Se4  1  1.39404577  0.39404577  0.39404577  1.0
  O  O5  1  1.26426246  0.26426246  0.72837032  1.0
  O  O6  1  1.26426246  0.72837032  0.26426246  1.0
  O  O7  1  1.27162968  0.73573754  0.73573754  1.0
  O  O8  1  1.73573754  0.27162968  0.73573754  1.0
  O  O9  1  1.73573754  0.73573754  0.27162968  1.0
  O  O10  1  1.72837032  0.26426246  0.26426246  1.0
  O  O11  1  0.67885388  0.67885388  0.67885388  1.0
  O  O12  1  1.32114612  1.32114612  0.32114612  1.0
