# generated using pymatgen
data_AgAuF4
_symmetry_space_group_name_H-M   'P 1'
_cell_length_a   6.87271635
_cell_length_b   6.87271635
_cell_length_c   6.87271635
_cell_angle_alpha   129.26288752
_cell_angle_beta   129.26288752
_cell_angle_gamma   74.58794285
_symmetry_Int_Tables_number   1
_chemical_formula_structural   AgAuF4
_chemical_formula_sum   'Ag2 Au2 F8'
_cell_volume   189.62011688
_cell_formula_units_Z   2
loop_
 _symmetry_equiv_pos_site_id
 _symmetry_equiv_pos_as_xyz
  1  'x, y, z'
loop_
 _atom_site_type_symbol
 _atom_site_label
 _atom_site_symmetry_multiplicity
 _atom_site_fract_x
 _atom_site_fract_y
 _atom_site_fract_z
 _atom_site_occupancy
  Ag  Ag0  1  0.75000000  0.75000000  1.00000000  1.0
  Ag  Ag1  1  0.25000000  0.25000000  0.00000000  1.0
  Au  Au2  1  0.50000000  0.00000000  0.50000000  1.0
  Au  Au3  1  0.00000000  0.50000000  0.50000000  1.0
  F  F4  1  1.20535547  0.70535547  1.16413202  1.0
  F  F5  1  0.45877655  0.95877655  1.16413202  1.0
  F  F6  1  1.04122345  1.20535547  1.50000000  1.0
  F  F7  1  0.29464453  0.45877655  0.50000000  1.0
  F  F8  1  0.70535547  0.54122345  0.50000000  1.0
  F  F9  1  0.95877655  0.79464453  1.50000000  1.0
  F  F10  1  0.54122345  1.04122345  0.83586798  1.0
  F  F11  1  0.79464453  0.29464453  0.83586798  1.0
