# generated using pymatgen
data_Zr4Fe4Si7
_symmetry_space_group_name_H-M   'P 1'
_cell_length_a   9.58366906
_cell_length_b   9.58366906
_cell_length_c   9.58366906
_cell_angle_alpha   93.95039088
_cell_angle_beta   93.95039088
_cell_angle_gamma   149.56615162
_symmetry_Int_Tables_number   1
_chemical_formula_structural   Zr4Fe4Si7
_chemical_formula_sum   'Zr8 Fe8 Si14'
_cell_volume   430.24099897
_cell_formula_units_Z   2
loop_
 _symmetry_equiv_pos_site_id
 _symmetry_equiv_pos_as_xyz
  1  'x, y, z'
loop_
 _atom_site_type_symbol
 _atom_site_label
 _atom_site_symmetry_multiplicity
 _atom_site_fract_x
 _atom_site_fract_y
 _atom_site_fract_z
 _atom_site_occupancy
  Zr  Zr0  1  0.00000000  0.80359071  0.80359071  1.0
  Zr  Zr1  1  0.80359071  1.00000000  0.80359071  1.0
  Zr  Zr2  1  1.19640929  1.00000000  1.19640929  1.0
  Zr  Zr3  1  0.00000000  0.19640929  0.19640929  1.0
  Zr  Zr4  1  0.63805377  0.63805377  0.27610753  1.0
  Zr  Zr5  1  1.36194623  0.63805377  1.00000000  1.0
  Zr  Zr6  1  0.63805377  0.36194623  1.00000000  1.0
  Zr  Zr7  1  0.36194623  0.36194623  0.72389247  1.0
  Fe  Fe8  1  1.10206035  0.60206035  1.20412070  1.0
  Fe  Fe9  1  1.60206035  1.10206035  1.20412070  1.0
  Fe  Fe10  1  0.39793965  0.60206035  0.50000000  1.0
  Fe  Fe11  1  0.89793965  1.10206035  0.50000000  1.0
  Fe  Fe12  1  1.10206035  0.89793965  1.50000000  1.0
  Fe  Fe13  1  1.60206035  1.39793965  1.50000000  1.0
  Fe  Fe14  1  0.39793965  0.89793965  0.79587930  1.0
  Fe  Fe15  1  0.89793965  1.39793965  0.79587930  1.0
  Si  Si16  1  0.50000000  0.79963206  0.29963206  1.0
  Si  Si17  1  0.79963206  0.50000000  1.29963206  1.0
  Si  Si18  1  0.20036794  0.50000000  0.70036794  1.0
  Si  Si19  1  0.50000000  1.20036794  0.70036794  1.0
  Si  Si20  1  0.00000000  0.59121606  0.59121606  1.0
  Si  Si21  1  0.59121606  1.00000000  0.59121606  1.0
  Si  Si22  1  1.40878394  1.00000000  1.40878394  1.0
  Si  Si23  1  0.00000000  0.40878394  0.40878394  1.0
  Si  Si24  1  0.78982965  0.78982965  0.57965930  1.0
  Si  Si25  1  1.21017035  0.78982965  1.00000000  1.0
  Si  Si26  1  0.78982965  0.21017035  1.00000000  1.0
  Si  Si27  1  0.21017035  0.21017035  0.42034070  1.0
  Si  Si28  1  0.74999289  0.74999289  -0.00000000  1.0
  Si  Si29  1  0.25000711  0.25000711  0.00000000  1.0
