# generated using pymatgen
data_RbB3O5
_symmetry_space_group_name_H-M   'P 1'
_cell_length_a   6.73577134
_cell_length_b   6.73577134
_cell_length_c   9.29288062
_cell_angle_alpha   80.70523088
_cell_angle_beta   99.29476912
_cell_angle_gamma   96.69754293
_symmetry_Int_Tables_number   1
_chemical_formula_structural   RbB3O5
_chemical_formula_sum   'Rb4 B12 O20'
_cell_volume   408.84662385
_cell_formula_units_Z   4
loop_
 _symmetry_equiv_pos_site_id
 _symmetry_equiv_pos_as_xyz
  1  'x, y, z'
loop_
 _atom_site_type_symbol
 _atom_site_label
 _atom_site_symmetry_multiplicity
 _atom_site_fract_x
 _atom_site_fract_y
 _atom_site_fract_z
 _atom_site_occupancy
  Rb  Rb0  1  1.57100196  -0.26178184  0.54795387  1.0
  Rb  Rb1  1  1.26178184  -0.57100196  0.04795387  1.0
  Rb  Rb2  1  0.73821816  0.57100196  0.95204613  1.0
  Rb  Rb3  1  0.42899804  0.26178184  0.45204613  1.0
  B  B4  1  0.79243933  0.18911987  0.76837788  1.0
  B  B5  1  0.81088013  0.20756067  0.26837788  1.0
  B  B6  1  1.18911987  -0.20756067  0.73162212  1.0
  B  B7  1  1.20756067  -0.18911987  0.23162212  1.0
  B  B8  1  0.42896878  0.06409441  0.82186240  1.0
  B  B9  1  0.93590559  0.57103122  0.32186240  1.0
  B  B10  1  1.06409441  -0.57103122  0.67813760  1.0
  B  B11  1  1.57103122  -0.06409441  0.17813760  1.0
  B  B12  1  1.11059026  -0.03446713  0.93090524  1.0
  B  B13  1  1.03446713  -0.11059026  0.43090524  1.0
  B  B14  1  0.96553287  0.11059026  0.56909476  1.0
  B  B15  1  0.88940974  0.03446713  0.06909476  1.0
  O  O16  1  0.91379648  0.07549915  0.90558321  1.0
  O  O17  1  0.92450085  0.08620352  0.40558321  1.0
  O  O18  1  1.07549915  -0.08620352  0.59441679  1.0
  O  O19  1  1.08620352  -0.07549915  0.09441679  1.0
  O  O20  1  0.79109489  0.09011442  0.64056526  1.0
  O  O21  1  0.90988558  0.20890511  0.14056526  1.0
  O  O22  1  1.09011442  -0.20890511  0.85943474  1.0
  O  O23  1  1.20890511  -0.09011442  0.35943474  1.0
  O  O24  1  1.39820032  -0.10595955  0.75350273  1.0
  O  O25  1  1.10595955  -0.39820032  0.25350273  1.0
  O  O26  1  0.89404045  0.39820032  0.74649727  1.0
  O  O27  1  0.60179968  0.10595955  0.24649727  1.0
  O  O28  1  0.59234091  0.20488829  0.80561589  1.0
  O  O29  1  0.79511171  0.40765909  0.30561589  1.0
  O  O30  1  1.20488829  -0.40765909  0.69438411  1.0
  O  O31  1  1.40765909  -0.20488829  0.19438411  1.0
  O  O32  1  0.28812819  0.10335248  0.90475850  1.0
  O  O33  1  0.89664752  0.71187181  0.40475850  1.0
  O  O34  1  1.10335248  -0.71187181  0.59524150  1.0
  O  O35  1  1.71187181  -0.10335248  0.09524150  1.0
