# generated using pymatgen
data_ZrSnTe
_symmetry_space_group_name_H-M   'P 1'
_cell_length_a   4.10677416
_cell_length_b   4.10677416
_cell_length_c   8.79242825
_cell_angle_alpha   90.00000000
_cell_angle_beta   90.00000000
_cell_angle_gamma   90.00000000
_symmetry_Int_Tables_number   1
_chemical_formula_structural   ZrSnTe
_chemical_formula_sum   'Zr2 Sn2 Te2'
_cell_volume   148.28952555
_cell_formula_units_Z   2
loop_
 _symmetry_equiv_pos_site_id
 _symmetry_equiv_pos_as_xyz
  1  'x, y, z'
loop_
 _atom_site_type_symbol
 _atom_site_label
 _atom_site_symmetry_multiplicity
 _atom_site_fract_x
 _atom_site_fract_y
 _atom_site_fract_z
 _atom_site_occupancy
  Zr  Zr0  1  0.50000000  0.00000000  0.26411239  1.0
  Zr  Zr1  1  0.00000000  0.50000000  0.73588761  1.0
  Sn  Sn2  1  0.00000000  0.00000000  0.00000000  1.0
  Sn  Sn3  1  0.50000000  0.50000000  0.00000000  1.0
  Te  Te4  1  0.50000000  0.00000000  0.61877317  1.0
  Te  Te5  1  0.00000000  0.50000000  0.38122683  1.0
