# generated using pymatgen
data_Cs3GdSi4(O5F)2
_symmetry_space_group_name_H-M   'P 1'
_cell_length_a   7.19740534
_cell_length_b   16.55201824
_cell_length_c   7.26985733
_cell_angle_alpha   95.74217837
_cell_angle_beta   119.69887690
_cell_angle_gamma   90.21340598
_symmetry_Int_Tables_number   1
_chemical_formula_structural   Cs3GdSi4(O5F)2
_chemical_formula_sum   'Cs6 Gd2 Si8 O20 F4'
_cell_volume   747.10440546
_cell_formula_units_Z   2
loop_
 _symmetry_equiv_pos_site_id
 _symmetry_equiv_pos_as_xyz
  1  'x, y, z'
loop_
 _atom_site_type_symbol
 _atom_site_label
 _atom_site_symmetry_multiplicity
 _atom_site_fract_x
 _atom_site_fract_y
 _atom_site_fract_z
 _atom_site_occupancy
  Cs  Cs0  1  -0.15673278  -0.94978449  -0.31624445  1.0
  Cs  Cs1  1  -0.84326722  -0.05021551  -0.68375555  1.0
  Cs  Cs2  1  -0.12987281  -0.68046204  -0.27231180  1.0
  Cs  Cs3  1  -0.87012719  -0.31953796  -0.72768820  1.0
  Cs  Cs4  1  -0.81479434  -0.57944959  -0.63785520  1.0
  Cs  Cs5  1  -0.18520566  -0.42055041  -0.36214480  1.0
  Gd  Gd6  1  -0.50000000  0.00000000  -0.00000000  1.0
  Gd  Gd7  1  -0.50000000  -0.50000000  -0.00000000  1.0
  Si  Si8  1  -0.54822002  -0.28266070  -0.09216173  1.0
  Si  Si9  1  -0.45177998  -0.71733930  -0.90783827  1.0
  Si  Si10  1  -0.37400133  -0.16658162  -0.29352721  1.0
  Si  Si11  1  -0.62599867  -0.83341838  -0.70647279  1.0
  Si  Si12  1  -0.29111844  -0.17031273  -0.66124907  1.0
  Si  Si13  1  -0.70888156  -0.82968727  -0.33875093  1.0
  Si  Si14  1  -0.92424950  -0.17341701  -0.21180944  1.0
  Si  Si15  1  -0.07575050  -0.82658299  -0.78819056  1.0
  O  O16  1  -0.11779605  -0.18688445  -0.15306571  1.0
  O  O17  1  -0.88220395  -0.81311555  -0.84693429  1.0
  O  O18  1  -0.77983175  -0.25262047  -0.11989986  1.0
  O  O19  1  -0.22016825  -0.74737953  -0.88010014  1.0
  O  O20  1  -0.44227271  -0.18296586  -0.55040059  1.0
  O  O21  1  -0.55772729  -0.81703414  -0.44959941  1.0
  O  O22  1  -0.35531219  -0.24661208  -0.85076432  1.0
  O  O23  1  -0.64468781  -0.75338792  -0.14923568  1.0
  O  O24  1  -0.42017022  -0.07661855  -0.23280243  1.0
  O  O25  1  -0.57982978  -0.92338145  -0.76719757  1.0
  O  O26  1  -0.55322170  -0.37883609  -0.13699526  1.0
  O  O27  1  -0.44677830  -0.62116391  -0.86300474  1.0
  O  O28  1  -0.04198486  -0.18820066  -0.47732474  1.0
  O  O29  1  -0.95801514  -0.81179934  -0.52267526  1.0
  O  O30  1  -0.79993595  -0.08634574  -0.11274587  1.0
  O  O31  1  -0.20006405  -0.91365426  -0.88725413  1.0
  O  O32  1  -0.30163865  -0.08217614  -0.73578747  1.0
  O  O33  1  -0.69836135  -0.91782386  -0.26421253  1.0
  O  O34  1  -0.51396379  -0.23966370  -0.27033688  1.0
  O  O35  1  -0.48603621  -0.76033630  -0.72966312  1.0
  F  F36  1  -0.39399251  -0.54761177  -0.23607421  1.0
  F  F37  1  -0.60600749  -0.45238823  -0.76392579  1.0
  F  F38  1  -0.15479786  -0.45782584  -0.75714931  1.0
  F  F39  1  -0.84520214  -0.54217416  -0.24285069  1.0
