# generated using pymatgen
data_Sr2ZnS3
_symmetry_space_group_name_H-M   'P 1'
_cell_length_a   8.52618834
_cell_length_b   4.09106978
_cell_length_c   16.49715188
_cell_angle_alpha   90.00000000
_cell_angle_beta   90.00000000
_cell_angle_gamma   90.00000000
_symmetry_Int_Tables_number   1
_chemical_formula_structural   Sr2ZnS3
_chemical_formula_sum   'Sr8 Zn4 S12'
_cell_volume   575.44097294
_cell_formula_units_Z   4
loop_
 _symmetry_equiv_pos_site_id
 _symmetry_equiv_pos_as_xyz
  1  'x, y, z'
loop_
 _atom_site_type_symbol
 _atom_site_label
 _atom_site_symmetry_multiplicity
 _atom_site_fract_x
 _atom_site_fract_y
 _atom_site_fract_z
 _atom_site_occupancy
  Sr  Sr0  1  0.24197284  0.75000000  0.54123022  1.0
  Sr  Sr1  1  0.74197284  0.75000000  0.95876978  1.0
  Sr  Sr2  1  0.75802716  0.25000000  0.45876978  1.0
  Sr  Sr3  1  0.25802716  0.25000000  0.04123022  1.0
  Sr  Sr4  1  0.41916592  0.25000000  0.78450067  1.0
  Sr  Sr5  1  0.91916592  0.25000000  0.71549933  1.0
  Sr  Sr6  1  0.58083408  0.75000000  0.21549933  1.0
  Sr  Sr7  1  0.08083408  0.75000000  0.28450067  1.0
  Zn  Zn8  1  0.12726494  0.75000000  0.86621230  1.0
  Zn  Zn9  1  0.62726494  0.75000000  0.63378770  1.0
  Zn  Zn10  1  0.87273506  0.25000000  0.13378770  1.0
  Zn  Zn11  1  0.37273506  0.25000000  0.36621230  1.0
  S  S12  1  0.18046737  0.75000000  0.72578630  1.0
  S  S13  1  0.68046737  0.75000000  0.77421370  1.0
  S  S14  1  0.81953263  0.25000000  0.27421370  1.0
  S  S15  1  0.31953263  0.25000000  0.22578630  1.0
  S  S16  1  0.49148646  0.25000000  0.59895694  1.0
  S  S17  1  0.99148646  0.25000000  0.90104306  1.0
  S  S18  1  0.50851354  0.75000000  0.40104306  1.0
  S  S19  1  0.00851354  0.75000000  0.09895694  1.0
  S  S20  1  0.37388108  0.75000000  0.92815884  1.0
  S  S21  1  0.87388108  0.75000000  0.57184116  1.0
  S  S22  1  0.62611892  0.25000000  0.07184116  1.0
  S  S23  1  0.12611892  0.25000000  0.42815884  1.0
