# generated using pymatgen
data_Ca4Ir
_symmetry_space_group_name_H-M   'P 1'
_cell_length_a   8.16004245
_cell_length_b   8.16004245
_cell_length_c   8.16004245
_cell_angle_alpha   60.00000000
_cell_angle_beta   60.00000000
_cell_angle_gamma   60.00000000
_symmetry_Int_Tables_number   1
_chemical_formula_structural   Ca4Ir
_chemical_formula_sum   'Ca8 Ir2'
_cell_volume   384.20433068
_cell_formula_units_Z   2
loop_
 _symmetry_equiv_pos_site_id
 _symmetry_equiv_pos_as_xyz
  1  'x, y, z'
loop_
 _atom_site_type_symbol
 _atom_site_label
 _atom_site_symmetry_multiplicity
 _atom_site_fract_x
 _atom_site_fract_y
 _atom_site_fract_z
 _atom_site_occupancy
  Ca  Ca0  1  -0.11921575  0.88078425  0.35764725  1.0
  Ca  Ca1  1  0.88078425  -0.64235275  0.88078425  1.0
  Ca  Ca2  1  0.36921575  0.36921575  0.36921575  1.0
  Ca  Ca3  1  -0.10764725  0.36921575  0.36921575  1.0
  Ca  Ca4  1  -0.64235275  0.88078425  0.88078425  1.0
  Ca  Ca5  1  0.88078425  -0.11921575  0.88078425  1.0
  Ca  Ca6  1  0.36921575  -0.10764725  0.36921575  1.0
  Ca  Ca7  1  0.36921575  0.36921575  -0.10764725  1.0
  Ir  Ir8  1  0.50000000  0.50000000  -0.50000000  1.0
  Ir  Ir9  1  0.75000000  -0.25000000  0.75000000  1.0
