# generated using pymatgen
data_SiBr3
_symmetry_space_group_name_H-M   'P 1'
_cell_length_a   7.15188966
_cell_length_b   7.15188966
_cell_length_c   8.04677799
_cell_angle_alpha   80.88633654
_cell_angle_beta   99.11366346
_cell_angle_gamma   60.35645334
_symmetry_Int_Tables_number   1
_chemical_formula_structural   SiBr3
_chemical_formula_sum   'Si2 Br6'
_cell_volume   339.49810469
_cell_formula_units_Z   2
loop_
 _symmetry_equiv_pos_site_id
 _symmetry_equiv_pos_as_xyz
  1  'x, y, z'
loop_
 _atom_site_type_symbol
 _atom_site_label
 _atom_site_symmetry_multiplicity
 _atom_site_fract_x
 _atom_site_fract_y
 _atom_site_fract_z
 _atom_site_occupancy
  Si  Si0  1  0.95511803  -0.95511803  0.84573797  1.0
  Si  Si1  1  0.04488197  -0.04488197  0.15426203  1.0
  Br  Br2  1  0.77416939  -0.77416939  0.23171981  1.0
  Br  Br3  1  0.22583061  -0.22583061  0.76828019  1.0
  Br  Br4  1  1.63165847  0.07382234  0.74324211  1.0
  Br  Br5  1  0.92617766  -0.63165847  0.74324211  1.0
  Br  Br6  1  1.07382234  0.63165847  0.25675789  1.0
  Br  Br7  1  0.36834153  -0.07382234  0.25675789  1.0
