# generated using pymatgen
data_Ga4GeO8
_symmetry_space_group_name_H-M   'P 1'
_cell_length_a   6.38067930
_cell_length_b   6.38067930
_cell_length_c   9.51930917
_cell_angle_alpha   55.97151523
_cell_angle_beta   124.02848477
_cell_angle_gamma   152.39101202
_symmetry_Int_Tables_number   1
_chemical_formula_structural   Ga4GeO8
_chemical_formula_sum   'Ga4 Ge1 O8'
_cell_volume   146.78973373
_cell_formula_units_Z   1
loop_
 _symmetry_equiv_pos_site_id
 _symmetry_equiv_pos_as_xyz
  1  'x, y, z'
loop_
 _atom_site_type_symbol
 _atom_site_label
 _atom_site_symmetry_multiplicity
 _atom_site_fract_x
 _atom_site_fract_y
 _atom_site_fract_z
 _atom_site_occupancy
  Ga  Ga0  1  0.75842590  -0.75842590  0.36030396  1.0
  Ga  Ga1  1  0.24157410  -0.24157410  0.63969604  1.0
  Ga  Ga2  1  0.53713370  0.46286630  0.71693008  1.0
  Ga  Ga3  1  1.46286630  -0.46286630  0.28306992  1.0
  Ge  Ge4  1  0.00000000  0.00000000  0.00000000  1.0
  O  O5  1  0.88928914  -0.88928914  0.30365939  1.0
  O  O6  1  0.11071086  -0.11071086  0.69634061  1.0
  O  O7  1  0.83949953  0.16050047  0.78446714  1.0
  O  O8  1  1.16050047  -0.16050047  0.21553286  1.0
  O  O9  1  0.64606694  0.35393306  0.46287416  1.0
  O  O10  1  1.35393306  -0.35393306  0.53712584  1.0
  O  O11  1  0.55921015  0.44078985  0.92817249  1.0
  O  O12  1  1.44078985  -0.44078985  0.07182751  1.0
