# generated using pymatgen
data_Na3Hg2
_symmetry_space_group_name_H-M   'P 1'
_cell_length_a   9.04447838
_cell_length_b   9.04447838
_cell_length_c   6.98746378
_cell_angle_alpha   90.00000000
_cell_angle_beta   90.00000000
_cell_angle_gamma   90.00000000
_symmetry_Int_Tables_number   1
_chemical_formula_structural   Na3Hg2
_chemical_formula_sum   'Na12 Hg8'
_cell_volume   571.59262935
_cell_formula_units_Z   4
loop_
 _symmetry_equiv_pos_site_id
 _symmetry_equiv_pos_as_xyz
  1  'x, y, z'
loop_
 _atom_site_type_symbol
 _atom_site_label
 _atom_site_symmetry_multiplicity
 _atom_site_fract_x
 _atom_site_fract_y
 _atom_site_fract_z
 _atom_site_occupancy
  Na  Na0  1  0.14386546  0.14386546  0.50000000  1.0
  Na  Na1  1  0.64386546  0.35613454  0.00000000  1.0
  Na  Na2  1  0.85613454  0.85613454  0.50000000  1.0
  Na  Na3  1  0.35613454  0.64386546  0.00000000  1.0
  Na  Na4  1  0.37481782  0.62518218  0.50000000  1.0
  Na  Na5  1  0.87481782  0.87481782  0.00000000  1.0
  Na  Na6  1  0.62518218  0.37481782  0.50000000  1.0
  Na  Na7  1  0.12518218  0.12518218  0.00000000  1.0
  Na  Na8  1  0.50000000  0.00000000  0.50000000  1.0
  Na  Na9  1  0.00000000  0.50000000  0.00000000  1.0
  Na  Na10  1  0.00000000  0.50000000  0.50000000  1.0
  Na  Na11  1  0.50000000  0.00000000  0.00000000  1.0
  Hg  Hg12  1  0.16266509  0.83733491  0.27507467  1.0
  Hg  Hg13  1  0.16266509  0.83733491  0.72492533  1.0
  Hg  Hg14  1  0.66266509  0.66266509  0.77507467  1.0
  Hg  Hg15  1  0.66266509  0.66266509  0.22492533  1.0
  Hg  Hg16  1  0.83733491  0.16266509  0.27507467  1.0
  Hg  Hg17  1  0.83733491  0.16266509  0.72492533  1.0
  Hg  Hg18  1  0.33733491  0.33733491  0.77507467  1.0
  Hg  Hg19  1  0.33733491  0.33733491  0.22492533  1.0
