# generated using pymatgen
data_AgN3
_symmetry_space_group_name_H-M   'P 1'
_cell_length_a   5.36418436
_cell_length_b   5.36418436
_cell_length_c   5.36418436
_cell_angle_alpha   119.85718751
_cell_angle_beta   102.40233890
_cell_angle_gamma   106.70146227
_symmetry_Int_Tables_number   1
_chemical_formula_structural   AgN3
_chemical_formula_sum   'Ag2 N6'
_cell_volume   115.71021654
_cell_formula_units_Z   2
loop_
 _symmetry_equiv_pos_site_id
 _symmetry_equiv_pos_as_xyz
  1  'x, y, z'
loop_
 _atom_site_type_symbol
 _atom_site_label
 _atom_site_symmetry_multiplicity
 _atom_site_fract_x
 _atom_site_fract_y
 _atom_site_fract_z
 _atom_site_occupancy
  Ag  Ag0  1  0.75000000  1.25000000  0.50000000  1.0
  Ag  Ag1  1  1.25000000  0.75000000  0.50000000  1.0
  N  N2  1  0.90987220  0.81063573  0.72050793  1.0
  N  N3  1  0.59012780  0.31063573  0.90076353  1.0
  N  N4  1  1.40987220  0.68936427  1.09923647  1.0
  N  N5  1  0.09012780  0.18936427  0.27949207  1.0
  N  N6  1  0.00000000  0.00000000  0.00000000  1.0
  N  N7  1  0.50000000  0.50000000  0.00000000  1.0
