# generated using pymatgen
data_Sc2ReB6
_symmetry_space_group_name_H-M   'P 1'
_cell_length_a   8.91115517
_cell_length_b   11.18862708
_cell_length_c   3.51185605
_cell_angle_alpha   90.00000000
_cell_angle_beta   90.00000000
_cell_angle_gamma   90.00000000
_symmetry_Int_Tables_number   1
_chemical_formula_structural   Sc2ReB6
_chemical_formula_sum   'Sc8 Re4 B24'
_cell_volume   350.14466277
_cell_formula_units_Z   4
loop_
 _symmetry_equiv_pos_site_id
 _symmetry_equiv_pos_as_xyz
  1  'x, y, z'
loop_
 _atom_site_type_symbol
 _atom_site_label
 _atom_site_symmetry_multiplicity
 _atom_site_fract_x
 _atom_site_fract_y
 _atom_site_fract_z
 _atom_site_occupancy
  Sc  Sc0  1  0.17869079  0.91333883  0.50000000  1.0
  Sc  Sc1  1  0.67869079  0.58666117  0.50000000  1.0
  Sc  Sc2  1  0.82130921  0.08666117  0.50000000  1.0
  Sc  Sc3  1  0.32130921  0.41333883  0.50000000  1.0
  Sc  Sc4  1  0.05624599  0.62892925  0.50000000  1.0
  Sc  Sc5  1  0.55624599  0.87107075  0.50000000  1.0
  Sc  Sc6  1  0.94375401  0.37107075  0.50000000  1.0
  Sc  Sc7  1  0.44375401  0.12892925  0.50000000  1.0
  Re  Re8  1  0.36033977  0.67976680  0.50000000  1.0
  Re  Re9  1  0.86033977  0.82023320  0.50000000  1.0
  Re  Re10  1  0.63966023  0.32023320  0.50000000  1.0
  Re  Re11  1  0.13966023  0.17976680  0.50000000  1.0
  B  B12  1  0.44699908  0.56515605  0.00000000  1.0
  B  B13  1  0.94699908  0.93484395  0.00000000  1.0
  B  B14  1  0.55300092  0.43484395  0.00000000  1.0
  B  B15  1  0.05300092  0.06515605  0.00000000  1.0
  B  B16  1  0.40261087  0.97297435  0.00000000  1.0
  B  B17  1  0.90261087  0.52702565  0.00000000  1.0
  B  B18  1  0.59738913  0.02702565  0.00000000  1.0
  B  B19  1  0.09738913  0.47297435  0.00000000  1.0
  B  B20  1  0.37014161  0.81779130  0.00000000  1.0
  B  B21  1  0.87014161  0.68220870  0.00000000  1.0
  B  B22  1  0.62985839  0.18220870  0.00000000  1.0
  B  B23  1  0.12985839  0.31779130  0.00000000  1.0
  B  B24  1  0.24670767  0.57850151  0.00000000  1.0
  B  B25  1  0.74670767  0.92149849  0.00000000  1.0
  B  B26  1  0.75329233  0.42149849  0.00000000  1.0
  B  B27  1  0.25329233  0.07850151  0.00000000  1.0
  B  B28  1  0.20486921  0.73604540  0.00000000  1.0
  B  B29  1  0.70486921  0.76395460  0.00000000  1.0
  B  B30  1  0.79513079  0.26395460  0.00000000  1.0
  B  B31  1  0.29513079  0.23604540  0.00000000  1.0
  B  B32  1  0.02093267  0.78768012  0.00000000  1.0
  B  B33  1  0.52093267  0.71231988  0.00000000  1.0
  B  B34  1  0.97906733  0.21231988  0.00000000  1.0
  B  B35  1  0.47906733  0.28768012  0.00000000  1.0
