# generated using pymatgen
data_GaS
_symmetry_space_group_name_H-M   'P 1'
_cell_length_a   3.62838335
_cell_length_b   3.62838335
_cell_length_c   17.02397829
_cell_angle_alpha   90.00000000
_cell_angle_beta   90.00000000
_cell_angle_gamma   120.00000000
_symmetry_Int_Tables_number   1
_chemical_formula_structural   GaS
_chemical_formula_sum   'Ga4 S4'
_cell_volume   194.09664125
_cell_formula_units_Z   4
loop_
 _symmetry_equiv_pos_site_id
 _symmetry_equiv_pos_as_xyz
  1  'x, y, z'
loop_
 _atom_site_type_symbol
 _atom_site_label
 _atom_site_symmetry_multiplicity
 _atom_site_fract_x
 _atom_site_fract_y
 _atom_site_fract_z
 _atom_site_occupancy
  Ga  Ga0  1  0.33333333  0.66666667  0.32253078  1.0
  Ga  Ga1  1  0.33333333  0.66666667  0.17746922  1.0
  Ga  Ga2  1  0.66666667  0.33333333  0.82253078  1.0
  Ga  Ga3  1  0.66666667  0.33333333  0.67746922  1.0
  S  S4  1  0.33333333  0.66666667  0.88618977  1.0
  S  S5  1  0.33333333  0.66666667  0.61381023  1.0
  S  S6  1  0.66666667  0.33333333  0.38618977  1.0
  S  S7  1  0.66666667  0.33333333  0.11381023  1.0
