# generated using pymatgen
data_PbWO4
_symmetry_space_group_name_H-M   'P 1'
_cell_length_a   7.27043331
_cell_length_b   7.27043331
_cell_length_c   5.53859099
_cell_angle_alpha   67.62756781
_cell_angle_beta   112.37243219
_cell_angle_gamma   65.19780115
_symmetry_Int_Tables_number   1
_chemical_formula_structural   PbWO4
_chemical_formula_sum   'Pb2 W2 O8'
_cell_volume   188.08496243
_cell_formula_units_Z   2
loop_
 _symmetry_equiv_pos_site_id
 _symmetry_equiv_pos_as_xyz
  1  'x, y, z'
loop_
 _atom_site_type_symbol
 _atom_site_label
 _atom_site_symmetry_multiplicity
 _atom_site_fract_x
 _atom_site_fract_y
 _atom_site_fract_z
 _atom_site_occupancy
  Pb  Pb0  1  1.37496542  0.37496542  0.75000000  1.0
  Pb  Pb1  1  0.62503458  0.62503458  0.25000000  1.0
  W  W2  1  0.87505384  0.87505384  0.75000000  1.0
  W  W3  1  1.12494616  0.12494616  0.25000000  1.0
  O  O4  1  1.65455511  -0.06741132  0.84430335  1.0
  O  O5  1  1.06741132  0.34544489  0.34430335  1.0
  O  O6  1  0.93258868  0.65455511  0.65569665  1.0
  O  O7  1  1.34544489  0.06741132  0.15569665  1.0
  O  O8  1  1.27668101  -0.18955140  0.62215661  1.0
  O  O9  1  1.18955140  0.72331899  0.12215661  1.0
  O  O10  1  0.81044860  0.27668101  0.87784339  1.0
  O  O11  1  1.72331899  0.18955140  0.37784339  1.0
