# generated using pymatgen
data_V2CdO4
_symmetry_space_group_name_H-M   'P 1'
_cell_length_a   6.17753527
_cell_length_b   6.17753527
_cell_length_c   6.17753527
_cell_angle_alpha   60.00000000
_cell_angle_beta   60.00000000
_cell_angle_gamma   60.00000000
_symmetry_Int_Tables_number   1
_chemical_formula_structural   V2CdO4
_chemical_formula_sum   'V4 Cd2 O8'
_cell_volume   166.69812016
_cell_formula_units_Z   2
loop_
 _symmetry_equiv_pos_site_id
 _symmetry_equiv_pos_as_xyz
  1  'x, y, z'
loop_
 _atom_site_type_symbol
 _atom_site_label
 _atom_site_symmetry_multiplicity
 _atom_site_fract_x
 _atom_site_fract_y
 _atom_site_fract_z
 _atom_site_occupancy
  V  V0  1  0.12500000  0.12500000  1.62500000  1.0
  V  V1  1  0.12500000  0.62500000  0.12500000  1.0
  V  V2  1  0.62500000  0.12500000  1.12500000  1.0
  V  V3  1  0.12500000  0.12500000  0.12500000  1.0
  Cd  Cd4  1  0.75000000  -0.25000000  0.75000000  1.0
  Cd  Cd5  1  0.50000000  0.50000000  -0.50000000  1.0
  O  O6  1  0.35729615  0.35729615  -0.07188844  1.0
  O  O7  1  0.35729615  -0.07188844  0.35729615  1.0
  O  O8  1  -0.07188844  0.35729615  0.35729615  1.0
  O  O9  1  0.35729615  0.35729615  0.35729615  1.0
  O  O10  1  -0.10729615  0.89270385  0.32188844  1.0
  O  O11  1  0.89270385  -0.67811156  0.89270385  1.0
  O  O12  1  -0.67811156  0.89270385  0.89270385  1.0
  O  O13  1  0.89270385  -0.10729615  0.89270385  1.0
