# generated using pymatgen
data_YFe12
_symmetry_space_group_name_H-M   'P 1'
_cell_length_a   6.41288567
_cell_length_b   6.41288567
_cell_length_c   6.41288567
_cell_angle_alpha   97.68196489
_cell_angle_beta   97.68196489
_cell_angle_gamma   137.10914250
_symmetry_Int_Tables_number   1
_chemical_formula_structural   YFe12
_chemical_formula_sum   'Y1 Fe12'
_cell_volume   167.06888876
_cell_formula_units_Z   1
loop_
 _symmetry_equiv_pos_site_id
 _symmetry_equiv_pos_as_xyz
  1  'x, y, z'
loop_
 _atom_site_type_symbol
 _atom_site_label
 _atom_site_symmetry_multiplicity
 _atom_site_fract_x
 _atom_site_fract_y
 _atom_site_fract_z
 _atom_site_occupancy
  Y  Y0  1  0.00000000  0.00000000  0.00000000  1.0
  Fe  Fe1  1  0.50000000  0.72769739  0.22769739  1.0
  Fe  Fe2  1  0.72769739  0.50000000  1.22769739  1.0
  Fe  Fe3  1  0.27230261  0.50000000  0.77230261  1.0
  Fe  Fe4  1  0.50000000  1.27230261  0.77230261  1.0
  Fe  Fe5  1  0.00000000  0.64154813  0.64154813  1.0
  Fe  Fe6  1  0.64154813  1.00000000  0.64154813  1.0
  Fe  Fe7  1  1.35845187  1.00000000  1.35845187  1.0
  Fe  Fe8  1  0.00000000  0.35845187  0.35845187  1.0
  Fe  Fe9  1  0.50000000  0.50000000  0.50000000  1.0
  Fe  Fe10  1  1.00000000  1.00000000  0.50000000  1.0
  Fe  Fe11  1  1.00000000  0.50000000  1.00000000  1.0
  Fe  Fe12  1  1.50000000  1.00000000  1.00000000  1.0
