# generated using pymatgen
data_MoSCl
_symmetry_space_group_name_H-M   'P 1'
_cell_length_a   6.92803624
_cell_length_b   6.92803624
_cell_length_c   6.92803624
_cell_angle_alpha   60.00000000
_cell_angle_beta   60.00000000
_cell_angle_gamma   60.00000000
_symmetry_Int_Tables_number   1
_chemical_formula_structural   MoSCl
_chemical_formula_sum   'Mo4 S4 Cl4'
_cell_volume   235.13401261
_cell_formula_units_Z   4
loop_
 _symmetry_equiv_pos_site_id
 _symmetry_equiv_pos_as_xyz
  1  'x, y, z'
loop_
 _atom_site_type_symbol
 _atom_site_label
 _atom_site_symmetry_multiplicity
 _atom_site_fract_x
 _atom_site_fract_y
 _atom_site_fract_z
 _atom_site_occupancy
  Mo  Mo0  1  -0.35090021  0.64909979  0.64909979  1.0
  Mo  Mo1  1  1.05270062  0.64909979  -0.35090021  1.0
  Mo  Mo2  1  -0.35090021  0.64909979  1.05270062  1.0
  Mo  Mo3  1  0.64909979  1.05270062  -0.35090021  1.0
  S  S4  1  0.88368648  0.88368648  -0.11631352  1.0
  S  S5  1  0.34894056  0.88368648  -0.11631352  1.0
  S  S6  1  0.88368648  0.88368648  -0.65105944  1.0
  S  S7  1  0.88368648  0.34894056  -0.11631352  1.0
  Cl  Cl8  1  0.38231376  1.38231376  0.38231376  1.0
  Cl  Cl9  1  -0.14694127  0.38231376  0.38231376  1.0
  Cl  Cl10  1  0.38231376  1.38231376  -0.14694127  1.0
  Cl  Cl11  1  0.38231376  -0.14694127  0.38231376  1.0
