# generated using pymatgen
data_NiMo2
_symmetry_space_group_name_H-M   'P 1'
_cell_length_a   9.29339520
_cell_length_b   9.29339520
_cell_length_c   4.87633680
_cell_angle_alpha   90.00000000
_cell_angle_beta   90.00000000
_cell_angle_gamma   90.00000000
_symmetry_Int_Tables_number   1
_chemical_formula_structural   NiMo2
_chemical_formula_sum   'Ni10 Mo20'
_cell_volume   421.15552827
_cell_formula_units_Z   10
loop_
 _symmetry_equiv_pos_site_id
 _symmetry_equiv_pos_as_xyz
  1  'x, y, z'
loop_
 _atom_site_type_symbol
 _atom_site_label
 _atom_site_symmetry_multiplicity
 _atom_site_fract_x
 _atom_site_fract_y
 _atom_site_fract_z
 _atom_site_occupancy
  Ni  Ni0  1  0.50000000  0.50000000  0.50000000  1.0
  Ni  Ni1  1  0.00000000  0.00000000  0.00000000  1.0
  Ni  Ni2  1  0.43229240  0.24438902  0.50000000  1.0
  Ni  Ni3  1  0.56770760  0.75561098  0.50000000  1.0
  Ni  Ni4  1  0.06770760  0.74438902  0.00000000  1.0
  Ni  Ni5  1  0.93229240  0.25561098  0.00000000  1.0
  Ni  Ni6  1  0.24438902  0.43229240  0.50000000  1.0
  Ni  Ni7  1  0.75561098  0.56770760  0.50000000  1.0
  Ni  Ni8  1  0.74438902  0.06770760  0.00000000  1.0
  Ni  Ni9  1  0.25561098  0.93229240  0.00000000  1.0
  Mo  Mo10  1  0.10258355  0.89741645  0.50000000  1.0
  Mo  Mo11  1  0.89741645  0.10258355  0.50000000  1.0
  Mo  Mo12  1  0.39741645  0.39741645  0.00000000  1.0
  Mo  Mo13  1  0.60258355  0.60258355  0.00000000  1.0
  Mo  Mo14  1  0.37159884  0.96196478  0.50000000  1.0
  Mo  Mo15  1  0.62840116  0.03803522  0.50000000  1.0
  Mo  Mo16  1  0.12840116  0.46196478  0.00000000  1.0
  Mo  Mo17  1  0.87159884  0.53803522  0.00000000  1.0
  Mo  Mo18  1  0.96196478  0.37159884  0.50000000  1.0
  Mo  Mo19  1  0.03803522  0.62840116  0.50000000  1.0
  Mo  Mo20  1  0.46196478  0.12840116  0.00000000  1.0
  Mo  Mo21  1  0.53803522  0.87159884  0.00000000  1.0
  Mo  Mo22  1  0.31758123  0.68241877  0.25175768  1.0
  Mo  Mo23  1  0.68241877  0.31758123  0.25175768  1.0
  Mo  Mo24  1  0.18241877  0.18241877  0.75175768  1.0
  Mo  Mo25  1  0.81758123  0.81758123  0.75175768  1.0
  Mo  Mo26  1  0.68241877  0.31758123  0.74824232  1.0
  Mo  Mo27  1  0.31758123  0.68241877  0.74824232  1.0
  Mo  Mo28  1  0.81758123  0.81758123  0.24824232  1.0
  Mo  Mo29  1  0.18241877  0.18241877  0.24824232  1.0
