# generated using pymatgen
data_Ba6Mg7H26
_symmetry_space_group_name_H-M   'P 1'
_cell_length_a   10.01347684
_cell_length_b   10.01347684
_cell_length_c   10.01347684
_cell_angle_alpha   146.36777827
_cell_angle_beta   106.88261233
_cell_angle_gamma   82.93347370
_symmetry_Int_Tables_number   1
_chemical_formula_structural   Ba6Mg7H26
_chemical_formula_sum   'Ba6 Mg7 H26'
_cell_volume   518.59920418
_cell_formula_units_Z   1
loop_
 _symmetry_equiv_pos_site_id
 _symmetry_equiv_pos_as_xyz
  1  'x, y, z'
loop_
 _atom_site_type_symbol
 _atom_site_label
 _atom_site_symmetry_multiplicity
 _atom_site_fract_x
 _atom_site_fract_y
 _atom_site_fract_z
 _atom_site_occupancy
  Ba  Ba0  1  0.38766247  0.64723731  0.74042516  1.0
  Ba  Ba1  1  1.09318785  1.35276269  0.74042516  1.0
  Ba  Ba2  1  0.90681215  0.64723731  1.25957484  1.0
  Ba  Ba3  1  1.61233753  1.35276269  1.25957484  1.0
  Ba  Ba4  1  0.64337943  0.14337943  0.50000000  1.0
  Ba  Ba5  1  1.35662057  0.85662057  0.50000000  1.0
  Mg  Mg6  1  0.78090682  0.78090682  1.00000000  1.0
  Mg  Mg7  1  1.21909318  1.21909318  1.00000000  1.0
  Mg  Mg8  1  0.74168986  0.00000000  0.74168986  1.0
  Mg  Mg9  1  0.25831014  -0.00000000  0.25831014  1.0
  Mg  Mg10  1  0.00000000  0.74512036  0.74512036  1.0
  Mg  Mg11  1  0.00000000  0.25487964  0.25487964  1.0
  Mg  Mg12  1  0.50000000  0.50000000  1.00000000  1.0
  H  H13  1  0.64107560  0.52185403  0.65544071  1.0
  H  H14  1  1.13358668  1.01436512  0.65544071  1.0
  H  H15  1  0.86641332  0.52185403  0.88077844  1.0
  H  H16  1  1.35892440  1.01436512  0.88077844  1.0
  H  H17  1  0.64107560  0.98563488  1.11922156  1.0
  H  H18  1  1.13358668  1.47814597  1.11922156  1.0
  H  H19  1  0.86641332  0.98563488  1.34455929  1.0
  H  H20  1  1.35892440  1.47814597  1.34455929  1.0
  H  H21  1  0.61444743  0.75100226  1.36544968  1.0
  H  H22  1  0.38555257  0.75100226  1.13655483  1.0
  H  H23  1  0.61444743  0.24899774  0.86344517  1.0
  H  H24  1  0.38555257  0.24899774  0.63455032  1.0
  H  H25  1  0.83745195  0.73310189  1.57055385  1.0
  H  H26  1  0.16254805  0.73310189  0.89564994  1.0
  H  H27  1  0.83745195  0.26689811  1.10435006  1.0
  H  H28  1  0.16254805  0.26689811  0.42944615  1.0
  H  H29  1  1.59792024  0.87336707  0.72455317  1.0
  H  H30  1  0.85118610  0.12663293  0.72455317  1.0
  H  H31  1  1.14881390  0.87336707  0.27544683  1.0
  H  H32  1  0.40207976  0.12663293  0.27544683  1.0
  H  H33  1  0.91049587  0.41049587  0.50000000  1.0
  H  H34  1  1.08950413  0.58950413  0.50000000  1.0
  H  H35  1  0.91292692  0.91292692  1.00000000  1.0
  H  H36  1  1.08707308  1.08707308  1.00000000  1.0
  H  H37  1  0.62900701  0.62900701  1.00000000  1.0
  H  H38  1  1.37099299  1.37099299  1.00000000  1.0
