# generated using pymatgen
data_Li2Ni3(P2O7)2
_symmetry_space_group_name_H-M   'P 1'
_cell_length_a   7.29785193
_cell_length_b   7.89123815
_cell_length_c   9.39682762
_cell_angle_alpha   90.00000000
_cell_angle_beta   109.84997380
_cell_angle_gamma   90.00000000
_symmetry_Int_Tables_number   1
_chemical_formula_structural   Li2Ni3(P2O7)2
_chemical_formula_sum   'Li4 Ni6 P8 O28'
_cell_volume   509.00199917
_cell_formula_units_Z   2
loop_
 _symmetry_equiv_pos_site_id
 _symmetry_equiv_pos_as_xyz
  1  'x, y, z'
loop_
 _atom_site_type_symbol
 _atom_site_label
 _atom_site_symmetry_multiplicity
 _atom_site_fract_x
 _atom_site_fract_y
 _atom_site_fract_z
 _atom_site_occupancy
  Li  Li0  1  0.70766758  0.58525829  0.63377570  1.0
  Li  Li1  1  0.70766758  0.91474171  0.13377570  1.0
  Li  Li2  1  0.29233242  0.08525829  0.86622430  1.0
  Li  Li3  1  0.29233242  0.41474171  0.36622430  1.0
  Ni  Ni4  1  0.81230327  0.62467007  0.98182134  1.0
  Ni  Ni5  1  0.81230327  0.87532993  0.48182134  1.0
  Ni  Ni6  1  0.18769673  0.12467007  0.51817866  1.0
  Ni  Ni7  1  0.18769673  0.37532993  0.01817866  1.0
  Ni  Ni8  1  0.00000000  0.00000000  0.00000000  1.0
  Ni  Ni9  1  -0.00000000  0.50000000  0.50000000  1.0
  O  O10  1  0.85066413  0.37994479  0.61913075  1.0
  O  O11  1  0.85066413  0.12005521  0.11913075  1.0
  O  O12  1  0.14933587  0.87994479  0.88086925  1.0
  O  O13  1  0.14933587  0.62005521  0.38086925  1.0
  O  O14  1  0.71888650  0.89235432  0.88025752  1.0
  O  O15  1  0.71888650  0.60764568  0.38025752  1.0
  O  O16  1  0.28111350  0.39235432  0.61974248  1.0
  O  O17  1  0.28111350  0.10764568  0.11974248  1.0
  O  O18  1  0.62119739  0.83328399  0.59719972  1.0
  O  O19  1  0.62119739  0.66671601  0.09719972  1.0
  O  O20  1  0.37880261  0.33328399  0.90280028  1.0
  O  O21  1  0.37880261  0.16671601  0.40280028  1.0
  O  O22  1  0.61625346  0.49653053  0.79872278  1.0
  O  O23  1  0.61625346  0.00346947  0.29872278  1.0
  O  O24  1  0.38374654  0.99653053  0.70127722  1.0
  O  O25  1  0.38374654  0.50346947  0.20127722  1.0
  O  O26  1  0.32251912  0.63902572  0.80731186  1.0
  O  O27  1  0.32251912  0.86097428  0.30731186  1.0
  O  O28  1  0.67748088  0.13902572  0.69268814  1.0
  O  O29  1  0.67748088  0.36097428  0.19268814  1.0
  O  O30  1  0.96507961  0.07846339  0.60543894  1.0
  O  O31  1  0.96507961  0.42153661  0.10543894  1.0
  O  O32  1  0.03492039  0.57846339  0.89456106  1.0
  O  O33  1  0.03492039  0.92153661  0.39456106  1.0
  O  O34  1  0.98530236  0.70513463  0.63619125  1.0
  O  O35  1  0.98530236  0.79486537  0.13619125  1.0
  O  O36  1  0.01469764  0.20513463  0.86380875  1.0
  O  O37  1  0.01469764  0.29486537  0.36380875  1.0
  P  P38  1  0.88406888  0.20660443  0.69388277  1.0
  P  P39  1  0.88406888  0.29339557  0.19388277  1.0
  P  P40  1  0.11593112  0.70660443  0.80611723  1.0
  P  P41  1  0.11593112  0.79339557  0.30611723  1.0
  P  P42  1  0.59531745  0.95313843  0.71786405  1.0
  P  P43  1  0.59531745  0.54686157  0.21786405  1.0
  P  P44  1  0.40468255  0.45313843  0.78213595  1.0
  P  P45  1  0.40468255  0.04686157  0.28213595  1.0
