# generated using pymatgen
data_SiP2O7
_symmetry_space_group_name_H-M   'P 1'
_cell_length_a   4.81765728
_cell_length_b   6.41185935
_cell_length_c   14.98915225
_cell_angle_alpha   90.00000000
_cell_angle_beta   90.04804592
_cell_angle_gamma   90.00000000
_symmetry_Int_Tables_number   1
_chemical_formula_structural   SiP2O7
_chemical_formula_sum   'Si4 P8 O28'
_cell_volume   463.01686155
_cell_formula_units_Z   4
loop_
 _symmetry_equiv_pos_site_id
 _symmetry_equiv_pos_as_xyz
  1  'x, y, z'
loop_
 _atom_site_type_symbol
 _atom_site_label
 _atom_site_symmetry_multiplicity
 _atom_site_fract_x
 _atom_site_fract_y
 _atom_site_fract_z
 _atom_site_occupancy
  Si  Si0  1  0.75038433  0.58496692  0.63501362  1.0
  Si  Si1  1  0.75038433  0.91503308  0.13501362  1.0
  Si  Si2  1  0.24961567  0.08496692  0.86498638  1.0
  Si  Si3  1  0.24961567  0.41503308  0.36498638  1.0
  P  P4  1  0.76087828  0.39671583  0.83124760  1.0
  P  P5  1  0.76087828  0.10328417  0.33124760  1.0
  P  P6  1  0.23912172  0.89671583  0.66875240  1.0
  P  P7  1  0.23912172  0.60328417  0.16875240  1.0
  P  P8  1  0.75338600  0.81099499  0.92709940  1.0
  P  P9  1  0.75338600  0.68900501  0.42709940  1.0
  P  P10  1  0.24661400  0.31099499  0.57290060  1.0
  P  P11  1  0.24661400  0.18900501  0.07290060  1.0
  O  O12  1  0.95756694  0.91913169  0.86399037  1.0
  O  O13  1  0.95756694  0.58086831  0.36399037  1.0
  O  O14  1  0.04243306  0.41913169  0.63600963  1.0
  O  O15  1  0.04243306  0.08086831  0.13600963  1.0
  O  O16  1  0.95247879  0.79695011  0.67815425  1.0
  O  O17  1  0.95247879  0.70304988  0.17815425  1.0
  O  O18  1  0.04752121  0.29695011  0.82184575  1.0
  O  O19  1  0.04752121  0.20304989  0.32184575  1.0
  O  O20  1  0.83399018  0.66809136  0.52502044  1.0
  O  O21  1  0.83399018  0.83190864  0.02502044  1.0
  O  O22  1  0.16600982  0.16809136  0.97497956  1.0
  O  O23  1  0.16600982  0.33190864  0.47497956  1.0
  O  O24  1  0.78436918  0.56535267  0.91050122  1.0
  O  O25  1  0.78436918  0.93464733  0.41050122  1.0
  O  O26  1  0.21563082  0.06535267  0.58949878  1.0
  O  O27  1  0.21563082  0.43464733  0.08949878  1.0
  O  O28  1  0.66839556  0.51036367  0.74683162  1.0
  O  O29  1  0.66839556  0.98963633  0.24683162  1.0
  O  O30  1  0.33160444  0.01036367  0.75316838  1.0
  O  O31  1  0.33160444  0.48963633  0.25316838  1.0
  O  O32  1  0.45498868  0.74497227  0.63309435  1.0
  O  O33  1  0.45498868  0.75502773  0.13309435  1.0
  O  O34  1  0.54501132  0.24497227  0.86690565  1.0
  O  O35  1  0.54501132  0.25502773  0.36690565  1.0
  O  O36  1  0.45091368  0.86900118  0.90714996  1.0
  O  O37  1  0.45091368  0.63099882  0.40714996  1.0
  O  O38  1  0.54908632  0.36900118  0.59285004  1.0
  O  O39  1  0.54908632  0.13099882  0.09285004  1.0
