# generated using pymatgen
data_C3Cl5
_symmetry_space_group_name_H-M   'P 1'
_cell_length_a   13.65430583
_cell_length_b   7.54341317
_cell_length_c   16.33037833
_cell_angle_alpha   90.00000000
_cell_angle_beta   93.69393822
_cell_angle_gamma   90.00000000
_symmetry_Int_Tables_number   1
_chemical_formula_structural   C3Cl5
_chemical_formula_sum   'C24 Cl40'
_cell_volume   1678.53559897
_cell_formula_units_Z   8
loop_
 _symmetry_equiv_pos_site_id
 _symmetry_equiv_pos_as_xyz
  1  'x, y, z'
loop_
 _atom_site_type_symbol
 _atom_site_label
 _atom_site_symmetry_multiplicity
 _atom_site_fract_x
 _atom_site_fract_y
 _atom_site_fract_z
 _atom_site_occupancy
  C  C0  1  0.88357776  0.33687610  0.34834325  1.0
  C  C1  1  0.88357776  0.16312390  0.84834325  1.0
  C  C2  1  0.11642224  0.83687610  0.15165675  1.0
  C  C3  1  0.11642224  0.66312390  0.65165675  1.0
  C  C4  1  0.79088158  0.29903006  0.36933544  1.0
  C  C5  1  0.79088158  0.20096994  0.86933544  1.0
  C  C6  1  0.20911842  0.79903006  0.13066456  1.0
  C  C7  1  0.20911842  0.70096994  0.63066456  1.0
  C  C8  1  0.75797675  0.19927283  0.44502175  1.0
  C  C9  1  0.75797675  0.30072717  0.94502175  1.0
  C  C10  1  0.24202325  0.69927283  0.05497825  1.0
  C  C11  1  0.24202325  0.80072717  0.55497825  1.0
  C  C12  1  0.74169348  0.98992915  0.42914893  1.0
  C  C13  1  0.74169348  0.51007085  0.92914893  1.0
  C  C14  1  0.25830652  0.48992915  0.07085107  1.0
  C  C15  1  0.25830652  0.01007085  0.57085107  1.0
  C  C16  1  0.68228632  0.92622840  0.27668970  1.0
  C  C17  1  0.68228632  0.57377160  0.77668970  1.0
  C  C18  1  0.31771368  0.42622840  0.22331030  1.0
  C  C19  1  0.31771368  0.07377160  0.72331030  1.0
  C  C20  1  0.66629639  0.94712547  0.35761952  1.0
  C  C21  1  0.66629639  0.55287453  0.85761952  1.0
  C  C22  1  0.33370361  0.44712547  0.14238048  1.0
  C  C23  1  0.33370361  0.05287453  0.64238048  1.0
  Cl  Cl24  1  1.00824540  0.77696280  0.10009068  1.0
  Cl  Cl25  1  1.00824540  0.72303720  0.60009068  1.0
  Cl  Cl26  1  -0.00824540  0.27696280  0.39990932  1.0
  Cl  Cl27  1  -0.00824540  0.22303720  0.89990932  1.0
  Cl  Cl28  1  0.90321942  0.45459802  0.26037303  1.0
  Cl  Cl29  1  0.90321942  0.04540198  0.76037303  1.0
  Cl  Cl30  1  0.09678058  0.95459802  0.23962697  1.0
  Cl  Cl31  1  0.09678058  0.54540198  0.73962697  1.0
  Cl  Cl32  1  0.85904775  0.89217291  0.41334640  1.0
  Cl  Cl33  1  0.85904775  0.60782709  0.91334640  1.0
  Cl  Cl34  1  0.14095225  0.39217291  0.08665360  1.0
  Cl  Cl35  1  0.14095225  0.10782709  0.58665360  1.0
  Cl  Cl36  1  0.84191256  0.27024067  0.03283167  1.0
  Cl  Cl37  1  0.84191256  0.22975933  0.53283167  1.0
  Cl  Cl38  1  0.15808744  0.77024067  0.46716833  1.0
  Cl  Cl39  1  0.15808744  0.72975933  0.96716833  1.0
  Cl  Cl40  1  0.79083099  0.95568782  0.23135174  1.0
  Cl  Cl41  1  0.79083099  0.54431218  0.73135174  1.0
  Cl  Cl42  1  0.20916901  0.45568782  0.26864826  1.0
  Cl  Cl43  1  0.20916901  0.04431218  0.76864826  1.0
  Cl  Cl44  1  0.69592212  0.37155950  0.30208824  1.0
  Cl  Cl45  1  0.69592212  0.12844050  0.80208824  1.0
  Cl  Cl46  1  0.30407788  0.87155950  0.19791176  1.0
  Cl  Cl47  1  0.30407788  0.62844050  0.69791176  1.0
  Cl  Cl48  1  0.64359056  0.29165422  0.47465426  1.0
  Cl  Cl49  1  0.64359056  0.20834578  0.97465426  1.0
  Cl  Cl50  1  0.35640944  0.79165422  0.02534574  1.0
  Cl  Cl51  1  0.35640944  0.70834578  0.52534574  1.0
  Cl  Cl52  1  0.45352799  0.42267751  0.11570214  1.0
  Cl  Cl53  1  0.45352799  0.07732249  0.61570214  1.0
  Cl  Cl54  1  0.54647201  0.92267751  0.38429786  1.0
  Cl  Cl55  1  0.54647201  0.57732249  0.88429786  1.0
  Cl  Cl56  1  0.41179910  0.37018402  0.29389523  1.0
  Cl  Cl57  1  0.41179910  0.12981598  0.79389523  1.0
  Cl  Cl58  1  0.58820090  0.87018402  0.20610477  1.0
  Cl  Cl59  1  0.58820090  0.62981598  0.70610477  1.0
  Cl  Cl60  1  0.29638015  0.11013582  0.47803248  1.0
  Cl  Cl61  1  0.29638015  0.38986418  0.97803248  1.0
  Cl  Cl62  1  0.70361985  0.61013582  0.02196752  1.0
  Cl  Cl63  1  0.70361985  0.88986418  0.52196752  1.0
