# generated using pymatgen
data_Cu2WSe4
_symmetry_space_group_name_H-M   'P 1'
_cell_length_a   7.13069431
_cell_length_b   7.13069431
_cell_length_c   7.13069431
_cell_angle_alpha   133.79205152
_cell_angle_beta   133.79205152
_cell_angle_gamma   67.41298536
_symmetry_Int_Tables_number   1
_chemical_formula_structural   Cu2WSe4
_chemical_formula_sum   'Cu2 W1 Se4'
_cell_volume   185.77275825
_cell_formula_units_Z   1
loop_
 _symmetry_equiv_pos_site_id
 _symmetry_equiv_pos_as_xyz
  1  'x, y, z'
loop_
 _atom_site_type_symbol
 _atom_site_label
 _atom_site_symmetry_multiplicity
 _atom_site_fract_x
 _atom_site_fract_y
 _atom_site_fract_z
 _atom_site_occupancy
  Cu  Cu0  1  0.00000000  0.50000000  0.50000000  1.0
  Cu  Cu1  1  0.50000000  0.00000000  0.50000000  1.0
  W  W2  1  0.00000000  0.00000000  0.00000000  1.0
  Se  Se3  1  0.36125975  0.87924025  1.00000000  1.0
  Se  Se4  1  1.12075975  1.12075975  1.48201951  1.0
  Se  Se5  1  0.63874025  0.63874025  0.51798049  1.0
  Se  Se6  1  0.87924025  0.36125975  1.00000000  1.0
