# generated using pymatgen
data_NiB3
_symmetry_space_group_name_H-M   'P 1'
_cell_length_a   3.33324876
_cell_length_b   6.92659101
_cell_length_c   5.59461523
_cell_angle_alpha   90.00000000
_cell_angle_beta   90.01124520
_cell_angle_gamma   90.00000000
_symmetry_Int_Tables_number   1
_chemical_formula_structural   NiB3
_chemical_formula_sum   'Ni4 B12'
_cell_volume   129.16875874
_cell_formula_units_Z   4
loop_
 _symmetry_equiv_pos_site_id
 _symmetry_equiv_pos_as_xyz
  1  'x, y, z'
loop_
 _atom_site_type_symbol
 _atom_site_label
 _atom_site_symmetry_multiplicity
 _atom_site_fract_x
 _atom_site_fract_y
 _atom_site_fract_z
 _atom_site_occupancy
  Ni  Ni0  1  0.74989997  0.13137403  0.42745037  1.0
  Ni  Ni1  1  0.74989997  0.36862597  0.92745037  1.0
  Ni  Ni2  1  0.25010003  0.63137403  0.07254963  1.0
  Ni  Ni3  1  0.25010003  0.86862597  0.57254963  1.0
  B  B4  1  1.00346386  0.38573328  0.27027257  1.0
  B  B5  1  1.00346386  0.11426672  0.77027257  1.0
  B  B6  1  -0.00346386  0.88573328  0.22972743  1.0
  B  B7  1  -0.00346386  0.61426672  0.72972743  1.0
  B  B8  1  0.74999399  0.44762705  0.53525216  1.0
  B  B9  1  0.74999399  0.05237295  0.03525216  1.0
  B  B10  1  0.25000601  -0.05237295  -0.03525216  1.0
  B  B11  1  0.25000601  0.55237295  0.46474784  1.0
  B  B12  1  0.49637224  0.38580363  0.27023884  1.0
  B  B13  1  0.49637224  0.11419637  0.77023884  1.0
  B  B14  1  0.50362776  0.88580363  0.22976116  1.0
  B  B15  1  0.50362776  0.61419637  0.72976116  1.0
