# generated using pymatgen
data_AgCNO
_symmetry_space_group_name_H-M   'P 1'
_cell_length_a   9.57977578
_cell_length_b   9.57977578
_cell_length_c   9.57977578
_cell_angle_alpha   116.05760519
_cell_angle_beta   116.05760519
_cell_angle_gamma   116.05760519
_symmetry_Int_Tables_number   1
_chemical_formula_structural   AgCNO
_chemical_formula_sum   'Ag6 C6 N6 O6'
_cell_volume   440.97094185
_cell_formula_units_Z   6
loop_
 _symmetry_equiv_pos_site_id
 _symmetry_equiv_pos_as_xyz
  1  'x, y, z'
loop_
 _atom_site_type_symbol
 _atom_site_label
 _atom_site_symmetry_multiplicity
 _atom_site_fract_x
 _atom_site_fract_y
 _atom_site_fract_z
 _atom_site_occupancy
  Ag  Ag0  1  0.81435624  0.15520630  0.06503935  1.0
  Ag  Ag1  1  0.93496065  1.18564376  -0.15520630  1.0
  Ag  Ag2  1  0.84479370  -0.06503935  0.18564376  1.0
  Ag  Ag3  1  1.18564376  0.84479370  0.93496065  1.0
  Ag  Ag4  1  1.06503935  0.81435624  0.15520630  1.0
  Ag  Ag5  1  0.15520630  0.06503935  -0.18564376  1.0
  C  C6  1  1.03551978  0.30055039  0.40977778  1.0
  C  C7  1  0.59022222  -0.03551978  -0.30055039  1.0
  C  C8  1  0.69944961  0.59022222  -0.03551978  1.0
  C  C9  1  0.96448022  0.69944961  0.59022222  1.0
  C  C10  1  0.40977778  1.03551978  -0.69944961  1.0
  C  C11  1  1.30055039  1.40977778  0.03551978  1.0
  N  N12  1  0.80942481  0.50733191  0.37573575  1.0
  N  N13  1  0.62426425  1.19057519  -0.50733191  1.0
  N  N14  1  0.49266809  0.62426425  -0.80942481  1.0
  N  N15  1  1.19057519  0.49266809  0.62426425  1.0
  N  N16  1  1.37573575  0.80942481  0.50733191  1.0
  N  N17  1  0.50733191  0.37573575  -0.19057519  1.0
  O  O18  1  0.64931379  0.30904146  0.15430415  1.0
  O  O19  1  0.84569585  1.35068621  -0.30904146  1.0
  O  O20  1  0.69095854  0.84569585  -0.64931379  1.0
  O  O21  1  1.35068621  0.69095854  0.84569585  1.0
  O  O22  1  1.15430415  0.64931379  0.30904146  1.0
  O  O23  1  0.30904146  0.15430415  -0.35068621  1.0
