# generated using pymatgen
data_CaMnAs2(H3O5)2
_symmetry_space_group_name_H-M   'P 1'
_cell_length_a   8.56615920
_cell_length_b   7.78902488
_cell_length_c   7.10217731
_cell_angle_alpha   79.15031810
_cell_angle_beta   82.67015553
_cell_angle_gamma   83.77072191
_symmetry_Int_Tables_number   1
_chemical_formula_structural   CaMnAs2(H3O5)2
_chemical_formula_sum   'Ca2 Mn2 As4 H12 O20'
_cell_volume   459.85799783
_cell_formula_units_Z   2
loop_
 _symmetry_equiv_pos_site_id
 _symmetry_equiv_pos_as_xyz
  1  'x, y, z'
loop_
 _atom_site_type_symbol
 _atom_site_label
 _atom_site_symmetry_multiplicity
 _atom_site_fract_x
 _atom_site_fract_y
 _atom_site_fract_z
 _atom_site_occupancy
  Ca  Ca0  1  -0.83301697  -0.60281769  -0.86140307  1.0
  Ca  Ca1  1  -0.16698303  -0.39718231  -0.13859693  1.0
  Mn  Mn2  1  -0.57574399  -0.34632523  -0.67186651  1.0
  Mn  Mn3  1  -0.42425601  -0.65367477  -0.32813349  1.0
  As  As4  1  -0.42513001  -0.72542148  -0.82674111  1.0
  As  As5  1  -0.57486999  -0.27457852  -0.17325889  1.0
  As  As6  1  -0.81634625  -0.63007868  -0.35911536  1.0
  As  As7  1  -0.18365375  -0.36992132  -0.64088464  1.0
  H  H8  1  -0.06187746  -0.88665530  -0.81925615  1.0
  H  H9  1  -0.93812254  -0.11334470  -0.18074385  1.0
  H  H10  1  -0.31906896  -1.02892157  -0.74195323  1.0
  H  H11  1  -0.68093104  0.02892157  -0.25804677  1.0
  H  H12  1  -0.89784916  -0.97777848  -0.76766833  1.0
  H  H13  1  -0.10215084  -0.02222152  -0.23233167  1.0
  H  H14  1  -0.94689709  -0.29972062  -0.58304656  1.0
  H  H15  1  -0.05310291  -0.70027938  -0.41695344  1.0
  H  H16  1  -0.27970709  -0.91427645  -0.48940953  1.0
  H  H17  1  -0.72029291  -0.08572355  -0.51059047  1.0
  H  H18  1  -0.34673487  -1.01377288  -0.28160258  1.0
  H  H19  1  -0.65326513  0.01377288  -0.71839742  1.0
  O  O20  1  -0.65358163  -0.37047054  -0.94619490  1.0
  O  O21  1  -0.34641837  -0.62952946  -0.05380510  1.0
  O  O22  1  -0.94846752  -0.87097278  -0.83989930  1.0
  O  O23  1  -0.05153248  -0.12902722  -0.16010070  1.0
  O  O24  1  -0.60477154  -0.80128394  -0.83253884  1.0
  O  O25  1  -0.39522846  -0.19871606  -0.16746116  1.0
  O  O26  1  -0.28597211  -0.90609917  -0.74144275  1.0
  O  O27  1  -0.71402789  -0.09390083  -0.25855725  1.0
  O  O28  1  -0.43124714  -0.59103806  -0.65625433  1.0
  O  O29  1  -0.56875286  -0.40896194  -0.34374567  1.0
  O  O30  1  -0.79312500  -0.48435815  -0.57804123  1.0
  O  O31  1  -0.20687500  -0.51564185  -0.42195877  1.0
  O  O32  1  -0.95045059  -0.77395243  -0.40877348  1.0
  O  O33  1  -0.04954941  -0.22604757  -0.59122652  1.0
  O  O34  1  -0.29557539  -0.90406076  -0.35092205  1.0
  O  O35  1  -0.70442461  -0.09593924  -0.64907795  1.0
  O  O36  1  -0.65054557  -0.76710064  -0.30090034  1.0
  O  O37  1  -0.34945443  -0.23289936  -0.69909966  1.0
  O  O38  1  -0.90649732  -0.52739906  -0.17461746  1.0
  O  O39  1  -0.09350268  -0.47260094  -0.82538254  1.0
