# generated using pymatgen
data_RbSbF6
_symmetry_space_group_name_H-M   'P 1'
_cell_length_a   5.33784514
_cell_length_b   5.33784514
_cell_length_c   5.33784514
_cell_angle_alpha   96.81878043
_cell_angle_beta   96.81878043
_cell_angle_gamma   96.81878044
_symmetry_Int_Tables_number   1
_chemical_formula_structural   RbSbF6
_chemical_formula_sum   'Rb1 Sb1 F6'
_cell_volume   148.57803525
_cell_formula_units_Z   1
loop_
 _symmetry_equiv_pos_site_id
 _symmetry_equiv_pos_as_xyz
  1  'x, y, z'
loop_
 _atom_site_type_symbol
 _atom_site_label
 _atom_site_symmetry_multiplicity
 _atom_site_fract_x
 _atom_site_fract_y
 _atom_site_fract_z
 _atom_site_occupancy
  Rb  Rb0  1  0.50000000  0.50000000  0.50000000  1.0
  Sb  Sb1  1  0.00000000  0.00000000  0.00000000  1.0
  F  F2  1  0.74651334  0.74623093  0.08408496  1.0
  F  F3  1  1.25376907  -0.08408496  0.25348666  1.0
  F  F4  1  0.91591504  0.25348666  0.25376907  1.0
  F  F5  1  1.25348666  0.25376907  -0.08408496  1.0
  F  F6  1  0.74623093  1.08408496  -0.25348666  1.0
  F  F7  1  1.08408496  0.74651334  -0.25376907  1.0
