# generated using pymatgen
data_Na2TiGeO5
_symmetry_space_group_name_H-M   'P 1'
_cell_length_a   6.71788658
_cell_length_b   6.71877457
_cell_length_c   5.24802434
_cell_angle_alpha   90.00000000
_cell_angle_beta   90.00000000
_cell_angle_gamma   90.00000000
_symmetry_Int_Tables_number   1
_chemical_formula_structural   Na2TiGeO5
_chemical_formula_sum   'Na4 Ti2 Ge2 O10'
_cell_volume   236.87464576
_cell_formula_units_Z   2
loop_
 _symmetry_equiv_pos_site_id
 _symmetry_equiv_pos_as_xyz
  1  'x, y, z'
loop_
 _atom_site_type_symbol
 _atom_site_label
 _atom_site_symmetry_multiplicity
 _atom_site_fract_x
 _atom_site_fract_y
 _atom_site_fract_z
 _atom_site_occupancy
  Na  Na0  1  0.25000000  0.25000000  0.00000000  1.0
  Na  Na1  1  0.25000000  0.75000000  0.00000000  1.0
  Na  Na2  1  0.75000000  0.75000000  0.00000000  1.0
  Na  Na3  1  0.75000000  0.25000000  0.00000000  1.0
  Ti  Ti4  1  0.00000000  0.50000000  0.57187900  1.0
  Ti  Ti5  1  0.50000000  0.00000000  0.42812100  1.0
  Ge  Ge6  1  0.00000000  0.00000000  0.49998269  1.0
  Ge  Ge7  1  0.50000000  0.50000000  0.50001731  1.0
  O  O8  1  0.21651320  0.00000000  0.30613099  1.0
  O  O9  1  0.71651320  0.50000000  0.69386901  1.0
  O  O10  1  0.28348680  0.50000000  0.69386901  1.0
  O  O11  1  0.78348680  0.00000000  0.30613099  1.0
  O  O12  1  0.00000000  0.21649502  0.69380100  1.0
  O  O13  1  0.00000000  0.78350498  0.69380100  1.0
  O  O14  1  0.50000000  0.71649502  0.30619900  1.0
  O  O15  1  0.50000000  0.28350498  0.30619900  1.0
  O  O16  1  0.00000000  0.50000000  0.24636585  1.0
  O  O17  1  0.50000000  0.00000000  0.75363415  1.0
