# generated using pymatgen
data_Cs4Zr3S14
_symmetry_space_group_name_H-M   'P 1'
_cell_length_a   12.03932546
_cell_length_b   12.03932546
_cell_length_c   14.44963278
_cell_angle_alpha   68.24338380
_cell_angle_beta   111.75661620
_cell_angle_gamma   137.67492575
_symmetry_Int_Tables_number   1
_chemical_formula_structural   Cs4Zr3S14
_chemical_formula_sum   'Cs8 Zr6 S28'
_cell_volume   1294.05761966
_cell_formula_units_Z   2
loop_
 _symmetry_equiv_pos_site_id
 _symmetry_equiv_pos_as_xyz
  1  'x, y, z'
loop_
 _atom_site_type_symbol
 _atom_site_label
 _atom_site_symmetry_multiplicity
 _atom_site_fract_x
 _atom_site_fract_y
 _atom_site_fract_z
 _atom_site_occupancy
  Cs  Cs0  1  0.61619060  0.01791636  0.39322049  1.0
  Cs  Cs1  1  0.98208364  0.38380940  0.89322049  1.0
  Cs  Cs2  1  1.01791636  0.61619060  0.10677951  1.0
  Cs  Cs3  1  0.38380940  -0.01791636  0.60677951  1.0
  Cs  Cs4  1  0.32736507  0.19685688  0.14150853  1.0
  Cs  Cs5  1  0.80314312  0.67263493  0.64150853  1.0
  Cs  Cs6  1  1.19685688  0.32736507  0.35849147  1.0
  Cs  Cs7  1  0.67263493  -0.19685688  0.85849147  1.0
  Zr  Zr8  1  0.58555851  -0.07856941  0.08641040  1.0
  Zr  Zr9  1  1.07856941  0.41444149  0.58641040  1.0
  Zr  Zr10  1  0.92143059  0.58555851  0.41358960  1.0
  Zr  Zr11  1  0.41444149  0.07856941  0.91358960  1.0
  Zr  Zr12  1  0.76391668  0.76391668  0.25000000  1.0
  Zr  Zr13  1  0.23608332  0.23608332  0.75000000  1.0
  S  S14  1  0.79889242  -0.11927005  0.38698565  1.0
  S  S15  1  1.11927005  0.20110758  0.88698565  1.0
  S  S16  1  0.88072995  0.79889242  0.11301435  1.0
  S  S17  1  0.20110758  0.11927005  0.61301435  1.0
  S  S18  1  0.51788252  -0.34367740  0.08875198  1.0
  S  S19  1  1.34367740  0.48211748  0.58875198  1.0
  S  S20  1  0.65632260  0.51788252  0.41124802  1.0
  S  S21  1  0.48211748  0.34367740  0.91124802  1.0
  S  S22  1  0.89416826  0.06437584  0.13247559  1.0
  S  S23  1  0.93562416  0.10583174  0.63247559  1.0
  S  S24  1  1.06437584  0.89416826  0.36752441  1.0
  S  S25  1  0.10583174  -0.06437584  0.86752441  1.0
  S  S26  1  0.57075508  -0.23780264  0.28787712  1.0
  S  S27  1  1.23780264  0.42924492  0.78787712  1.0
  S  S28  1  0.76219736  0.57075508  0.21212288  1.0
  S  S29  1  0.42924492  0.23780264  0.71212288  1.0
  S  S30  1  0.43438005  -0.00741515  0.09687608  1.0
  S  S31  1  1.00741515  0.56561995  0.59687608  1.0
  S  S32  1  0.99258485  0.43438005  0.40312392  1.0
  S  S33  1  0.56561995  0.00741515  0.90312392  1.0
  S  S34  1  0.18363690  -0.15130602  0.33551347  1.0
  S  S35  1  1.15130602  0.81636309  0.83551347  1.0
  S  S36  1  0.84869398  0.18363690  0.16448653  1.0
  S  S37  1  0.81636309  0.15130602  0.66448653  1.0
  S  S38  1  0.60362338  0.31863997  0.38951560  1.0
  S  S39  1  0.68136003  0.39637662  0.88951560  1.0
  S  S40  1  1.31863997  0.60362338  0.11048440  1.0
  S  S41  1  0.39637662  -0.31863997  0.61048440  1.0
