# generated using pymatgen
data_CeZr7O16
_symmetry_space_group_name_H-M   'P 1'
_cell_length_a   7.30715973
_cell_length_b   7.30715973
_cell_length_c   5.30240103
_cell_angle_alpha   90.00000000
_cell_angle_beta   90.00000000
_cell_angle_gamma   90.00000000
_symmetry_Int_Tables_number   1
_chemical_formula_structural   CeZr7O16
_chemical_formula_sum   'Ce1 Zr7 O16'
_cell_volume   283.11949407
_cell_formula_units_Z   1
loop_
 _symmetry_equiv_pos_site_id
 _symmetry_equiv_pos_as_xyz
  1  'x, y, z'
loop_
 _atom_site_type_symbol
 _atom_site_label
 _atom_site_symmetry_multiplicity
 _atom_site_fract_x
 _atom_site_fract_y
 _atom_site_fract_z
 _atom_site_occupancy
  Ce  Ce0  1  0.00000000  0.00000000  0.00000000  1.0
  Zr  Zr1  1  0.25251011  0.74748989  0.50000000  1.0
  Zr  Zr2  1  0.00000000  0.50000000  0.99825040  1.0
  Zr  Zr3  1  0.25251011  0.25251011  0.50000000  1.0
  Zr  Zr4  1  0.50000000  0.00000000  0.00174960  1.0
  Zr  Zr5  1  0.74748989  0.74748989  0.50000000  1.0
  Zr  Zr6  1  0.50000000  0.50000000  0.00000000  1.0
  Zr  Zr7  1  0.74748989  0.25251011  0.50000000  1.0
  O  O8  1  0.26723160  0.00000000  0.78574214  1.0
  O  O9  1  0.00000000  0.75122276  0.69708469  1.0
  O  O10  1  0.00000000  0.73276840  0.21425786  1.0
  O  O11  1  0.24877724  0.00000000  0.30291531  1.0
  O  O12  1  0.24477515  0.50000000  0.81017523  1.0
  O  O13  1  0.00000000  0.24877724  0.69708469  1.0
  O  O14  1  0.00000000  0.26723160  0.21425786  1.0
  O  O15  1  0.26898128  0.50000000  0.31004764  1.0
  O  O16  1  0.73276840  0.00000000  0.78574214  1.0
  O  O17  1  0.50000000  0.73101872  0.68995236  1.0
  O  O18  1  0.50000000  0.75522485  0.18982477  1.0
  O  O19  1  0.75122276  0.00000000  0.30291531  1.0
  O  O20  1  0.75522485  0.50000000  0.81017523  1.0
  O  O21  1  0.50000000  0.26898128  0.68995236  1.0
  O  O22  1  0.50000000  0.24477515  0.18982477  1.0
  O  O23  1  0.73101872  0.50000000  0.31004764  1.0
