# generated using pymatgen
data_GdAu
_symmetry_space_group_name_H-M   'P 1'
_cell_length_a   5.85804049
_cell_length_b   5.85804049
_cell_length_c   4.71627903
_cell_angle_alpha   90.00000000
_cell_angle_beta   90.00000000
_cell_angle_gamma   142.01641829
_symmetry_Int_Tables_number   1
_chemical_formula_structural   GdAu
_chemical_formula_sum   'Gd2 Au2'
_cell_volume   99.60631527
_cell_formula_units_Z   2
loop_
 _symmetry_equiv_pos_site_id
 _symmetry_equiv_pos_as_xyz
  1  'x, y, z'
loop_
 _atom_site_type_symbol
 _atom_site_label
 _atom_site_symmetry_multiplicity
 _atom_site_fract_x
 _atom_site_fract_y
 _atom_site_fract_z
 _atom_site_occupancy
  Gd  Gd0  1  -0.63784866  0.63784866  0.25000000  1.0
  Gd  Gd1  1  -0.36215134  1.36215134  0.75000000  1.0
  Au  Au2  1  -0.91225021  0.91225021  0.25000000  1.0
  Au  Au3  1  -0.08774979  1.08774979  0.75000000  1.0
