# generated using pymatgen
data_BaSO4
_symmetry_space_group_name_H-M   'P 1'
_cell_length_a   5.56347943
_cell_length_b   7.27332905
_cell_length_c   8.99383622
_cell_angle_alpha   90.00000000
_cell_angle_beta   90.00000000
_cell_angle_gamma   90.00000000
_symmetry_Int_Tables_number   1
_chemical_formula_structural   BaSO4
_chemical_formula_sum   'Ba4 S4 O16'
_cell_volume   363.93573169
_cell_formula_units_Z   4
loop_
 _symmetry_equiv_pos_site_id
 _symmetry_equiv_pos_as_xyz
  1  'x, y, z'
loop_
 _atom_site_type_symbol
 _atom_site_label
 _atom_site_symmetry_multiplicity
 _atom_site_fract_x
 _atom_site_fract_y
 _atom_site_fract_z
 _atom_site_occupancy
  Ba  Ba0  1  0.24972258  0.59367891  0.68571744  1.0
  Ba  Ba1  1  0.74972258  0.90632109  0.31428256  1.0
  Ba  Ba2  1  0.75027742  0.09367891  0.81428256  1.0
  Ba  Ba3  1  0.25027742  0.40632109  0.18571744  1.0
  S  S4  1  0.24999904  0.93972366  0.06173070  1.0
  S  S5  1  0.74999904  0.56027634  0.93826930  1.0
  S  S6  1  0.75000096  0.43972366  0.43826930  1.0
  S  S7  1  0.25000096  0.06027634  0.56173070  1.0
  O  O8  1  0.46916888  0.93979035  0.58010004  1.0
  O  O9  1  0.96916888  0.56020965  0.41989996  1.0
  O  O10  1  0.53083112  0.43979035  0.91989996  1.0
  O  O11  1  0.03083112  0.06020965  0.08010004  1.0
  O  O12  1  0.24972719  0.85774888  0.91085856  1.0
  O  O13  1  0.74972719  0.64225112  0.08914144  1.0
  O  O14  1  0.75027281  0.35774888  0.58914144  1.0
  O  O15  1  0.25027281  0.14225112  0.41085856  1.0
  O  O16  1  0.03073994  0.93982880  0.57987337  1.0
  O  O17  1  0.53073994  0.56017120  0.42012663  1.0
  O  O18  1  0.96926006  0.43982880  0.92012663  1.0
  O  O19  1  0.46926006  0.06017120  0.07987337  1.0
  O  O20  1  0.75019540  0.70201929  0.81793569  1.0
  O  O21  1  0.25019540  0.79798071  0.18206431  1.0
  O  O22  1  0.24980460  0.20201929  0.68206431  1.0
  O  O23  1  0.74980460  0.29798071  0.31793569  1.0
