# generated using pymatgen
data_GdSnPt
_symmetry_space_group_name_H-M   'P 1'
_cell_length_a   7.29961012
_cell_length_b   4.59901778
_cell_length_c   8.08420964
_cell_angle_alpha   90.00000000
_cell_angle_beta   90.00000000
_cell_angle_gamma   90.00000000
_symmetry_Int_Tables_number   1
_chemical_formula_structural   GdSnPt
_chemical_formula_sum   'Gd4 Sn4 Pt4'
_cell_volume   271.39529896
_cell_formula_units_Z   4
loop_
 _symmetry_equiv_pos_site_id
 _symmetry_equiv_pos_as_xyz
  1  'x, y, z'
loop_
 _atom_site_type_symbol
 _atom_site_label
 _atom_site_symmetry_multiplicity
 _atom_site_fract_x
 _atom_site_fract_y
 _atom_site_fract_z
 _atom_site_occupancy
  Gd  Gd0  1  0.98838293  0.75000000  0.69535892  1.0
  Gd  Gd1  1  0.48838293  0.75000000  0.80464108  1.0
  Gd  Gd2  1  0.01161707  0.25000000  0.30464108  1.0
  Gd  Gd3  1  0.51161707  0.25000000  0.19535892  1.0
  Sn  Sn4  1  0.82317697  0.75000000  0.08336282  1.0
  Sn  Sn5  1  0.32317697  0.75000000  0.41663718  1.0
  Sn  Sn6  1  0.17682303  0.25000000  0.91663718  1.0
  Sn  Sn7  1  0.67682303  0.25000000  0.58336282  1.0
  Pt  Pt8  1  0.71718215  0.75000000  0.40856670  1.0
  Pt  Pt9  1  0.21718215  0.75000000  0.09143330  1.0
  Pt  Pt10  1  0.28281785  0.25000000  0.59143330  1.0
  Pt  Pt11  1  0.78281785  0.25000000  0.90856670  1.0
