# generated using pymatgen
data_LaI2
_symmetry_space_group_name_H-M   'P 1'
_cell_length_a   8.34006536
_cell_length_b   8.34006536
_cell_length_c   8.34006536
_cell_angle_alpha   152.57755225
_cell_angle_beta   152.57755225
_cell_angle_gamma   39.17047887
_symmetry_Int_Tables_number   1
_chemical_formula_structural   LaI2
_chemical_formula_sum   'La1 I2'
_cell_volume   122.82494070
_cell_formula_units_Z   1
loop_
 _symmetry_equiv_pos_site_id
 _symmetry_equiv_pos_as_xyz
  1  'x, y, z'
loop_
 _atom_site_type_symbol
 _atom_site_label
 _atom_site_symmetry_multiplicity
 _atom_site_fract_x
 _atom_site_fract_y
 _atom_site_fract_z
 _atom_site_occupancy
  La  La0  1  0.00000000  0.00000000  0.00000000  1.0
  I  I1  1  0.62096788  0.62096788  1.00000000  1.0
  I  I2  1  0.37903212  0.37903212  -0.00000000  1.0
