# generated using pymatgen
data_K2Te2Pd
_symmetry_space_group_name_H-M   'P 1'
_cell_length_a   6.87150366
_cell_length_b   6.87150366
_cell_length_c   6.87150366
_cell_angle_alpha   145.49795428
_cell_angle_beta   109.40919449
_cell_angle_gamma   81.00092873
_symmetry_Int_Tables_number   1
_chemical_formula_structural   K2Te2Pd
_chemical_formula_sum   'K2 Te2 Pd1'
_cell_volume   169.09860794
_cell_formula_units_Z   1
loop_
 _symmetry_equiv_pos_site_id
 _symmetry_equiv_pos_as_xyz
  1  'x, y, z'
loop_
 _atom_site_type_symbol
 _atom_site_label
 _atom_site_symmetry_multiplicity
 _atom_site_fract_x
 _atom_site_fract_y
 _atom_site_fract_z
 _atom_site_occupancy
  K  K0  1  0.70313704  0.20313704  0.50000000  1.0
  K  K1  1  1.29686296  0.79686296  0.50000000  1.0
  Te  Te2  1  0.22149561  0.50000000  0.72149561  1.0
  Te  Te3  1  0.77850439  0.50000000  1.27850439  1.0
  Pd  Pd4  1  0.00000000  0.00000000  0.00000000  1.0
