# generated using pymatgen
data_BaMnO3
_symmetry_space_group_name_H-M   'P 1'
_cell_length_a   5.72392028
_cell_length_b   5.72392028
_cell_length_c   13.95812422
_cell_angle_alpha   90.00000000
_cell_angle_beta   90.00000000
_cell_angle_gamma   120.00000000
_symmetry_Int_Tables_number   1
_chemical_formula_structural   BaMnO3
_chemical_formula_sum   'Ba6 Mn6 O18'
_cell_volume   396.04528182
_cell_formula_units_Z   6
loop_
 _symmetry_equiv_pos_site_id
 _symmetry_equiv_pos_as_xyz
  1  'x, y, z'
loop_
 _atom_site_type_symbol
 _atom_site_label
 _atom_site_symmetry_multiplicity
 _atom_site_fract_x
 _atom_site_fract_y
 _atom_site_fract_z
 _atom_site_occupancy
  Ba  Ba0  1  0.00000000  0.00000000  0.83289507  1.0
  Ba  Ba1  1  0.00000000  0.00000000  0.16710493  1.0
  Ba  Ba2  1  0.66666667  0.33333333  0.66469659  1.0
  Ba  Ba3  1  0.66666667  0.33333333  0.33530341  1.0
  Ba  Ba4  1  0.00000000  0.00000000  0.50000000  1.0
  Ba  Ba5  1  0.33333333  0.66666667  0.00000000  1.0
  Mn  Mn6  1  0.66666667  0.33333333  0.90868721  1.0
  Mn  Mn7  1  0.66666667  0.33333333  0.09131279  1.0
  Mn  Mn8  1  0.33333333  0.66666667  0.75942838  1.0
  Mn  Mn9  1  0.33333333  0.66666667  0.24057162  1.0
  Mn  Mn10  1  0.33333333  0.66666667  0.58013090  1.0
  Mn  Mn11  1  0.33333333  0.66666667  0.41986910  1.0
  O  O12  1  -0.00096495  0.49951753  0.83350118  1.0
  O  O13  1  -0.00096495  0.49951753  0.16649882  1.0
  O  O14  1  0.50048247  0.49951753  0.83350118  1.0
  O  O15  1  0.50048247  0.49951753  0.16649882  1.0
  O  O16  1  0.50048247  0.00096495  0.83350118  1.0
  O  O17  1  0.50048247  0.00096495  0.16649882  1.0
  O  O18  1  0.62720756  0.81360378  0.66961264  1.0
  O  O19  1  0.62720756  0.81360378  0.33038736  1.0
  O  O20  1  0.18639622  0.81360378  0.66961264  1.0
  O  O21  1  0.18639622  0.81360378  0.33038736  1.0
  O  O22  1  0.18639622  0.37279244  0.66961264  1.0
  O  O23  1  0.18639622  0.37279244  0.33038736  1.0
  O  O24  1  0.02562969  0.51281484  0.50000000  1.0
  O  O25  1  0.48718516  0.51281484  0.50000000  1.0
  O  O26  1  0.48718516  -0.02562969  0.50000000  1.0
  O  O27  1  0.37782171  0.18891085  0.00000000  1.0
  O  O28  1  0.81108915  0.18891085  0.00000000  1.0
  O  O29  1  0.81108915  0.62217829  0.00000000  1.0
