# generated using pymatgen
data_Ba2LiReN4
_symmetry_space_group_name_H-M   'P 1'
_cell_length_a   6.56600751
_cell_length_b   6.03236104
_cell_length_c   7.55873780
_cell_angle_alpha   90.00000000
_cell_angle_beta   109.96726453
_cell_angle_gamma   90.00000000
_symmetry_Int_Tables_number   1
_chemical_formula_structural   Ba2LiReN4
_chemical_formula_sum   'Ba4 Li2 Re2 N8'
_cell_volume   281.39348015
_cell_formula_units_Z   2
loop_
 _symmetry_equiv_pos_site_id
 _symmetry_equiv_pos_as_xyz
  1  'x, y, z'
loop_
 _atom_site_type_symbol
 _atom_site_label
 _atom_site_symmetry_multiplicity
 _atom_site_fract_x
 _atom_site_fract_y
 _atom_site_fract_z
 _atom_site_occupancy
  Ba  Ba0  1  0.31046071  0.25000000  0.07962399  1.0
  Ba  Ba1  1  0.68953929  0.75000000  0.92037601  1.0
  Ba  Ba2  1  0.23454481  0.25000000  0.55240529  1.0
  Ba  Ba3  1  0.76545519  0.75000000  0.44759471  1.0
  Li  Li4  1  0.85172518  0.25000000  0.13144771  1.0
  Li  Li5  1  0.14827482  0.75000000  0.86855229  1.0
  Re  Re6  1  0.79216074  0.25000000  0.71434217  1.0
  Re  Re7  1  0.20783926  0.75000000  0.28565783  1.0
  N  N8  1  0.96840960  0.49295385  0.76608838  1.0
  N  N9  1  0.96840960  0.00704615  0.76608838  1.0
  N  N10  1  0.03159040  0.99295385  0.23391162  1.0
  N  N11  1  0.03159040  0.50704615  0.23391162  1.0
  N  N12  1  0.62545756  0.25000000  0.46683271  1.0
  N  N13  1  0.37454244  0.75000000  0.53316729  1.0
  N  N14  1  0.61924556  0.25000000  0.86506732  1.0
  N  N15  1  0.38075444  0.75000000  0.13493268  1.0
