# generated using pymatgen
data_MgH30C2(SO9)2
_symmetry_space_group_name_H-M   'P 1'
_cell_length_a   8.94854099
_cell_length_b   8.94854099
_cell_length_c   8.94854099
_cell_angle_alpha   62.85074050
_cell_angle_beta   62.85074050
_cell_angle_gamma   62.85074050
_symmetry_Int_Tables_number   1
_chemical_formula_structural   MgH30C2(SO9)2
_chemical_formula_sum   'Mg1 H30 C2 S2 O18'
_cell_volume   538.79348367
_cell_formula_units_Z   1
loop_
 _symmetry_equiv_pos_site_id
 _symmetry_equiv_pos_as_xyz
  1  'x, y, z'
loop_
 _atom_site_type_symbol
 _atom_site_label
 _atom_site_symmetry_multiplicity
 _atom_site_fract_x
 _atom_site_fract_y
 _atom_site_fract_z
 _atom_site_occupancy
  Mg  Mg0  1  0.00000000  0.00000000  0.00000000  1.0
  H  H1  1  1.07369634  1.12222748  0.63971074  1.0
  H  H2  1  1.12222748  1.63971074  0.07369634  1.0
  H  H3  1  1.63971074  1.07369634  0.12222748  1.0
  H  H4  1  0.92630366  -0.12222748  0.36028926  1.0
  H  H5  1  0.87777252  0.36028926  -0.07369634  1.0
  H  H6  1  1.36028926  -0.07369634  -0.12222748  1.0
  H  H7  1  0.87375266  0.12926555  -0.28518211  1.0
  H  H8  1  1.12926555  -0.28518211  -0.12624734  1.0
  H  H9  1  0.71481789  -0.12624734  0.12926555  1.0
  H  H10  1  0.12624734  0.87073445  -0.71481789  1.0
  H  H11  1  0.87073445  0.28518211  -0.87375266  1.0
  H  H12  1  0.28518211  0.12624734  -0.12926555  1.0
  H  H13  1  0.48757434  0.26632162  -0.59785512  1.0
  H  H14  1  0.26632162  0.40214488  -0.51242566  1.0
  H  H15  1  0.40214488  0.48757434  -0.73367838  1.0
  H  H16  1  0.51242566  0.73367838  -0.40214488  1.0
  H  H17  1  0.73367838  0.59785512  -0.48757434  1.0
  H  H18  1  0.59785512  0.51242566  -0.26632162  1.0
  H  H19  1  0.72298591  0.06141524  -0.38483862  1.0
  H  H20  1  1.06141524  -0.38483862  -0.27701409  1.0
  H  H21  1  0.61516138  -0.27701409  0.06141524  1.0
  H  H22  1  0.27701409  0.93858476  -0.61516138  1.0
  H  H23  1  0.93858476  0.38483862  -0.72298591  1.0
  H  H24  1  0.38483862  0.27701409  -0.06141524  1.0
  H  H25  1  0.58848420  0.21860696  -0.30459805  1.0
  H  H26  1  0.21860696  0.69540195  -0.41151580  1.0
  H  H27  1  0.69540195  0.58848420  -0.78139304  1.0
  H  H28  1  0.41151580  0.78139304  -0.69540195  1.0
  H  H29  1  0.78139304  0.30459805  -0.58848420  1.0
  H  H30  1  0.30459805  0.41151580  -0.21860696  1.0
  C  C31  1  0.36951571  0.36951571  -0.63048429  1.0
  C  C32  1  0.63048429  0.63048429  -0.36951571  1.0
  S  S33  1  1.28663602  1.28663602  0.28663602  1.0
  S  S34  1  0.71336398  0.71336398  -0.28663602  1.0
  O  O35  1  0.97223272  0.11393387  -0.25140440  1.0
  O  O36  1  1.11393387  -0.25140440  -0.02776728  1.0
  O  O37  1  0.74859560  -0.02776728  0.11393387  1.0
  O  O38  1  1.02776728  -0.11393387  -0.74859560  1.0
  O  O39  1  0.88606613  -0.74859560  0.02776728  1.0
  O  O40  1  0.25140440  0.02776728  -0.11393387  1.0
  O  O41  1  1.24709275  1.12521993  0.42809235  1.0
  O  O42  1  1.12521993  1.42809235  0.24709275  1.0
  O  O43  1  1.42809235  1.24709275  0.12521993  1.0
  O  O44  1  0.75290725  0.87478007  -0.42809235  1.0
  O  O45  1  0.87478007  0.57190765  -0.24709275  1.0
  O  O46  1  0.57190765  0.75290725  -0.12521993  1.0
  O  O47  1  0.71332010  0.17282265  -0.37752231  1.0
  O  O48  1  1.17282265  -0.37752231  -0.28667990  1.0
  O  O49  1  0.62247769  -0.28667990  0.17282265  1.0
  O  O50  1  0.28667990  0.82717735  -0.62247769  1.0
  O  O51  1  0.82717735  0.37752231  -0.71332010  1.0
  O  O52  1  0.37752231  0.28667990  -0.17282265  1.0
