# generated using pymatgen
data_GaPCl8
_symmetry_space_group_name_H-M   'P 1'
_cell_length_a   6.50295290
_cell_length_b   14.56403302
_cell_length_c   14.36506931
_cell_angle_alpha   90.00000000
_cell_angle_beta   90.00000000
_cell_angle_gamma   90.00000000
_symmetry_Int_Tables_number   1
_chemical_formula_structural   GaPCl8
_chemical_formula_sum   'Ga4 P4 Cl32'
_cell_volume   1360.50452186
_cell_formula_units_Z   4
loop_
 _symmetry_equiv_pos_site_id
 _symmetry_equiv_pos_as_xyz
  1  'x, y, z'
loop_
 _atom_site_type_symbol
 _atom_site_label
 _atom_site_symmetry_multiplicity
 _atom_site_fract_x
 _atom_site_fract_y
 _atom_site_fract_z
 _atom_site_occupancy
  Ga  Ga0  1  0.18860477  0.50993098  0.25000000  1.0
  Ga  Ga1  1  0.81139523  0.00993098  0.25000000  1.0
  Ga  Ga2  1  0.18860477  0.99006902  0.75000000  1.0
  Ga  Ga3  1  0.81139523  0.49006902  0.75000000  1.0
  P  P4  1  0.45405311  0.25000000  0.00000000  1.0
  P  P5  1  0.54594689  0.75000000  0.00000000  1.0
  P  P6  1  0.45405311  0.25000000  0.50000000  1.0
  P  P7  1  0.54594689  0.75000000  0.50000000  1.0
  Cl  Cl8  1  0.07306186  0.44319685  0.12252403  1.0
  Cl  Cl9  1  0.92693814  0.94319685  0.12252403  1.0
  Cl  Cl10  1  0.07306186  0.05680315  0.62252403  1.0
  Cl  Cl11  1  0.92693814  0.55680315  0.62252403  1.0
  Cl  Cl12  1  0.92693814  0.55680315  0.87747597  1.0
  Cl  Cl13  1  0.07306186  0.05680315  0.87747597  1.0
  Cl  Cl14  1  0.92693814  0.94319685  0.37747597  1.0
  Cl  Cl15  1  0.07306186  0.44319685  0.37747597  1.0
  Cl  Cl16  1  0.52713498  0.50526773  0.25000000  1.0
  Cl  Cl17  1  0.47286502  0.00526773  0.25000000  1.0
  Cl  Cl18  1  0.52713498  0.99473227  0.75000000  1.0
  Cl  Cl19  1  0.47286502  0.49473227  0.75000000  1.0
  Cl  Cl20  1  0.09000534  0.65634072  0.25000000  1.0
  Cl  Cl21  1  0.90999466  0.15634072  0.25000000  1.0
  Cl  Cl22  1  0.09000534  0.84365928  0.75000000  1.0
  Cl  Cl23  1  0.90999466  0.34365928  0.75000000  1.0
  Cl  Cl24  1  0.63062743  0.15766035  0.93951344  1.0
  Cl  Cl25  1  0.36937257  0.65766035  0.93951344  1.0
  Cl  Cl26  1  0.63062743  0.34233965  0.43951344  1.0
  Cl  Cl27  1  0.36937257  0.84233965  0.43951344  1.0
  Cl  Cl28  1  0.36937257  0.84233965  0.06048656  1.0
  Cl  Cl29  1  0.63062743  0.34233965  0.06048656  1.0
  Cl  Cl30  1  0.36937257  0.65766035  0.56048656  1.0
  Cl  Cl31  1  0.63062743  0.15766035  0.56048656  1.0
  Cl  Cl32  1  0.27907073  0.19100085  0.09450640  1.0
  Cl  Cl33  1  0.72092927  0.69100085  0.09450640  1.0
  Cl  Cl34  1  0.27907073  0.30899915  0.59450640  1.0
  Cl  Cl35  1  0.72092927  0.80899915  0.59450640  1.0
  Cl  Cl36  1  0.72092927  0.80899915  0.90549360  1.0
  Cl  Cl37  1  0.27907073  0.30899915  0.90549360  1.0
  Cl  Cl38  1  0.72092927  0.69100085  0.40549360  1.0
  Cl  Cl39  1  0.27907073  0.19100085  0.40549360  1.0
