# generated using pymatgen
data_Zn2SiH2O5
_symmetry_space_group_name_H-M   'P 1'
_cell_length_a   8.53121946
_cell_length_b   10.85439219
_cell_length_c   5.16194564
_cell_angle_alpha   90.00000000
_cell_angle_beta   90.00000000
_cell_angle_gamma   90.00000000
_symmetry_Int_Tables_number   1
_chemical_formula_structural   Zn2SiH2O5
_chemical_formula_sum   'Zn8 Si4 H8 O20'
_cell_volume   478.00237029
_cell_formula_units_Z   4
loop_
 _symmetry_equiv_pos_site_id
 _symmetry_equiv_pos_as_xyz
  1  'x, y, z'
loop_
 _atom_site_type_symbol
 _atom_site_label
 _atom_site_symmetry_multiplicity
 _atom_site_fract_x
 _atom_site_fract_y
 _atom_site_fract_z
 _atom_site_occupancy
  Zn  Zn0  1  0.29695941  0.66263331  0.11826175  1.0
  Zn  Zn1  1  0.79695941  0.83736669  0.61826175  1.0
  Zn  Zn2  1  0.70304059  0.33736669  0.11826175  1.0
  Zn  Zn3  1  0.20304059  0.16263331  0.61826175  1.0
  Zn  Zn4  1  0.20259531  0.83729312  0.61830933  1.0
  Zn  Zn5  1  0.70259531  0.66270688  0.11830933  1.0
  Zn  Zn6  1  0.79740469  0.16270688  0.61830933  1.0
  Zn  Zn7  1  0.29740469  0.33729312  0.11830933  1.0
  Si  Si8  1  0.49977831  0.64646501  0.61174385  1.0
  Si  Si9  1  0.99977831  0.85353499  0.11174385  1.0
  Si  Si10  1  0.50022169  0.35353499  0.61174385  1.0
  Si  Si11  1  0.00022169  0.14646501  0.11174385  1.0
  H  H12  1  0.08856466  0.50031333  0.47084635  1.0
  H  H13  1  0.58856466  0.99968667  -0.02915365  1.0
  H  H14  1  0.91143534  0.49968667  0.47084635  1.0
  H  H15  1  0.41143534  0.00031333  -0.02915365  1.0
  H  H16  1  0.87647911  0.50021627  0.94666387  1.0
  H  H17  1  0.37647911  0.99978373  0.44666387  1.0
  H  H18  1  0.12352089  0.49978373  0.94666387  1.0
  H  H19  1  0.62352089  0.00021627  0.44666387  1.0
  O  O20  1  0.49978086  0.66653402  0.92609595  1.0
  O  O21  1  0.99978086  0.83346598  0.42609595  1.0
  O  O22  1  0.50021914  0.33346598  0.92609595  1.0
  O  O23  1  0.00021914  0.16653402  0.42609595  1.0
  O  O24  1  0.30386208  0.99987026  0.59308658  1.0
  O  O25  1  0.80386208  0.50012974  0.09308658  1.0
  O  O26  1  0.69613792  0.00012974  0.59308658  1.0
  O  O27  1  0.19613792  0.49987026  0.09308658  1.0
  O  O28  1  0.15984817  0.20553359  0.98379519  1.0
  O  O29  1  0.65984817  0.29446641  0.48379519  1.0
  O  O30  1  0.84015183  0.79446641  0.98379519  1.0
  O  O31  1  0.34015183  0.70553359  0.48379519  1.0
  O  O32  1  0.15919243  0.79418557  0.98366888  1.0
  O  O33  1  0.65919243  0.70581443  0.48366888  1.0
  O  O34  1  0.84080757  0.20581443  0.98366888  1.0
  O  O35  1  0.34080757  0.29418557  0.48366888  1.0
  O  O36  1  0.50000000  0.00000000  0.09169289  1.0
  O  O37  1  0.00000000  0.50000000  0.59169289  1.0
  O  O38  1  0.50000000  0.50000000  0.52866362  1.0
  O  O39  1  0.00000000  0.00000000  0.02866362  1.0
