# generated using pymatgen
data_Al6Ru
_symmetry_space_group_name_H-M   'P 1'
_cell_length_a   4.98318911
_cell_length_b   4.98318911
_cell_length_c   9.02201310
_cell_angle_alpha   90.00000000
_cell_angle_beta   90.00000000
_cell_angle_gamma   82.53873114
_symmetry_Int_Tables_number   1
_chemical_formula_structural   Al6Ru
_chemical_formula_sum   'Al12 Ru2'
_cell_volume   222.13925251
_cell_formula_units_Z   2
loop_
 _symmetry_equiv_pos_site_id
 _symmetry_equiv_pos_as_xyz
  1  'x, y, z'
loop_
 _atom_site_type_symbol
 _atom_site_label
 _atom_site_symmetry_multiplicity
 _atom_site_fract_x
 _atom_site_fract_y
 _atom_site_fract_z
 _atom_site_occupancy
  Al  Al0  1  0.81903247  0.81903247  0.50000000  1.0
  Al  Al1  1  0.81903247  0.81903247  0.00000000  1.0
  Al  Al2  1  0.18096753  0.18096753  0.50000000  1.0
  Al  Al3  1  0.18096753  0.18096753  0.00000000  1.0
  Al  Al4  1  -0.11822835  1.47876084  0.25000000  1.0
  Al  Al5  1  0.47876084  0.88177165  0.75000000  1.0
  Al  Al6  1  -0.47876084  1.11822835  0.25000000  1.0
  Al  Al7  1  0.11822835  0.52123916  0.75000000  1.0
  Al  Al8  1  0.35793120  0.64206880  0.40089946  1.0
  Al  Al9  1  0.35793120  0.64206880  0.09910054  1.0
  Al  Al10  1  -0.35793120  1.35793120  0.90089946  1.0
  Al  Al11  1  -0.35793120  1.35793120  0.59910054  1.0
  Ru  Ru12  1  0.03544193  0.96455807  0.25000000  1.0
  Ru  Ru13  1  -0.03544193  1.03544193  0.75000000  1.0
