# generated using pymatgen
data_SO4
_symmetry_space_group_name_H-M   'P 1'
_cell_length_a   5.24547257
_cell_length_b   5.24547257
_cell_length_c   9.51089223
_cell_angle_alpha   69.52978696
_cell_angle_beta   110.47021304
_cell_angle_gamma   122.76556700
_symmetry_Int_Tables_number   1
_chemical_formula_structural   SO4
_chemical_formula_sum   'S2 O8'
_cell_volume   201.83796356
_cell_formula_units_Z   2
loop_
 _symmetry_equiv_pos_site_id
 _symmetry_equiv_pos_as_xyz
  1  'x, y, z'
loop_
 _atom_site_type_symbol
 _atom_site_label
 _atom_site_symmetry_multiplicity
 _atom_site_fract_x
 _atom_site_fract_y
 _atom_site_fract_z
 _atom_site_occupancy
  S  S0  1  0.91698983  0.91698983  0.25000000  1.0
  S  S1  1  1.08301017  0.08301017  0.75000000  1.0
  O  O2  1  0.78580964  -0.27801875  0.38973505  1.0
  O  O3  1  1.27801875  0.21419036  0.88973505  1.0
  O  O4  1  0.72198125  0.78580964  0.11026495  1.0
  O  O5  1  0.21419036  0.27801875  0.61026495  1.0
  O  O6  1  0.22652677  -0.06637838  0.29575256  1.0
  O  O7  1  1.06637838  0.77347323  0.79575256  1.0
  O  O8  1  0.93362162  0.22652677  0.20424744  1.0
  O  O9  1  0.77347323  0.06637838  0.70424744  1.0
