# generated using pymatgen
data_PtN2
_symmetry_space_group_name_H-M   'P 1'
_cell_length_a   3.74644228
_cell_length_b   4.85324439
_cell_length_c   3.18905711
_cell_angle_alpha   90.00000000
_cell_angle_beta   90.00000000
_cell_angle_gamma   90.00000000
_symmetry_Int_Tables_number   1
_chemical_formula_structural   PtN2
_chemical_formula_sum   'Pt2 N4'
_cell_volume   57.98471203
_cell_formula_units_Z   2
loop_
 _symmetry_equiv_pos_site_id
 _symmetry_equiv_pos_as_xyz
  1  'x, y, z'
loop_
 _atom_site_type_symbol
 _atom_site_label
 _atom_site_symmetry_multiplicity
 _atom_site_fract_x
 _atom_site_fract_y
 _atom_site_fract_z
 _atom_site_occupancy
  Pt  Pt0  1  0.50000000  0.50000000  0.50000000  1.0
  Pt  Pt1  1  0.00000000  0.00000000  0.00000000  1.0
  N  N2  1  0.34940626  0.91436372  0.50000000  1.0
  N  N3  1  0.84940626  0.58563628  0.00000000  1.0
  N  N4  1  0.65059374  0.08563628  0.50000000  1.0
  N  N5  1  0.15059374  0.41436372  0.00000000  1.0
