# generated using pymatgen
data_Ge3BH4NO8
_symmetry_space_group_name_H-M   'P 1'
_cell_length_a   7.80804057
_cell_length_b   7.63971514
_cell_length_c   7.17436508
_cell_angle_alpha   105.79152640
_cell_angle_beta   102.21829270
_cell_angle_gamma   104.39962357
_symmetry_Int_Tables_number   1
_chemical_formula_structural   Ge3BH4NO8
_chemical_formula_sum   'Ge6 B2 H8 N2 O16'
_cell_volume   380.53802414
_cell_formula_units_Z   2
loop_
 _symmetry_equiv_pos_site_id
 _symmetry_equiv_pos_as_xyz
  1  'x, y, z'
loop_
 _atom_site_type_symbol
 _atom_site_label
 _atom_site_symmetry_multiplicity
 _atom_site_fract_x
 _atom_site_fract_y
 _atom_site_fract_z
 _atom_site_occupancy
  Ge  Ge0  1  -0.38894978  -0.66133410  -0.84683988  1.0
  Ge  Ge1  1  -0.61105022  -0.33866590  -0.15316012  1.0
  Ge  Ge2  1  -0.76288450  -0.84974291  -0.75104118  1.0
  Ge  Ge3  1  -0.23711550  -0.15025709  -0.24895882  1.0
  Ge  Ge4  1  -0.69436504  -0.78992786  -0.27451947  1.0
  Ge  Ge5  1  -0.30563496  -0.21007214  -0.72548053  1.0
  B  B6  1  -0.13990773  -0.88785601  -0.84320917  1.0
  B  B7  1  -0.86009227  -0.11214399  -0.15679083  1.0
  H  H8  1  -0.94980570  -0.32148327  -0.74440964  1.0
  H  H9  1  -0.05019430  -0.67851673  -0.25559036  1.0
  H  H10  1  -0.87166795  -0.50255529  -0.71795669  1.0
  H  H11  1  -0.12833205  -0.49744471  -0.28204331  1.0
  H  H12  1  -0.73052870  -0.30559727  -0.74679921  1.0
  H  H13  1  -0.26947130  -0.69440273  -0.25320079  1.0
  H  H14  1  -0.79071075  -0.28467309  -0.52790216  1.0
  H  H15  1  -0.20928925  -0.71532691  -0.47209784  1.0
  N  N16  1  -0.83407281  -0.35295778  -0.68528508  1.0
  N  N17  1  -0.16592719  -0.64704222  -0.31471492  1.0
  O  O18  1  -0.79469103  -0.06723853  -0.93674210  1.0
  O  O19  1  -0.20530897  -0.93276147  -0.06325790  1.0
  O  O20  1  -0.53771882  -0.27349294  -0.88321368  1.0
  O  O21  1  -0.46228118  -0.72650706  -0.11678632  1.0
  O  O22  1  -0.94546108  -0.75098569  -0.75781982  1.0
  O  O23  1  -0.05453892  -0.24901431  -0.24218018  1.0
  O  O24  1  -0.26276422  -0.79409189  -0.74855562  1.0
  O  O25  1  -0.73723578  -0.20590811  -0.25144438  1.0
  O  O26  1  -0.57757199  -0.65488273  -0.74944304  1.0
  O  O27  1  -0.42242801  -0.34511727  -0.25055696  1.0
  O  O28  1  -0.68367905  -0.89365848  -0.52128699  1.0
  O  O29  1  -0.31632095  -0.10634152  -0.47871301  1.0
  O  O30  1  -0.76414859  -0.58097410  -0.24707628  1.0
  O  O31  1  -0.23585141  -0.41902590  -0.75292372  1.0
  O  O32  1  -0.86329651  -0.94051310  -0.21263767  1.0
  O  O33  1  -0.13670349  -0.05948690  -0.78736233  1.0
