# generated using pymatgen
data_TlSbS2
_symmetry_space_group_name_H-M   'P 1'
_cell_length_a   11.96946596
_cell_length_b   6.96033317
_cell_length_c   6.31687476
_cell_angle_alpha   109.22493763
_cell_angle_beta   96.66371518
_cell_angle_gamma   104.93304522
_symmetry_Int_Tables_number   1
_chemical_formula_structural   TlSbS2
_chemical_formula_sum   'Tl4 Sb4 S8'
_cell_volume   468.35311675
_cell_formula_units_Z   4
loop_
 _symmetry_equiv_pos_site_id
 _symmetry_equiv_pos_as_xyz
  1  'x, y, z'
loop_
 _atom_site_type_symbol
 _atom_site_label
 _atom_site_symmetry_multiplicity
 _atom_site_fract_x
 _atom_site_fract_y
 _atom_site_fract_z
 _atom_site_occupancy
  Tl  Tl0  1  -0.93060560  -0.27316029  -0.61741452  1.0
  Tl  Tl1  1  -0.06939440  -0.72683971  -0.38258548  1.0
  Tl  Tl2  1  -0.32368248  -0.71176611  -0.91033909  1.0
  Tl  Tl3  1  -0.67631752  -0.28823389  -0.08966091  1.0
  Sb  Sb4  1  -0.57650521  -0.78838920  -0.43205387  1.0
  Sb  Sb5  1  -0.42349479  -0.21161080  -0.56794613  1.0
  Sb  Sb6  1  -0.83052772  -0.79070214  -0.86093166  1.0
  Sb  Sb7  1  -0.16947228  -0.20929786  -0.13906834  1.0
  S  S8  1  -0.81833759  -0.79099669  -0.46653776  1.0
  S  S9  1  -0.18166241  -0.20900331  -0.53346224  1.0
  S  S10  1  -0.35838735  -0.81737273  -0.46745926  1.0
  S  S11  1  -0.64161265  -0.18262727  -0.53254074  1.0
  S  S12  1  -0.09220677  -0.82393542  -0.91253882  1.0
  S  S13  1  -0.90779323  -0.17606458  -0.08746118  1.0
  S  S14  1  -0.60563858  -0.76743868  -0.81931030  1.0
  S  S15  1  -0.39436142  -0.23256132  -0.18068970  1.0
