# generated using pymatgen
data_CrH12N3O8
_symmetry_space_group_name_H-M   'P 1'
_cell_length_a   6.98808198
_cell_length_b   6.98808198
_cell_length_c   9.22814722
_cell_angle_alpha   90.00000000
_cell_angle_beta   90.00000000
_cell_angle_gamma   97.75553349
_symmetry_Int_Tables_number   1
_chemical_formula_structural   CrH12N3O8
_chemical_formula_sum   'Cr2 H24 N6 O16'
_cell_volume   446.51871713
_cell_formula_units_Z   2
loop_
 _symmetry_equiv_pos_site_id
 _symmetry_equiv_pos_as_xyz
  1  'x, y, z'
loop_
 _atom_site_type_symbol
 _atom_site_label
 _atom_site_symmetry_multiplicity
 _atom_site_fract_x
 _atom_site_fract_y
 _atom_site_fract_z
 _atom_site_occupancy
  Cr  Cr0  1  0.23787240  0.76212760  0.03072012  1.0
  Cr  Cr1  1  -0.23787240  1.23787240  0.53072012  1.0
  H  H2  1  0.31616125  0.37545647  0.21431369  1.0
  H  H3  1  -0.62454353  1.31616125  0.71431369  1.0
  H  H4  1  0.62454353  0.68383875  0.21431369  1.0
  H  H5  1  -0.31616125  1.62454353  0.71431369  1.0
  H  H6  1  -0.12985359  1.71843308  0.23870703  1.0
  H  H7  1  0.71843308  0.87014641  0.73870703  1.0
  H  H8  1  -0.71843308  1.12985359  0.23870703  1.0
  H  H9  1  0.12985359  0.28156692  0.73870703  1.0
  H  H10  1  -0.28071565  1.60977547  0.36945897  1.0
  H  H11  1  0.60977547  0.71928435  0.86945897  1.0
  H  H12  1  -0.60977547  1.28071565  0.36945897  1.0
  H  H13  1  0.28071565  0.39022453  0.86945897  1.0
  H  H14  1  0.14795088  0.27566608  0.33455453  1.0
  H  H15  1  -0.72433392  1.14795089  0.83455453  1.0
  H  H16  1  0.72433392  0.85204912  0.33455453  1.0
  H  H17  1  -0.14795088  1.72433392  0.83455453  1.0
  H  H18  1  -0.13815425  1.33072466  0.03340984  1.0
  H  H19  1  0.33072466  0.86184575  0.53340984  1.0
  H  H20  1  -0.33072466  1.13815425  0.03340984  1.0
  H  H21  1  0.13815425  0.66927534  0.53340984  1.0
  H  H22  1  0.16565290  0.83434710  0.40048517  1.0
  H  H23  1  -0.16565290  1.16565290  0.90048517  1.0
  H  H24  1  0.09903994  0.90096006  0.56567704  1.0
  H  H25  1  -0.09903994  1.09903994  0.06567704  1.0
  N  N26  1  -0.26231027  1.71565728  0.28881515  1.0
  N  N27  1  0.71565728  0.73768973  0.78881515  1.0
  N  N28  1  -0.71565728  1.26231027  0.28881515  1.0
  N  N29  1  0.26231027  0.28434272  0.78881515  1.0
  N  N30  1  0.18599936  0.81400064  0.51088589  1.0
  N  N31  1  -0.18599936  1.18599936  0.01088589  1.0
  O  O32  1  0.02571950  0.55507060  0.02728582  1.0
  O  O33  1  -0.44492940  1.02571950  0.52728582  1.0
  O  O34  1  0.44492940  0.97428050  0.02728582  1.0
  O  O35  1  -0.02571950  1.44492940  0.52728582  1.0
  O  O36  1  -0.06183046  1.35073881  0.38908726  1.0
  O  O37  1  0.35073881  0.93816954  0.88908726  1.0
  O  O38  1  -0.35073881  1.06183046  0.38908726  1.0
  O  O39  1  0.06183046  0.64926119  0.88908726  1.0
  O  O40  1  0.06208158  0.93791842  0.09321014  1.0
  O  O41  1  -0.06208158  1.06208158  0.59321014  1.0
  O  O42  1  0.15091872  0.84908128  0.21228667  1.0
  O  O43  1  -0.15091872  1.15091872  0.71228667  1.0
  O  O44  1  0.39805199  0.60194801  0.13122542  1.0
  O  O45  1  -0.39805199  1.39805199  0.63122542  1.0
  O  O46  1  0.41639327  0.58360673  -0.02285502  1.0
  O  O47  1  -0.41639327  1.41639327  0.47714498  1.0
