# generated using pymatgen
data_Zn2B2PbO6
_symmetry_space_group_name_H-M   'P 1'
_cell_length_a   5.02619627
_cell_length_b   11.53145758
_cell_length_c   10.74539413
_cell_angle_alpha   90.00000000
_cell_angle_beta   90.00000000
_cell_angle_gamma   90.00000000
_symmetry_Int_Tables_number   1
_chemical_formula_structural   Zn2B2PbO6
_chemical_formula_sum   'Zn8 B8 Pb4 O24'
_cell_volume   622.79626453
_cell_formula_units_Z   4
loop_
 _symmetry_equiv_pos_site_id
 _symmetry_equiv_pos_as_xyz
  1  'x, y, z'
loop_
 _atom_site_type_symbol
 _atom_site_label
 _atom_site_symmetry_multiplicity
 _atom_site_fract_x
 _atom_site_fract_y
 _atom_site_fract_z
 _atom_site_occupancy
  Zn  Zn0  1  0.68519215  1.00229662  0.15089465  1.0
  Zn  Zn1  1  0.68519215  0.49770338  0.65089465  1.0
  Zn  Zn2  1  0.18519215  0.50229662  0.84910535  1.0
  Zn  Zn3  1  0.18519215  -0.00229662  0.34910535  1.0
  Zn  Zn4  1  0.31480785  0.50229662  0.34910535  1.0
  Zn  Zn5  1  0.31480785  -0.00229662  0.84910535  1.0
  Zn  Zn6  1  0.81480785  1.00229662  0.65089465  1.0
  Zn  Zn7  1  0.81480785  0.49770338  0.15089465  1.0
  B  B8  1  0.80382504  0.39847575  0.41503274  1.0
  B  B9  1  0.80382504  0.10152425  0.91503274  1.0
  B  B10  1  0.30382504  0.89847575  0.58496726  1.0
  B  B11  1  0.30382504  0.60152425  0.08496726  1.0
  B  B12  1  0.19617496  0.89847575  0.08496726  1.0
  B  B13  1  0.19617496  0.60152425  0.58496726  1.0
  B  B14  1  0.69617496  0.39847575  0.91503274  1.0
  B  B15  1  0.69617496  0.10152425  0.41503274  1.0
  Pb  Pb16  1  0.75000000  0.75000000  0.44352996  1.0
  Pb  Pb17  1  0.75000000  0.75000000  0.94352996  1.0
  Pb  Pb18  1  0.25000000  0.25000000  0.55647004  1.0
  Pb  Pb19  1  0.25000000  0.25000000  0.05647004  1.0
  O  O20  1  0.83860104  0.37665214  0.02238903  1.0
  O  O21  1  0.83860104  0.12334786  0.52238903  1.0
  O  O22  1  0.33860104  0.87665214  0.97761097  1.0
  O  O23  1  0.33860104  0.62334786  0.47761097  1.0
  O  O24  1  0.16139896  0.87665214  0.47761097  1.0
  O  O25  1  0.16139896  0.62334786  0.97761097  1.0
  O  O26  1  0.66139896  0.37665214  0.52238903  1.0
  O  O27  1  0.66139896  0.12334786  0.02238903  1.0
  O  O28  1  0.67614112  0.44634971  0.31301411  1.0
  O  O29  1  0.67614112  0.05365029  0.81301411  1.0
  O  O30  1  0.17614112  0.94634971  0.68698589  1.0
  O  O31  1  0.17614112  0.55365029  0.18698589  1.0
  O  O32  1  0.32385888  0.94634971  0.18698589  1.0
  O  O33  1  0.32385888  0.55365029  0.68698589  1.0
  O  O34  1  0.82385888  0.44634971  0.81301411  1.0
  O  O35  1  0.82385888  0.05365029  0.31301411  1.0
  O  O36  1  0.92456675  0.87581571  0.09204255  1.0
  O  O37  1  0.92456675  0.62418429  0.59204255  1.0
  O  O38  1  0.42456675  0.37581571  0.90795745  1.0
  O  O39  1  0.42456675  0.12418429  0.40795745  1.0
  O  O40  1  0.07543325  0.37581571  0.40795745  1.0
  O  O41  1  0.07543325  0.12418429  0.90795745  1.0
  O  O42  1  0.57543325  0.87581571  0.59204255  1.0
  O  O43  1  0.57543325  0.62418429  0.09204255  1.0
