# generated using pymatgen
data_KGe
_symmetry_space_group_name_H-M   'P 1'
_cell_length_a   11.67204536
_cell_length_b   11.67204536
_cell_length_c   11.67204536
_cell_angle_alpha   124.71296424
_cell_angle_beta   124.71296424
_cell_angle_gamma   82.01400347
_symmetry_Int_Tables_number   1
_chemical_formula_structural   KGe
_chemical_formula_sum   'K16 Ge16'
_cell_volume   1033.26695783
_cell_formula_units_Z   16
loop_
 _symmetry_equiv_pos_site_id
 _symmetry_equiv_pos_as_xyz
  1  'x, y, z'
loop_
 _atom_site_type_symbol
 _atom_site_label
 _atom_site_symmetry_multiplicity
 _atom_site_fract_x
 _atom_site_fract_y
 _atom_site_fract_z
 _atom_site_occupancy
  K  K0  1  0.76391119  1.37500000  0.88891119  1.0
  K  K1  1  1.26391119  1.37500000  1.38891119  1.0
  K  K2  1  1.62500000  1.51391119  1.38891119  1.0
  K  K3  1  1.12500000  1.73608881  1.11108881  1.0
  K  K4  1  0.98608881  0.87500000  0.61108881  1.0
  K  K5  1  1.48608881  0.87500000  1.11108881  1.0
  K  K6  1  1.62500000  1.01391119  0.88891119  1.0
  K  K7  1  1.12500000  1.23608881  0.61108881  1.0
  K  K8  1  0.87287534  0.87287534  0.24575068  1.0
  K  K9  1  1.37287534  1.12712466  1.00000000  1.0
  K  K10  1  0.12287534  0.62287534  0.74575068  1.0
  K  K11  1  0.62287534  0.87712466  1.50000000  1.0
  K  K12  1  0.87712466  0.37712466  1.25424932  1.0
  K  K13  1  0.37712466  0.12287534  0.50000000  1.0
  K  K14  1  1.62712466  1.62712466  1.75424932  1.0
  K  K15  1  1.12712466  1.37287534  1.00000000  1.0
  Ge  Ge16  1  1.50920827  1.34401064  0.95846241  1.0
  Ge  Ge17  1  1.00920827  1.05074586  0.16519763  1.0
  Ge  Ge18  1  1.59401064  1.25920827  1.45846241  1.0
  Ge  Ge19  1  1.09401064  1.63554823  1.33480237  1.0
  Ge  Ge20  1  1.24079173  0.90598936  0.54153759  1.0
  Ge  Ge21  1  1.74079173  1.19925414  1.33480237  1.0
  Ge  Ge22  1  0.15598936  0.99079173  1.04153759  1.0
  Ge  Ge23  1  0.65598936  0.61445177  1.16519763  1.0
  Ge  Ge24  1  1.88554823  1.84401064  1.83480237  1.0
  Ge  Ge25  1  1.38554823  1.55074586  1.04153759  1.0
  Ge  Ge26  1  1.30074586  0.75920827  0.66519763  1.0
  Ge  Ge27  1  0.80074586  1.13554823  0.54153759  1.0
  Ge  Ge28  1  0.86445177  1.40598936  0.66519763  1.0
  Ge  Ge29  1  1.36445177  1.69925414  1.45846241  1.0
  Ge  Ge30  1  0.44925414  0.49079173  0.83480237  1.0
  Ge  Ge31  1  0.94925414  0.11445177  0.95846241  1.0
