# generated using pymatgen
data_Sb2MoSe
_symmetry_space_group_name_H-M   'P 1'
_cell_length_a   6.65064037
_cell_length_b   6.57384396
_cell_length_c   18.75507779
_cell_angle_alpha   90.00000000
_cell_angle_beta   94.22835508
_cell_angle_gamma   90.00000000
_symmetry_Int_Tables_number   1
_chemical_formula_structural   Sb2MoSe
_chemical_formula_sum   'Sb16 Mo8 Se8'
_cell_volume   817.74521631
_cell_formula_units_Z   8
loop_
 _symmetry_equiv_pos_site_id
 _symmetry_equiv_pos_as_xyz
  1  'x, y, z'
loop_
 _atom_site_type_symbol
 _atom_site_label
 _atom_site_symmetry_multiplicity
 _atom_site_fract_x
 _atom_site_fract_y
 _atom_site_fract_z
 _atom_site_occupancy
  Sb  Sb0  1  0.92552025  0.37518804  0.42573716  1.0
  Sb  Sb1  1  0.92552025  0.12481196  0.92573716  1.0
  Sb  Sb2  1  0.07447975  0.87518804  0.07426284  1.0
  Sb  Sb3  1  0.07447975  0.62481196  0.57426284  1.0
  Sb  Sb4  1  0.92563255  0.87525187  0.42598951  1.0
  Sb  Sb5  1  0.92563255  0.62474813  0.92598951  1.0
  Sb  Sb6  1  0.07436745  0.37525187  0.07401049  1.0
  Sb  Sb7  1  0.07436745  0.12474813  0.57401049  1.0
  Sb  Sb8  1  0.80031436  0.90046559  0.27422097  1.0
  Sb  Sb9  1  0.80031436  0.59953441  0.77422097  1.0
  Sb  Sb10  1  0.19968564  0.40046559  0.22577903  1.0
  Sb  Sb11  1  0.19968564  0.09953441  0.72577903  1.0
  Sb  Sb12  1  0.80008253  0.34990933  0.27397315  1.0
  Sb  Sb13  1  0.80008253  0.15009067  0.77397315  1.0
  Sb  Sb14  1  0.19991747  0.84990933  0.22602685  1.0
  Sb  Sb15  1  0.19991747  0.65009067  0.72602685  1.0
  Mo  Mo16  1  0.67292791  0.37466392  0.00544322  1.0
  Mo  Mo17  1  0.67292791  0.12533608  0.50544322  1.0
  Mo  Mo18  1  0.32707209  0.87466392  0.49455678  1.0
  Mo  Mo19  1  0.32707209  0.62533608  0.99455678  1.0
  Mo  Mo20  1  0.32742434  0.37558277  0.49470209  1.0
  Mo  Mo21  1  0.32742434  0.12441723  0.99470209  1.0
  Mo  Mo22  1  0.67257566  0.87558277  0.00529791  1.0
  Mo  Mo23  1  0.67257566  0.62441723  0.50529791  1.0
  Se  Se24  1  0.58800374  0.12497652  0.09943909  1.0
  Se  Se25  1  0.58800374  0.37502348  0.59943909  1.0
  Se  Se26  1  0.41199626  0.62497652  0.40056091  1.0
  Se  Se27  1  0.41199626  0.87502348  0.90056091  1.0
  Se  Se28  1  0.41169387  0.12522778  0.40075940  1.0
  Se  Se29  1  0.41169387  0.37477222  0.90075940  1.0
  Se  Se30  1  0.58830613  0.62522778  0.09924060  1.0
  Se  Se31  1  0.58830613  0.87477222  0.59924060  1.0
