# generated using pymatgen
data_Co(N3O4)3
_symmetry_space_group_name_H-M   'P 1'
_cell_length_a   7.09765565
_cell_length_b   7.09765565
_cell_length_c   7.09765565
_cell_angle_alpha   60.00000000
_cell_angle_beta   60.00000000
_cell_angle_gamma   60.00000000
_symmetry_Int_Tables_number   1
_chemical_formula_structural   Co(N3O4)3
_chemical_formula_sum   'Co1 N9 O12'
_cell_volume   252.83068326
_cell_formula_units_Z   1
loop_
 _symmetry_equiv_pos_site_id
 _symmetry_equiv_pos_as_xyz
  1  'x, y, z'
loop_
 _atom_site_type_symbol
 _atom_site_label
 _atom_site_symmetry_multiplicity
 _atom_site_fract_x
 _atom_site_fract_y
 _atom_site_fract_z
 _atom_site_occupancy
  N  N0  1  -0.79711525  0.79711525  0.79711525  1.0
  N  N1  1  0.20288475  -0.20288475  0.20288475  1.0
  N  N2  1  -0.20288475  0.20288475  0.79711525  1.0
  N  N3  1  -0.20288475  0.79711525  0.20288475  1.0
  N  N4  1  0.20288475  1.20288475  -0.20288475  1.0
  N  N5  1  -0.20288475  0.20288475  0.20288475  1.0
  N  N6  1  -0.50000000  0.50000000  0.50000000  1.0
  N  N7  1  0.25000000  0.25000000  0.25000000  1.0
  N  N8  1  0.75000000  0.75000000  -0.25000000  1.0
  O  O9  1  1.15140049  0.63317529  -0.63317529  1.0
  O  O10  1  0.63317529  1.15140049  -0.15140049  1.0
  O  O11  1  0.36682471  -0.15140049  0.15140049  1.0
  O  O12  1  -0.15140049  0.36682471  0.63317529  1.0
  O  O13  1  -0.15140049  0.63317529  0.15140049  1.0
  O  O14  1  0.36682471  1.15140049  -0.36682471  1.0
  O  O15  1  -0.63317529  0.63317529  0.84859951  1.0
  O  O16  1  0.15140049  -0.15140049  0.63317529  1.0
  O  O17  1  -0.36682471  0.84859951  0.36682471  1.0
  O  O18  1  0.15140049  1.36682471  -0.15140049  1.0
  O  O19  1  -0.15140049  0.15140049  0.36682471  1.0
  O  O20  1  -0.36682471  0.36682471  1.15140049  1.0
  Co  Co21  1  -0.00000000  -0.00000000  0.00000000  1.0
