# generated using pymatgen
data_CdH6C4(S2O)2
_symmetry_space_group_name_H-M   'P 1'
_cell_length_a   10.04920905
_cell_length_b   10.04920905
_cell_length_c   13.46538867
_cell_angle_alpha   72.67856299
_cell_angle_beta   107.32143701
_cell_angle_gamma   155.99622289
_symmetry_Int_Tables_number   1
_chemical_formula_structural   CdH6C4(S2O)2
_chemical_formula_sum   'Cd2 H12 C8 S8 O4'
_cell_volume   526.92343702
_cell_formula_units_Z   2
loop_
 _symmetry_equiv_pos_site_id
 _symmetry_equiv_pos_as_xyz
  1  'x, y, z'
loop_
 _atom_site_type_symbol
 _atom_site_label
 _atom_site_symmetry_multiplicity
 _atom_site_fract_x
 _atom_site_fract_y
 _atom_site_fract_z
 _atom_site_occupancy
  Cd  Cd0  1  1.00000000  0.50000000  0.50000000  1.0
  Cd  Cd1  1  0.50000000  0.00000000  -0.00000000  1.0
  H  H2  1  0.96089625  0.05893811  0.33977167  1.0
  H  H3  1  0.05893811  -0.03910375  0.16022833  1.0
  H  H4  1  1.03910375  0.94106189  0.66022833  1.0
  H  H5  1  0.94106189  0.03910375  0.83977167  1.0
  H  H6  1  0.63423076  0.63777779  0.37453521  1.0
  H  H7  1  0.63777779  -0.36576924  0.12546479  1.0
  H  H8  1  1.36576924  0.36222221  0.62546479  1.0
  H  H9  1  0.36222221  0.36576924  0.87453521  1.0
  H  H10  1  0.54613694  -0.26614396  0.29303413  1.0
  H  H11  1  0.73385604  0.54613694  0.20696587  1.0
  H  H12  1  0.45386306  0.26614396  0.70696587  1.0
  H  H13  1  1.26614396  0.45386306  0.79303413  1.0
  C  C14  1  0.70286896  -0.19018387  0.35771761  1.0
  C  C15  1  0.80981613  0.70286896  0.14228239  1.0
  C  C16  1  0.29713104  0.19018387  0.64228239  1.0
  C  C17  1  1.19018387  0.29713104  0.85771761  1.0
  C  C18  1  0.73306207  -0.00191213  0.45869282  1.0
  C  C19  1  0.99808787  0.73306207  0.04130718  1.0
  C  C20  1  0.26693793  0.00191213  0.54130718  1.0
  C  C21  1  1.00191213  0.26693793  0.95869282  1.0
  S  S22  1  0.64816301  -0.05151453  0.57517635  1.0
  S  S23  1  0.94848547  0.64816301  0.92482365  1.0
  S  S24  1  0.35183699  0.05151453  0.42482365  1.0
  S  S25  1  1.05151453  0.35183699  0.07517635  1.0
  S  S26  1  0.90257565  0.27422006  0.36015805  1.0
  S  S27  1  0.27422006  -0.09742435  0.13984195  1.0
  S  S28  1  1.09742435  0.72577994  0.63984195  1.0
  S  S29  1  0.72577994  0.09742435  0.86015805  1.0
  O  O30  1  0.65243853  -0.20139322  0.45268177  1.0
  O  O31  1  0.79860678  0.65243853  0.04731823  1.0
  O  O32  1  0.34756147  0.20139322  0.54731823  1.0
  O  O33  1  1.20139322  0.34756147  0.95268177  1.0
