# generated using pymatgen
data_SiTePt
_symmetry_space_group_name_H-M   'P 1'
_cell_length_a   6.22961869
_cell_length_b   6.32301963
_cell_length_c   12.65264675
_cell_angle_alpha   90.00000000
_cell_angle_beta   90.00000000
_cell_angle_gamma   90.00000000
_symmetry_Int_Tables_number   1
_chemical_formula_structural   SiTePt
_chemical_formula_sum   'Si8 Te8 Pt8'
_cell_volume   498.38777150
_cell_formula_units_Z   8
loop_
 _symmetry_equiv_pos_site_id
 _symmetry_equiv_pos_as_xyz
  1  'x, y, z'
loop_
 _atom_site_type_symbol
 _atom_site_label
 _atom_site_symmetry_multiplicity
 _atom_site_fract_x
 _atom_site_fract_y
 _atom_site_fract_z
 _atom_site_occupancy
  Si  Si0  1  0.12897108  0.66667603  0.56057724  1.0
  Si  Si1  1  0.12897108  0.83332397  0.06057724  1.0
  Si  Si2  1  0.62897108  0.66667603  0.93942276  1.0
  Si  Si3  1  0.62897108  0.83332397  0.43942276  1.0
  Si  Si4  1  0.87102892  0.16667603  0.93942276  1.0
  Si  Si5  1  0.87102892  0.33332397  0.43942276  1.0
  Si  Si6  1  0.37102892  0.16667603  0.56057724  1.0
  Si  Si7  1  0.37102892  0.33332397  0.06057724  1.0
  Te  Te8  1  0.38303234  0.91585489  0.82539787  1.0
  Te  Te9  1  0.38303234  0.58414511  0.32539787  1.0
  Te  Te10  1  0.88303234  0.91585489  0.67460213  1.0
  Te  Te11  1  0.88303234  0.58414511  0.17460213  1.0
  Te  Te12  1  0.61696766  0.41585489  0.67460213  1.0
  Te  Te13  1  0.61696766  0.08414511  0.17460213  1.0
  Te  Te14  1  0.11696766  0.41585489  0.82539787  1.0
  Te  Te15  1  0.11696766  0.08414511  0.32539787  1.0
  Pt  Pt16  1  0.47318243  0.81339216  0.61290457  1.0
  Pt  Pt17  1  0.47318243  0.68660784  0.11290457  1.0
  Pt  Pt18  1  0.97318243  0.81339216  0.88709543  1.0
  Pt  Pt19  1  0.97318243  0.68660784  0.38709543  1.0
  Pt  Pt20  1  0.52681757  0.31339216  0.88709543  1.0
  Pt  Pt21  1  0.52681757  0.18660784  0.38709543  1.0
  Pt  Pt22  1  0.02681757  0.31339216  0.61290457  1.0
  Pt  Pt23  1  0.02681757  0.18660784  0.11290457  1.0
