# generated using pymatgen
data_LaCu(WO4)2
_symmetry_space_group_name_H-M   'P 1'
_cell_length_a   7.53683631
_cell_length_b   8.05800608
_cell_length_c   7.74599539
_cell_angle_alpha   54.87948306
_cell_angle_beta   64.83361606
_cell_angle_gamma   64.53683808
_symmetry_Int_Tables_number   1
_chemical_formula_structural   LaCu(WO4)2
_chemical_formula_sum   'La2 Cu2 W4 O16'
_cell_volume   337.17503127
_cell_formula_units_Z   2
loop_
 _symmetry_equiv_pos_site_id
 _symmetry_equiv_pos_as_xyz
  1  'x, y, z'
loop_
 _atom_site_type_symbol
 _atom_site_label
 _atom_site_symmetry_multiplicity
 _atom_site_fract_x
 _atom_site_fract_y
 _atom_site_fract_z
 _atom_site_occupancy
  La  La0  1  -0.71613220  0.81933298  -0.27663366  1.0
  La  La1  1  -0.28386780  0.18066702  0.27663366  1.0
  Cu  Cu2  1  -0.31507175  0.77855638  0.26353929  1.0
  Cu  Cu3  1  -0.68492825  0.22144362  -0.26353929  1.0
  W  W4  1  -0.70221699  0.72819131  0.23787586  1.0
  W  W5  1  -0.29778301  0.27180869  -0.23787586  1.0
  W  W6  1  -0.90163996  0.35677551  0.35352834  1.0
  W  W7  1  -0.09836004  0.64322449  -0.35352834  1.0
  O  O8  1  -0.68968816  0.94505509  -0.03943421  1.0
  O  O9  1  -0.31031184  0.05494491  0.03943421  1.0
  O  O10  1  -0.35105910  0.82207229  -0.37819621  1.0
  O  O11  1  -0.64894090  0.17792771  0.37819621  1.0
  O  O12  1  -0.62967336  0.79975683  -0.62244865  1.0
  O  O13  1  -0.37032664  0.20024317  0.62244865  1.0
  O  O14  1  -0.83275121  0.61092566  0.13360667  1.0
  O  O15  1  -0.16724879  0.38907434  -0.13360667  1.0
  O  O16  1  -0.47424412  0.53399964  0.20055238  1.0
  O  O17  1  -0.52575588  0.46600036  -0.20055238  1.0
  O  O18  1  -0.17380121  0.52082567  0.47063942  1.0
  O  O19  1  -0.82619879  0.47917433  -0.47063942  1.0
  O  O20  1  -0.99214450  0.29467518  0.22617412  1.0
  O  O21  1  -0.00785550  0.70532482  -0.22617412  1.0
  O  O22  1  -0.99645383  0.14910420  0.65771282  1.0
  O  O23  1  -0.00354617  0.85089580  -0.65771282  1.0
