# generated using pymatgen
data_Cs2MnO4
_symmetry_space_group_name_H-M   'P 1'
_cell_length_a   8.53774643
_cell_length_b   6.36536484
_cell_length_c   11.37439347
_cell_angle_alpha   90.00000000
_cell_angle_beta   90.00000000
_cell_angle_gamma   90.00000000
_symmetry_Int_Tables_number   1
_chemical_formula_structural   Cs2MnO4
_chemical_formula_sum   'Cs8 Mn4 O16'
_cell_volume   618.15131991
_cell_formula_units_Z   4
loop_
 _symmetry_equiv_pos_site_id
 _symmetry_equiv_pos_as_xyz
  1  'x, y, z'
loop_
 _atom_site_type_symbol
 _atom_site_label
 _atom_site_symmetry_multiplicity
 _atom_site_fract_x
 _atom_site_fract_y
 _atom_site_fract_z
 _atom_site_occupancy
  Cs  Cs0  1  0.83105972  0.75000000  0.41398971  1.0
  Cs  Cs1  1  0.33105972  0.75000000  0.08601029  1.0
  Cs  Cs2  1  0.16894028  0.25000000  0.58601029  1.0
  Cs  Cs3  1  0.66894028  0.25000000  0.91398971  1.0
  Cs  Cs4  1  0.50980099  0.75000000  0.69464403  1.0
  Cs  Cs5  1  0.00980099  0.75000000  0.80535597  1.0
  Cs  Cs6  1  0.49019901  0.25000000  0.30535597  1.0
  Cs  Cs7  1  0.99019901  0.25000000  0.19464403  1.0
  Mn  Mn8  1  0.76719288  0.75000000  0.08099792  1.0
  Mn  Mn9  1  0.26719288  0.75000000  0.41900208  1.0
  Mn  Mn10  1  0.23280712  0.25000000  0.91900208  1.0
  Mn  Mn11  1  0.73280712  0.25000000  0.58099792  1.0
  O  O12  1  0.69943357  0.96288132  0.14753810  1.0
  O  O13  1  0.69943357  0.53711868  0.14753810  1.0
  O  O14  1  0.19943357  0.96288132  0.35246190  1.0
  O  O15  1  0.19943357  0.53711868  0.35246190  1.0
  O  O16  1  0.30056643  0.46288132  0.85246190  1.0
  O  O17  1  0.30056643  0.03711868  0.85246190  1.0
  O  O18  1  0.80056643  0.46288132  0.64753810  1.0
  O  O19  1  0.80056643  0.03711868  0.64753810  1.0
  O  O20  1  0.96035797  0.75000000  0.08436135  1.0
  O  O21  1  0.46035797  0.75000000  0.41563865  1.0
  O  O22  1  0.03964203  0.25000000  0.91563865  1.0
  O  O23  1  0.53964203  0.25000000  0.58436135  1.0
  O  O24  1  0.20528948  0.75000000  0.55750323  1.0
  O  O25  1  0.70528948  0.75000000  0.94249677  1.0
  O  O26  1  0.79471052  0.25000000  0.44249677  1.0
  O  O27  1  0.29471052  0.25000000  0.05750323  1.0
