# generated using pymatgen
data_KH7C3(N2O)4
_symmetry_space_group_name_H-M   'P 1'
_cell_length_a   8.30324500
_cell_length_b   7.07906182
_cell_length_c   9.65458828
_cell_angle_alpha   109.65023793
_cell_angle_beta   100.30956557
_cell_angle_gamma   95.37104710
_symmetry_Int_Tables_number   1
_chemical_formula_structural   KH7C3(N2O)4
_chemical_formula_sum   'K2 H14 C6 N16 O8'
_cell_volume   518.51829228
_cell_formula_units_Z   2
loop_
 _symmetry_equiv_pos_site_id
 _symmetry_equiv_pos_as_xyz
  1  'x, y, z'
loop_
 _atom_site_type_symbol
 _atom_site_label
 _atom_site_symmetry_multiplicity
 _atom_site_fract_x
 _atom_site_fract_y
 _atom_site_fract_z
 _atom_site_occupancy
  K  K0  1  -0.33251783  -0.79526976  -0.79614118  1.0
  K  K1  1  -0.66748217  -0.20473024  -0.20385882  1.0
  H  H2  1  -0.85721430  -0.79170571  -0.32590098  1.0
  H  H3  1  -0.14278570  -0.20829429  -0.67409902  1.0
  H  H4  1  0.00515591  -0.68006519  -0.93746358  1.0
  H  H5  1  -1.00515591  -0.31993481  -0.06253642  1.0
  H  H6  1  -0.95171774  -0.64482848  -0.40192129  1.0
  H  H7  1  -0.04828226  -0.35517152  -0.59807871  1.0
  H  H8  1  -0.84257488  -0.37262866  -0.98741787  1.0
  H  H9  1  -0.15742512  -0.62737134  -0.01258213  1.0
  H  H10  1  -0.35497612  -0.29887090  -0.99193187  1.0
  H  H11  1  -0.64502388  -0.70112910  -0.00806813  1.0
  H  H12  1  -0.46354877  -0.27981445  -0.87385707  1.0
  H  H13  1  -0.53645123  -0.72018555  -0.12614293  1.0
  H  H14  1  -0.84360877  -0.05779246  -0.85694855  1.0
  H  H15  1  -0.15639123  -0.94220754  -0.14305145  1.0
  C  C16  1  -0.90675485  -0.89439906  -0.64700913  1.0
  C  C17  1  -0.09324515  -0.10560094  -0.35299087  1.0
  C  C18  1  -0.63627645  -0.78735443  -0.53663996  1.0
  C  C19  1  -0.36372355  -0.21264557  -0.46336004  1.0
  C  C20  1  -0.48006565  -0.69221273  -0.42866011  1.0
  C  C21  1  -0.51993435  -0.30778727  -0.57133989  1.0
  N  N22  1  -0.80667835  -0.95221030  -0.74648473  1.0
  N  N23  1  -0.19332165  -0.04778970  -0.25351527  1.0
  N  N24  1  -0.64178539  -0.89125927  -0.67989677  1.0
  N  N25  1  -0.35821461  -0.10874073  -0.32010323  1.0
  N  N26  1  -0.79350945  -0.78522903  -0.51031231  1.0
  N  N27  1  -0.20649055  -0.21477097  -0.48968769  1.0
  N  N28  1  -0.33690638  -0.67476812  -0.47435232  1.0
  N  N29  1  -0.66309362  -0.32523188  -0.52564768  1.0
  N  N30  1  -0.83757552  -0.68456509  -0.37447483  1.0
  N  N31  1  -0.16242448  -0.31543491  -0.62552517  1.0
  N  N32  1  -0.70589126  -0.45601239  -0.76499170  1.0
  N  N33  1  -0.29410874  -0.54398761  -0.23500830  1.0
  N  N34  1  -0.78150471  -0.41923070  -0.64991604  1.0
  N  N35  1  -0.21849529  -0.58076930  -0.35008396  1.0
  N  N36  1  -0.54226518  -0.38837177  -0.72277147  1.0
  N  N37  1  -0.45773482  -0.61162823  -0.27722853  1.0
  O  O38  1  -0.06037767  -0.92499698  -0.66802323  1.0
  O  O39  1  -0.93962233  -0.07500302  -0.33197677  1.0
  O  O40  1  -0.11520922  -0.73253206  -0.97565676  1.0
  O  O41  1  -0.88479078  -0.26746794  -0.02434324  1.0
  O  O42  1  -0.78279960  -0.55047423  -0.90509219  1.0
  O  O43  1  -0.21720040  -0.44952577  -0.09490781  1.0
  O  O44  1  -0.43364468  -0.21693046  -0.94418716  1.0
  O  O45  1  -0.56635532  -0.78306954  -0.05581284  1.0
