# generated using pymatgen
data_TiZn2O4
_symmetry_space_group_name_H-M   'P 1'
_cell_length_a   6.06823012
_cell_length_b   6.06823012
_cell_length_c   8.47588028
_cell_angle_alpha   90.00000000
_cell_angle_beta   90.00000000
_cell_angle_gamma   90.00000000
_symmetry_Int_Tables_number   1
_chemical_formula_structural   TiZn2O4
_chemical_formula_sum   'Ti4 Zn8 O16'
_cell_volume   312.11087195
_cell_formula_units_Z   4
loop_
 _symmetry_equiv_pos_site_id
 _symmetry_equiv_pos_as_xyz
  1  'x, y, z'
loop_
 _atom_site_type_symbol
 _atom_site_label
 _atom_site_symmetry_multiplicity
 _atom_site_fract_x
 _atom_site_fract_y
 _atom_site_fract_z
 _atom_site_occupancy
  Ti  Ti0  1  0.50000000  0.76127096  0.50000000  1.0
  Ti  Ti1  1  0.50000000  0.23872904  0.00000000  1.0
  Ti  Ti2  1  0.76127096  0.50000000  0.25000000  1.0
  Ti  Ti3  1  0.23872904  0.50000000  0.75000000  1.0
  Zn  Zn4  1  0.74690112  0.74690112  0.87500000  1.0
  Zn  Zn5  1  0.74690112  0.25309888  0.62500000  1.0
  Zn  Zn6  1  0.25309888  0.74690112  0.12500000  1.0
  Zn  Zn7  1  0.25309888  0.25309888  0.37500000  1.0
  Zn  Zn8  1  0.00000000  0.75536153  0.50000000  1.0
  Zn  Zn9  1  0.00000000  0.24463847  0.00000000  1.0
  Zn  Zn10  1  0.75536153  0.00000000  0.25000000  1.0
  Zn  Zn11  1  0.24463847  0.00000000  0.75000000  1.0
  O  O12  1  0.73399768  -0.02616442  0.50100090  1.0
  O  O13  1  0.73399768  0.02616442  -0.00100090  1.0
  O  O14  1  -0.02616442  0.73399768  0.24899910  1.0
  O  O15  1  -0.02616442  0.26600232  0.25100090  1.0
  O  O16  1  0.26600232  -0.02616442  0.49899910  1.0
  O  O17  1  0.26600232  0.02616442  0.00100090  1.0
  O  O18  1  0.02616442  0.73399768  0.75100090  1.0
  O  O19  1  0.02616442  0.26600232  0.74899910  1.0
  O  O20  1  0.73344083  0.51450091  0.48200410  1.0
  O  O21  1  0.73344083  0.48549909  0.01799590  1.0
  O  O22  1  0.51450091  0.73344083  0.26799590  1.0
  O  O23  1  0.51450091  0.26655917  0.23200410  1.0
  O  O24  1  0.26655917  0.51450091  0.51799590  1.0
  O  O25  1  0.26655917  0.48549909  -0.01799590  1.0
  O  O26  1  0.48549909  0.73344083  0.73200410  1.0
  O  O27  1  0.48549909  0.26655917  0.76799590  1.0
