# generated using pymatgen
data_K3PO4
_symmetry_space_group_name_H-M   'P 1'
_cell_length_a   11.35048332
_cell_length_b   8.20206960
_cell_length_c   6.01265062
_cell_angle_alpha   90.00000000
_cell_angle_beta   90.00000000
_cell_angle_gamma   90.00000000
_symmetry_Int_Tables_number   1
_chemical_formula_structural   K3PO4
_chemical_formula_sum   'K12 P4 O16'
_cell_volume   559.76246584
_cell_formula_units_Z   4
loop_
 _symmetry_equiv_pos_site_id
 _symmetry_equiv_pos_as_xyz
  1  'x, y, z'
loop_
 _atom_site_type_symbol
 _atom_site_label
 _atom_site_symmetry_multiplicity
 _atom_site_fract_x
 _atom_site_fract_y
 _atom_site_fract_z
 _atom_site_occupancy
  K  K0  1  0.64494219  0.49101924  0.30626781  1.0
  K  K1  1  0.64494219  0.00898076  0.30626781  1.0
  K  K2  1  0.14494219  0.49101924  0.19373219  1.0
  K  K3  1  0.14494219  0.00898076  0.19373219  1.0
  K  K4  1  0.35505781  0.99101924  0.69373219  1.0
  K  K5  1  0.35505781  0.50898076  0.69373219  1.0
  K  K6  1  0.85505781  0.99101924  0.80626781  1.0
  K  K7  1  0.85505781  0.50898076  0.80626781  1.0
  K  K8  1  0.56943265  0.25000000  0.86298957  1.0
  K  K9  1  0.06943265  0.25000000  0.63701043  1.0
  K  K10  1  0.43056735  0.75000000  0.13701043  1.0
  K  K11  1  0.93056735  0.75000000  0.36298957  1.0
  P  P12  1  0.88456404  0.25000000  0.21761489  1.0
  P  P13  1  0.38456404  0.25000000  0.28238511  1.0
  P  P14  1  0.11543596  0.75000000  0.78238511  1.0
  P  P15  1  0.61543596  0.75000000  0.71761489  1.0
  O  O16  1  0.88927919  0.40696274  0.36601447  1.0
  O  O17  1  0.88927919  0.09303726  0.36601447  1.0
  O  O18  1  0.38927919  0.40696274  0.13398553  1.0
  O  O19  1  0.38927919  0.09303726  0.13398553  1.0
  O  O20  1  0.11072081  0.90696274  0.63398553  1.0
  O  O21  1  0.11072081  0.59303726  0.63398553  1.0
  O  O22  1  0.61072081  0.90696274  0.86601447  1.0
  O  O23  1  0.61072081  0.59303726  0.86601447  1.0
  O  O24  1  0.99204848  0.25000000  0.05170211  1.0
  O  O25  1  0.49204848  0.25000000  0.44829789  1.0
  O  O26  1  0.00795152  0.75000000  0.94829789  1.0
  O  O27  1  0.50795152  0.75000000  0.55170211  1.0
  O  O28  1  0.76788790  0.25000000  0.07666563  1.0
  O  O29  1  0.26788790  0.25000000  0.42333437  1.0
  O  O30  1  0.23211210  0.75000000  0.92333437  1.0
  O  O31  1  0.73211210  0.75000000  0.57666563  1.0
