# generated using pymatgen
data_KSrBe2B2O6F
_symmetry_space_group_name_H-M   'P 1'
_cell_length_a   4.80693222
_cell_length_b   4.80693222
_cell_length_c   15.27789077
_cell_angle_alpha   90.00000000
_cell_angle_beta   90.00000000
_cell_angle_gamma   120.00000000
_symmetry_Int_Tables_number   1
_chemical_formula_structural   KSrBe2B2O6F
_chemical_formula_sum   'K2 Sr2 Be4 B4 O12 F2'
_cell_volume   305.72434902
_cell_formula_units_Z   2
loop_
 _symmetry_equiv_pos_site_id
 _symmetry_equiv_pos_as_xyz
  1  'x, y, z'
loop_
 _atom_site_type_symbol
 _atom_site_label
 _atom_site_symmetry_multiplicity
 _atom_site_fract_x
 _atom_site_fract_y
 _atom_site_fract_z
 _atom_site_occupancy
  K  K0  1  0.00000000  0.00000000  0.25000000  1.0
  K  K1  1  0.00000000  0.00000000  0.75000000  1.0
  Sr  Sr2  1  0.00000000  0.00000000  0.50000000  1.0
  Sr  Sr3  1  0.00000000  0.00000000  0.00000000  1.0
  Be  Be4  1  0.33333333  0.66666667  0.36222601  1.0
  Be  Be5  1  0.33333333  0.66666667  0.13777399  1.0
  Be  Be6  1  0.66666667  0.33333333  0.86222601  1.0
  Be  Be7  1  0.66666667  0.33333333  0.63777399  1.0
  B  B8  1  0.33333333  0.66666667  0.88837119  1.0
  B  B9  1  0.33333333  0.66666667  0.61162881  1.0
  B  B10  1  0.66666667  0.33333333  0.38837119  1.0
  B  B11  1  0.66666667  0.33333333  0.11162881  1.0
  O  O12  1  0.61093704  0.58913861  0.39022047  1.0
  O  O13  1  0.61093704  0.58913861  0.10977953  1.0
  O  O14  1  0.58913861  0.97820157  0.89022047  1.0
  O  O15  1  0.58913861  0.97820157  0.60977953  1.0
  O  O16  1  0.97820157  0.38906296  0.39022047  1.0
  O  O17  1  0.97820157  0.38906296  0.10977953  1.0
  O  O18  1  0.41086139  0.02179843  0.39022047  1.0
  O  O19  1  0.41086139  0.02179843  0.10977953  1.0
  O  O20  1  0.38906296  0.41086139  0.89022047  1.0
  O  O21  1  0.38906296  0.41086139  0.60977953  1.0
  O  O22  1  0.02179843  0.61093704  0.89022047  1.0
  O  O23  1  0.02179843  0.61093704  0.60977953  1.0
  F  F24  1  0.33333333  0.66666667  0.25000000  1.0
  F  F25  1  0.66666667  0.33333333  0.75000000  1.0
