# generated using pymatgen
data_H8C(N2O)3
_symmetry_space_group_name_H-M   'P 1'
_cell_length_a   7.03192589
_cell_length_b   4.89341029
_cell_length_c   10.01999980
_cell_angle_alpha   90.00000000
_cell_angle_beta   107.18131352
_cell_angle_gamma   90.00000000
_symmetry_Int_Tables_number   1
_chemical_formula_structural   H8C(N2O)3
_chemical_formula_sum   'H16 C2 N12 O6'
_cell_volume   329.40287843
_cell_formula_units_Z   2
loop_
 _symmetry_equiv_pos_site_id
 _symmetry_equiv_pos_as_xyz
  1  'x, y, z'
loop_
 _atom_site_type_symbol
 _atom_site_label
 _atom_site_symmetry_multiplicity
 _atom_site_fract_x
 _atom_site_fract_y
 _atom_site_fract_z
 _atom_site_occupancy
  H  H0  1  0.94703492  0.69251650  0.76124640  1.0
  H  H1  1  0.05296508  0.19251650  0.23875360  1.0
  H  H2  1  0.93815361  0.33442164  0.77463697  1.0
  H  H3  1  0.06184639  0.83442164  0.22536303  1.0
  H  H4  1  0.88541532  0.03193757  0.10115854  1.0
  H  H5  1  0.11458468  0.53193757  0.89884146  1.0
  H  H6  1  0.77160242  0.38064953  0.92887130  1.0
  H  H7  1  0.22839758  0.88064953  0.07112870  1.0
  H  H8  1  0.74952807  0.42773878  0.48752003  1.0
  H  H9  1  0.25047193  0.92773878  0.51247997  1.0
  H  H10  1  0.64128746  0.86061239  0.84897156  1.0
  H  H11  1  0.35871254  0.36061239  0.15102844  1.0
  H  H12  1  0.46021803  0.87948817  0.92608789  1.0
  H  H13  1  0.53978197  0.37948817  0.07391211  1.0
  H  H14  1  0.46641922  0.11407055  0.79724198  1.0
  H  H15  1  0.53358078  0.61407055  0.20275802  1.0
  C  C16  1  0.79495133  -0.00047255  0.56084087  1.0
  C  C17  1  0.20504867  0.49952745  0.43915913  1.0
  N  N18  1  0.96826192  0.52219009  0.82932914  1.0
  N  N19  1  0.03173808  0.02219009  0.17067086  1.0
  N  N20  1  0.73863288  0.21306689  0.46980955  1.0
  N  N21  1  0.26136712  0.71306689  0.53019045  1.0
  N  N22  1  0.65636785  0.11769445  0.33948497  1.0
  N  N23  1  0.34363215  0.61769445  0.66051503  1.0
  N  N24  1  0.55223067  -0.00208425  0.88232833  1.0
  N  N25  1  0.44776933  0.49791575  0.11767167  1.0
  N  N26  1  0.33862209  0.35301573  0.65141681  1.0
  N  N27  1  0.66137791  0.85301573  0.34858319  1.0
  N  N28  1  0.25533402  0.27041100  0.51844441  1.0
  N  N29  1  0.74466598  0.77041100  0.48155559  1.0
  O  O30  1  0.87771813  0.01496555  0.69254860  1.0
  O  O31  1  0.12228187  0.51496555  0.30745140  1.0
  O  O32  1  0.83229678  0.56877290  0.90695034  1.0
  O  O33  1  0.16770322  0.06877290  0.09304966  1.0
  O  O34  1  0.67355366  0.17090505  0.98594240  1.0
  O  O35  1  0.32644634  0.67090505  0.01405760  1.0
