# generated using pymatgen
data_KHfPdF7
_symmetry_space_group_name_H-M   'P 1'
_cell_length_a   11.54223964
_cell_length_b   8.12290967
_cell_length_c   6.52407836
_cell_angle_alpha   90.00000000
_cell_angle_beta   90.00000000
_cell_angle_gamma   90.00000000
_symmetry_Int_Tables_number   1
_chemical_formula_structural   KHfPdF7
_chemical_formula_sum   'K4 Hf4 Pd4 F28'
_cell_volume   611.67520929
_cell_formula_units_Z   4
loop_
 _symmetry_equiv_pos_site_id
 _symmetry_equiv_pos_as_xyz
  1  'x, y, z'
loop_
 _atom_site_type_symbol
 _atom_site_label
 _atom_site_symmetry_multiplicity
 _atom_site_fract_x
 _atom_site_fract_y
 _atom_site_fract_z
 _atom_site_occupancy
  K  K0  1  0.25000000  0.50000000  0.26720656  1.0
  K  K1  1  0.25000000  0.00000000  0.23279344  1.0
  K  K2  1  0.75000000  0.50000000  0.73279344  1.0
  K  K3  1  0.75000000  0.00000000  0.76720656  1.0
  Hf  Hf4  1  0.40778637  0.25000000  0.75000000  1.0
  Hf  Hf5  1  0.90778637  0.25000000  0.25000000  1.0
  Hf  Hf6  1  0.59221363  0.75000000  0.25000000  1.0
  Hf  Hf7  1  0.09221363  0.75000000  0.75000000  1.0
  Pd  Pd8  1  0.09887738  0.25000000  0.75000000  1.0
  Pd  Pd9  1  0.59887738  0.25000000  0.25000000  1.0
  Pd  Pd10  1  0.90112262  0.75000000  0.25000000  1.0
  Pd  Pd11  1  0.40112262  0.75000000  0.75000000  1.0
  F  F12  1  0.45351925  0.31597781  0.04906684  1.0
  F  F13  1  0.45351925  0.18402219  0.45093316  1.0
  F  F14  1  0.95351925  0.31597781  0.95093316  1.0
  F  F15  1  0.95351925  0.18402219  0.54906684  1.0
  F  F16  1  0.54648075  0.81597781  0.54906684  1.0
  F  F17  1  0.54648075  0.68402219  0.95093316  1.0
  F  F18  1  0.04648075  0.81597781  0.45093316  1.0
  F  F19  1  0.04648075  0.68402219  0.04906684  1.0
  F  F20  1  0.39551012  0.48696003  0.65432530  1.0
  F  F21  1  0.39551012  0.01303997  0.84567470  1.0
  F  F22  1  0.89551012  0.48696003  0.34567470  1.0
  F  F23  1  0.89551012  0.01303997  0.15432530  1.0
  F  F24  1  0.60448988  0.98696003  0.15432530  1.0
  F  F25  1  0.60448988  0.51303997  0.34567470  1.0
  F  F26  1  0.10448988  0.98696003  0.84567470  1.0
  F  F27  1  0.10448988  0.51303997  0.65432530  1.0
  F  F28  1  0.25548924  0.20887856  0.56752110  1.0
  F  F29  1  0.25548924  0.29112144  0.93247890  1.0
  F  F30  1  0.75548924  0.20887856  0.43247890  1.0
  F  F31  1  0.75548924  0.29112144  0.06752110  1.0
  F  F32  1  0.74451076  0.70887856  0.06752110  1.0
  F  F33  1  0.74451076  0.79112144  0.43247890  1.0
  F  F34  1  0.24451076  0.70887856  0.93247890  1.0
  F  F35  1  0.24451076  0.79112144  0.56752110  1.0
  F  F36  1  0.58098958  0.25000000  0.75000000  1.0
  F  F37  1  0.08098958  0.25000000  0.25000000  1.0
  F  F38  1  0.41901042  0.75000000  0.25000000  1.0
  F  F39  1  0.91901042  0.75000000  0.75000000  1.0
