# generated using pymatgen
data_K2Si
_symmetry_space_group_name_H-M   'P 1'
_cell_length_a   15.39648712
_cell_length_b   15.39648712
_cell_length_c   15.39648712
_cell_angle_alpha   129.99682450
_cell_angle_beta   129.99682450
_cell_angle_gamma   73.41184133
_symmetry_Int_Tables_number   1
_chemical_formula_structural   K2Si
_chemical_formula_sum   'K32 Si16'
_cell_volume   2090.70356623
_cell_formula_units_Z   16
loop_
 _symmetry_equiv_pos_site_id
 _symmetry_equiv_pos_as_xyz
  1  'x, y, z'
loop_
 _atom_site_type_symbol
 _atom_site_label
 _atom_site_symmetry_multiplicity
 _atom_site_fract_x
 _atom_site_fract_y
 _atom_site_fract_z
 _atom_site_occupancy
  K  K0  1  0.78819993  1.01763301  1.40280414  1.0
  K  K1  1  0.13517114  0.86460421  0.90280414  1.0
  K  K2  1  1.11482886  0.51763301  1.22943308  1.0
  K  K3  1  0.46180007  0.36460421  0.72943308  1.0
  K  K4  1  1.11460421  0.88517114  1.40280414  1.0
  K  K5  1  1.26763301  0.53819993  0.90280414  1.0
  K  K6  1  0.98236699  0.38517114  0.77056692  1.0
  K  K7  1  1.13539579  1.03819993  1.27056692  1.0
  K  K8  1  0.28819993  0.88539579  0.77056692  1.0
  K  K9  1  0.63517114  0.73236699  1.27056692  1.0
  K  K10  1  0.61482886  0.38539579  0.59719586  1.0
  K  K11  1  0.96180007  0.23236699  1.09719586  1.0
  K  K12  1  0.61460421  1.21180007  1.22943308  1.0
  K  K13  1  0.76763301  0.86482886  0.72943308  1.0
  K  K14  1  0.48236699  0.71180007  0.59719586  1.0
  K  K15  1  0.63539579  1.36482886  1.09719586  1.0
  K  K16  1  0.28978198  1.16426691  0.81973392  1.0
  K  K17  1  0.40546701  0.77995193  1.31973392  1.0
  K  K18  1  0.84453299  0.66426691  0.87448493  1.0
  K  K19  1  -0.03978198  0.27995193  0.37448493  1.0
  K  K20  1  1.02995193  0.15546701  0.81973392  1.0
  K  K21  1  0.41426691  0.03978198  0.31973392  1.0
  K  K22  1  0.83573309  0.65546701  1.12551507  1.0
  K  K23  1  0.22004807  0.53978198  0.62551507  1.0
  K  K24  1  0.78978198  0.97004807  1.12551507  1.0
  K  K25  1  -0.09453299  0.58573309  0.62551507  1.0
  K  K26  1  0.34453299  0.47004807  0.18026608  1.0
  K  K27  1  0.46021802  0.08573309  0.68026608  1.0
  K  K28  1  0.52995193  0.71021802  0.87448493  1.0
  K  K29  1  0.91426691  0.59453299  1.37448493  1.0
  K  K30  1  0.33573309  0.21021802  0.18026608  1.0
  K  K31  1  0.72004807  0.09453299  0.68026608  1.0
  Si  Si32  1  0.98103967  0.87206375  1.52403282  1.0
  Si  Si33  1  0.40196907  0.79299315  1.02403282  1.0
  Si  Si34  1  0.84803093  0.37206375  0.89102408  1.0
  Si  Si35  1  0.26896033  0.29299315  0.39102408  1.0
  Si  Si36  1  1.04299315  1.15196907  1.52403282  1.0
  Si  Si37  1  1.12206375  0.73103967  1.02403282  1.0
  Si  Si38  1  1.12793625  0.65196907  1.10897592  1.0
  Si  Si39  1  1.20700685  1.23103967  1.60897592  1.0
  Si  Si40  1  0.48103967  0.95700685  1.10897592  1.0
  Si  Si41  1  0.90196907  0.87793625  1.60897592  1.0
  Si  Si42  1  0.34803093  0.45700685  0.47596718  1.0
  Si  Si43  1  0.76896033  0.37793625  0.97596718  1.0
  Si  Si44  1  0.54299315  1.01896033  0.89102408  1.0
  Si  Si45  1  0.62206375  0.59803093  0.39102408  1.0
  Si  Si46  1  0.62793625  0.51896033  0.47596718  1.0
  Si  Si47  1  0.70700685  1.09803093  0.97596718  1.0
