# generated using pymatgen
data_SrCu2GeSe4
_symmetry_space_group_name_H-M   'P 1'
_cell_length_a   6.36170915
_cell_length_b   6.36170915
_cell_length_c   10.88657366
_cell_angle_alpha   90.00000000
_cell_angle_beta   90.00000000
_cell_angle_gamma   62.77226057
_symmetry_Int_Tables_number   1
_chemical_formula_structural   SrCu2GeSe4
_chemical_formula_sum   'Sr2 Cu4 Ge2 Se8'
_cell_volume   391.77419924
_cell_formula_units_Z   2
loop_
 _symmetry_equiv_pos_site_id
 _symmetry_equiv_pos_as_xyz
  1  'x, y, z'
loop_
 _atom_site_type_symbol
 _atom_site_label
 _atom_site_symmetry_multiplicity
 _atom_site_fract_x
 _atom_site_fract_y
 _atom_site_fract_z
 _atom_site_occupancy
  Sr  Sr0  1  -0.01251810  0.01251810  0.50000000  1.0
  Sr  Sr1  1  -0.01251810  0.01251810  0.00000000  1.0
  Cu  Cu2  1  -0.19174738  1.63237583  0.36973831  1.0
  Cu  Cu3  1  -0.63237583  1.19174738  0.86973831  1.0
  Cu  Cu4  1  -0.63237583  1.19174738  0.63026169  1.0
  Cu  Cu5  1  -0.19174738  1.63237583  0.13026169  1.0
  Ge  Ge6  1  -0.55800618  1.26315336  0.25000000  1.0
  Ge  Ge7  1  -0.26315336  1.55800618  0.75000000  1.0
  Se  Se8  1  -0.01087658  1.52060038  0.92447602  1.0
  Se  Se9  1  -0.52060038  1.01087658  0.42447602  1.0
  Se  Se10  1  -0.52060038  1.01087658  0.07552398  1.0
  Se  Se11  1  -0.01087658  1.52060038  0.57552398  1.0
  Se  Se12  1  0.12678286  0.66337166  0.25000000  1.0
  Se  Se13  1  0.33662834  0.87321714  0.75000000  1.0
  Se  Se14  1  -0.19723608  1.30217902  0.25000000  1.0
  Se  Se15  1  -0.30217902  1.19723608  0.75000000  1.0
