# generated using pymatgen
data_CrHgO5
_symmetry_space_group_name_H-M   'P 1'
_cell_length_a   5.60923685
_cell_length_b   9.25847743
_cell_length_c   6.37265675
_cell_angle_alpha   68.93883323
_cell_angle_beta   66.90015993
_cell_angle_gamma   62.21668966
_symmetry_Int_Tables_number   1
_chemical_formula_structural   CrHgO5
_chemical_formula_sum   'Cr2 Hg2 O10'
_cell_volume   262.91243890
_cell_formula_units_Z   2
loop_
 _symmetry_equiv_pos_site_id
 _symmetry_equiv_pos_as_xyz
  1  'x, y, z'
loop_
 _atom_site_type_symbol
 _atom_site_label
 _atom_site_symmetry_multiplicity
 _atom_site_fract_x
 _atom_site_fract_y
 _atom_site_fract_z
 _atom_site_occupancy
  Cr  Cr0  1  -0.40067911  0.69318257  0.12125680  1.0
  Cr  Cr1  1  -0.59932089  0.30681743  -0.12125680  1.0
  Hg  Hg2  1  0.00000000  0.50000000  -0.50000000  1.0
  Hg  Hg3  1  0.00000000  0.00000000  0.00000000  1.0
  O  O4  1  -0.49956219  0.53856145  0.24285121  1.0
  O  O5  1  -0.50043781  0.46143855  -0.24285121  1.0
  O  O6  1  -0.17926149  0.68683337  0.25290532  1.0
  O  O7  1  -0.82073851  0.31316663  -0.25290532  1.0
  O  O8  1  -0.60446477  0.98607247  -0.47782194  1.0
  O  O9  1  -0.39553523  0.01392753  0.47782194  1.0
  O  O10  1  -0.75647276  0.31030614  0.14955654  1.0
  O  O11  1  -0.24352724  0.68969386  -0.14955654  1.0
  O  O12  1  -0.68841021  0.87837503  0.15052676  1.0
  O  O13  1  -0.31158979  0.12162497  -0.15052676  1.0
