# generated using pymatgen
data_RbInF4
_symmetry_space_group_name_H-M   'P 1'
_cell_length_a   13.33760766
_cell_length_b   8.23288589
_cell_length_c   8.47166696
_cell_angle_alpha   90.00000000
_cell_angle_beta   90.00000000
_cell_angle_gamma   90.00000000
_symmetry_Int_Tables_number   1
_chemical_formula_structural   RbInF4
_chemical_formula_sum   'Rb8 In8 F32'
_cell_volume   930.24835091
_cell_formula_units_Z   8
loop_
 _symmetry_equiv_pos_site_id
 _symmetry_equiv_pos_as_xyz
  1  'x, y, z'
loop_
 _atom_site_type_symbol
 _atom_site_label
 _atom_site_symmetry_multiplicity
 _atom_site_fract_x
 _atom_site_fract_y
 _atom_site_fract_z
 _atom_site_occupancy
  Rb  Rb0  1  0.98757411  0.75000000  0.12349253  1.0
  Rb  Rb1  1  0.48757411  0.75000000  0.37650747  1.0
  Rb  Rb2  1  0.01242589  0.25000000  0.87650747  1.0
  Rb  Rb3  1  0.51242589  0.25000000  0.62349253  1.0
  Rb  Rb4  1  0.47247656  0.75000000  0.87464828  1.0
  Rb  Rb5  1  0.97247656  0.75000000  0.62535172  1.0
  Rb  Rb6  1  0.52752344  0.25000000  0.12535172  1.0
  Rb  Rb7  1  0.02752344  0.25000000  0.37464828  1.0
  In  In8  1  0.24749636  0.99909745  0.62606900  1.0
  In  In9  1  0.24749636  0.50090255  0.62606900  1.0
  In  In10  1  0.74749636  0.99909745  0.87393100  1.0
  In  In11  1  0.74749636  0.50090255  0.87393100  1.0
  In  In12  1  0.75250364  0.49909745  0.37393100  1.0
  In  In13  1  0.75250364  0.00090255  0.37393100  1.0
  In  In14  1  0.25250364  0.49909745  0.12606900  1.0
  In  In15  1  0.25250364  0.00090255  0.12606900  1.0
  F  F16  1  0.21328465  0.75000000  0.16220356  1.0
  F  F17  1  0.71328465  0.75000000  0.33779644  1.0
  F  F18  1  0.78671535  0.25000000  0.83779644  1.0
  F  F19  1  0.28671535  0.25000000  0.66220356  1.0
  F  F20  1  0.40288825  0.95034066  0.13678965  1.0
  F  F21  1  0.40288825  0.54965934  0.13678965  1.0
  F  F22  1  0.90288825  0.95034066  0.36321035  1.0
  F  F23  1  0.90288825  0.54965934  0.36321035  1.0
  F  F24  1  0.59711175  0.45034066  0.86321035  1.0
  F  F25  1  0.59711175  0.04965934  0.86321035  1.0
  F  F26  1  0.09711175  0.45034066  0.63678965  1.0
  F  F27  1  0.09711175  0.04965934  0.63678965  1.0
  F  F28  1  0.39765151  0.94778376  0.61394226  1.0
  F  F29  1  0.39765151  0.55221624  0.61394226  1.0
  F  F30  1  0.89765151  0.94778376  0.88605774  1.0
  F  F31  1  0.89765151  0.55221624  0.88605774  1.0
  F  F32  1  0.60234849  0.44778376  0.38605774  1.0
  F  F33  1  0.60234849  0.05221624  0.38605774  1.0
  F  F34  1  0.10234849  0.44778376  0.11394226  1.0
  F  F35  1  0.10234849  0.05221624  0.11394226  1.0
  F  F36  1  0.25670178  0.95739205  0.87602026  1.0
  F  F37  1  0.25670178  0.54260795  0.87602026  1.0
  F  F38  1  0.75670178  0.95739205  0.62397974  1.0
  F  F39  1  0.75670178  0.54260795  0.62397974  1.0
  F  F40  1  0.74329822  0.45739205  0.12397974  1.0
  F  F41  1  0.74329822  0.04260795  0.12397974  1.0
  F  F42  1  0.24329822  0.45739205  0.37602026  1.0
  F  F43  1  0.24329822  0.04260795  0.37602026  1.0
  F  F44  1  0.20557928  0.75000000  0.59042875  1.0
  F  F45  1  0.70557928  0.75000000  0.90957125  1.0
  F  F46  1  0.79442072  0.25000000  0.40957125  1.0
  F  F47  1  0.29442072  0.25000000  0.09042875  1.0
