# generated using pymatgen
data_Y6RuI10
_symmetry_space_group_name_H-M   'P 1'
_cell_length_a   7.75495637
_cell_length_b   9.82896956
_cell_length_c   9.66225733
_cell_angle_alpha   107.10681974
_cell_angle_beta   104.16928697
_cell_angle_gamma   96.64261148
_symmetry_Int_Tables_number   1
_chemical_formula_structural   Y6RuI10
_chemical_formula_sum   'Y6 Ru1 I10'
_cell_volume   668.34568650
_cell_formula_units_Z   1
loop_
 _symmetry_equiv_pos_site_id
 _symmetry_equiv_pos_as_xyz
  1  'x, y, z'
loop_
 _atom_site_type_symbol
 _atom_site_label
 _atom_site_symmetry_multiplicity
 _atom_site_fract_x
 _atom_site_fract_y
 _atom_site_fract_z
 _atom_site_occupancy
  Y  Y0  1  -0.85301481  -0.66737805  -0.62623817  1.0
  Y  Y1  1  -0.14698519  -0.33262195  -0.37376183  1.0
  Y  Y2  1  -0.46597233  -0.57615001  -0.76597558  1.0
  Y  Y3  1  -0.53402767  -0.42384999  -0.23402442  1.0
  Y  Y4  1  -0.38258831  -0.74441818  -0.45549138  1.0
  Y  Y5  1  -0.61741169  -0.25558182  -0.54450862  1.0
  Ru  Ru6  1  -0.50000000  -0.50000000  -0.50000000  1.0
  I  I7  1  -0.94984235  -0.59001692  -0.31407694  1.0
  I  I8  1  -0.05015765  -0.40998308  -0.68592306  1.0
  I  I9  1  -0.83866187  -0.77237718  -0.94653070  1.0
  I  I10  1  -0.16133813  -0.22762282  -0.05346930  1.0
  I  I11  1  -0.75657354  -0.96124265  -0.58607392  1.0
  I  I12  1  -0.24342646  -0.03875735  -0.41392608  1.0
  I  I13  1  -0.58768866  -0.32310250  -0.87035857  1.0
  I  I14  1  -0.41231134  -0.67689750  -0.12964143  1.0
  I  I15  1  -0.27815059  -0.84139069  -0.75508761  1.0
  I  I16  1  -0.72184941  -0.15860931  -0.24491239  1.0
