# generated using pymatgen
data_SiPt3
_symmetry_space_group_name_H-M   'P 1'
_cell_length_a   5.53022070
_cell_length_b   5.53022070
_cell_length_c   5.42998877
_cell_angle_alpha   61.35549524
_cell_angle_beta   118.64450476
_cell_angle_gamma   88.93009306
_symmetry_Int_Tables_number   1
_chemical_formula_structural   SiPt3
_chemical_formula_sum   'Si2 Pt6'
_cell_volume   121.06643982
_cell_formula_units_Z   2
loop_
 _symmetry_equiv_pos_site_id
 _symmetry_equiv_pos_as_xyz
  1  'x, y, z'
loop_
 _atom_site_type_symbol
 _atom_site_label
 _atom_site_symmetry_multiplicity
 _atom_site_fract_x
 _atom_site_fract_y
 _atom_site_fract_z
 _atom_site_occupancy
  Si  Si0  1  0.78542043  -0.78542043  0.07391114  1.0
  Si  Si1  1  0.21457957  -0.21457957  0.92608886  1.0
  Pt  Pt2  1  0.21636151  -0.21636151  0.36277088  1.0
  Pt  Pt3  1  0.78363849  -0.78363849  0.63722912  1.0
  Pt  Pt4  1  1.22613322  0.22613322  0.50000000  1.0
  Pt  Pt5  1  0.77386678  -0.22613322  0.50000000  1.0
  Pt  Pt6  1  0.68450419  -0.31549581  0.00000000  1.0
  Pt  Pt7  1  1.31549581  0.31549581  0.00000000  1.0
