# generated using pymatgen
data_Gd3TiS6
_symmetry_space_group_name_H-M   'P 1'
_cell_length_a   13.55445637
_cell_length_b   16.20400303
_cell_length_c   3.79246363
_cell_angle_alpha   90.00000000
_cell_angle_beta   90.00000000
_cell_angle_gamma   90.00000000
_symmetry_Int_Tables_number   1
_chemical_formula_structural   Gd3TiS6
_chemical_formula_sum   'Gd12 Ti4 S24'
_cell_volume   832.96325622
_cell_formula_units_Z   4
loop_
 _symmetry_equiv_pos_site_id
 _symmetry_equiv_pos_as_xyz
  1  'x, y, z'
loop_
 _atom_site_type_symbol
 _atom_site_label
 _atom_site_symmetry_multiplicity
 _atom_site_fract_x
 _atom_site_fract_y
 _atom_site_fract_z
 _atom_site_occupancy
  Gd  Gd0  1  0.18000883  0.64776789  0.50000000  1.0
  Gd  Gd1  1  0.68000883  0.85223211  0.00000000  1.0
  Gd  Gd2  1  0.81999117  0.35223211  0.50000000  1.0
  Gd  Gd3  1  0.31999117  0.14776789  0.00000000  1.0
  Gd  Gd4  1  0.95063380  0.78220438  0.50000000  1.0
  Gd  Gd5  1  0.45063380  0.71779562  0.00000000  1.0
  Gd  Gd6  1  0.04936620  0.21779562  0.50000000  1.0
  Gd  Gd7  1  0.54936620  0.28220438  0.00000000  1.0
  Gd  Gd8  1  0.74105141  0.60090804  0.50000000  1.0
  Gd  Gd9  1  0.24105141  0.89909196  0.00000000  1.0
  Gd  Gd10  1  0.25894859  0.39909196  0.50000000  1.0
  Gd  Gd11  1  0.75894859  0.10090804  0.00000000  1.0
  Ti  Ti12  1  0.50000000  0.00000000  0.50000000  1.0
  Ti  Ti13  1  0.00000000  0.50000000  0.00000000  1.0
  Ti  Ti14  1  0.50000000  0.50000000  0.50000000  1.0
  Ti  Ti15  1  0.00000000  0.00000000  0.00000000  1.0
  S  S16  1  0.39809023  0.25372636  0.50000000  1.0
  S  S17  1  0.89809023  0.24627364  0.00000000  1.0
  S  S18  1  0.60190977  0.74627364  0.50000000  1.0
  S  S19  1  0.10190977  0.75372636  0.00000000  1.0
  S  S20  1  0.37701918  0.60428485  0.50000000  1.0
  S  S21  1  0.87701918  0.89571515  0.00000000  1.0
  S  S22  1  0.62298082  0.39571515  0.50000000  1.0
  S  S23  1  0.12298082  0.10428485  0.00000000  1.0
  S  S24  1  0.31779733  0.01945907  0.50000000  1.0
  S  S25  1  0.81779733  0.48054093  0.00000000  1.0
  S  S26  1  0.68220267  0.98054093  0.50000000  1.0
  S  S27  1  0.18220267  0.51945907  0.00000000  1.0
  S  S28  1  0.31302736  0.78724102  0.50000000  1.0
  S  S29  1  0.81302736  0.71275898  0.00000000  1.0
  S  S30  1  0.68697264  0.21275898  0.50000000  1.0
  S  S31  1  0.18697264  0.28724102  0.00000000  1.0
  S  S32  1  0.08586893  0.92501367  0.50000000  1.0
  S  S33  1  0.58586893  0.57498633  0.00000000  1.0
  S  S34  1  0.91413107  0.07498633  0.50000000  1.0
  S  S35  1  0.41413107  0.42501367  0.00000000  1.0
  S  S36  1  0.97911936  0.60002284  0.50000000  1.0
  S  S37  1  0.47911936  0.89997716  0.00000000  1.0
  S  S38  1  0.02088064  0.39997716  0.50000000  1.0
  S  S39  1  0.52088064  0.10002284  0.00000000  1.0
