# generated using pymatgen
data_NaV(GeO3)2
_symmetry_space_group_name_H-M   'P 1'
_cell_length_a   6.75805099
_cell_length_b   6.75805099
_cell_length_c   5.55286542
_cell_angle_alpha   77.70976180
_cell_angle_beta   102.29023820
_cell_angle_gamma   97.72877119
_symmetry_Int_Tables_number   1
_chemical_formula_structural   NaV(GeO3)2
_chemical_formula_sum   'Na2 V2 Ge4 O12'
_cell_volume   241.05667428
_cell_formula_units_Z   2
loop_
 _symmetry_equiv_pos_site_id
 _symmetry_equiv_pos_as_xyz
  1  'x, y, z'
loop_
 _atom_site_type_symbol
 _atom_site_label
 _atom_site_symmetry_multiplicity
 _atom_site_fract_x
 _atom_site_fract_y
 _atom_site_fract_z
 _atom_site_occupancy
  Na  Na0  1  0.80712267  0.80712267  0.25000000  1.0
  Na  Na1  1  0.19287733  0.19287733  0.75000000  1.0
  V  V2  1  0.40683370  0.40683370  0.25000000  1.0
  V  V3  1  0.59316630  0.59316630  0.75000000  1.0
  Ge  Ge4  1  1.31017710  -0.11709939  0.27565595  1.0
  Ge  Ge5  1  1.11709939  -0.31017710  0.77565595  1.0
  Ge  Ge6  1  0.88290061  0.31017710  0.22434405  1.0
  Ge  Ge7  1  0.68982290  0.11709939  0.72434405  1.0
  O  O8  1  1.47962535  -0.31011040  0.36913928  1.0
  O  O9  1  1.31011040  -0.47962535  0.86913928  1.0
  O  O10  1  0.68988960  0.47962535  0.13086072  1.0
  O  O11  1  0.52037465  0.31011040  0.63086072  1.0
  O  O12  1  0.84636673  0.12578250  0.50036472  1.0
  O  O13  1  0.87421750  0.15363327  0.00036472  1.0
  O  O14  1  1.12578250  -0.15363327  0.99963528  1.0
  O  O15  1  1.15363327  -0.12578250  0.49963528  1.0
  O  O16  1  0.41127835  0.13536070  0.18904383  1.0
  O  O17  1  0.86463930  0.58872165  0.68904383  1.0
  O  O18  1  1.13536070  -0.58872165  0.31095617  1.0
  O  O19  1  1.58872165  -0.13536070  0.81095617  1.0
