# generated using pymatgen
data_La5AsPb3
_symmetry_space_group_name_H-M   'P 1'
_cell_length_a   9.73029898
_cell_length_b   9.73029898
_cell_length_c   7.33558431
_cell_angle_alpha   90.00000000
_cell_angle_beta   90.00000000
_cell_angle_gamma   120.00000000
_symmetry_Int_Tables_number   1
_chemical_formula_structural   La5AsPb3
_chemical_formula_sum   'La10 As2 Pb6'
_cell_volume   601.47518529
_cell_formula_units_Z   2
loop_
 _symmetry_equiv_pos_site_id
 _symmetry_equiv_pos_as_xyz
  1  'x, y, z'
loop_
 _atom_site_type_symbol
 _atom_site_label
 _atom_site_symmetry_multiplicity
 _atom_site_fract_x
 _atom_site_fract_y
 _atom_site_fract_z
 _atom_site_occupancy
  La  La0  1  0.75755408  0.75755408  0.25000000  1.0
  La  La1  1  0.75755408  -0.00000000  0.75000000  1.0
  La  La2  1  -0.00000000  0.75755408  0.75000000  1.0
  La  La3  1  -0.00000000  0.24244592  0.25000000  1.0
  La  La4  1  0.24244592  0.24244592  0.75000000  1.0
  La  La5  1  0.24244592  0.00000000  0.25000000  1.0
  La  La6  1  0.33333333  0.66666667  0.50000000  1.0
  La  La7  1  0.33333333  0.66666667  0.00000000  1.0
  La  La8  1  0.66666667  0.33333333  0.50000000  1.0
  La  La9  1  0.66666667  0.33333333  -0.00000000  1.0
  As  As10  1  -0.00000000  -0.00000000  0.50000000  1.0
  As  As11  1  0.00000000  0.00000000  -0.00000000  1.0
  Pb  Pb12  1  0.40024954  0.40024954  0.25000000  1.0
  Pb  Pb13  1  0.40024954  -0.00000000  0.75000000  1.0
  Pb  Pb14  1  0.00000000  0.40024954  0.75000000  1.0
  Pb  Pb15  1  -0.00000000  0.59975046  0.25000000  1.0
  Pb  Pb16  1  0.59975046  0.59975046  0.75000000  1.0
  Pb  Pb17  1  0.59975046  0.00000000  0.25000000  1.0
