# generated using pymatgen
data_CsFeF3
_symmetry_space_group_name_H-M   'P 1'
_cell_length_a   6.23536305
_cell_length_b   6.23536305
_cell_length_c   14.83327121
_cell_angle_alpha   90.00000000
_cell_angle_beta   90.00000000
_cell_angle_gamma   120.00000000
_symmetry_Int_Tables_number   1
_chemical_formula_structural   CsFeF3
_chemical_formula_sum   'Cs6 Fe6 F18'
_cell_volume   499.44889803
_cell_formula_units_Z   6
loop_
 _symmetry_equiv_pos_site_id
 _symmetry_equiv_pos_as_xyz
  1  'x, y, z'
loop_
 _atom_site_type_symbol
 _atom_site_label
 _atom_site_symmetry_multiplicity
 _atom_site_fract_x
 _atom_site_fract_y
 _atom_site_fract_z
 _atom_site_occupancy
  Cs  Cs0  1  0.33333333  0.66666667  0.40652191  1.0
  Cs  Cs1  1  0.33333333  0.66666667  0.09347809  1.0
  Cs  Cs2  1  0.66666667  0.33333333  0.90652191  1.0
  Cs  Cs3  1  0.66666667  0.33333333  0.59347809  1.0
  Cs  Cs4  1  0.00000000  0.00000000  0.25000000  1.0
  Cs  Cs5  1  0.00000000  0.00000000  0.75000000  1.0
  Fe  Fe6  1  0.33333333  0.66666667  0.84329965  1.0
  Fe  Fe7  1  0.33333333  0.66666667  0.65670035  1.0
  Fe  Fe8  1  0.66666667  0.33333333  0.34329965  1.0
  Fe  Fe9  1  0.66666667  0.33333333  0.15670035  1.0
  Fe  Fe10  1  0.00000000  0.00000000  0.50000000  1.0
  Fe  Fe11  1  0.00000000  0.00000000  0.00000000  1.0
  F  F12  1  0.16676825  0.83323175  0.91969510  1.0
  F  F13  1  0.16676825  0.83323175  0.58030490  1.0
  F  F14  1  0.16676825  0.33353650  0.91969510  1.0
  F  F15  1  0.16676825  0.33353650  0.58030490  1.0
  F  F16  1  0.83323175  0.16676825  0.41969510  1.0
  F  F17  1  0.83323175  0.16676825  0.08030490  1.0
  F  F18  1  0.83323175  0.66646350  0.41969510  1.0
  F  F19  1  0.83323175  0.66646350  0.08030490  1.0
  F  F20  1  0.66646350  0.83323175  0.91969510  1.0
  F  F21  1  0.66646350  0.83323175  0.58030490  1.0
  F  F22  1  0.33353650  0.16676825  0.41969510  1.0
  F  F23  1  0.33353650  0.16676825  0.08030490  1.0
  F  F24  1  0.51965318  0.48034682  0.25000000  1.0
  F  F25  1  0.51965318  0.03930635  0.25000000  1.0
  F  F26  1  0.48034682  0.51965318  0.75000000  1.0
  F  F27  1  0.48034682  0.96069365  0.75000000  1.0
  F  F28  1  0.96069365  0.48034682  0.25000000  1.0
  F  F29  1  0.03930635  0.51965318  0.75000000  1.0
