# generated using pymatgen
data_La3SbI3
_symmetry_space_group_name_H-M   'P 1'
_cell_length_a   11.23619463
_cell_length_b   11.23619463
_cell_length_c   11.23619463
_cell_angle_alpha   109.47122063
_cell_angle_beta   109.47122063
_cell_angle_gamma   109.47122063
_symmetry_Int_Tables_number   1
_chemical_formula_structural   La3SbI3
_chemical_formula_sum   'La12 Sb4 I12'
_cell_volume   1092.03326898
_cell_formula_units_Z   4
loop_
 _symmetry_equiv_pos_site_id
 _symmetry_equiv_pos_as_xyz
  1  'x, y, z'
loop_
 _atom_site_type_symbol
 _atom_site_label
 _atom_site_symmetry_multiplicity
 _atom_site_fract_x
 _atom_site_fract_y
 _atom_site_fract_z
 _atom_site_occupancy
  La  La0  1  1.75000000  1.24047833  1.25952167  1.0
  La  La1  1  0.75000000  1.00952167  0.49047833  1.0
  La  La2  1  1.01904335  0.25952167  1.00952167  1.0
  La  La3  1  0.48095665  0.49047833  0.24047833  1.0
  La  La4  1  1.25952167  1.00952167  1.01904335  1.0
  La  La5  1  1.24047833  1.25952167  0.75000000  1.0
  La  La6  1  1.00952167  1.01904335  0.25952167  1.0
  La  La7  1  1.49047833  0.75000000  1.00952167  1.0
  La  La8  1  1.00952167  1.49047833  0.75000000  1.0
  La  La9  1  1.49047833  1.24047833  1.48095665  1.0
  La  La10  1  0.24047833  0.48095665  0.49047833  1.0
  La  La11  1  1.25952167  0.75000000  1.24047833  1.0
  Sb  Sb12  1  1.50000000  1.00000000  1.25000000  1.0
  Sb  Sb13  1  1.00000000  1.25000000  0.50000000  1.0
  Sb  Sb14  1  0.25000000  0.25000000  0.25000000  1.0
  Sb  Sb15  1  1.25000000  0.50000000  1.00000000  1.0
  I  I16  1  0.51232651  0.50616325  0.75616325  1.0
  I  I17  1  0.98767349  0.74383675  0.99383675  1.0
  I  I18  1  1.25000000  0.75616325  0.74383675  1.0
  I  I19  1  1.25000000  0.99383675  0.50616325  1.0
  I  I20  1  0.99383675  1.50616325  1.25000000  1.0
  I  I21  1  1.50616325  1.75616325  1.51232651  1.0
  I  I22  1  0.74383675  0.25000000  0.75616325  1.0
  I  I23  1  0.75616325  0.51232651  0.50616325  1.0
  I  I24  1  0.99383675  0.98767349  0.74383675  1.0
  I  I25  1  1.50616325  1.25000000  0.99383675  1.0
  I  I26  1  0.75616325  0.74383675  0.25000000  1.0
  I  I27  1  1.74383675  0.99383675  0.98767349  1.0
