# generated using pymatgen
data_Ba5Ta4O15
_symmetry_space_group_name_H-M   'P 1'
_cell_length_a   5.84480458
_cell_length_b   5.84480458
_cell_length_c   11.97075133
_cell_angle_alpha   90.00000000
_cell_angle_beta   90.00000000
_cell_angle_gamma   120.00000000
_symmetry_Int_Tables_number   1
_chemical_formula_structural   Ba5Ta4O15
_chemical_formula_sum   'Ba5 Ta4 O15'
_cell_volume   354.15390216
_cell_formula_units_Z   1
loop_
 _symmetry_equiv_pos_site_id
 _symmetry_equiv_pos_as_xyz
  1  'x, y, z'
loop_
 _atom_site_type_symbol
 _atom_site_label
 _atom_site_symmetry_multiplicity
 _atom_site_fract_x
 _atom_site_fract_y
 _atom_site_fract_z
 _atom_site_occupancy
  Ba  Ba0  1  0.33333333  0.66666667  0.78842828  1.0
  Ba  Ba1  1  0.66666667  0.33333333  0.21157172  1.0
  Ba  Ba2  1  0.33333333  0.66666667  0.43279121  1.0
  Ba  Ba3  1  0.66666667  0.33333333  0.56720879  1.0
  Ba  Ba4  1  0.00000000  0.00000000  0.00000000  1.0
  Ta  Ta5  1  0.00000000  0.00000000  0.31286547  1.0
  Ta  Ta6  1  0.00000000  0.00000000  0.68713453  1.0
  Ta  Ta7  1  0.33333333  0.66666667  0.10340146  1.0
  Ta  Ta8  1  0.66666667  0.33333333  0.89659854  1.0
  O  O9  1  0.66214423  0.83107212  0.19015149  1.0
  O  O10  1  0.83107212  0.66214423  0.80984851  1.0
  O  O11  1  0.83107212  0.16892788  0.80984851  1.0
  O  O12  1  0.16892788  0.83107212  0.19015149  1.0
  O  O13  1  0.16892788  0.33785577  0.19015149  1.0
  O  O14  1  0.33785577  0.16892788  0.80984851  1.0
  O  O15  1  0.50000000  0.50000000  0.00000000  1.0
  O  O16  1  0.50000000  0.00000000  0.00000000  1.0
  O  O17  1  -0.00000000  0.50000000  0.00000000  1.0
  O  O18  1  0.32653392  0.16326696  0.38539392  1.0
  O  O19  1  0.16326696  0.32653392  0.61460608  1.0
  O  O20  1  0.16326696  0.83673304  0.61460608  1.0
  O  O21  1  0.83673304  0.16326696  0.38539392  1.0
  O  O22  1  0.83673304  0.67346608  0.38539392  1.0
  O  O23  1  0.67346608  0.83673304  0.61460608  1.0
