# generated using pymatgen
data_LiCoPO4
_symmetry_space_group_name_H-M   'P 1'
_cell_length_a   10.16632616
_cell_length_b   5.03709871
_cell_length_c   6.75363895
_cell_angle_alpha   90.00000000
_cell_angle_beta   90.00000000
_cell_angle_gamma   90.00000000
_symmetry_Int_Tables_number   1
_chemical_formula_structural   LiCoPO4
_chemical_formula_sum   'Li4 Co4 P4 O16'
_cell_volume   345.84566837
_cell_formula_units_Z   4
loop_
 _symmetry_equiv_pos_site_id
 _symmetry_equiv_pos_as_xyz
  1  'x, y, z'
loop_
 _atom_site_type_symbol
 _atom_site_label
 _atom_site_symmetry_multiplicity
 _atom_site_fract_x
 _atom_site_fract_y
 _atom_site_fract_z
 _atom_site_occupancy
  Li  Li0  1  0.15529663  0.80739543  0.00217706  1.0
  Li  Li1  1  0.65529663  0.69260457  0.00217706  1.0
  Li  Li2  1  0.84470337  0.19260457  0.50217706  1.0
  Li  Li3  1  0.34470337  0.30739543  0.50217706  1.0
  Co  Co4  1  0.15498905  0.80821744  0.50460562  1.0
  Co  Co5  1  0.65498905  0.69178256  0.50460562  1.0
  Co  Co6  1  0.84501095  0.19178256  0.00460562  1.0
  Co  Co7  1  0.34501095  0.30821744  0.00460562  1.0
  P  P8  1  0.40394589  0.80931324  0.75130284  1.0
  P  P9  1  0.90394589  0.69068676  0.75130284  1.0
  P  P10  1  0.59605411  0.19068676  0.25130284  1.0
  P  P11  1  0.09605411  0.30931324  0.25130284  1.0
  O  O12  1  0.38014521  0.11564630  0.75357777  1.0
  O  O13  1  0.88014521  0.38435370  0.75357777  1.0
  O  O14  1  0.61985479  0.88435370  0.25357777  1.0
  O  O15  1  0.11985479  0.61564630  0.25357777  1.0
  O  O16  1  0.33929518  0.69085201  0.94159832  1.0
  O  O17  1  0.83929518  0.80914799  0.94159832  1.0
  O  O18  1  0.66070482  0.30914799  0.44159832  1.0
  O  O19  1  0.16070482  0.19085201  0.44159832  1.0
  O  O20  1  0.33856119  0.69018145  0.56170574  1.0
  O  O21  1  0.83856119  0.80981855  0.56170574  1.0
  O  O22  1  0.66143881  0.30981855  0.06170574  1.0
  O  O23  1  0.16143881  0.19018145  0.06170574  1.0
  O  O24  1  0.05377374  0.75724272  0.74963265  1.0
  O  O25  1  0.55377374  0.74275728  0.74963265  1.0
  O  O26  1  0.94622626  0.24275728  0.24963265  1.0
  O  O27  1  0.44622626  0.25724272  0.24963265  1.0
