# generated using pymatgen
data_Zn2(PS3)3
_symmetry_space_group_name_H-M   'P 1'
_cell_length_a   10.93054095
_cell_length_b   10.93054095
_cell_length_c   7.33062727
_cell_angle_alpha   85.38444344
_cell_angle_beta   94.61555656
_cell_angle_gamma   120.67139245
_symmetry_Int_Tables_number   1
_chemical_formula_structural   Zn2(PS3)3
_chemical_formula_sum   'Zn4 P6 S18'
_cell_volume   750.07845198
_cell_formula_units_Z   2
loop_
 _symmetry_equiv_pos_site_id
 _symmetry_equiv_pos_as_xyz
  1  'x, y, z'
loop_
 _atom_site_type_symbol
 _atom_site_label
 _atom_site_symmetry_multiplicity
 _atom_site_fract_x
 _atom_site_fract_y
 _atom_site_fract_z
 _atom_site_occupancy
  Zn  Zn0  1  0.70645310  -0.04761037  0.84604145  1.0
  Zn  Zn1  1  1.04761037  0.29354690  0.84604145  1.0
  Zn  Zn2  1  0.95238963  -0.29354690  0.15395855  1.0
  Zn  Zn3  1  1.29354690  0.04761037  0.15395855  1.0
  P  P4  1  0.97662973  -0.97662973  0.13611680  1.0
  P  P5  1  0.02337027  -0.02337027  0.86388320  1.0
  P  P6  1  0.72530648  -0.72530648  0.89192945  1.0
  P  P7  1  0.27469352  -0.27469352  0.10807055  1.0
  P  P8  1  0.37019750  -0.37019750  0.81727496  1.0
  P  P9  1  0.62980250  -0.62980250  0.18272504  1.0
  S  S10  1  0.55895896  -0.26292003  0.69786039  1.0
  S  S11  1  1.26292003  0.44104104  0.69786039  1.0
  S  S12  1  0.73707997  -0.44104104  0.30213961  1.0
  S  S13  1  1.44104104  0.26292003  0.30213961  1.0
  S  S14  1  1.59468698  0.08679501  0.77735660  1.0
  S  S15  1  0.91320499  -0.59468698  0.77735660  1.0
  S  S16  1  1.08679501  0.59468698  0.22264340  1.0
  S  S17  1  0.40531302  -0.08679501  0.22264340  1.0
  S  S18  1  1.23752483  0.08248152  0.84402184  1.0
  S  S19  1  0.91751848  -0.23752483  0.84402184  1.0
  S  S20  1  1.08248152  0.23752483  0.15597816  1.0
  S  S21  1  0.76247517  -0.08248152  0.15597816  1.0
  S  S22  1  0.93016113  -0.93016113  0.68872941  1.0
  S  S23  1  0.06983887  -0.06983887  0.31127059  1.0
  S  S24  1  0.61317382  -0.61317382  0.88867684  1.0
  S  S25  1  0.38682618  -0.38682618  0.11132316  1.0
  S  S26  1  0.25766262  -0.25766262  0.81328773  1.0
  S  S27  1  0.74233738  -0.74233738  0.18671227  1.0
