# generated using pymatgen
data_H2CN4O3
_symmetry_space_group_name_H-M   'P 1'
_cell_length_a   7.14044815
_cell_length_b   9.98676690
_cell_length_c   7.36576262
_cell_angle_alpha   104.02044428
_cell_angle_beta   107.79600413
_cell_angle_gamma   95.33048771
_symmetry_Int_Tables_number   1
_chemical_formula_structural   H2CN4O3
_chemical_formula_sum   'H8 C4 N16 O12'
_cell_volume   477.23145284
_cell_formula_units_Z   4
loop_
 _symmetry_equiv_pos_site_id
 _symmetry_equiv_pos_as_xyz
  1  'x, y, z'
loop_
 _atom_site_type_symbol
 _atom_site_label
 _atom_site_symmetry_multiplicity
 _atom_site_fract_x
 _atom_site_fract_y
 _atom_site_fract_z
 _atom_site_occupancy
  H  H0  1  -0.95198938  -0.52572779  -0.25773210  1.0
  H  H1  1  -0.04801062  -0.47427221  -0.74226790  1.0
  H  H2  1  -0.72936111  -0.58013116  -0.23639182  1.0
  H  H3  1  -0.27063889  -0.41986884  -0.76360818  1.0
  H  H4  1  -0.25178520  -0.54768334  -0.95312216  1.0
  H  H5  1  -0.74821480  -0.45231666  -0.04687784  1.0
  H  H6  1  -0.24715380  -0.57847444  -0.73122067  1.0
  H  H7  1  -0.75284620  -0.42152556  -0.26877933  1.0
  C  C8  1  -0.67377550  -0.80670041  -0.70645390  1.0
  C  C9  1  -0.32622450  -0.19329959  -0.29354610  1.0
  C  C10  1  -0.51168010  -0.71093497  -0.53367171  1.0
  C  C11  1  -0.48831990  -0.28906503  -0.46632829  1.0
  N  N12  1  -0.85410078  -0.85267699  -0.64538634  1.0
  N  N13  1  -0.14589922  -0.14732301  -0.35461366  1.0
  N  N14  1  -0.77082584  -0.41125340  -0.64934468  1.0
  N  N15  1  -0.22917416  -0.58874660  -0.35065532  1.0
  N  N16  1  -0.74995107  -0.74522329  -0.88623010  1.0
  N  N17  1  -0.25004893  -0.25477671  -0.11376990  1.0
  N  N18  1  -0.66498419  -0.39337417  -0.76465811  1.0
  N  N19  1  -0.33501581  -0.60662583  -0.23534189  1.0
  N  N20  1  -0.60631822  -0.94719765  -0.79791962  1.0
  N  N21  1  -0.39368178  -0.05280235  -0.20208038  1.0
  N  N22  1  -0.51432668  -0.68284877  -0.34620318  1.0
  N  N23  1  -0.48567332  -0.31715123  -0.65379682  1.0
  N  N24  1  -0.33664803  -0.65342743  -0.54012450  1.0
  N  N25  1  -0.66335197  -0.34657257  -0.45987550  1.0
  N  N26  1  -0.20418053  -0.50577351  -0.79803226  1.0
  N  N27  1  -0.79581947  -0.49422649  -0.20196774  1.0
  O  O28  1  -0.93316827  -0.75710033  -0.58262628  1.0
  O  O29  1  -0.06683173  -0.24289967  -0.41737372  1.0
  O  O30  1  -0.92765835  -0.74311161  -0.95266818  1.0
  O  O31  1  -0.07234165  -0.25688839  -0.04733182  1.0
  O  O32  1  -0.89855638  -0.97723183  -0.66512681  1.0
  O  O33  1  -0.10144362  -0.02276817  -0.33487319  1.0
  O  O34  1  -0.70528001  -0.00940111  -0.97059385  1.0
  O  O35  1  -0.29471999  -0.99059889  -0.02940615  1.0
  O  O36  1  -0.61806513  -0.70527893  -0.94480828  1.0
  O  O37  1  -0.38193487  -0.29472107  -0.05519172  1.0
  O  O38  1  -0.53405725  -1.02060111  -0.31402272  1.0
  O  O39  1  -0.46594275  0.02060111  -0.68597728  1.0
