# generated using pymatgen
data_C2N3
_symmetry_space_group_name_H-M   'P 1'
_cell_length_a   6.01125513
_cell_length_b   6.01125513
_cell_length_c   9.59579897
_cell_angle_alpha   90.00000000
_cell_angle_beta   90.00000000
_cell_angle_gamma   103.59956710
_symmetry_Int_Tables_number   1
_chemical_formula_structural   C2N3
_chemical_formula_sum   'C8 N12'
_cell_volume   337.02420760
_cell_formula_units_Z   4
loop_
 _symmetry_equiv_pos_site_id
 _symmetry_equiv_pos_as_xyz
  1  'x, y, z'
loop_
 _atom_site_type_symbol
 _atom_site_label
 _atom_site_symmetry_multiplicity
 _atom_site_fract_x
 _atom_site_fract_y
 _atom_site_fract_z
 _atom_site_occupancy
  C  C0  1  -0.27305163  1.27305163  0.66991202  1.0
  C  C1  1  -0.22694837  1.22694837  0.16991202  1.0
  C  C2  1  0.27305163  0.72694837  0.33008798  1.0
  C  C3  1  0.22694837  0.77305163  0.83008798  1.0
  C  C4  1  -0.39320349  1.39320349  0.57852526  1.0
  C  C5  1  -0.10679651  1.10679651  0.07852526  1.0
  C  C6  1  0.39320349  0.60679651  0.42147474  1.0
  C  C7  1  0.10679651  0.89320349  0.92147474  1.0
  N  N8  1  -0.17752144  1.17752144  0.74608598  1.0
  N  N9  1  -0.32247856  1.32247856  0.24608598  1.0
  N  N10  1  0.17752144  0.82247856  0.25391402  1.0
  N  N11  1  0.32247856  0.67752144  0.75391402  1.0
  N  N12  1  0.39326618  1.28179243  0.54084951  1.0
  N  N13  1  0.10673382  1.21820757  0.04084951  1.0
  N  N14  1  0.28179243  1.39326618  0.45915049  1.0
  N  N15  1  0.21820757  1.10673382  0.95915049  1.0
  N  N16  1  -0.39326618  0.71820757  0.45915049  1.0
  N  N17  1  -0.10673382  0.78179243  0.95915049  1.0
  N  N18  1  -0.28179243  0.60673382  0.54084951  1.0
  N  N19  1  -0.21820757  0.89326618  0.04084951  1.0
