# generated using pymatgen
data_Sr3In(BO3)3
_symmetry_space_group_name_H-M   'P 1'
_cell_length_a   7.77450703
_cell_length_b   7.77450703
_cell_length_c   7.77450703
_cell_angle_alpha   105.23424146
_cell_angle_beta   105.23424146
_cell_angle_gamma   105.23424146
_symmetry_Int_Tables_number   1
_chemical_formula_structural   Sr3In(BO3)3
_chemical_formula_sum   'Sr6 In2 B6 O18'
_cell_volume   408.73799508
_cell_formula_units_Z   2
loop_
 _symmetry_equiv_pos_site_id
 _symmetry_equiv_pos_as_xyz
  1  'x, y, z'
loop_
 _atom_site_type_symbol
 _atom_site_label
 _atom_site_symmetry_multiplicity
 _atom_site_fract_x
 _atom_site_fract_y
 _atom_site_fract_z
 _atom_site_occupancy
  Sr  Sr0  1  0.76541857  0.66011497  0.15294484  1.0
  Sr  Sr1  1  1.33988503  -0.15294484  0.23458143  1.0
  Sr  Sr2  1  0.84705516  0.23458143  0.33988503  1.0
  Sr  Sr3  1  1.23458143  0.33988503  -0.15294484  1.0
  Sr  Sr4  1  0.66011497  1.15294484  -0.23458143  1.0
  Sr  Sr5  1  1.15294484  0.76541857  -0.33988503  1.0
  In  In6  1  0.50000000  0.50000000  0.50000000  1.0
  In  In7  1  -0.00000000  -0.00000000  -0.00000000  1.0
  B  B8  1  1.54146090  0.78917400  -0.12320505  1.0
  B  B9  1  1.21082600  0.12320505  -0.54146090  1.0
  B  B10  1  1.12320505  -0.54146090  0.21082600  1.0
  B  B11  1  0.45853910  0.21082600  0.12320505  1.0
  B  B12  1  0.78917400  0.87679495  0.54146090  1.0
  B  B13  1  0.87679495  1.54146090  -0.21082600  1.0
  O  O14  1  1.48749272  0.76594381  -0.31652358  1.0
  O  O15  1  1.23405619  0.31652358  -0.48749272  1.0
  O  O16  1  1.31652358  -0.48749272  0.23405619  1.0
  O  O17  1  0.51250728  0.23405619  0.31652358  1.0
  O  O18  1  0.76594381  0.68347642  0.48749272  1.0
  O  O19  1  0.68347642  1.48749272  -0.23405619  1.0
  O  O20  1  1.71248984  0.93388673  0.00493920  1.0
  O  O21  1  1.06611327  -0.00493920  -0.71248984  1.0
  O  O22  1  0.99506080  -0.71248984  0.06611327  1.0
  O  O23  1  0.28751016  0.06611327  -0.00493920  1.0
  O  O24  1  0.93388673  1.00493920  0.71248984  1.0
  O  O25  1  1.00493920  1.71248984  -0.06611327  1.0
  O  O26  1  0.57518398  0.31412650  0.05300791  1.0
  O  O27  1  0.68587350  0.94699209  0.42481602  1.0
  O  O28  1  0.94699209  1.42481602  -0.31412650  1.0
  O  O29  1  1.42481602  0.68587350  -0.05300791  1.0
  O  O30  1  1.31412650  0.05300791  -0.42481602  1.0
  O  O31  1  1.05300791  -0.42481602  0.31412650  1.0
