# generated using pymatgen
data_Sb2Se3
_symmetry_space_group_name_H-M   'P 1'
_cell_length_a   12.82047164
_cell_length_b   4.03110003
_cell_length_c   11.54519598
_cell_angle_alpha   90.00000000
_cell_angle_beta   90.00000000
_cell_angle_gamma   90.00000000
_symmetry_Int_Tables_number   1
_chemical_formula_structural   Sb2Se3
_chemical_formula_sum   'Sb8 Se12'
_cell_volume   596.66269685
_cell_formula_units_Z   4
loop_
 _symmetry_equiv_pos_site_id
 _symmetry_equiv_pos_as_xyz
  1  'x, y, z'
loop_
 _atom_site_type_symbol
 _atom_site_label
 _atom_site_symmetry_multiplicity
 _atom_site_fract_x
 _atom_site_fract_y
 _atom_site_fract_z
 _atom_site_occupancy
  Sb  Sb0  1  0.46411919  0.75000000  0.16793974  1.0
  Sb  Sb1  1  0.96411919  0.75000000  0.33206026  1.0
  Sb  Sb2  1  0.53588081  0.25000000  0.83206026  1.0
  Sb  Sb3  1  0.03588081  0.25000000  0.66793974  1.0
  Sb  Sb4  1  0.13740366  0.75000000  0.96293761  1.0
  Sb  Sb5  1  0.63740366  0.75000000  0.53706239  1.0
  Sb  Sb6  1  0.86259634  0.25000000  0.03706239  1.0
  Sb  Sb7  1  0.36259634  0.25000000  0.46293761  1.0
  Se  Se8  1  0.45225576  0.75000000  0.63298352  1.0
  Se  Se9  1  0.95225576  0.75000000  0.86701648  1.0
  Se  Se10  1  0.54774424  0.25000000  0.36701648  1.0
  Se  Se11  1  0.04774424  0.25000000  0.13298352  1.0
  Se  Se12  1  0.29550525  0.75000000  0.30895229  1.0
  Se  Se13  1  0.79550525  0.75000000  0.19104771  1.0
  Se  Se14  1  0.70449475  0.25000000  0.69104771  1.0
  Se  Se15  1  0.20449475  0.25000000  0.80895229  1.0
  Se  Se16  1  0.12766572  0.75000000  0.54745127  1.0
  Se  Se17  1  0.62766572  0.75000000  0.95254873  1.0
  Se  Se18  1  0.87233428  0.25000000  0.45254873  1.0
  Se  Se19  1  0.37233428  0.25000000  0.04745127  1.0
