# generated using pymatgen
data_Li2Ca3Mg(SiN3)2
_symmetry_space_group_name_H-M   'P 1'
_cell_length_a   5.75017621
_cell_length_b   5.75017621
_cell_length_c   11.79490453
_cell_angle_alpha   85.03656635
_cell_angle_beta   94.96343365
_cell_angle_gamma   62.49577969
_symmetry_Int_Tables_number   1
_chemical_formula_structural   Li2Ca3Mg(SiN3)2
_chemical_formula_sum   'Li4 Ca6 Mg2 Si4 N12'
_cell_volume   341.06938273
_cell_formula_units_Z   2
loop_
 _symmetry_equiv_pos_site_id
 _symmetry_equiv_pos_as_xyz
  1  'x, y, z'
loop_
 _atom_site_type_symbol
 _atom_site_label
 _atom_site_symmetry_multiplicity
 _atom_site_fract_x
 _atom_site_fract_y
 _atom_site_fract_z
 _atom_site_occupancy
  Li  Li0  1  1.00051888  0.34974117  0.94042258  1.0
  Li  Li1  1  0.65025883  -0.00051888  0.94042258  1.0
  Li  Li2  1  0.99948112  -0.34974117  0.05957742  1.0
  Li  Li3  1  1.34974117  0.00051888  0.05957742  1.0
  Ca  Ca4  1  1.27285006  0.37238741  0.75359277  1.0
  Ca  Ca5  1  0.62761259  -0.27285006  0.75359277  1.0
  Ca  Ca6  1  0.72714994  -0.37238741  0.24640723  1.0
  Ca  Ca7  1  1.37238741  0.27285006  0.24640723  1.0
  Ca  Ca8  1  1.18166567  0.18166567  0.50000000  1.0
  Ca  Ca9  1  0.81833433  -0.18166567  0.50000000  1.0
  Mg  Mg10  1  0.93732855  -0.93732855  0.77732251  1.0
  Mg  Mg11  1  0.06267145  -0.06267145  0.22267749  1.0
  Si  Si12  1  0.64654715  -0.64654715  0.58135709  1.0
  Si  Si13  1  0.35345285  -0.35345285  0.41864291  1.0
  Si  Si14  1  0.31114746  -0.31114746  0.93629724  1.0
  Si  Si15  1  0.68885254  -0.68885254  0.06370276  1.0
  N  N16  1  0.91133955  -0.62163428  0.64874895  1.0
  N  N17  1  1.62163428  0.08866045  0.64874895  1.0
  N  N18  1  1.08866045  0.62163428  0.35125105  1.0
  N  N19  1  0.37836572  -0.08866045  0.35125105  1.0
  N  N20  1  1.01296485  0.69796817  0.88214061  1.0
  N  N21  1  0.30203183  -0.01296485  0.88214061  1.0
  N  N22  1  0.98703515  -0.69796817  0.11785939  1.0
  N  N23  1  1.69796817  0.01296485  0.11785939  1.0
  N  N24  1  0.66087820  -0.66087820  0.42992196  1.0
  N  N25  1  0.33912180  -0.33912180  0.57007804  1.0
  N  N26  1  0.60623895  -0.60623895  0.90837348  1.0
  N  N27  1  0.39376105  -0.39376105  0.09162652  1.0
