# generated using pymatgen
data_LaSi3N5
_symmetry_space_group_name_H-M   'P 1'
_cell_length_a   4.83685561
_cell_length_b   7.89940882
_cell_length_c   11.39337989
_cell_angle_alpha   90.00000000
_cell_angle_beta   90.00000000
_cell_angle_gamma   90.00000000
_symmetry_Int_Tables_number   1
_chemical_formula_structural   LaSi3N5
_chemical_formula_sum   'La4 Si12 N20'
_cell_volume   435.32167520
_cell_formula_units_Z   4
loop_
 _symmetry_equiv_pos_site_id
 _symmetry_equiv_pos_as_xyz
  1  'x, y, z'
loop_
 _atom_site_type_symbol
 _atom_site_label
 _atom_site_symmetry_multiplicity
 _atom_site_fract_x
 _atom_site_fract_y
 _atom_site_fract_z
 _atom_site_occupancy
  La  La0  1  0.99719727  0.94169145  0.66972812  1.0
  La  La1  1  0.49719727  0.55830855  0.33027188  1.0
  La  La2  1  0.00280273  0.44169145  0.83027188  1.0
  La  La3  1  0.50280273  0.05830855  0.16972812  1.0
  Si  Si4  1  0.48957741  0.66288945  0.65975664  1.0
  Si  Si5  1  0.98957741  0.83711055  0.34024336  1.0
  Si  Si6  1  0.51042259  0.16288945  0.84024336  1.0
  Si  Si7  1  0.01042259  0.33711055  0.15975664  1.0
  Si  Si8  1  0.48091189  0.79362527  0.91648912  1.0
  Si  Si9  1  0.98091189  0.70637473  0.08351088  1.0
  Si  Si10  1  0.51908811  0.29362527  0.58351088  1.0
  Si  Si11  1  0.01908811  0.20637473  0.41648912  1.0
  Si  Si12  1  0.98032014  0.53277955  0.54092404  1.0
  Si  Si13  1  0.48032014  0.96722045  0.45907596  1.0
  Si  Si14  1  0.01967986  0.03277955  0.95907596  1.0
  Si  Si15  1  0.51967986  0.46722045  0.04092404  1.0
  N  N16  1  0.45814024  0.84373612  0.57967796  1.0
  N  N17  1  0.95814024  0.65626388  0.42032204  1.0
  N  N18  1  0.54185976  0.34373612  0.92032204  1.0
  N  N19  1  0.04185976  0.15626388  0.07967796  1.0
  N  N20  1  0.33965550  0.70706737  0.79349976  1.0
  N  N21  1  0.83965550  0.79293263  0.20650024  1.0
  N  N22  1  0.66034450  0.20706737  0.70650024  1.0
  N  N23  1  0.16034450  0.29293263  0.29349976  1.0
  N  N24  1  0.31970444  0.48281112  0.59211775  1.0
  N  N25  1  0.81970444  0.01718888  0.40788225  1.0
  N  N26  1  0.68029556  0.98281112  0.90788225  1.0
  N  N27  1  0.18029556  0.51718888  0.09211775  1.0
  N  N28  1  0.19809651  0.84865181  0.00833565  1.0
  N  N29  1  0.69809651  0.65134819  0.99166435  1.0
  N  N30  1  0.80190349  0.34865181  0.49166435  1.0
  N  N31  1  0.30190349  0.15134819  0.50833565  1.0
  N  N32  1  0.83283709  0.61150152  0.66659571  1.0
  N  N33  1  0.33283709  0.88849848  0.33340429  1.0
  N  N34  1  0.16716291  0.11150152  0.83340429  1.0
  N  N35  1  0.66716291  0.38849848  0.16659571  1.0
