# generated using pymatgen
data_BeCN2
_symmetry_space_group_name_H-M   'P 1'
_cell_length_a   4.38810282
_cell_length_b   4.38810282
_cell_length_c   4.38810282
_cell_angle_alpha   129.19758017
_cell_angle_beta   129.19758017
_cell_angle_gamma   74.69286604
_symmetry_Int_Tables_number   1
_chemical_formula_structural   BeCN2
_chemical_formula_sum   'Be2 C2 N4'
_cell_volume   49.43899192
_cell_formula_units_Z   2
loop_
 _symmetry_equiv_pos_site_id
 _symmetry_equiv_pos_as_xyz
  1  'x, y, z'
loop_
 _atom_site_type_symbol
 _atom_site_label
 _atom_site_symmetry_multiplicity
 _atom_site_fract_x
 _atom_site_fract_y
 _atom_site_fract_z
 _atom_site_occupancy
  Be  Be0  1  1.00000000  1.00000000  1.00000000  1.0
  Be  Be1  1  0.75000000  0.25000000  0.50000000  1.0
  C  C2  1  0.50000000  0.50000000  0.00000000  1.0
  C  C3  1  0.25000000  0.75000000  0.50000000  1.0
  N  N4  1  0.57900401  1.12500000  0.95400401  1.0
  N  N5  1  1.17099599  0.62500000  1.04599599  1.0
  N  N6  1  1.37500000  1.42099599  1.54599599  1.0
  N  N7  1  0.87500000  0.82900401  0.45400401  1.0
