# generated using pymatgen
data_Bi4Rh
_symmetry_space_group_name_H-M   'P 1'
_cell_length_a   13.13272172
_cell_length_b   13.13272172
_cell_length_c   13.13272172
_cell_angle_alpha   109.47122063
_cell_angle_beta   109.47122063
_cell_angle_gamma   109.47122063
_symmetry_Int_Tables_number   1
_chemical_formula_structural   Bi4Rh
_chemical_formula_sum   'Bi48 Rh12'
_cell_volume   1743.58182989
_cell_formula_units_Z   12
loop_
 _symmetry_equiv_pos_site_id
 _symmetry_equiv_pos_as_xyz
  1  'x, y, z'
loop_
 _atom_site_type_symbol
 _atom_site_label
 _atom_site_symmetry_multiplicity
 _atom_site_fract_x
 _atom_site_fract_y
 _atom_site_fract_z
 _atom_site_occupancy
  Bi  Bi0  1  0.53937557  0.62832953  0.71566105  1.0
  Bi  Bi1  1  1.58733152  1.17628548  1.21566105  1.0
  Bi  Bi2  1  0.96062443  1.67628548  1.08895396  1.0
  Bi  Bi3  1  0.91266848  1.12832953  0.58895396  1.0
  Bi  Bi4  1  1.03937557  1.21566105  1.12832953  1.0
  Bi  Bi5  1  1.41266848  1.08895396  0.62832953  1.0
  Bi  Bi6  1  1.08733152  0.71566105  0.67628548  1.0
  Bi  Bi7  1  0.46062443  0.58895396  0.17628548  1.0
  Bi  Bi8  1  0.62832953  0.71566105  0.53937557  1.0
  Bi  Bi9  1  1.32371452  0.91104604  1.03937557  1.0
  Bi  Bi10  1  0.87167047  1.41104604  1.08733152  1.0
  Bi  Bi11  1  1.17628548  1.21566105  0.58733152  1.0
  Bi  Bi12  1  1.12832953  1.03937557  0.21566105  1.0
  Bi  Bi13  1  0.67628548  0.08733152  0.71566105  1.0
  Bi  Bi14  1  0.82371452  0.53937557  0.41104604  1.0
  Bi  Bi15  1  0.37167047  0.58733152  0.91104604  1.0
  Bi  Bi16  1  1.71566105  1.53937557  1.62832953  1.0
  Bi  Bi17  1  1.58895396  0.91266848  1.12832953  1.0
  Bi  Bi18  1  0.78433895  0.41266848  0.82371452  1.0
  Bi  Bi19  1  0.91104604  1.03937557  0.32371452  1.0
  Bi  Bi20  1  0.21566105  1.12832953  1.03937557  1.0
  Bi  Bi21  1  1.41104604  1.82371452  1.53937557  1.0
  Bi  Bi22  1  1.08895396  1.62832953  1.41266848  1.0
  Bi  Bi23  1  1.28433895  1.32371452  0.91266848  1.0
  Bi  Bi24  1  1.03937557  1.32371452  0.91104604  1.0
  Bi  Bi25  1  1.08733152  0.87167047  0.41104604  1.0
  Bi  Bi26  1  0.46062443  0.37167047  0.28433895  1.0
  Bi  Bi27  1  1.41266848  0.82371452  0.78433895  1.0
  Bi  Bi28  1  1.91266848  1.28433895  1.32371452  1.0
  Bi  Bi29  1  0.53937557  0.41104604  0.82371452  1.0
  Bi  Bi30  1  0.96062443  1.78433895  0.87167047  1.0
  Bi  Bi31  1  0.58733152  0.91104604  0.37167047  1.0
  Bi  Bi32  1  1.12832953  1.58895396  0.91266848  1.0
  Bi  Bi33  1  0.82371452  0.78433895  0.41266848  1.0
  Bi  Bi34  1  0.37167047  0.28433895  0.46062443  1.0
  Bi  Bi35  1  1.67628548  1.08895396  0.96062443  1.0
  Bi  Bi36  1  0.17628548  0.46062443  0.58895396  1.0
  Bi  Bi37  1  0.62832953  1.41266848  1.08895396  1.0
  Bi  Bi38  1  0.87167047  0.96062443  0.78433895  1.0
  Bi  Bi39  1  1.32371452  0.91266848  1.28433895  1.0
  Bi  Bi40  1  1.21566105  0.58733152  1.17628548  1.0
  Bi  Bi41  1  1.08895396  0.96062443  0.67628548  1.0
  Bi  Bi42  1  1.28433895  1.46062443  1.37167047  1.0
  Bi  Bi43  1  1.41104604  1.08733152  0.87167047  1.0
  Bi  Bi44  1  0.91104604  1.37167047  0.58733152  1.0
  Bi  Bi45  1  0.71566105  0.67628548  0.08733152  1.0
  Bi  Bi46  1  0.78433895  0.87167047  0.96062443  1.0
  Bi  Bi47  1  1.58895396  1.17628548  1.46062443  1.0
  Rh  Rh48  1  0.75000000  0.62500000  0.87500000  1.0
  Rh  Rh49  1  0.75000000  1.12500000  0.37500000  1.0
  Rh  Rh50  1  0.25000000  0.37500000  0.12500000  1.0
  Rh  Rh51  1  1.25000000  0.87500000  0.62500000  1.0
  Rh  Rh52  1  1.62500000  0.87500000  0.75000000  1.0
  Rh  Rh53  1  1.37500000  1.12500000  1.25000000  1.0
  Rh  Rh54  1  0.87500000  0.62500000  0.25000000  1.0
  Rh  Rh55  1  1.12500000  1.37500000  0.75000000  1.0
  Rh  Rh56  1  0.12500000  0.25000000  0.37500000  1.0
  Rh  Rh57  1  0.62500000  0.25000000  0.87500000  1.0
  Rh  Rh58  1  0.87500000  0.75000000  0.62500000  1.0
  Rh  Rh59  1  1.37500000  0.75000000  1.12500000  1.0
