# generated using pymatgen
data_K2ZrO3
_symmetry_space_group_name_H-M   'P 1'
_cell_length_a   5.91993175
_cell_length_b   10.56209216
_cell_length_c   7.04444385
_cell_angle_alpha   90.00000000
_cell_angle_beta   90.00000000
_cell_angle_gamma   90.00000000
_symmetry_Int_Tables_number   1
_chemical_formula_structural   K2ZrO3
_chemical_formula_sum   'K8 Zr4 O12'
_cell_volume   440.46698757
_cell_formula_units_Z   4
loop_
 _symmetry_equiv_pos_site_id
 _symmetry_equiv_pos_as_xyz
  1  'x, y, z'
loop_
 _atom_site_type_symbol
 _atom_site_label
 _atom_site_symmetry_multiplicity
 _atom_site_fract_x
 _atom_site_fract_y
 _atom_site_fract_z
 _atom_site_occupancy
  K  K0  1  0.23563102  0.41427139  0.61456679  1.0
  K  K1  1  0.23563102  0.08572861  0.61456679  1.0
  K  K2  1  0.73563102  0.41427139  0.88543321  1.0
  K  K3  1  0.73563102  0.08572861  0.88543321  1.0
  K  K4  1  0.76436898  0.91427139  0.38543321  1.0
  K  K5  1  0.76436898  0.58572861  0.38543321  1.0
  K  K6  1  0.26436898  0.91427139  0.11456679  1.0
  K  K7  1  0.26436898  0.58572861  0.11456679  1.0
  Zr  Zr8  1  0.27964351  0.25000000  0.15947140  1.0
  Zr  Zr9  1  0.77964351  0.25000000  0.34052860  1.0
  Zr  Zr10  1  0.72035649  0.75000000  0.84052860  1.0
  Zr  Zr11  1  0.22035649  0.75000000  0.65947140  1.0
  O  O12  1  0.48276353  0.87782184  0.73009567  1.0
  O  O13  1  0.48276353  0.62217816  0.73009567  1.0
  O  O14  1  0.98276353  0.87782184  0.76990433  1.0
  O  O15  1  0.98276353  0.62217816  0.76990433  1.0
  O  O16  1  0.51723647  0.37782184  0.26990433  1.0
  O  O17  1  0.51723647  0.12217816  0.26990433  1.0
  O  O18  1  0.01723647  0.37782184  0.23009567  1.0
  O  O19  1  0.01723647  0.12217816  0.23009567  1.0
  O  O20  1  0.33988236  0.25000000  0.89252812  1.0
  O  O21  1  0.83988236  0.25000000  0.60747188  1.0
  O  O22  1  0.66011764  0.75000000  0.10747188  1.0
  O  O23  1  0.16011764  0.75000000  0.39252812  1.0
