# generated using pymatgen
data_Ba3TbRu2O9
_symmetry_space_group_name_H-M   'P 1'
_cell_length_a   5.92744631
_cell_length_b   5.92744631
_cell_length_c   14.58491312
_cell_angle_alpha   90.00000000
_cell_angle_beta   90.00000000
_cell_angle_gamma   120.00000000
_symmetry_Int_Tables_number   1
_chemical_formula_structural   Ba3TbRu2O9
_chemical_formula_sum   'Ba6 Tb2 Ru4 O18'
_cell_volume   443.78205350
_cell_formula_units_Z   2
loop_
 _symmetry_equiv_pos_site_id
 _symmetry_equiv_pos_as_xyz
  1  'x, y, z'
loop_
 _atom_site_type_symbol
 _atom_site_label
 _atom_site_symmetry_multiplicity
 _atom_site_fract_x
 _atom_site_fract_y
 _atom_site_fract_z
 _atom_site_occupancy
  Tb  Tb0  1  0.00000000  0.00000000  0.50000000  1.0
  Tb  Tb1  1  0.00000000  0.00000000  0.00000000  1.0
  O  O2  1  0.17533444  0.82466556  0.91250403  1.0
  O  O3  1  0.17533444  0.82466556  0.58749597  1.0
  O  O4  1  0.17533444  0.35066888  0.91250403  1.0
  O  O5  1  0.17533444  0.35066888  0.58749597  1.0
  O  O6  1  0.82466556  0.17533444  0.41250403  1.0
  O  O7  1  0.82466556  0.17533444  0.08749597  1.0
  O  O8  1  0.82466556  0.64933112  0.41250403  1.0
  O  O9  1  0.82466556  0.64933112  0.08749597  1.0
  O  O10  1  0.64933112  0.82466556  0.91250403  1.0
  O  O11  1  0.64933112  0.82466556  0.58749597  1.0
  O  O12  1  0.35066888  0.17533444  0.41250403  1.0
  O  O13  1  0.35066888  0.17533444  0.08749597  1.0
  O  O14  1  0.51029125  0.48970875  0.25000000  1.0
  O  O15  1  0.51029125  0.02058250  0.25000000  1.0
  O  O16  1  0.48970875  0.51029125  0.75000000  1.0
  O  O17  1  0.48970875  0.97941750  0.75000000  1.0
  O  O18  1  0.97941750  0.48970875  0.25000000  1.0
  O  O19  1  0.02058250  0.51029125  0.75000000  1.0
  Ba  Ba20  1  0.33333333  0.66666667  0.40494577  1.0
  Ba  Ba21  1  0.33333333  0.66666667  0.09505423  1.0
  Ba  Ba22  1  0.66666667  0.33333333  0.90494577  1.0
  Ba  Ba23  1  0.66666667  0.33333333  0.59505423  1.0
  Ba  Ba24  1  0.00000000  0.00000000  0.25000000  1.0
  Ba  Ba25  1  0.00000000  0.00000000  0.75000000  1.0
  Ru  Ru26  1  0.33333333  0.66666667  0.83534247  1.0
  Ru  Ru27  1  0.33333333  0.66666667  0.66465753  1.0
  Ru  Ru28  1  0.66666667  0.33333333  0.33534247  1.0
  Ru  Ru29  1  0.66666667  0.33333333  0.16465753  1.0
