# generated using pymatgen
data_SrH2N2O5
_symmetry_space_group_name_H-M   'P 1'
_cell_length_a   4.52619367
_cell_length_b   9.08252669
_cell_length_c   12.68459730
_cell_angle_alpha   90.00000000
_cell_angle_beta   99.74333335
_cell_angle_gamma   90.00000000
_symmetry_Int_Tables_number   1
_chemical_formula_structural   SrH2N2O5
_chemical_formula_sum   'Sr4 H8 N8 O20'
_cell_volume   513.93300826
_cell_formula_units_Z   4
loop_
 _symmetry_equiv_pos_site_id
 _symmetry_equiv_pos_as_xyz
  1  'x, y, z'
loop_
 _atom_site_type_symbol
 _atom_site_label
 _atom_site_symmetry_multiplicity
 _atom_site_fract_x
 _atom_site_fract_y
 _atom_site_fract_z
 _atom_site_occupancy
  Sr  Sr0  1  0.88196120  0.01290215  0.42257166  1.0
  Sr  Sr1  1  0.11803880  0.51290215  0.57742834  1.0
  Sr  Sr2  1  0.06664593  0.74368717  0.92938750  1.0
  Sr  Sr3  1  0.93335407  0.24368717  0.07061250  1.0
  H  H4  1  0.91308891  0.80791181  0.21790176  1.0
  H  H5  1  0.08691109  0.30791181  0.78209824  1.0
  H  H6  1  0.84548431  0.70874480  0.30830744  1.0
  H  H7  1  0.15451569  0.20874480  0.69169256  1.0
  H  H8  1  0.84877332  0.12921607  0.82869446  1.0
  H  H9  1  0.15122668  0.62921607  0.17130554  1.0
  H  H10  1  0.60035058  0.25372457  0.81470508  1.0
  H  H11  1  0.39964942  0.75372457  0.18529492  1.0
  N  N12  1  0.99224987  0.92774706  0.69175323  1.0
  N  N13  1  0.00775013  0.42774706  0.30824677  1.0
  N  N14  1  0.57111622  0.61821211  0.73311932  1.0
  N  N15  1  0.42888378  0.11821211  0.26688068  1.0
  N  N16  1  0.47275790  0.50614111  0.98579239  1.0
  N  N17  1  0.52724210  0.00614111  0.01420761  1.0
  N  N18  1  0.47341243  0.75176032  0.50314785  1.0
  N  N19  1  0.52658757  0.25176032  0.49685215  1.0
  O  O20  1  0.98316468  0.95684533  0.78883981  1.0
  O  O21  1  0.01683532  0.45684533  0.21116019  1.0
  O  O22  1  0.98227551  0.03953151  0.63145511  1.0
  O  O23  1  0.01772449  0.53953151  0.36854489  1.0
  O  O24  1  0.84801741  0.58859603  0.74009223  1.0
  O  O25  1  0.15198259  0.08859603  0.25990777  1.0
  O  O26  1  0.79843603  0.22709223  0.85630353  1.0
  O  O27  1  0.20156397  0.72709223  0.14369647  1.0
  O  O28  1  0.77517118  0.80158355  0.27066775  1.0
  O  O29  1  0.22482882  0.30158355  0.72933225  1.0
  O  O30  1  0.75231248  0.52167499  0.99132981  1.0
  O  O31  1  0.24768752  0.02167499  0.00867019  1.0
  O  O32  1  0.74864599  0.72996572  0.50540689  1.0
  O  O33  1  0.25135401  0.22996572  0.49459311  1.0
  O  O34  1  0.60543676  0.87860833  0.98986887  1.0
  O  O35  1  0.39456324  0.37860833  0.01013113  1.0
  O  O36  1  0.50802017  0.69885994  0.80658907  1.0
  O  O37  1  0.49197983  0.19885994  0.19341093  1.0
  O  O38  1  0.38327033  0.87669523  0.46555257  1.0
  O  O39  1  0.61672967  0.37669523  0.53444743  1.0
