# generated using pymatgen
data_Rb2SO4
_symmetry_space_group_name_H-M   'P 1'
_cell_length_a   7.98441745
_cell_length_b   6.08868805
_cell_length_c   10.66601188
_cell_angle_alpha   90.00000000
_cell_angle_beta   90.00000000
_cell_angle_gamma   90.00000000
_symmetry_Int_Tables_number   1
_chemical_formula_structural   Rb2SO4
_chemical_formula_sum   'Rb8 S4 O16'
_cell_volume   518.52419071
_cell_formula_units_Z   4
loop_
 _symmetry_equiv_pos_site_id
 _symmetry_equiv_pos_as_xyz
  1  'x, y, z'
loop_
 _atom_site_type_symbol
 _atom_site_label
 _atom_site_symmetry_multiplicity
 _atom_site_fract_x
 _atom_site_fract_y
 _atom_site_fract_z
 _atom_site_occupancy
  Rb  Rb0  1  0.82609707  0.75000000  0.41185351  1.0
  Rb  Rb1  1  0.32609707  0.75000000  0.08814649  1.0
  Rb  Rb2  1  0.17390293  0.25000000  0.58814649  1.0
  Rb  Rb3  1  0.67390293  0.25000000  0.91185351  1.0
  Rb  Rb4  1  0.50803332  0.75000000  0.70039521  1.0
  Rb  Rb5  1  0.00803332  0.75000000  0.79960479  1.0
  Rb  Rb6  1  0.49196668  0.25000000  0.29960479  1.0
  Rb  Rb7  1  0.99196668  0.25000000  0.20039521  1.0
  S  S8  1  0.76545031  0.75000000  0.08171552  1.0
  S  S9  1  0.26545031  0.75000000  0.41828448  1.0
  S  S10  1  0.23454969  0.25000000  0.91828448  1.0
  S  S11  1  0.73454969  0.25000000  0.58171552  1.0
  O  O12  1  0.70084956  0.95171159  0.14732118  1.0
  O  O13  1  0.70084956  0.54828841  0.14732118  1.0
  O  O14  1  0.20084956  0.95171159  0.35267882  1.0
  O  O15  1  0.20084956  0.54828841  0.35267882  1.0
  O  O16  1  0.29915044  0.45171159  0.85267882  1.0
  O  O17  1  0.29915044  0.04828841  0.85267882  1.0
  O  O18  1  0.79915044  0.45171159  0.64732118  1.0
  O  O19  1  0.79915044  0.04828841  0.64732118  1.0
  O  O20  1  0.95269616  0.75000000  0.08327689  1.0
  O  O21  1  0.45269616  0.75000000  0.41672311  1.0
  O  O22  1  0.04730384  0.25000000  0.91672311  1.0
  O  O23  1  0.54730384  0.25000000  0.58327689  1.0
  O  O24  1  0.20170490  0.75000000  0.55137061  1.0
  O  O25  1  0.70170490  0.75000000  0.94862939  1.0
  O  O26  1  0.79829510  0.25000000  0.44862939  1.0
  O  O27  1  0.29829510  0.25000000  0.05137061  1.0
