# generated using pymatgen
data_K3AuSe13
_symmetry_space_group_name_H-M   'P 1'
_cell_length_a   15.24311428
_cell_length_b   5.12090361
_cell_length_c   13.86233552
_cell_angle_alpha   90.00000000
_cell_angle_beta   94.17987227
_cell_angle_gamma   90.00000000
_symmetry_Int_Tables_number   1
_chemical_formula_structural   K3AuSe13
_chemical_formula_sum   'K6 Au2 Se26'
_cell_volume   1079.19522082
_cell_formula_units_Z   2
loop_
 _symmetry_equiv_pos_site_id
 _symmetry_equiv_pos_as_xyz
  1  'x, y, z'
loop_
 _atom_site_type_symbol
 _atom_site_label
 _atom_site_symmetry_multiplicity
 _atom_site_fract_x
 _atom_site_fract_y
 _atom_site_fract_z
 _atom_site_occupancy
  K  K0  1  0.77629923  0.79861674  0.16269108  1.0
  K  K1  1  0.77629923  0.20138326  0.66269108  1.0
  K  K2  1  0.22370077  0.79861674  0.33730892  1.0
  K  K3  1  0.22370077  0.20138326  0.83730892  1.0
  K  K4  1  0.50000000  0.16413344  0.75000000  1.0
  K  K5  1  0.50000000  0.83586656  0.25000000  1.0
  Au  Au6  1  -0.00000000  0.00000000  -0.00000000  1.0
  Au  Au7  1  0.00000000  0.00000000  0.50000000  1.0
  Se  Se8  1  0.91243220  0.91158300  0.84245931  1.0
  Se  Se9  1  0.91243220  0.08841700  0.34245931  1.0
  Se  Se10  1  0.08756780  0.91158300  0.65754069  1.0
  Se  Se11  1  0.08756780  0.08841700  0.15754069  1.0
  Se  Se12  1  0.88039468  0.70444734  0.55260954  1.0
  Se  Se13  1  0.88039468  0.29555266  0.05260954  1.0
  Se  Se14  1  0.11960532  0.70444734  0.94739046  1.0
  Se  Se15  1  0.11960532  0.29555266  0.44739046  1.0
  Se  Se16  1  0.76814927  0.35794157  0.92537534  1.0
  Se  Se17  1  0.76814927  0.64205843  0.42537534  1.0
  Se  Se18  1  0.23185073  0.35794157  0.57462466  1.0
  Se  Se19  1  0.23185073  0.64205843  0.07462466  1.0
  Se  Se20  1  0.65011249  0.69105150  0.73349131  1.0
  Se  Se21  1  0.65011249  0.30894850  0.23349131  1.0
  Se  Se22  1  0.34988751  0.69105150  0.76650869  1.0
  Se  Se23  1  0.34988751  0.30894850  0.26650869  1.0
  Se  Se24  1  0.64894468  0.92076405  0.46504091  1.0
  Se  Se25  1  0.64894468  0.07923595  0.96504091  1.0
  Se  Se26  1  0.35105532  0.92076405  0.03495909  1.0
  Se  Se27  1  0.35105532  0.07923595  0.53495909  1.0
  Se  Se28  1  0.42993621  0.68437855  0.91956737  1.0
  Se  Se29  1  0.42993621  0.31562145  0.41956737  1.0
  Se  Se30  1  0.57006379  0.68437855  0.58043263  1.0
  Se  Se31  1  0.57006379  0.31562145  0.08043263  1.0
  Se  Se32  1  0.00000000  0.63800515  0.75000000  1.0
  Se  Se33  1  -0.00000000  0.36199485  0.25000000  1.0
