# generated using pymatgen
data_KGe2BO6
_symmetry_space_group_name_H-M   'P 1'
_cell_length_a   4.87196218
_cell_length_b   10.33211785
_cell_length_c   10.86546692
_cell_angle_alpha   90.00000000
_cell_angle_beta   90.00000000
_cell_angle_gamma   90.00000000
_symmetry_Int_Tables_number   1
_chemical_formula_structural   KGe2BO6
_chemical_formula_sum   'K4 Ge8 B4 O24'
_cell_volume   546.94247686
_cell_formula_units_Z   4
loop_
 _symmetry_equiv_pos_site_id
 _symmetry_equiv_pos_as_xyz
  1  'x, y, z'
loop_
 _atom_site_type_symbol
 _atom_site_label
 _atom_site_symmetry_multiplicity
 _atom_site_fract_x
 _atom_site_fract_y
 _atom_site_fract_z
 _atom_site_occupancy
  K  K0  1  0.30683307  0.47014038  0.68747039  1.0
  K  K1  1  0.80683307  0.02985962  0.31252961  1.0
  K  K2  1  0.69316693  0.97014038  0.81252961  1.0
  K  K3  1  0.19316693  0.52985962  0.18747039  1.0
  Ge  Ge4  1  0.23075483  0.80175761  0.58022600  1.0
  Ge  Ge5  1  0.73075483  0.69824239  0.41977400  1.0
  Ge  Ge6  1  0.76924517  0.30175761  0.91977400  1.0
  Ge  Ge7  1  0.26924517  0.19824239  0.08022600  1.0
  Ge  Ge8  1  0.20001396  0.88437679  0.06604281  1.0
  Ge  Ge9  1  0.70001396  0.61562321  0.93395719  1.0
  Ge  Ge10  1  0.79998604  0.38437679  0.43395719  1.0
  Ge  Ge11  1  0.29998604  0.11562321  0.56604281  1.0
  B  B12  1  0.19461715  0.73459506  0.84232708  1.0
  B  B13  1  0.69461715  0.76540494  0.15767292  1.0
  B  B14  1  0.80538285  0.23459506  0.65767292  1.0
  B  B15  1  0.30538285  0.26540494  0.34232708  1.0
  O  O16  1  0.49383632  0.70807060  0.83351637  1.0
  O  O17  1  0.99383632  0.79192940  0.16648363  1.0
  O  O18  1  0.50616368  0.20807060  0.66648363  1.0
  O  O19  1  0.00616368  0.29192940  0.33351637  1.0
  O  O20  1  0.47204636  0.68091767  0.53418375  1.0
  O  O21  1  0.97204636  0.81908233  0.46581625  1.0
  O  O22  1  0.52795364  0.18091767  0.96581625  1.0
  O  O23  1  0.02795364  0.31908233  0.03418375  1.0
  O  O24  1  0.40616245  0.95108105  0.59237569  1.0
  O  O25  1  0.90616245  0.54891895  0.40762431  1.0
  O  O26  1  0.59383755  0.45108105  0.90762431  1.0
  O  O27  1  0.09383755  0.04891895  0.09237569  1.0
  O  O28  1  0.14296992  0.85978590  0.90679700  1.0
  O  O29  1  0.64296992  0.64021410  0.09320300  1.0
  O  O30  1  0.85703008  0.35978590  0.59320300  1.0
  O  O31  1  0.35703008  0.14021410  0.40679700  1.0
  O  O32  1  0.07809356  0.74818766  0.71614394  1.0
  O  O33  1  0.57809356  0.75181234  0.28385606  1.0
  O  O34  1  0.92190644  0.24818766  0.78385606  1.0
  O  O35  1  0.42190644  0.25181234  0.21614394  1.0
  O  O36  1  0.05539205  0.62411703  0.90224859  1.0
  O  O37  1  0.55539205  0.87588297  0.09775141  1.0
  O  O38  1  0.94460795  0.12411703  0.59775141  1.0
  O  O39  1  0.44460795  0.37588297  0.40224859  1.0
