# generated using pymatgen
data_V3FeS6
_symmetry_space_group_name_H-M   'P 1'
_cell_length_a   6.39999213
_cell_length_b   6.39999213
_cell_length_c   6.39999213
_cell_angle_alpha   51.80504162
_cell_angle_beta   51.80504162
_cell_angle_gamma   51.80504162
_symmetry_Int_Tables_number   1
_chemical_formula_structural   V3FeS6
_chemical_formula_sum   'V3 Fe1 S6'
_cell_volume   149.62963184
_cell_formula_units_Z   1
loop_
 _symmetry_equiv_pos_site_id
 _symmetry_equiv_pos_as_xyz
  1  'x, y, z'
loop_
 _atom_site_type_symbol
 _atom_site_label
 _atom_site_symmetry_multiplicity
 _atom_site_fract_x
 _atom_site_fract_y
 _atom_site_fract_z
 _atom_site_occupancy
  V  V0  1  0.16867223  0.16867223  0.16867223  1.0
  V  V1  1  0.83132777  -0.16867223  -0.16867223  1.0
  V  V2  1  0.50000000  0.50000000  -0.50000000  1.0
  Fe  Fe3  1  0.00000000  0.00000000  0.00000000  1.0
  S  S4  1  0.08067290  0.74494210  -0.58847168  1.0
  S  S5  1  0.58847168  0.91932710  -0.74494210  1.0
  S  S6  1  0.25505790  0.58847168  -0.08067290  1.0
  S  S7  1  0.91932710  0.25505790  -0.41152832  1.0
  S  S8  1  0.41152832  0.08067290  -0.25505790  1.0
  S  S9  1  0.74494210  0.41152832  -0.91932710  1.0
