# generated using pymatgen
data_Cu7As6Se13
_symmetry_space_group_name_H-M   'P 1'
_cell_length_a   8.76756409
_cell_length_b   8.76756409
_cell_length_c   8.76756409
_cell_angle_alpha   102.41643377
_cell_angle_beta   102.41643377
_cell_angle_gamma   102.41643377
_symmetry_Int_Tables_number   1
_chemical_formula_structural   Cu7As6Se13
_chemical_formula_sum   'Cu7 As6 Se13'
_cell_volume   618.22178238
_cell_formula_units_Z   1
loop_
 _symmetry_equiv_pos_site_id
 _symmetry_equiv_pos_as_xyz
  1  'x, y, z'
loop_
 _atom_site_type_symbol
 _atom_site_label
 _atom_site_symmetry_multiplicity
 _atom_site_fract_x
 _atom_site_fract_y
 _atom_site_fract_z
 _atom_site_occupancy
  Cu  Cu0  1  1.63654602  -0.14760075  0.53624564  1.0
  Cu  Cu1  1  0.85239925  0.53624564  0.63654602  1.0
  Cu  Cu2  1  1.53624564  0.63654602  -0.14760075  1.0
  Cu  Cu3  1  0.01739559  0.01739559  0.01739559  1.0
  Cu  Cu4  1  0.40897883  1.19819225  -0.53054397  1.0
  Cu  Cu5  1  1.19819225  0.46945603  -0.59102117  1.0
  Cu  Cu6  1  0.46945603  0.40897883  0.19819225  1.0
  As  As7  1  1.24524800  -0.23733205  0.11182502  1.0
  As  As8  1  0.76266795  0.11182502  0.24524800  1.0
  As  As9  1  1.11182502  0.24524800  -0.23733205  1.0
  As  As10  1  0.90413869  0.79312364  0.32530916  1.0
  As  As11  1  0.79312364  1.32530916  -0.09586131  1.0
  As  As12  1  1.32530916  0.90413869  -0.20687636  1.0
  Se  Se13  1  0.23440529  0.23440529  0.23440529  1.0
  Se  Se14  1  1.54750735  0.00713652  0.35730107  1.0
  Se  Se15  1  1.00713652  0.35730107  0.54750735  1.0
  Se  Se16  1  1.35730107  0.54750735  0.00713652  1.0
  Se  Se17  1  0.61197334  1.40897970  -0.29452205  1.0
  Se  Se18  1  1.40897970  0.70547795  -0.38802666  1.0
  Se  Se19  1  0.70547795  0.61197334  0.40897970  1.0
  Se  Se20  1  1.21996582  0.04658431  -0.40756981  1.0
  Se  Se21  1  1.04658431  -0.40756981  0.21996582  1.0
  Se  Se22  1  0.59243019  0.21996582  0.04658431  1.0
  Se  Se23  1  0.83942001  1.06001861  -0.22762623  1.0
  Se  Se24  1  1.06001861  0.77237377  -0.16057999  1.0
  Se  Se25  1  0.77237377  0.83942001  0.06001861  1.0
