# generated using pymatgen
data_As4H6(CO)3
_symmetry_space_group_name_H-M   'P 1'
_cell_length_a   7.78320970
_cell_length_b   12.31405642
_cell_length_c   12.03057548
_cell_angle_alpha   119.48818377
_cell_angle_beta   92.40042803
_cell_angle_gamma   91.14369387
_symmetry_Int_Tables_number   1
_chemical_formula_structural   As4H6(CO)3
_chemical_formula_sum   'As16 H24 C12 O12'
_cell_volume   1001.70364695
_cell_formula_units_Z   4
loop_
 _symmetry_equiv_pos_site_id
 _symmetry_equiv_pos_as_xyz
  1  'x, y, z'
loop_
 _atom_site_type_symbol
 _atom_site_label
 _atom_site_symmetry_multiplicity
 _atom_site_fract_x
 _atom_site_fract_y
 _atom_site_fract_z
 _atom_site_occupancy
  As  As0  1  -0.85891832  -0.21652362  -0.36715918  1.0
  As  As1  1  -0.14108168  -0.78347638  -0.63284082  1.0
  As  As2  1  -0.16816394  -0.41001233  -0.37026749  1.0
  As  As3  1  -0.83183606  -0.58998767  -0.62973251  1.0
  As  As4  1  -0.17343384  -0.11140852  -0.14545552  1.0
  As  As5  1  -0.82656616  -0.88859148  -0.85454448  1.0
  As  As6  1  -0.86254455  -0.27789541  -0.11426275  1.0
  As  As7  1  -0.13745545  -0.72210459  -0.88573725  1.0
  As  As8  1  -0.58576780  -0.15681730  -0.81209483  1.0
  As  As9  1  -0.41423220  -0.84318270  -0.18790517  1.0
  As  As10  1  -0.27973688  -0.10796374  -0.58815704  1.0
  As  As11  1  -0.72026312  -0.89203626  -0.41184296  1.0
  As  As12  1  -0.24123465  -0.34947340  -0.87525305  1.0
  As  As13  1  -0.75876535  -0.65052660  -0.12474695  1.0
  As  As14  1  -0.55063961  -0.37246910  -0.70574485  1.0
  As  As15  1  -0.44936039  -0.62753090  -0.29425515  1.0
  H  H16  1  -0.93442700  -1.00026649  -0.19166840  1.0
  H  H17  1  -0.06557300  0.00026649  -0.80833160  1.0
  H  H18  1  -0.09516768  -0.06226552  -0.31917098  1.0
  H  H19  1  -0.90483232  -0.93773448  -0.68082902  1.0
  H  H20  1  -0.92629517  -0.49930635  -0.29760019  1.0
  H  H21  1  -0.07370483  -0.50069365  -0.70239981  1.0
  H  H22  1  -0.09225236  -0.45197297  -0.18785807  1.0
  H  H23  1  -0.90774764  -0.54802703  -0.81214193  1.0
  H  H24  1  -0.65861474  -0.15259529  -0.17146420  1.0
  H  H25  1  -0.34138526  -0.84740471  -0.82853580  1.0
  H  H26  1  -0.64513492  -0.31392900  -0.27973542  1.0
  H  H27  1  -0.35486508  -0.68607100  -0.72026458  1.0
  H  H28  1  -0.34105528  -0.21094024  -0.96331911  1.0
  H  H29  1  -0.65894472  -0.78905976  -0.03668089  1.0
  H  H30  1  -0.48766872  -0.34241022  -0.01383343  1.0
  H  H31  1  -0.51233128  -0.65758978  -0.98616657  1.0
  H  H32  1  -0.50787820  -0.17501291  -0.48890514  1.0
  H  H33  1  -0.49212180  -0.82498709  -0.51109486  1.0
  H  H34  1  -0.32712309  -0.27044763  -0.52001934  1.0
  H  H35  1  -0.67287691  -0.72955237  -0.47998066  1.0
  H  H36  1  -0.78846215  -0.23159626  -0.70033599  1.0
  H  H37  1  -0.21153785  -0.76840374  -0.29966401  1.0
  H  H38  1  -0.76216053  -0.35111177  -0.85928920  1.0
  H  H39  1  -0.23783947  -0.64888823  -0.14071080  1.0
  C  C40  1  -0.01441018  -0.08448542  -0.25650162  1.0
  C  C41  1  -0.98558982  -0.91551458  -0.74349838  1.0
  C  C42  1  -0.01110059  -0.42299413  -0.24213978  1.0
  C  C43  1  -0.98889941  -0.57700587  -0.75786022  1.0
  C  C44  1  -0.73592183  -0.23961734  -0.23210647  1.0
  C  C45  1  -0.26407817  -0.76038266  -0.76789353  1.0
  C  C46  1  -0.41426699  -0.26627689  -0.93076913  1.0
  C  C47  1  -0.58573301  -0.73372311  -0.06923087  1.0
  C  C48  1  -0.41710689  -0.23037871  -0.56141251  1.0
  C  C49  1  -0.58289311  -0.76962129  -0.43858749  1.0
  C  C50  1  -0.69214185  -0.28022379  -0.77076766  1.0
  C  C51  1  -0.30785815  -0.71977621  -0.22923234  1.0
  O  O52  1  -0.01226465  -0.35500554  -0.44576476  1.0
  O  O53  1  -0.98773535  -0.64499446  -0.55423524  1.0
  O  O54  1  -0.27528200  -0.26479359  -0.26324895  1.0
  O  O55  1  -0.72471800  -0.73520641  -0.73675105  1.0
  O  O56  1  -0.01935610  -0.15197656  -0.05200967  1.0
  O  O57  1  -0.98064390  -0.84802344  -0.94799033  1.0
  O  O58  1  -0.44495220  -0.05747629  -0.66434431  1.0
  O  O59  1  -0.55504780  -0.94252371  -0.33565569  1.0
  O  O60  1  -0.15387283  -0.21614254  -0.72317113  1.0
  O  O61  1  -0.84612717  -0.78385746  -0.27682887  1.0
  O  O62  1  -0.38372664  -0.43729159  -0.82606844  1.0
  O  O63  1  -0.61627336  -0.56270841  -0.17393156  1.0
