# generated using pymatgen
data_LiLa2S2O8F3
_symmetry_space_group_name_H-M   'P 1'
_cell_length_a   8.69177842
_cell_length_b   8.69177842
_cell_length_c   8.33844281
_cell_angle_alpha   65.33560886
_cell_angle_beta   114.66439114
_cell_angle_gamma   132.02635991
_symmetry_Int_Tables_number   1
_chemical_formula_structural   LiLa2S2O8F3
_chemical_formula_sum   'Li2 La4 S4 O16 F6'
_cell_volume   416.28303799
_cell_formula_units_Z   2
loop_
 _symmetry_equiv_pos_site_id
 _symmetry_equiv_pos_as_xyz
  1  'x, y, z'
loop_
 _atom_site_type_symbol
 _atom_site_label
 _atom_site_symmetry_multiplicity
 _atom_site_fract_x
 _atom_site_fract_y
 _atom_site_fract_z
 _atom_site_occupancy
  Li  Li0  1  0.58453059  0.58453059  0.75000000  1.0
  Li  Li1  1  0.41546941  0.41546941  0.25000000  1.0
  La  La2  1  1.21490132  -0.02613595  0.96831347  1.0
  La  La3  1  1.02613595  -0.21490132  0.46831347  1.0
  La  La4  1  0.97386405  -0.78509868  0.53168653  1.0
  La  La5  1  1.78509868  0.02613595  0.03168653  1.0
  S  S6  1  1.58607877  0.24295769  0.65138964  1.0
  S  S7  1  0.75704231  -0.58607877  0.15138964  1.0
  S  S8  1  1.24295769  -0.41392123  0.84861036  1.0
  S  S9  1  1.41392123  -0.24295769  0.34861036  1.0
  O  O10  1  1.47684289  -0.28998080  0.87894903  1.0
  O  O11  1  1.28998080  -0.47684289  0.37894903  1.0
  O  O12  1  0.71001920  -0.52315711  0.62105097  1.0
  O  O13  1  1.52315711  0.28998080  0.12105097  1.0
  O  O14  1  1.60529354  -0.16291178  0.49663285  1.0
  O  O15  1  1.16291178  -0.60529354  0.99663285  1.0
  O  O16  1  0.83708822  -0.39470646  0.00336715  1.0
  O  O17  1  1.39470646  0.16291178  0.50336715  1.0
  O  O18  1  1.71610178  0.18112328  0.66515378  1.0
  O  O19  1  0.81887672  -0.71610178  0.16515378  1.0
  O  O20  1  1.18112328  -0.28389822  0.83484622  1.0
  O  O21  1  1.28389822  -0.18112328  0.33484622  1.0
  O  O22  1  1.52803649  0.14403760  0.83372226  1.0
  O  O23  1  0.85596240  -0.52803649  0.33372226  1.0
  O  O24  1  1.14403760  -0.47196351  0.66627774  1.0
  O  O25  1  1.47196351  -0.14403760  0.16627774  1.0
  F  F26  1  1.91731193  0.01496399  0.83413439  1.0
  F  F27  1  0.98503601  -0.91731193  0.33413439  1.0
  F  F28  1  1.01496399  -0.08268807  0.66586561  1.0
  F  F29  1  1.08268807  -0.01496399  0.16586561  1.0
  F  F30  1  0.30807610  0.30807610  0.75000000  1.0
  F  F31  1  0.69192390  0.69192390  0.25000000  1.0
