# generated using pymatgen
data_V5O9
_symmetry_space_group_name_H-M   'P 1'
_cell_length_a   5.50682505
_cell_length_b   8.39643156
_cell_length_c   7.05190612
_cell_angle_alpha   69.27806186
_cell_angle_beta   70.69311387
_cell_angle_gamma   75.23126379
_symmetry_Int_Tables_number   1
_chemical_formula_structural   V5O9
_chemical_formula_sum   'V10 O18'
_cell_volume   284.28356564
_cell_formula_units_Z   2
loop_
 _symmetry_equiv_pos_site_id
 _symmetry_equiv_pos_as_xyz
  1  'x, y, z'
loop_
 _atom_site_type_symbol
 _atom_site_label
 _atom_site_symmetry_multiplicity
 _atom_site_fract_x
 _atom_site_fract_y
 _atom_site_fract_z
 _atom_site_occupancy
  V  V0  1  -0.00000000  -0.00000000  -0.50000000  1.0
  V  V1  1  -0.72002373  -0.42438257  -0.82522556  1.0
  V  V2  1  -0.27997627  -0.57561743  -0.17477444  1.0
  V  V3  1  0.00000000  0.00000000  0.00000000  1.0
  V  V4  1  -0.65617884  -0.79414533  -0.33926182  1.0
  V  V5  1  -0.34382116  -0.20585467  -0.66073818  1.0
  V  V6  1  -0.65750231  -0.79679830  -0.83361583  1.0
  V  V7  1  -0.34249769  -0.20320170  -0.16638417  1.0
  V  V8  1  -0.28351327  -0.58069680  -0.67196942  1.0
  V  V9  1  -0.71648673  -0.41930320  -0.32803058  1.0
  O  O10  1  -0.97304346  -0.24060744  -0.81418932  1.0
  O  O11  1  -0.02695654  -0.75939256  -0.18581068  1.0
  O  O12  1  -0.93872560  -0.57899765  -0.79397901  1.0
  O  O13  1  -0.06127440  -0.42100235  -0.20602099  1.0
  O  O14  1  -0.90930989  -0.92251578  -0.80667470  1.0
  O  O15  1  -0.09069011  -0.07748422  -0.19332530  1.0
  O  O16  1  -0.74225448  -0.86078430  -0.53475463  1.0
  O  O17  1  -0.25774552  -0.13921570  -0.46524537  1.0
  O  O18  1  -0.68898483  -0.54005521  -0.52977651  1.0
  O  O19  1  -0.31101517  -0.45994479  -0.47022349  1.0
  O  O20  1  -0.41499878  -0.63335180  -0.86722812  1.0
  O  O21  1  -0.58500122  -0.36664820  -0.13277188  1.0
  O  O22  1  -0.41084649  -0.32115713  -0.85183652  1.0
  O  O23  1  -0.58915351  -0.67884287  -0.14816348  1.0
  O  O24  1  -0.37397200  -0.97801716  -0.84732314  1.0
  O  O25  1  -0.62602800  -0.02198284  -0.15267686  1.0
  O  O26  1  -0.28558997  -0.79986134  -0.49249898  1.0
  O  O27  1  -0.71441003  -0.20013866  -0.50750102  1.0
