# generated using pymatgen
data_Ba(AlSi)2
_symmetry_space_group_name_H-M   'P 1'
_cell_length_a   5.82587114
_cell_length_b   5.82587114
_cell_length_c   10.22864231
_cell_angle_alpha   90.00000000
_cell_angle_beta   90.00000000
_cell_angle_gamma   136.08459356
_symmetry_Int_Tables_number   1
_chemical_formula_structural   Ba(AlSi)2
_chemical_formula_sum   'Ba2 Al4 Si4'
_cell_volume   240.79421102
_cell_formula_units_Z   2
loop_
 _symmetry_equiv_pos_site_id
 _symmetry_equiv_pos_as_xyz
  1  'x, y, z'
loop_
 _atom_site_type_symbol
 _atom_site_label
 _atom_site_symmetry_multiplicity
 _atom_site_fract_x
 _atom_site_fract_y
 _atom_site_fract_z
 _atom_site_occupancy
  Ba  Ba0  1  0.41309022  0.58690978  0.75000000  1.0
  Ba  Ba1  1  -0.41309022  0.41309022  0.25000000  1.0
  Al  Al2  1  0.12100495  0.87899505  0.96533454  1.0
  Al  Al3  1  0.12100495  0.87899505  0.53466546  1.0
  Al  Al4  1  -0.12100495  0.12100495  0.46533454  1.0
  Al  Al5  1  -0.12100495  0.12100495  0.03466546  1.0
  Si  Si6  1  0.30021512  0.69978488  0.36787997  1.0
  Si  Si7  1  0.30021512  0.69978488  0.13212003  1.0
  Si  Si8  1  -0.30021512  0.30021512  0.86787997  1.0
  Si  Si9  1  -0.30021512  0.30021512  0.63212003  1.0
