# generated using pymatgen
data_Mn2Pd(NO2)4
_symmetry_space_group_name_H-M   'P 1'
_cell_length_a   5.66100758
_cell_length_b   7.06828088
_cell_length_c   7.67595389
_cell_angle_alpha   70.85928007
_cell_angle_beta   65.76692349
_cell_angle_gamma   69.44772651
_symmetry_Int_Tables_number   1
_chemical_formula_structural   Mn2Pd(NO2)4
_chemical_formula_sum   'Mn2 Pd1 N4 O8'
_cell_volume   256.10390080
_cell_formula_units_Z   1
loop_
 _symmetry_equiv_pos_site_id
 _symmetry_equiv_pos_as_xyz
  1  'x, y, z'
loop_
 _atom_site_type_symbol
 _atom_site_label
 _atom_site_symmetry_multiplicity
 _atom_site_fract_x
 _atom_site_fract_y
 _atom_site_fract_z
 _atom_site_occupancy
  N  N0  1  -0.40951269  -0.04861287  -0.42993957  1.0
  N  N1  1  -0.35691366  -0.39792233  -0.10523143  1.0
  N  N2  1  -0.66042044  -0.25728697  -0.54652423  1.0
  N  N3  1  -0.60810335  -0.60667518  -0.22153603  1.0
  Mn  Mn4  1  0.06001393  -0.02909851  -0.01973359  1.0
  Mn  Mn5  1  -0.07732519  -0.62639888  -0.63171772  1.0
  O  O6  1  0.12661541  -0.20612124  -0.15013803  1.0
  O  O7  1  -0.29428341  -0.55662014  -0.73697051  1.0
  O  O8  1  -0.23104048  -0.02099823  -0.86418766  1.0
  O  O9  1  -0.72284100  -0.09906179  0.08538896  1.0
  O  O10  1  -1.09135080  -0.84839574  -0.48825075  1.0
  O  O11  1  0.07402223  -0.80706448  -0.16312813  1.0
  O  O12  1  -1.14411489  -0.44925369  -0.50138426  1.0
  O  O13  1  -0.78619477  -0.63455180  -0.78715556  1.0
  Pd  Pd14  1  -0.50875090  -0.32763815  -0.32579149  1.0
