# generated using pymatgen
data_Y(BIr)4
_symmetry_space_group_name_H-M   'P 1'
_cell_length_a   7.62450489
_cell_length_b   7.62450489
_cell_length_c   3.98160146
_cell_angle_alpha   90.00000000
_cell_angle_beta   90.00000000
_cell_angle_gamma   90.00000000
_symmetry_Int_Tables_number   1
_chemical_formula_structural   Y(BIr)4
_chemical_formula_sum   'Y2 B8 Ir8'
_cell_volume   231.46273597
_cell_formula_units_Z   2
loop_
 _symmetry_equiv_pos_site_id
 _symmetry_equiv_pos_as_xyz
  1  'x, y, z'
loop_
 _atom_site_type_symbol
 _atom_site_label
 _atom_site_symmetry_multiplicity
 _atom_site_fract_x
 _atom_site_fract_y
 _atom_site_fract_z
 _atom_site_occupancy
  Y  Y0  1  0.00000000  0.00000000  0.00000000  1.0
  Y  Y1  1  0.50000000  0.50000000  0.50000000  1.0
  B  B2  1  0.65764556  0.77782413  0.11143478  1.0
  B  B3  1  0.34235444  0.22217587  0.11143478  1.0
  B  B4  1  0.27782413  0.84235444  0.61143478  1.0
  B  B5  1  0.72217587  0.15764556  0.61143478  1.0
  B  B6  1  0.84235444  0.72217587  0.38856522  1.0
  B  B7  1  0.15764556  0.27782413  0.38856522  1.0
  B  B8  1  0.22217587  0.65764556  0.88856522  1.0
  B  B9  1  0.77782413  0.34235444  0.88856522  1.0
  Ir  Ir10  1  0.16008837  0.39053393  0.88757659  1.0
  Ir  Ir11  1  0.83991163  0.60946607  0.88757659  1.0
  Ir  Ir12  1  0.89053393  0.33991163  0.38757659  1.0
  Ir  Ir13  1  0.10946607  0.66008837  0.38757659  1.0
  Ir  Ir14  1  0.33991163  0.10946607  0.61242341  1.0
  Ir  Ir15  1  0.66008837  0.89053393  0.61242341  1.0
  Ir  Ir16  1  0.60946607  0.16008837  0.11242341  1.0
  Ir  Ir17  1  0.39053393  0.83991163  0.11242341  1.0
