# generated using pymatgen
data_K2PdO4
_symmetry_space_group_name_H-M   'P 1'
_cell_length_a   5.91252238
_cell_length_b   6.70676797
_cell_length_c   7.10390973
_cell_angle_alpha   90.00000000
_cell_angle_beta   111.97792366
_cell_angle_gamma   90.00000000
_symmetry_Int_Tables_number   1
_chemical_formula_structural   K2PdO4
_chemical_formula_sum   'K4 Pd2 O8'
_cell_volume   261.22632729
_cell_formula_units_Z   2
loop_
 _symmetry_equiv_pos_site_id
 _symmetry_equiv_pos_as_xyz
  1  'x, y, z'
loop_
 _atom_site_type_symbol
 _atom_site_label
 _atom_site_symmetry_multiplicity
 _atom_site_fract_x
 _atom_site_fract_y
 _atom_site_fract_z
 _atom_site_occupancy
  K  K0  1  0.71389631  0.57733789  0.55636955  1.0
  K  K1  1  0.28610369  0.07733789  0.44363045  1.0
  K  K2  1  0.37260856  0.63583966  0.89950995  1.0
  K  K3  1  0.62739144  0.13583966  0.10049005  1.0
  Pd  Pd4  1  0.96551031  0.07294736  0.78752131  1.0
  Pd  Pd5  1  0.03448969  0.57294736  0.21247869  1.0
  O  O6  1  0.82344982  0.47487920  0.96366965  1.0
  O  O7  1  0.17655018  -0.02512080  0.03633035  1.0
  O  O8  1  0.81447545  0.18226875  0.52036530  1.0
  O  O9  1  0.18552455  0.68226875  0.47963470  1.0
  O  O10  1  0.79032479  0.74584179  0.23705710  1.0
  O  O11  1  0.20967521  0.24584179  0.76294290  1.0
  O  O12  1  0.68579983  0.93088534  0.76397240  1.0
  O  O13  1  0.31420017  0.43088534  0.23602760  1.0
