# generated using pymatgen
data_RbC(NO2)3
_symmetry_space_group_name_H-M   'P 1'
_cell_length_a   7.98522382
_cell_length_b   8.60976542
_cell_length_c   11.55680397
_cell_angle_alpha   90.00000000
_cell_angle_beta   124.72276436
_cell_angle_gamma   90.00000000
_symmetry_Int_Tables_number   1
_chemical_formula_structural   RbC(NO2)3
_chemical_formula_sum   'Rb4 C4 N12 O24'
_cell_volume   653.04715476
_cell_formula_units_Z   4
loop_
 _symmetry_equiv_pos_site_id
 _symmetry_equiv_pos_as_xyz
  1  'x, y, z'
loop_
 _atom_site_type_symbol
 _atom_site_label
 _atom_site_symmetry_multiplicity
 _atom_site_fract_x
 _atom_site_fract_y
 _atom_site_fract_z
 _atom_site_occupancy
  Rb  Rb0  1  0.38545019  0.10000927  0.13420892  1.0
  Rb  Rb1  1  0.38545019  0.39999073  0.63420892  1.0
  Rb  Rb2  1  0.61454981  0.60000927  0.36579108  1.0
  Rb  Rb3  1  0.61454981  0.89999073  0.86579108  1.0
  C  C4  1  0.91177549  0.37563649  0.12405589  1.0
  C  C5  1  0.91177549  0.12436351  0.62405589  1.0
  C  C6  1  0.08822451  0.87563649  0.37594411  1.0
  C  C7  1  0.08822451  0.62436351  0.87594411  1.0
  N  N8  1  0.88350735  0.92348734  0.30046295  1.0
  N  N9  1  0.88350735  0.57651266  0.80046295  1.0
  N  N10  1  0.11649265  0.42348734  0.19953705  1.0
  N  N11  1  0.11649265  0.07651266  0.69953705  1.0
  N  N12  1  0.82975129  0.26720875  0.01402593  1.0
  N  N13  1  0.82975129  0.23279125  0.51402593  1.0
  N  N14  1  0.17024871  0.76720875  0.48597407  1.0
  N  N15  1  0.17024871  0.73279125  -0.01402593  1.0
  N  N16  1  0.78331530  0.44437415  0.15970664  1.0
  N  N17  1  0.78331530  0.05562585  0.65970664  1.0
  N  N18  1  0.21668470  0.94437415  0.34029336  1.0
  N  N19  1  0.21668470  0.55562585  0.84029336  1.0
  O  O20  1  0.94537566  0.31310831  0.49833974  1.0
  O  O21  1  0.94537566  0.18689169  -0.00166026  1.0
  O  O22  1  0.05462434  0.81310831  0.00166026  1.0
  O  O23  1  0.05462434  0.68689169  0.50166026  1.0
  O  O24  1  0.80453478  -0.02178692  0.17983826  1.0
  O  O25  1  0.80453478  0.52178692  0.67983826  1.0
  O  O26  1  0.19546522  0.47821308  0.32016174  1.0
  O  O27  1  0.19546522  1.02178692  0.82016174  1.0
  O  O28  1  0.78718366  0.91049205  0.35527434  1.0
  O  O29  1  0.78718366  0.58950795  0.85527434  1.0
  O  O30  1  0.21281634  0.41049205  0.14472566  1.0
  O  O31  1  0.21281634  0.08950795  0.64472566  1.0
  O  O32  1  0.63975512  0.24560489  0.43481212  1.0
  O  O33  1  0.63975512  0.25439511  -0.06518788  1.0
  O  O34  1  0.36024488  0.74560489  1.06518788  1.0
  O  O35  1  0.36024488  0.75439511  0.56518788  1.0
  O  O36  1  0.65155914  0.36332134  0.15544615  1.0
  O  O37  1  0.65155914  0.13667866  0.65544615  1.0
  O  O38  1  0.34844086  0.86332134  0.34455385  1.0
  O  O39  1  0.34844086  0.63667866  0.84455385  1.0
  O  O40  1  0.18887281  0.08341870  0.30631589  1.0
  O  O41  1  0.18887281  0.41658130  0.80631589  1.0
  O  O42  1  0.81112719  0.58341870  0.19368411  1.0
  O  O43  1  0.81112719  0.91658130  0.69368411  1.0
