# generated using pymatgen
data_LiAlSi2H2O7
_symmetry_space_group_name_H-M   'P 1'
_cell_length_a   4.99030557
_cell_length_b   8.70050369
_cell_length_c   7.70282657
_cell_angle_alpha   114.45334985
_cell_angle_beta   90.11938943
_cell_angle_gamma   90.00965188
_symmetry_Int_Tables_number   1
_chemical_formula_structural   LiAlSi2H2O7
_chemical_formula_sum   'Li2 Al2 Si4 H4 O14'
_cell_volume   304.44182300
_cell_formula_units_Z   2
loop_
 _symmetry_equiv_pos_site_id
 _symmetry_equiv_pos_as_xyz
  1  'x, y, z'
loop_
 _atom_site_type_symbol
 _atom_site_label
 _atom_site_symmetry_multiplicity
 _atom_site_fract_x
 _atom_site_fract_y
 _atom_site_fract_z
 _atom_site_occupancy
  Li  Li0  1  -0.36527960  -0.68875715  -0.84965845  1.0
  Li  Li1  1  -0.86729640  -0.30249977  -0.12784109  1.0
  Al  Al2  1  -0.87488110  -0.62222549  -0.06394370  1.0
  Al  Al3  1  -0.36464284  -0.10158247  -0.09458781  1.0
  Si  Si4  1  -0.86485335  -0.89512401  -0.90390558  1.0
  Si  Si5  1  -0.80343469  -0.89826554  -0.49805399  1.0
  Si  Si6  1  -0.30163644  -0.10941931  -0.51500008  1.0
  Si  Si7  1  -0.37530226  -0.38160847  -0.93823609  1.0
  H  H8  1  -0.31166776  -0.67847357  -0.51670726  1.0
  H  H9  1  -0.16787086  -0.51834515  -0.50958985  1.0
  H  H10  1  -0.81467961  -0.31438600  -0.45917013  1.0
  H  H11  1  -0.66566940  -0.47301641  -0.46545511  1.0
  O  O12  1  -0.73693400  -0.73814971  -0.94199666  1.0
  O  O13  1  -0.18458002  -0.91415438  -0.95702256  1.0
  O  O14  1  -0.82870375  -0.84246085  -0.67538258  1.0
  O  O15  1  -0.48577296  -0.94360990  -0.48597068  1.0
  O  O16  1  -0.89993721  -0.74291048  -0.30826802  1.0
  O  O17  1  -0.19607701  -0.54804444  -0.96732622  1.0
  O  O18  1  -0.24085969  -0.27112859  -0.04429479  1.0
  O  O19  1  -0.70784456  -0.07217692  -0.02910786  1.0
  O  O20  1  -0.32771964  -0.16028694  -0.33785367  1.0
  O  O21  1  -0.98637207  -0.06794592  -0.54195782  1.0
  O  O22  1  -0.40178813  -0.26848024  -0.70751922  1.0
  O  O23  1  -0.67653372  -0.44157280  -0.02380249  1.0
  O  O24  1  -0.32993646  -0.58843186  -0.56040083  1.0
  O  O25  1  -0.82995645  -0.40513362  -0.41652746  1.0
