# generated using pymatgen
data_Na2Si3O7
_symmetry_space_group_name_H-M   'P 1'
_cell_length_a   7.31026477
_cell_length_b   10.77988918
_cell_length_c   9.94995472
_cell_angle_alpha   90.00000000
_cell_angle_beta   120.25990084
_cell_angle_gamma   90.00000000
_symmetry_Int_Tables_number   1
_chemical_formula_structural   Na2Si3O7
_chemical_formula_sum   'Na8 Si12 O28'
_cell_volume   677.26055716
_cell_formula_units_Z   4
loop_
 _symmetry_equiv_pos_site_id
 _symmetry_equiv_pos_as_xyz
  1  'x, y, z'
loop_
 _atom_site_type_symbol
 _atom_site_label
 _atom_site_symmetry_multiplicity
 _atom_site_fract_x
 _atom_site_fract_y
 _atom_site_fract_z
 _atom_site_occupancy
  Na  Na0  1  0.78578885  0.69611254  0.37625208  1.0
  Na  Na1  1  0.78578885  0.80388746  0.87625208  1.0
  Na  Na2  1  0.21421115  0.19611254  0.12374792  1.0
  Na  Na3  1  0.21421115  0.30388746  0.62374792  1.0
  Na  Na4  1  0.74725648  0.05934897  0.43054401  1.0
  Na  Na5  1  0.74725648  0.44065103  0.93054401  1.0
  Na  Na6  1  0.25274352  0.55934897  0.06945599  1.0
  Na  Na7  1  0.25274352  0.94065103  0.56945599  1.0
  Si  Si8  1  0.83390199  0.93087538  0.18360861  1.0
  Si  Si9  1  0.83390199  0.56912462  0.68360861  1.0
  Si  Si10  1  0.16609801  0.43087538  0.31639139  1.0
  Si  Si11  1  0.16609801  0.06912462  0.81639139  1.0
  Si  Si12  1  0.72423248  0.39270670  0.27230204  1.0
  Si  Si13  1  0.72423248  0.10729330  0.77230204  1.0
  Si  Si14  1  0.27576752  0.89270670  0.22769796  1.0
  Si  Si15  1  0.27576752  0.60729330  0.72769796  1.0
  Si  Si16  1  0.62203653  0.18225988  0.02362228  1.0
  Si  Si17  1  0.62203653  0.31774012  0.52362228  1.0
  Si  Si18  1  0.37796347  0.68225988  0.47637772  1.0
  Si  Si19  1  0.37796347  0.81774012  0.97637772  1.0
  O  O20  1  0.98774993  0.39622803  0.36676885  1.0
  O  O21  1  0.98774993  0.10377197  0.86676885  1.0
  O  O22  1  0.01225007  0.89622803  0.13323115  1.0
  O  O23  1  0.01225007  0.60377197  0.63323115  1.0
  O  O24  1  0.89540281  0.89471440  0.35586879  1.0
  O  O25  1  0.89540281  0.60528560  0.85586879  1.0
  O  O26  1  0.10459719  0.39471440  0.14413121  1.0
  O  O27  1  0.10459719  0.10528560  0.64413121  1.0
  O  O28  1  0.78381318  0.08206587  0.15111789  1.0
  O  O29  1  0.78381318  0.41793413  0.65111789  1.0
  O  O30  1  0.21618682  0.58206587  0.34888211  1.0
  O  O31  1  0.21618682  0.91793413  0.84888211  1.0
  O  O32  1  0.67242011  0.29568034  0.38176049  1.0
  O  O33  1  0.67242011  0.20431966  0.88176049  1.0
  O  O34  1  0.32757989  0.79568034  0.11823951  1.0
  O  O35  1  0.32757989  0.70431966  0.61823951  1.0
  O  O36  1  0.65282457  0.31607307  0.10802712  1.0
  O  O37  1  0.65282457  0.18392693  0.60802712  1.0
  O  O38  1  0.34717543  0.81607307  0.39197288  1.0
  O  O39  1  0.34717543  0.68392693  0.89197288  1.0
  O  O40  1  0.38657222  0.02331459  0.25881171  1.0
  O  O41  1  0.38657222  0.47668541  0.75881171  1.0
  O  O42  1  0.61342778  0.52331459  0.24118829  1.0
  O  O43  1  0.61342778  0.97668541  0.74118829  1.0
  O  O44  1  0.37486578  0.35586133  0.45475202  1.0
  O  O45  1  0.37486578  0.14413867  0.95475202  1.0
  O  O46  1  0.62513422  0.85586133  0.04524798  1.0
  O  O47  1  0.62513422  0.64413867  0.54524798  1.0
