# generated using pymatgen
data_Bi5IO7
_symmetry_space_group_name_H-M   'P 1'
_cell_length_a   9.81594081
_cell_length_b   9.81594081
_cell_length_c   13.27189490
_cell_angle_alpha   76.34813708
_cell_angle_beta   103.65186292
_cell_angle_gamma   155.09534873
_symmetry_Int_Tables_number   1
_chemical_formula_structural   Bi5IO7
_chemical_formula_sum   'Bi10 I2 O14'
_cell_volume   522.54028378
_cell_formula_units_Z   2
loop_
 _symmetry_equiv_pos_site_id
 _symmetry_equiv_pos_as_xyz
  1  'x, y, z'
loop_
 _atom_site_type_symbol
 _atom_site_label
 _atom_site_symmetry_multiplicity
 _atom_site_fract_x
 _atom_site_fract_y
 _atom_site_fract_z
 _atom_site_occupancy
  Bi  Bi0  1  0.62334431  0.37665569  0.59542279  1.0
  Bi  Bi1  1  0.37665569  -0.37665569  0.40457721  1.0
  Bi  Bi2  1  0.22868806  -0.22868806  0.86708894  1.0
  Bi  Bi3  1  0.77131194  0.22868806  0.13291106  1.0
  Bi  Bi4  1  0.96254718  0.03745282  0.63019117  1.0
  Bi  Bi5  1  0.03745282  -0.03745282  0.36980883  1.0
  Bi  Bi6  1  0.88441086  0.11558914  0.87210712  1.0
  Bi  Bi7  1  0.11558914  -0.11558914  0.12789288  1.0
  Bi  Bi8  1  0.70743906  0.29256094  0.36985372  1.0
  Bi  Bi9  1  0.29256094  -0.29256094  0.63014628  1.0
  I  I10  1  0.56294633  0.43705367  0.86461704  1.0
  I  I11  1  0.43705367  -0.43705367  0.13538296  1.0
  O  O12  1  0.91937866  0.08062134  0.46458884  1.0
  O  O13  1  0.08062134  -0.08062134  0.53541116  1.0
  O  O14  1  0.86677623  0.13322377  0.70192297  1.0
  O  O15  1  0.13322377  -0.13322377  0.29807703  1.0
  O  O16  1  0.72599655  0.27400345  0.55916690  1.0
  O  O17  1  0.27400345  -0.27400345  0.44083310  1.0
  O  O18  1  0.80429747  0.19570253  0.29640134  1.0
  O  O19  1  0.19570253  -0.19570253  0.70359866  1.0
  O  O20  1  0.42189765  -0.42189765  0.58257897  1.0
  O  O21  1  0.57810235  0.42189765  0.41742103  1.0
  O  O22  1  0.33945740  -0.33945740  0.83519019  1.0
  O  O23  1  0.66054260  0.33945740  0.16480981  1.0
  O  O24  1  0.77663048  0.22336952  0.89709106  1.0
  O  O25  1  0.22336952  -0.22336952  0.10290894  1.0
