# generated using pymatgen
data_Y12Co6Pb
_symmetry_space_group_name_H-M   'P 1'
_cell_length_a   8.40542638
_cell_length_b   8.40542638
_cell_length_c   8.40542638
_cell_angle_alpha   109.47122063
_cell_angle_beta   109.47122063
_cell_angle_gamma   109.47122063
_symmetry_Int_Tables_number   1
_chemical_formula_structural   Y12Co6Pb
_chemical_formula_sum   'Y12 Co6 Pb1'
_cell_volume   457.14855873
_cell_formula_units_Z   1
loop_
 _symmetry_equiv_pos_site_id
 _symmetry_equiv_pos_as_xyz
  1  'x, y, z'
loop_
 _atom_site_type_symbol
 _atom_site_label
 _atom_site_symmetry_multiplicity
 _atom_site_fract_x
 _atom_site_fract_y
 _atom_site_fract_z
 _atom_site_occupancy
  Y  Y0  1  0.80471148  1.30408538  1.10879686  1.0
  Y  Y1  1  0.80471148  0.69591462  0.50062610  1.0
  Y  Y2  1  0.19528852  0.30408538  0.49937390  1.0
  Y  Y3  1  0.19528852  0.69591462  0.89120314  1.0
  Y  Y4  1  0.50062610  0.80471148  0.69591462  1.0
  Y  Y5  1  1.10879686  0.80471148  1.30408538  1.0
  Y  Y6  1  0.69591462  0.89120314  0.19528852  1.0
  Y  Y7  1  0.69591462  0.50062610  0.80471148  1.0
  Y  Y8  1  0.89120314  0.19528852  0.69591462  1.0
  Y  Y9  1  0.49937390  0.19528852  0.30408538  1.0
  Y  Y10  1  0.30408538  0.49937390  0.19528852  1.0
  Y  Y11  1  1.30408538  1.10879686  0.80471148  1.0
  Co  Co12  1  0.88811462  0.38811462  0.50000000  1.0
  Co  Co13  1  0.50000000  0.11188538  0.61188538  1.0
  Co  Co14  1  0.50000000  0.88811462  0.38811462  1.0
  Co  Co15  1  0.38811462  0.50000000  0.88811462  1.0
  Co  Co16  1  0.61188538  0.50000000  0.11188538  1.0
  Co  Co17  1  0.11188538  0.61188538  0.50000000  1.0
  Pb  Pb18  1  0.00000000  0.00000000  0.00000000  1.0
