# generated using pymatgen
data_Al2Fe3Si4
_symmetry_space_group_name_H-M   'P 1'
_cell_length_a   6.37783998
_cell_length_b   6.37783998
_cell_length_c   10.07964062
_cell_angle_alpha   90.00000000
_cell_angle_beta   90.00000000
_cell_angle_gamma   146.69965926
_symmetry_Int_Tables_number   1
_chemical_formula_structural   Al2Fe3Si4
_chemical_formula_sum   'Al4 Fe6 Si8'
_cell_volume   225.10576180
_cell_formula_units_Z   2
loop_
 _symmetry_equiv_pos_site_id
 _symmetry_equiv_pos_as_xyz
  1  'x, y, z'
loop_
 _atom_site_type_symbol
 _atom_site_label
 _atom_site_symmetry_multiplicity
 _atom_site_fract_x
 _atom_site_fract_y
 _atom_site_fract_z
 _atom_site_occupancy
  Al  Al0  1  0.05741095  0.94258905  0.39073126  1.0
  Al  Al1  1  0.05741095  0.94258905  0.10926874  1.0
  Al  Al2  1  -0.05741095  0.05741095  0.89073126  1.0
  Al  Al3  1  -0.05741095  0.05741095  0.60926874  1.0
  Fe  Fe4  1  0.14983561  0.85016439  0.87445376  1.0
  Fe  Fe5  1  0.14983561  0.85016439  0.62554624  1.0
  Fe  Fe6  1  -0.14983561  0.14983561  0.37445376  1.0
  Fe  Fe7  1  -0.14983561  0.14983561  0.12554624  1.0
  Fe  Fe8  1  0.35279110  0.64720890  0.75000000  1.0
  Fe  Fe9  1  -0.35279110  0.35279110  0.25000000  1.0
  Si  Si10  1  0.31958130  0.68041870  0.98663682  1.0
  Si  Si11  1  0.31958130  0.68041870  0.51336318  1.0
  Si  Si12  1  -0.31958130  0.31958130  0.48663682  1.0
  Si  Si13  1  -0.31958130  0.31958130  0.01336318  1.0
  Si  Si14  1  -0.45426329  0.45426329  0.75000000  1.0
  Si  Si15  1  0.45426329  0.54573671  0.25000000  1.0
  Si  Si16  1  -0.25895729  0.25895729  0.75000000  1.0
  Si  Si17  1  0.25895729  0.74104271  0.25000000  1.0
