# generated using pymatgen
data_Sr2Mg(BO3)2
_symmetry_space_group_name_H-M   'P 1'
_cell_length_a   5.24136250
_cell_length_b   5.24136250
_cell_length_c   6.19405905
_cell_angle_alpha   65.30745008
_cell_angle_beta   114.69254992
_cell_angle_gamma   120.73383563
_symmetry_Int_Tables_number   1
_chemical_formula_structural   Sr2Mg(BO3)2
_chemical_formula_sum   'Sr2 Mg1 B2 O6'
_cell_volume   128.26344898
_cell_formula_units_Z   1
loop_
 _symmetry_equiv_pos_site_id
 _symmetry_equiv_pos_as_xyz
  1  'x, y, z'
loop_
 _atom_site_type_symbol
 _atom_site_label
 _atom_site_symmetry_multiplicity
 _atom_site_fract_x
 _atom_site_fract_y
 _atom_site_fract_z
 _atom_site_occupancy
  Sr  Sr0  1  0.79082357  0.20917643  0.31450816  1.0
  Sr  Sr1  1  0.20917643  -0.20917643  0.68549184  1.0
  Mg  Mg2  1  0.00000000  0.00000000  0.00000000  1.0
  B  B3  1  0.56207533  0.43792467  0.76464248  1.0
  B  B4  1  0.43792467  -0.43792467  0.23535752  1.0
  O  O5  1  0.70634536  -0.24405714  0.73158998  1.0
  O  O6  1  1.24405714  0.29365464  0.73158998  1.0
  O  O7  1  0.75594286  0.70634536  0.26841002  1.0
  O  O8  1  0.29365464  0.24405714  0.26841002  1.0
  O  O9  1  0.73115600  0.26884400  0.83922524  1.0
  O  O10  1  0.26884400  -0.26884400  0.16077476  1.0
