# generated using pymatgen
data_Cd3TeO6
_symmetry_space_group_name_H-M   'P 1'
_cell_length_a   5.62486201
_cell_length_b   5.74898536
_cell_length_c   10.01635208
_cell_angle_alpha   90.00000000
_cell_angle_beta   124.25238134
_cell_angle_gamma   90.00000000
_symmetry_Int_Tables_number   1
_chemical_formula_structural   Cd3TeO6
_chemical_formula_sum   'Cd6 Te2 O12'
_cell_volume   267.72589699
_cell_formula_units_Z   2
loop_
 _symmetry_equiv_pos_site_id
 _symmetry_equiv_pos_as_xyz
  1  'x, y, z'
loop_
 _atom_site_type_symbol
 _atom_site_label
 _atom_site_symmetry_multiplicity
 _atom_site_fract_x
 _atom_site_fract_y
 _atom_site_fract_z
 _atom_site_occupancy
  Cd  Cd0  1  0.72821491  0.04368253  0.23888118  1.0
  Cd  Cd1  1  0.72821491  0.45631747  0.73888118  1.0
  Cd  Cd2  1  0.27178509  0.54368253  0.26111882  1.0
  Cd  Cd3  1  0.27178509  0.95631747  0.76111882  1.0
  Cd  Cd4  1  0.50000000  0.50000000  -0.00000000  1.0
  Cd  Cd5  1  0.50000000  -0.00000000  0.50000000  1.0
  Te  Te6  1  0.00000000  0.50000000  0.50000000  1.0
  Te  Te7  1  0.00000000  0.00000000  0.00000000  1.0
  O  O8  1  0.65355420  0.32249374  0.45012073  1.0
  O  O9  1  0.65355420  0.17750626  0.95012073  1.0
  O  O10  1  0.34644580  0.82249374  0.04987927  1.0
  O  O11  1  0.34644580  0.67750626  0.54987927  1.0
  O  O12  1  0.89857917  0.41891931  0.27654667  1.0
  O  O13  1  0.89857917  0.08108069  0.77654667  1.0
  O  O14  1  0.10142083  0.91891931  0.22345333  1.0
  O  O15  1  0.10142083  0.58108069  0.72345333  1.0
  O  O16  1  0.74476417  0.78289551  0.41424235  1.0
  O  O17  1  0.74476417  0.71710449  0.91424235  1.0
  O  O18  1  0.25523583  0.28289551  0.08575765  1.0
  O  O19  1  0.25523583  0.21710449  0.58575765  1.0
