# generated using pymatgen
data_Rb6O
_symmetry_space_group_name_H-M   'P 1'
_cell_length_a   8.45071924
_cell_length_b   8.45071924
_cell_length_c   30.62992801
_cell_angle_alpha   90.00000000
_cell_angle_beta   90.00000000
_cell_angle_gamma   120.00000000
_symmetry_Int_Tables_number   1
_chemical_formula_structural   Rb6O
_chemical_formula_sum   'Rb24 O4'
_cell_volume   1894.36627842
_cell_formula_units_Z   4
loop_
 _symmetry_equiv_pos_site_id
 _symmetry_equiv_pos_as_xyz
  1  'x, y, z'
loop_
 _atom_site_type_symbol
 _atom_site_label
 _atom_site_symmetry_multiplicity
 _atom_site_fract_x
 _atom_site_fract_y
 _atom_site_fract_z
 _atom_site_occupancy
  Rb  Rb0  1  0.06834945  0.68175748  0.36130004  1.0
  Rb  Rb1  1  0.06834945  0.68175748  0.13869996  1.0
  Rb  Rb2  1  0.68175748  0.61340803  0.86130004  1.0
  Rb  Rb3  1  0.68175748  0.61340803  0.63869996  1.0
  Rb  Rb4  1  0.61340803  0.93165055  0.36130004  1.0
  Rb  Rb5  1  0.61340803  0.93165055  0.13869996  1.0
  Rb  Rb6  1  0.31824252  0.38659197  0.36130004  1.0
  Rb  Rb7  1  0.31824252  0.38659197  0.13869996  1.0
  Rb  Rb8  1  0.93165055  0.31824252  0.86130004  1.0
  Rb  Rb9  1  0.93165055  0.31824252  0.63869996  1.0
  Rb  Rb10  1  0.38659197  0.06834945  0.86130004  1.0
  Rb  Rb11  1  0.38659197  0.06834945  0.63869996  1.0
  Rb  Rb12  1  0.34504181  0.91952957  0.25000000  1.0
  Rb  Rb13  1  0.91952957  0.57448776  0.75000000  1.0
  Rb  Rb14  1  0.57448776  0.65495819  0.25000000  1.0
  Rb  Rb15  1  0.08047043  0.42551224  0.25000000  1.0
  Rb  Rb16  1  0.65495819  0.08047043  0.75000000  1.0
  Rb  Rb17  1  0.42551224  0.34504181  0.75000000  1.0
  Rb  Rb18  1  0.33333333  0.66666667  0.98427652  1.0
  Rb  Rb19  1  0.33333333  0.66666667  0.51572348  1.0
  Rb  Rb20  1  0.66666667  0.33333333  0.48427652  1.0
  Rb  Rb21  1  0.66666667  0.33333333  0.01572348  1.0
  Rb  Rb22  1  0.00000000  0.00000000  0.50000000  1.0
  Rb  Rb23  1  0.00000000  0.00000000  0.00000000  1.0
  O  O24  1  0.33333333  0.66666667  0.31362754  1.0
  O  O25  1  0.33333333  0.66666667  0.18637246  1.0
  O  O26  1  0.66666667  0.33333333  0.81362754  1.0
  O  O27  1  0.66666667  0.33333333  0.68637246  1.0
