# generated using pymatgen
data_BaCu2Te2(ClO3)2
_symmetry_space_group_name_H-M   'P 1'
_cell_length_a   7.55158660
_cell_length_b   7.67613859
_cell_length_c   8.38573945
_cell_angle_alpha   90.00000000
_cell_angle_beta   96.90040532
_cell_angle_gamma   90.00000000
_symmetry_Int_Tables_number   1
_chemical_formula_structural   BaCu2Te2(ClO3)2
_chemical_formula_sum   'Ba2 Cu4 Te4 Cl4 O12'
_cell_volume   482.57532767
_cell_formula_units_Z   2
loop_
 _symmetry_equiv_pos_site_id
 _symmetry_equiv_pos_as_xyz
  1  'x, y, z'
loop_
 _atom_site_type_symbol
 _atom_site_label
 _atom_site_symmetry_multiplicity
 _atom_site_fract_x
 _atom_site_fract_y
 _atom_site_fract_z
 _atom_site_occupancy
  Te  Te0  1  0.86710278  0.86392909  0.60552544  1.0
  Te  Te1  1  0.13289722  0.36392909  0.39447456  1.0
  Te  Te2  1  0.34095919  0.65866874  0.76553689  1.0
  Te  Te3  1  0.65904081  0.15866874  0.23446311  1.0
  Cu  Cu4  1  0.64048270  -0.00133124  0.91657619  1.0
  Cu  Cu5  1  0.35951730  0.49866876  0.08342381  1.0
  Cu  Cu6  1  0.68869220  0.52259771  0.41027563  1.0
  Cu  Cu7  1  0.31130780  0.02259771  0.58972437  1.0
  O  O8  1  0.45309053  0.89800186  0.76509253  1.0
  O  O9  1  0.54690947  0.39800186  0.23490747  1.0
  O  O10  1  0.52356174  0.56696369  0.93516098  1.0
  O  O11  1  0.47643826  0.06696369  0.06483902  1.0
  O  O12  1  0.19861805  0.66660252  0.94997809  1.0
  O  O13  1  0.80138195  0.16660252  0.05002191  1.0
  O  O14  1  0.82404920  0.61462160  0.60626558  1.0
  O  O15  1  0.17595080  0.11462160  0.39373442  1.0
  O  O16  1  0.13167231  0.84780682  0.63950773  1.0
  O  O17  1  0.86832769  0.34780682  0.36049227  1.0
  O  O18  1  0.84099439  0.88677961  0.83565783  1.0
  O  O19  1  0.15900561  0.38677961  0.16434217  1.0
  Cl  Cl20  1  0.89799158  0.77179494  0.24685251  1.0
  Cl  Cl21  1  0.10200842  0.27179494  0.75314749  1.0
  Cl  Cl22  1  0.46520014  0.72972315  0.40284210  1.0
  Cl  Cl23  1  0.53479986  0.22972315  0.59715790  1.0
  Ba  Ba24  1  0.86554720  0.50814150  0.94250246  1.0
  Ba  Ba25  1  0.13445280  0.00814150  0.05749754  1.0
