# generated using pymatgen
data_LiH2N
_symmetry_space_group_name_H-M   'P 1'
_cell_length_a   3.88452699
_cell_length_b   5.82976959
_cell_length_c   7.39376019
_cell_angle_alpha   90.00000000
_cell_angle_beta   90.00000000
_cell_angle_gamma   90.00000000
_symmetry_Int_Tables_number   1
_chemical_formula_structural   LiH2N
_chemical_formula_sum   'Li4 H8 N4'
_cell_volume   167.43833393
_cell_formula_units_Z   4
loop_
 _symmetry_equiv_pos_site_id
 _symmetry_equiv_pos_as_xyz
  1  'x, y, z'
loop_
 _atom_site_type_symbol
 _atom_site_label
 _atom_site_symmetry_multiplicity
 _atom_site_fract_x
 _atom_site_fract_y
 _atom_site_fract_z
 _atom_site_occupancy
  Li  Li0  1  1.17059144  0.64342350  0.54520542  1.0
  Li  Li1  1  0.67059144  0.85657650  0.45479458  1.0
  Li  Li2  1  0.32940856  0.35657650  0.04520542  1.0
  Li  Li3  1  -0.17059144  0.14342350  0.95479458  1.0
  H  H4  1  0.67674551  0.52001628  0.71543319  1.0
  H  H5  1  1.17674551  -0.02001628  0.28456681  1.0
  H  H6  1  -0.17674551  0.47998372  0.21543319  1.0
  H  H7  1  0.32325449  1.02001628  0.78456681  1.0
  H  H8  1  0.66252523  0.38184620  0.52736733  1.0
  H  H9  1  0.16252523  0.11815380  0.47263267  1.0
  H  H10  1  0.83747477  0.61815380  0.02736733  1.0
  H  H11  1  0.33747477  0.88184620  0.97263267  1.0
  N  N12  1  1.17057121  -0.04582785  0.42208443  1.0
  N  N13  1  0.67057121  0.54582785  0.57791557  1.0
  N  N14  1  0.32942879  1.04582785  0.92208443  1.0
  N  N15  1  -0.17057121  0.45417215  0.07791557  1.0
