# generated using pymatgen
data_Pb3SO6
_symmetry_space_group_name_H-M   'P 1'
_cell_length_a   8.08252277
_cell_length_b   8.08252277
_cell_length_c   6.01958256
_cell_angle_alpha   90.00000000
_cell_angle_beta   90.00000000
_cell_angle_gamma   99.40763367
_symmetry_Int_Tables_number   1
_chemical_formula_structural   Pb3SO6
_chemical_formula_sum   'Pb6 S2 O12'
_cell_volume   387.95336449
_cell_formula_units_Z   2
loop_
 _symmetry_equiv_pos_site_id
 _symmetry_equiv_pos_as_xyz
  1  'x, y, z'
loop_
 _atom_site_type_symbol
 _atom_site_label
 _atom_site_symmetry_multiplicity
 _atom_site_fract_x
 _atom_site_fract_y
 _atom_site_fract_z
 _atom_site_occupancy
  Pb  Pb0  1  0.14349661  0.32773727  0.25000000  1.0
  Pb  Pb1  1  -0.67226273  1.14349661  0.75000000  1.0
  Pb  Pb2  1  0.67226273  0.85650339  0.25000000  1.0
  Pb  Pb3  1  -0.14349661  1.67226273  0.75000000  1.0
  Pb  Pb4  1  -0.39846921  1.39846921  0.25000000  1.0
  Pb  Pb5  1  0.39846921  0.60153079  0.75000000  1.0
  S  S6  1  0.14666746  0.85333254  0.25000000  1.0
  S  S7  1  -0.14666746  1.14666746  0.75000000  1.0
  O  O8  1  -0.04251557  1.80508456  0.25000000  1.0
  O  O9  1  0.80508456  0.95748443  0.75000000  1.0
  O  O10  1  -0.80508456  1.04251557  0.25000000  1.0
  O  O11  1  0.04251557  0.19491544  0.75000000  1.0
  O  O12  1  0.21420798  0.78579202  0.45440913  1.0
  O  O13  1  0.21420798  0.78579202  0.04559087  1.0
  O  O14  1  -0.21420798  1.21420798  0.95440913  1.0
  O  O15  1  -0.21420798  1.21420798  0.54559087  1.0
  O  O16  1  0.64216968  0.64216968  0.50000000  1.0
  O  O17  1  0.64216968  0.64216968  0.00000000  1.0
  O  O18  1  0.35783032  0.35783032  0.50000000  1.0
  O  O19  1  0.35783032  0.35783032  0.00000000  1.0
