# generated using pymatgen
data_Cs2In6Ge3Te14
_symmetry_space_group_name_H-M   'P 1'
_cell_length_a   8.77318778
_cell_length_b   8.77318778
_cell_length_c   15.12334045
_cell_angle_alpha   90.00000000
_cell_angle_beta   90.00000000
_cell_angle_gamma   120.00000000
_symmetry_Int_Tables_number   1
_chemical_formula_structural   Cs2In6Ge3Te14
_chemical_formula_sum   'Cs2 In6 Ge3 Te14'
_cell_volume   1008.07585107
_cell_formula_units_Z   1
loop_
 _symmetry_equiv_pos_site_id
 _symmetry_equiv_pos_as_xyz
  1  'x, y, z'
loop_
 _atom_site_type_symbol
 _atom_site_label
 _atom_site_symmetry_multiplicity
 _atom_site_fract_x
 _atom_site_fract_y
 _atom_site_fract_z
 _atom_site_occupancy
  Cs  Cs0  1  0.33333333  0.66666667  0.65123189  1.0
  Cs  Cs1  1  0.66666667  0.33333333  0.34876811  1.0
  In  In2  1  0.67993307  0.83996653  0.19340449  1.0
  In  In3  1  0.83996653  0.67993307  0.80659551  1.0
  In  In4  1  0.83996653  0.16003347  0.80659551  1.0
  In  In5  1  0.16003347  0.83996653  0.19340449  1.0
  In  In6  1  0.16003347  0.32006693  0.19340449  1.0
  In  In7  1  0.32006693  0.16003347  0.80659551  1.0
  Ge  Ge8  1  0.00000000  0.00000000  0.41757470  1.0
  Ge  Ge9  1  0.00000000  0.00000000  0.58242530  1.0
  Ge  Ge10  1  0.00000000  0.00000000  0.00000000  1.0
  Te  Te11  1  0.33333333  0.66666667  0.11930727  1.0
  Te  Te12  1  0.66666667  0.33333333  0.88069273  1.0
  Te  Te13  1  0.66265720  0.83132860  0.37931975  1.0
  Te  Te14  1  0.83132860  0.66265720  0.62068025  1.0
  Te  Te15  1  0.83132860  0.16867140  0.62068025  1.0
  Te  Te16  1  0.16867140  0.83132860  0.37931975  1.0
  Te  Te17  1  0.16867140  0.33734280  0.37931975  1.0
  Te  Te18  1  0.33734280  0.16867140  0.62068025  1.0
  Te  Te19  1  0.34389001  0.17194501  0.11068082  1.0
  Te  Te20  1  0.17194501  0.34389001  0.88931918  1.0
  Te  Te21  1  0.17194501  0.82805499  0.88931918  1.0
  Te  Te22  1  0.82805499  0.17194501  0.11068082  1.0
  Te  Te23  1  0.82805499  0.65610999  0.11068082  1.0
  Te  Te24  1  0.65610999  0.82805499  0.88931918  1.0
