# generated using pymatgen
data_Cs3V4Te2ClO14
_symmetry_space_group_name_H-M   'P 1'
_cell_length_a   6.87065863
_cell_length_b   25.05267900
_cell_length_c   5.54013610
_cell_angle_alpha   90.00000000
_cell_angle_beta   90.00000000
_cell_angle_gamma   90.00000000
_symmetry_Int_Tables_number   1
_chemical_formula_structural   Cs3V4Te2ClO14
_chemical_formula_sum   'Cs6 V8 Te4 Cl2 O28'
_cell_volume   953.61479124
_cell_formula_units_Z   2
loop_
 _symmetry_equiv_pos_site_id
 _symmetry_equiv_pos_as_xyz
  1  'x, y, z'
loop_
 _atom_site_type_symbol
 _atom_site_label
 _atom_site_symmetry_multiplicity
 _atom_site_fract_x
 _atom_site_fract_y
 _atom_site_fract_z
 _atom_site_occupancy
  Cl  Cl0  1  0.50000000  0.50000000  0.00000000  1.0
  Cl  Cl1  1  0.00000000  0.00000000  0.50000000  1.0
  Cs  Cs2  1  0.31330016  0.22834674  0.50000000  1.0
  Cs  Cs3  1  0.81330016  0.27165326  0.00000000  1.0
  Cs  Cs4  1  0.68669984  0.77165326  0.50000000  1.0
  Cs  Cs5  1  0.18669984  0.72834674  0.00000000  1.0
  Cs  Cs6  1  0.50000000  0.00000000  0.50000000  1.0
  Cs  Cs7  1  0.00000000  0.50000000  0.00000000  1.0
  O  O8  1  0.44551501  0.63654991  0.23452365  1.0
  O  O9  1  0.44551501  0.63654991  0.76547635  1.0
  O  O10  1  0.94551501  0.86345009  0.73452365  1.0
  O  O11  1  0.94551501  0.86345009  0.26547635  1.0
  O  O12  1  0.55448499  0.36345009  0.23452365  1.0
  O  O13  1  0.55448499  0.36345009  0.76547635  1.0
  O  O14  1  0.05448499  0.13654991  0.73452365  1.0
  O  O15  1  0.05448499  0.13654991  0.26547635  1.0
  O  O16  1  0.31441630  0.89706433  0.25324183  1.0
  O  O17  1  0.31441630  0.89706433  0.74675817  1.0
  O  O18  1  0.81441630  0.60293567  0.75324183  1.0
  O  O19  1  0.81441630  0.60293567  0.24675817  1.0
  O  O20  1  0.68558370  0.10293567  0.25324183  1.0
  O  O21  1  0.68558370  0.10293567  0.74675817  1.0
  O  O22  1  0.18558370  0.39706433  0.75324183  1.0
  O  O23  1  0.18558370  0.39706433  0.24675817  1.0
  O  O24  1  0.23269389  0.80019754  0.50000000  1.0
  O  O25  1  0.73269389  0.69980246  0.00000000  1.0
  O  O26  1  0.76730611  0.19980246  0.50000000  1.0
  O  O27  1  0.26730611  0.30019754  0.00000000  1.0
  O  O28  1  0.16791076  0.57168091  0.50000000  1.0
  O  O29  1  0.66791076  0.92831909  0.00000000  1.0
  O  O30  1  0.83208924  0.42831909  0.50000000  1.0
  O  O31  1  0.33208924  0.07168091  0.00000000  1.0
  O  O32  1  1.02016413  0.67928754  0.50000000  1.0
  O  O33  1  0.52016413  0.82071246  0.00000000  1.0
  O  O34  1  -0.02016413  0.32071246  0.50000000  1.0
  O  O35  1  0.47983587  0.17928754  0.00000000  1.0
  V  V36  1  0.95717826  0.61671814  0.50000000  1.0
  V  V37  1  0.45717826  0.88328186  0.00000000  1.0
  V  V38  1  0.04282174  0.38328186  0.50000000  1.0
  V  V39  1  0.54282174  0.11671814  0.00000000  1.0
  V  V40  1  0.15945379  0.86162055  0.50000000  1.0
  V  V41  1  0.65945379  0.63837945  0.00000000  1.0
  V  V42  1  0.84054621  0.13837945  0.50000000  1.0
  V  V43  1  0.34054621  0.36162055  0.00000000  1.0
  Te  Te44  1  0.45604946  0.58567850  0.50000000  1.0
  Te  Te45  1  0.95604946  0.91432150  0.00000000  1.0
  Te  Te46  1  0.54395054  0.41432150  0.50000000  1.0
  Te  Te47  1  0.04395054  0.08567850  0.00000000  1.0
