# generated using pymatgen
data_Cu3GeS4
_symmetry_space_group_name_H-M   'P 1'
_cell_length_a   9.94957909
_cell_length_b   9.94957909
_cell_length_c   13.12522262
_cell_angle_alpha   62.31303824
_cell_angle_beta   117.68696176
_cell_angle_gamma   136.98378647
_symmetry_Int_Tables_number   1
_chemical_formula_structural   Cu3GeS4
_chemical_formula_sum   'Cu12 Ge4 S16'
_cell_volume   767.94551768
_cell_formula_units_Z   4
loop_
 _symmetry_equiv_pos_site_id
 _symmetry_equiv_pos_as_xyz
  1  'x, y, z'
loop_
 _atom_site_type_symbol
 _atom_site_label
 _atom_site_symmetry_multiplicity
 _atom_site_fract_x
 _atom_site_fract_y
 _atom_site_fract_z
 _atom_site_occupancy
  Cu  Cu0  1  0.49712756  -0.09013764  0.44281945  1.0
  Cu  Cu1  1  0.90986236  0.49712756  0.05718055  1.0
  Cu  Cu2  1  0.50287244  0.09013764  0.55718055  1.0
  Cu  Cu3  1  1.09013764  0.50287244  0.94281945  1.0
  Cu  Cu4  1  0.49691824  -0.09032049  0.94279402  1.0
  Cu  Cu5  1  0.90967951  0.49691824  0.55720598  1.0
  Cu  Cu6  1  0.50308176  0.09032049  0.05720598  1.0
  Cu  Cu7  1  1.09032049  0.50308176  0.44279402  1.0
  Cu  Cu8  1  0.16563016  -0.16546628  0.27546247  1.0
  Cu  Cu9  1  0.83453372  0.16563016  0.22453753  1.0
  Cu  Cu10  1  0.83436984  0.16546628  0.72453753  1.0
  Cu  Cu11  1  1.16546628  0.83436984  0.77546247  1.0
  Ge  Ge12  1  1.32395867  0.67589096  0.72472153  1.0
  Ge  Ge13  1  0.67589096  0.32395867  0.77527847  1.0
  Ge  Ge14  1  0.67604133  0.32410904  0.27527847  1.0
  Ge  Ge15  1  0.32410904  -0.32395867  0.22472153  1.0
  S  S16  1  0.60344394  -0.10942800  0.65029324  1.0
  S  S17  1  0.89057200  0.60344394  0.84970676  1.0
  S  S18  1  0.39655606  0.10942800  0.34970676  1.0
  S  S19  1  1.10942800  0.39655606  0.15029324  1.0
  S  S20  1  1.37588232  0.62385912  0.92063577  1.0
  S  S21  1  0.62385912  0.37588232  0.57936423  1.0
  S  S22  1  0.62411768  0.37614088  0.07936423  1.0
  S  S23  1  0.37614088  -0.37588232  0.42063577  1.0
  S  S24  1  1.18249257  0.81732045  0.61885938  1.0
  S  S25  1  0.81732045  0.18249257  0.88114062  1.0
  S  S26  1  0.81750743  0.18267955  0.38114062  1.0
  S  S27  1  0.18267955  -0.18249257  0.11885938  1.0
  S  S28  1  1.10925296  0.39644165  0.65025673  1.0
  S  S29  1  0.39644165  0.10925296  0.84974327  1.0
  S  S30  1  0.89074704  0.60355835  0.34974327  1.0
  S  S31  1  0.60355835  -0.10925296  0.15025673  1.0
