# generated using pymatgen
data_YbSi2
_symmetry_space_group_name_H-M   'P 1'
_cell_length_a   10.78517106
_cell_length_b   10.78517106
_cell_length_c   10.78517106
_cell_angle_alpha   149.24184518
_cell_angle_beta   149.24184518
_cell_angle_gamma   44.05544350
_symmetry_Int_Tables_number   1
_chemical_formula_structural   YbSi2
_chemical_formula_sum   'Yb4 Si8'
_cell_volume   327.17664096
_cell_formula_units_Z   4
loop_
 _symmetry_equiv_pos_site_id
 _symmetry_equiv_pos_as_xyz
  1  'x, y, z'
loop_
 _atom_site_type_symbol
 _atom_site_label
 _atom_site_symmetry_multiplicity
 _atom_site_fract_x
 _atom_site_fract_y
 _atom_site_fract_z
 _atom_site_occupancy
  Yb  Yb0  1  0.37500000  0.12500000  0.25000000  1.0
  Yb  Yb1  1  0.87500000  0.12500000  0.75000000  1.0
  Yb  Yb2  1  0.87500000  1.12500000  1.25000000  1.0
  Yb  Yb3  1  0.87500000  0.62500000  0.75000000  1.0
  Si  Si4  1  1.05927719  0.27456041  0.78471678  1.0
  Si  Si5  1  1.26015636  0.97543959  1.28471678  1.0
  Si  Si6  1  0.48984364  0.27456041  0.21528322  1.0
  Si  Si7  1  0.69072281  0.97543959  0.71528322  1.0
  Si  Si8  1  0.72543959  0.51015636  0.78471678  1.0
  Si  Si9  1  0.02456041  0.30927719  0.28471678  1.0
  Si  Si10  1  0.72543959  0.94072281  1.21528322  1.0
  Si  Si11  1  0.02456041  0.73984364  0.71528322  1.0
