# generated using pymatgen
data_BN
_symmetry_space_group_name_H-M   'P 1'
_cell_length_a   4.88237391
_cell_length_b   2.58684911
_cell_length_c   4.28258073
_cell_angle_alpha   90.00000000
_cell_angle_beta   90.00000000
_cell_angle_gamma   90.00000000
_symmetry_Int_Tables_number   1
_chemical_formula_structural   BN
_chemical_formula_sum   'B4 N4'
_cell_volume   54.08884287
_cell_formula_units_Z   4
loop_
 _symmetry_equiv_pos_site_id
 _symmetry_equiv_pos_as_xyz
  1  'x, y, z'
loop_
 _atom_site_type_symbol
 _atom_site_label
 _atom_site_symmetry_multiplicity
 _atom_site_fract_x
 _atom_site_fract_y
 _atom_site_fract_z
 _atom_site_occupancy
  B  B0  1  0.16008591  0.75000000  0.40892013  1.0
  B  B1  1  0.66008591  0.75000000  0.09107987  1.0
  B  B2  1  0.83991409  0.25000000  0.59107987  1.0
  B  B3  1  0.33991409  0.25000000  0.90892013  1.0
  N  N4  1  0.82241862  0.75000000  0.39094092  1.0
  N  N5  1  0.32241862  0.75000000  0.10905908  1.0
  N  N6  1  0.17758138  0.25000000  0.60905908  1.0
  N  N7  1  0.67758138  0.25000000  0.89094092  1.0
