# generated using pymatgen
data_Ta3VSe6
_symmetry_space_group_name_H-M   'P 1'
_cell_length_a   6.01948764
_cell_length_b   6.01948764
_cell_length_c   12.85839215
_cell_angle_alpha   90.00000000
_cell_angle_beta   90.00000000
_cell_angle_gamma   120.00000000
_symmetry_Int_Tables_number   1
_chemical_formula_structural   Ta3VSe6
_chemical_formula_sum   'Ta6 V2 Se12'
_cell_volume   403.49332296
_cell_formula_units_Z   2
loop_
 _symmetry_equiv_pos_site_id
 _symmetry_equiv_pos_as_xyz
  1  'x, y, z'
loop_
 _atom_site_type_symbol
 _atom_site_label
 _atom_site_symmetry_multiplicity
 _atom_site_fract_x
 _atom_site_fract_y
 _atom_site_fract_z
 _atom_site_occupancy
  Ta  Ta0  1  0.33333333  0.66666667  0.49969084  1.0
  Ta  Ta1  1  0.33333333  0.66666667  1.00030916  1.0
  Ta  Ta2  1  0.66666667  0.33333333  0.50030916  1.0
  Ta  Ta3  1  0.66666667  0.33333333  -0.00030916  1.0
  Ta  Ta4  1  0.00000000  0.00000000  0.00000000  1.0
  Ta  Ta5  1  0.00000000  0.00000000  0.50000000  1.0
  V  V6  1  0.33333333  0.66666667  0.25000000  1.0
  V  V7  1  0.66666667  0.33333333  0.75000000  1.0
  Se  Se8  1  0.67057453  0.66694943  0.13015730  1.0
  Se  Se9  1  0.67057453  0.00362511  0.36984270  1.0
  Se  Se10  1  0.66694943  0.67057453  0.86984270  1.0
  Se  Se11  1  0.66694943  0.99637489  0.63015730  1.0
  Se  Se12  1  0.99637489  0.66694943  0.36984270  1.0
  Se  Se13  1  0.99637489  0.32942547  0.13015730  1.0
  Se  Se14  1  0.33305057  0.32942547  0.36984270  1.0
  Se  Se15  1  0.33305057  0.00362511  0.13015730  1.0
  Se  Se16  1  0.32942547  0.99637489  0.86984270  1.0
  Se  Se17  1  0.32942547  0.33305057  0.63015730  1.0
  Se  Se18  1  0.00362511  0.67057453  0.63015730  1.0
  Se  Se19  1  0.00362511  0.33305057  0.86984270  1.0
