# generated using pymatgen
data_La4B4Cl5
_symmetry_space_group_name_H-M   'P 1'
_cell_length_a   11.21809060
_cell_length_b   11.21809060
_cell_length_c   9.71533360
_cell_angle_alpha   51.57461426
_cell_angle_beta   128.42538574
_cell_angle_gamma   157.94823691
_symmetry_Int_Tables_number   1
_chemical_formula_structural   La4B4Cl5
_chemical_formula_sum   'La4 B4 Cl5'
_cell_volume   355.29006157
_cell_formula_units_Z   1
loop_
 _symmetry_equiv_pos_site_id
 _symmetry_equiv_pos_as_xyz
  1  'x, y, z'
loop_
 _atom_site_type_symbol
 _atom_site_label
 _atom_site_symmetry_multiplicity
 _atom_site_fract_x
 _atom_site_fract_y
 _atom_site_fract_z
 _atom_site_occupancy
  La  La0  1  1.49326228  -0.49326228  0.75040955  1.0
  La  La1  1  0.50673772  0.49326228  0.24959045  1.0
  La  La2  1  0.85474562  -0.85474562  0.28719506  1.0
  La  La3  1  0.14525438  -0.14525438  0.71280494  1.0
  B  B4  1  0.99860396  -0.99860396  0.59899329  1.0
  B  B5  1  0.00139604  -0.00139604  0.40100671  1.0
  B  B6  1  0.68561451  0.68561451  0.50000000  1.0
  B  B7  1  0.31438549  0.31438549  0.50000000  1.0
  Cl  Cl8  1  0.00000000  0.00000000  0.00000000  1.0
  Cl  Cl9  1  0.67224244  0.32775756  0.96788572  1.0
  Cl  Cl10  1  1.32775756  -0.32775756  0.03211428  1.0
  Cl  Cl11  1  0.67808190  0.32191810  0.55816555  1.0
  Cl  Cl12  1  1.32191810  -0.32191810  0.44183445  1.0
