# generated using pymatgen
data_YCuSO7
_symmetry_space_group_name_H-M   'P 1'
_cell_length_a   15.03879640
_cell_length_b   6.02202903
_cell_length_c   6.10520606
_cell_angle_alpha   90.00000000
_cell_angle_beta   90.00000000
_cell_angle_gamma   90.00000000
_symmetry_Int_Tables_number   1
_chemical_formula_structural   YCuSO7
_chemical_formula_sum   'Y4 Cu4 S4 O28'
_cell_volume   552.91229944
_cell_formula_units_Z   4
loop_
 _symmetry_equiv_pos_site_id
 _symmetry_equiv_pos_as_xyz
  1  'x, y, z'
loop_
 _atom_site_type_symbol
 _atom_site_label
 _atom_site_symmetry_multiplicity
 _atom_site_fract_x
 _atom_site_fract_y
 _atom_site_fract_z
 _atom_site_occupancy
  Cu  Cu0  1  0.50000000  0.00000000  0.50000000  1.0
  Cu  Cu1  1  0.50000000  0.50000000  0.50000000  1.0
  Cu  Cu2  1  0.00000000  0.00000000  0.00000000  1.0
  Cu  Cu3  1  -0.00000000  0.50000000  0.00000000  1.0
  S  S4  1  0.19768538  0.75000000  0.76563679  1.0
  S  S5  1  0.69768538  0.75000000  0.73436321  1.0
  S  S6  1  0.80231462  0.25000000  0.23436321  1.0
  S  S7  1  0.30231462  0.25000000  0.26563679  1.0
  O  O8  1  0.17364527  0.95207604  0.63686524  1.0
  O  O9  1  0.17364527  0.54792396  0.63686524  1.0
  O  O10  1  0.67364527  0.95207604  0.86313476  1.0
  O  O11  1  0.67364527  0.54792396  0.86313476  1.0
  O  O12  1  0.82635473  0.45207604  0.36313476  1.0
  O  O13  1  0.82635473  0.04792396  0.36313476  1.0
  O  O14  1  0.32635473  0.45207604  0.13686524  1.0
  O  O15  1  0.32635473  0.04792396  0.13686524  1.0
  O  O16  1  0.48890259  0.52448440  0.79392274  1.0
  O  O17  1  0.48890259  -0.02448440  0.79392274  1.0
  O  O18  1  0.98890259  0.52448440  0.70607726  1.0
  O  O19  1  0.98890259  -0.02448440  0.70607726  1.0
  O  O20  1  0.51109741  1.02448440  0.20607726  1.0
  O  O21  1  0.51109741  0.47551560  0.20607726  1.0
  O  O22  1  0.01109741  1.02448440  0.29392274  1.0
  O  O23  1  0.01109741  0.47551560  0.29392274  1.0
  O  O24  1  0.93740404  0.75000000  0.06253320  1.0
  O  O25  1  0.43740404  0.75000000  0.43746680  1.0
  O  O26  1  0.06259596  0.25000000  0.93746680  1.0
  O  O27  1  0.56259596  0.25000000  0.56253320  1.0
  O  O28  1  0.29613701  0.75000000  0.79217567  1.0
  O  O29  1  0.79613701  0.75000000  0.70782433  1.0
  O  O30  1  0.70386299  0.25000000  0.20782433  1.0
  O  O31  1  0.20386299  0.25000000  0.29217567  1.0
  O  O32  1  0.15064529  0.75000000  0.97825303  1.0
  O  O33  1  0.65064529  0.75000000  0.52174697  1.0
  O  O34  1  0.84935471  0.25000000  0.02174697  1.0
  O  O35  1  0.34935471  0.25000000  0.47825303  1.0
  Y  Y36  1  0.41420730  0.75000000  0.04003763  1.0
  Y  Y37  1  0.91420730  0.75000000  0.45996237  1.0
  Y  Y38  1  0.58579270  0.25000000  0.95996237  1.0
  Y  Y39  1  0.08579270  0.25000000  0.54003763  1.0
