# generated using pymatgen
data_Ba2Zn7F18
_symmetry_space_group_name_H-M   'P 1'
_cell_length_a   7.14039555
_cell_length_b   7.63170426
_cell_length_c   7.44090964
_cell_angle_alpha   94.19344818
_cell_angle_beta   116.28895892
_cell_angle_gamma   92.96646707
_symmetry_Int_Tables_number   1
_chemical_formula_structural   Ba2Zn7F18
_chemical_formula_sum   'Ba2 Zn7 F18'
_cell_volume   360.96032844
_cell_formula_units_Z   1
loop_
 _symmetry_equiv_pos_site_id
 _symmetry_equiv_pos_as_xyz
  1  'x, y, z'
loop_
 _atom_site_type_symbol
 _atom_site_label
 _atom_site_symmetry_multiplicity
 _atom_site_fract_x
 _atom_site_fract_y
 _atom_site_fract_z
 _atom_site_occupancy
  Ba  Ba0  1  -0.81646260  -0.13332065  -0.69023859  1.0
  Ba  Ba1  1  -0.18353740  -0.86667935  -0.30976141  1.0
  Zn  Zn2  1  -0.89140744  -0.37639652  -0.26885205  1.0
  Zn  Zn3  1  -0.10859256  -0.62360348  -0.73114795  1.0
  Zn  Zn4  1  -0.69126532  -0.67995907  -0.86918881  1.0
  Zn  Zn5  1  -0.30873468  -0.32004093  -0.13081119  1.0
  Zn  Zn6  1  -0.67974823  -0.69295328  -0.38018172  1.0
  Zn  Zn7  1  -0.32025177  -0.30704672  -0.61981828  1.0
  Zn  Zn8  1  -0.50000000  0.00000000  0.00000000  1.0
  F  F9  1  -1.00055992  -0.68817709  -0.92797748  1.0
  F  F10  1  0.00055992  -0.31182291  -0.07202252  1.0
  F  F11  1  -0.98001725  -0.82258260  -0.55740250  1.0
  F  F12  1  -0.01998275  -0.17741740  -0.44259750  1.0
  F  F13  1  -0.81994077  -0.47453211  -0.51231999  1.0
  F  F14  1  -0.18005923  -0.52546789  -0.48768001  1.0
  F  F15  1  -0.79989688  -0.62094001  -0.17539892  1.0
  F  F16  1  -0.20010312  -0.37905999  -0.82460108  1.0
  F  F17  1  -0.78190791  -0.94193070  -0.00957497  1.0
  F  F18  1  -0.21809209  -0.05806930  -0.99042503  1.0
  F  F19  1  -0.60932864  -0.42742065  -0.76867163  1.0
  F  F20  1  -0.39067136  -0.57257935  -0.23132837  1.0
  F  F21  1  -0.60401761  -0.78894686  -0.60476703  1.0
  F  F22  1  -0.39598239  -0.21105314  -0.39523297  1.0
  F  F23  1  -0.57479847  -0.92432358  -0.27765108  1.0
  F  F24  1  -0.42520153  -0.07567642  -0.72234892  1.0
  F  F25  1  -0.40575711  -0.73941571  -0.86972623  1.0
  F  F26  1  -0.59424289  -0.26058429  -0.13027377  1.0
