# generated using pymatgen
data_Ba2CdGe2O7
_symmetry_space_group_name_H-M   'P 1'
_cell_length_a   8.74657088
_cell_length_b   8.74657088
_cell_length_c   5.60703746
_cell_angle_alpha   90.00000000
_cell_angle_beta   90.00000000
_cell_angle_gamma   90.00000000
_symmetry_Int_Tables_number   1
_chemical_formula_structural   Ba2CdGe2O7
_chemical_formula_sum   'Ba4 Cd2 Ge4 O14'
_cell_volume   428.95239512
_cell_formula_units_Z   2
loop_
 _symmetry_equiv_pos_site_id
 _symmetry_equiv_pos_as_xyz
  1  'x, y, z'
loop_
 _atom_site_type_symbol
 _atom_site_label
 _atom_site_symmetry_multiplicity
 _atom_site_fract_x
 _atom_site_fract_y
 _atom_site_fract_z
 _atom_site_occupancy
  Ba  Ba0  1  0.83351330  0.33351330  0.49456263  1.0
  Ba  Ba1  1  0.66648670  0.83351330  0.50543737  1.0
  Ba  Ba2  1  0.16648670  0.66648670  0.49456263  1.0
  Ba  Ba3  1  0.33351330  0.16648670  0.50543737  1.0
  Cd  Cd4  1  0.50000000  0.50000000  0.00000000  1.0
  Cd  Cd5  1  0.00000000  0.00000000  0.00000000  1.0
  Ge  Ge6  1  0.36268247  0.86268247  0.05355899  1.0
  Ge  Ge7  1  0.13731753  0.36268247  0.94644101  1.0
  Ge  Ge8  1  0.63731753  0.13731753  0.05355899  1.0
  Ge  Ge9  1  0.86268247  0.63731753  0.94644101  1.0
  O  O10  1  0.30406191  0.42231898  0.78860329  1.0
  O  O11  1  0.19593809  0.92231898  0.21139671  1.0
  O  O12  1  0.57768102  0.30406191  0.21139671  1.0
  O  O13  1  0.92231898  0.80406191  0.78860329  1.0
  O  O14  1  0.69593809  0.57768102  0.78860329  1.0
  O  O15  1  0.80406191  0.07768102  0.21139671  1.0
  O  O16  1  0.42231898  0.69593809  0.21139671  1.0
  O  O17  1  0.07768102  0.19593809  0.78860329  1.0
  O  O18  1  0.36046800  0.86046800  0.74291986  1.0
  O  O19  1  0.13953200  0.36046800  0.25708014  1.0
  O  O20  1  0.63953200  0.13953200  0.74291986  1.0
  O  O21  1  0.86046800  0.63953200  0.25708014  1.0
  O  O22  1  0.00000000  0.50000000  0.82836601  1.0
  O  O23  1  0.50000000  0.00000000  0.17163399  1.0
