# generated using pymatgen
data_Rb3Al2(PO4)3
_symmetry_space_group_name_H-M   'P 1'
_cell_length_a   9.74134676
_cell_length_b   9.74134676
_cell_length_c   9.01335671
_cell_angle_alpha   90.00000000
_cell_angle_beta   90.00000000
_cell_angle_gamma   54.01877508
_symmetry_Int_Tables_number   1
_chemical_formula_structural   Rb3Al2(PO4)3
_chemical_formula_sum   'Rb6 Al4 P6 O24'
_cell_volume   692.12664810
_cell_formula_units_Z   2
loop_
 _symmetry_equiv_pos_site_id
 _symmetry_equiv_pos_as_xyz
  1  'x, y, z'
loop_
 _atom_site_type_symbol
 _atom_site_label
 _atom_site_symmetry_multiplicity
 _atom_site_fract_x
 _atom_site_fract_y
 _atom_site_fract_z
 _atom_site_occupancy
  Rb  Rb0  1  -0.36848549  0.36848549  0.40495768  1.0
  Rb  Rb1  1  -0.63151451  0.63151451  0.90495768  1.0
  Rb  Rb2  1  -0.83521075  1.06306913  0.22065289  1.0
  Rb  Rb3  1  0.06306913  0.16478925  0.72065289  1.0
  Rb  Rb4  1  -0.06306913  0.83521075  0.22065289  1.0
  Rb  Rb5  1  -0.16478925  0.93693087  0.72065289  1.0
  Al  Al6  1  -0.51603543  1.17958803  0.06580477  1.0
  Al  Al7  1  0.17958803  0.48396457  0.56580477  1.0
  Al  Al8  1  -0.17958803  0.51603543  0.06580477  1.0
  Al  Al9  1  -0.48396457  0.82041197  0.56580477  1.0
  P  P10  1  -0.53434625  1.12503015  0.40461743  1.0
  P  P11  1  0.12503015  0.46565375  0.90461743  1.0
  P  P12  1  -0.12503015  0.53434625  0.40461743  1.0
  P  P13  1  -0.46565375  0.87496985  0.90461743  1.0
  P  P14  1  -0.76514788  0.76514788  0.50333646  1.0
  P  P15  1  -0.23485212  0.23485212  1.00333646  1.0
  O  O16  1  -0.59149712  1.01475297  0.46686876  1.0
  O  O17  1  0.01475297  0.40850288  0.96686876  1.0
  O  O18  1  -0.01475297  0.59149712  0.46686876  1.0
  O  O19  1  -0.40850288  0.98524703  0.96686876  1.0
  O  O20  1  -0.58324727  1.14813192  0.23582902  1.0
  O  O21  1  0.14813192  0.41675273  0.73582902  1.0
  O  O22  1  -0.14813192  0.58324727  0.23582902  1.0
  O  O23  1  -0.41675273  0.85186808  0.73582902  1.0
  O  O24  1  -0.65029392  1.30583043  0.47479417  1.0
  O  O25  1  0.30583043  0.34970608  0.97479417  1.0
  O  O26  1  -0.30583043  0.65029392  0.47479417  1.0
  O  O27  1  -0.34970608  0.69416957  0.97479417  1.0
  O  O28  1  -0.34938355  1.04831841  0.43172918  1.0
  O  O29  1  0.04831841  0.65061645  0.93172918  1.0
  O  O30  1  -0.04831841  0.34938355  0.43172918  1.0
  O  O31  1  -0.65061645  0.95168159  0.93172918  1.0
  O  O32  1  -0.37127997  1.22882346  0.09775989  1.0
  O  O33  1  0.22882346  0.62872003  0.59775989  1.0
  O  O34  1  -0.22882346  0.37127997  0.09775989  1.0
  O  O35  1  -0.62872003  0.77117654  0.59775989  1.0
  O  O36  1  -0.93746889  0.93746889  0.51220498  1.0
  O  O37  1  -0.06253111  0.06253111  0.01220498  1.0
  O  O38  1  -0.69982164  0.69982164  0.34658865  1.0
  O  O39  1  -0.30017836  0.30017836  0.84658865  1.0
