# generated using pymatgen
data_RbBS2
_symmetry_space_group_name_H-M   'P 1'
_cell_length_a   9.79083593
_cell_length_b   9.79083593
_cell_length_c   9.79083593
_cell_angle_alpha   110.66961154
_cell_angle_beta   110.66961154
_cell_angle_gamma   110.66961154
_symmetry_Int_Tables_number   1
_chemical_formula_structural   RbBS2
_chemical_formula_sum   'Rb6 B6 S12'
_cell_volume   688.58167038
_cell_formula_units_Z   6
loop_
 _symmetry_equiv_pos_site_id
 _symmetry_equiv_pos_as_xyz
  1  'x, y, z'
loop_
 _atom_site_type_symbol
 _atom_site_label
 _atom_site_symmetry_multiplicity
 _atom_site_fract_x
 _atom_site_fract_y
 _atom_site_fract_z
 _atom_site_occupancy
  Rb  Rb0  1  1.30080717  -0.25000000  0.19919283  1.0
  Rb  Rb1  1  0.80080717  0.69919283  0.25000000  1.0
  Rb  Rb2  1  1.25000000  0.80080717  0.69919283  1.0
  Rb  Rb3  1  0.75000000  1.19919283  0.30080717  1.0
  Rb  Rb4  1  0.69919283  0.25000000  -0.19919283  1.0
  Rb  Rb5  1  0.19919283  0.30080717  -0.25000000  1.0
  B  B6  1  0.63793024  0.75000000  -0.13793024  1.0
  B  B7  1  1.13793024  0.36206976  0.25000000  1.0
  B  B8  1  1.25000000  1.13793024  0.36206976  1.0
  B  B9  1  0.75000000  0.86206976  0.63793024  1.0
  B  B10  1  0.36206976  0.25000000  0.13793024  1.0
  B  B11  1  0.86206976  -0.36206976  -0.25000000  1.0
  S  S12  1  0.52750588  0.75000000  -0.02750588  1.0
  S  S13  1  1.02750588  0.47249412  0.25000000  1.0
  S  S14  1  1.25000000  1.02750588  0.47249412  1.0
  S  S15  1  0.75000000  0.97249412  0.52750588  1.0
  S  S16  1  0.47249412  0.25000000  0.02750588  1.0
  S  S17  1  0.97249412  -0.47249412  -0.25000000  1.0
  S  S18  1  0.86620494  0.75000000  0.63379506  1.0
  S  S19  1  1.36620494  0.13379506  0.25000000  1.0
  S  S20  1  0.25000000  0.36620494  0.13379506  1.0
  S  S21  1  0.75000000  0.63379506  -0.13379506  1.0
  S  S22  1  1.13379506  1.25000000  0.36620494  1.0
  S  S23  1  0.63379506  -0.13379506  -0.25000000  1.0
