# generated using pymatgen
data_Zn2SiO5
_symmetry_space_group_name_H-M   'P 1'
_cell_length_a   7.30646452
_cell_length_b   7.30646452
_cell_length_c   7.30646452
_cell_angle_alpha   115.73333687
_cell_angle_beta   79.23505663
_cell_angle_gamma   138.81583912
_symmetry_Int_Tables_number   1
_chemical_formula_structural   Zn2SiO5
_chemical_formula_sum   'Zn4 Si2 O10'
_cell_volume   224.83420548
_cell_formula_units_Z   2
loop_
 _symmetry_equiv_pos_site_id
 _symmetry_equiv_pos_as_xyz
  1  'x, y, z'
loop_
 _atom_site_type_symbol
 _atom_site_label
 _atom_site_symmetry_multiplicity
 _atom_site_fract_x
 _atom_site_fract_y
 _atom_site_fract_z
 _atom_site_occupancy
  Si  Si0  1  1.00681583  1.14483394  0.86198190  1.0
  Si  Si1  1  1.28285204  1.14483394  1.13801810  1.0
  O  O2  1  1.22115661  1.19467884  1.37266613  1.0
  O  O3  1  0.82201271  1.19467884  0.97352223  1.0
  O  O4  1  1.22115661  0.84849048  1.02647777  1.0
  O  O5  1  0.82201271  0.84849048  0.62733387  1.0
  O  O6  1  1.31553872  1.46332193  0.85221679  1.0
  O  O7  1  1.61110514  1.46332193  1.14778321  1.0
  O  O8  1  0.04159633  0.04159633  -0.00000000  1.0
  O  O9  1  -0.05853714  0.44146286  0.50000000  1.0
  O  O10  1  0.62627452  1.28636090  0.66008638  1.0
  O  O11  1  0.62627452  0.96618813  0.33991362  1.0
  Zn  Zn12  1  0.80842479  0.88041396  0.37846805  1.0
  Zn  Zn13  1  1.50194591  0.88041396  1.07198918  1.0
  Zn  Zn14  1  0.80842479  1.42995673  0.92801082  1.0
  Zn  Zn15  1  1.50194591  1.42995673  1.62153195  1.0
