# generated using pymatgen
data_Y2Fe2Si2C
_symmetry_space_group_name_H-M   'P 1'
_cell_length_a   5.63610388
_cell_length_b   5.63610388
_cell_length_c   6.74089760
_cell_angle_alpha   53.45935257
_cell_angle_beta   126.54064743
_cell_angle_gamma   139.23019874
_symmetry_Int_Tables_number   1
_chemical_formula_structural   Y2Fe2Si2C
_chemical_formula_sum   'Y2 Fe2 Si2 C1'
_cell_volume   108.00139001
_cell_formula_units_Z   1
loop_
 _symmetry_equiv_pos_site_id
 _symmetry_equiv_pos_as_xyz
  1  'x, y, z'
loop_
 _atom_site_type_symbol
 _atom_site_label
 _atom_site_symmetry_multiplicity
 _atom_site_fract_x
 _atom_site_fract_y
 _atom_site_fract_z
 _atom_site_occupancy
  Y  Y0  1  1.44056816  -0.44056816  0.70581789  1.0
  Y  Y1  1  0.55943184  0.44056816  0.29418211  1.0
  Fe  Fe2  1  0.79921237  0.20078763  0.90473100  1.0
  Fe  Fe3  1  1.20078763  -0.20078763  0.09526900  1.0
  Si  Si4  1  0.83782395  -0.83782395  0.28291454  1.0
  Si  Si5  1  0.16217605  -0.16217605  0.71708546  1.0
  C  C6  1  0.00000000  0.00000000  0.00000000  1.0
