# generated using pymatgen
data_Y(BRu)4
_symmetry_space_group_name_H-M   'P 1'
_cell_length_a   9.18394989
_cell_length_b   9.18394989
_cell_length_c   9.18394989
_cell_angle_alpha   131.98357829
_cell_angle_beta   131.98357829
_cell_angle_gamma   70.25496443
_symmetry_Int_Tables_number   1
_chemical_formula_structural   Y(BRu)4
_chemical_formula_sum   'Y4 B16 Ru16'
_cell_volume   419.50866319
_cell_formula_units_Z   4
loop_
 _symmetry_equiv_pos_site_id
 _symmetry_equiv_pos_as_xyz
  1  'x, y, z'
loop_
 _atom_site_type_symbol
 _atom_site_label
 _atom_site_symmetry_multiplicity
 _atom_site_fract_x
 _atom_site_fract_y
 _atom_site_fract_z
 _atom_site_occupancy
  Y  Y0  1  0.75000000  0.75000000  0.00000000  1.0
  Y  Y1  1  1.25000000  1.25000000  1.00000000  1.0
  Y  Y2  1  0.00000000  0.50000000  0.50000000  1.0
  Y  Y3  1  0.50000000  0.00000000  0.50000000  1.0
  B  B4  1  0.72230168  0.41371499  0.97293898  1.0
  B  B5  1  0.22230168  0.24936270  0.30858669  1.0
  B  B6  1  1.66371499  1.47230168  1.47293898  1.0
  B  B7  1  1.16371499  1.69077601  1.19141331  1.0
  B  B8  1  1.02769832  0.83628501  0.52706102  1.0
  B  B9  1  1.52769832  1.00063730  1.19141331  1.0
  B  B10  1  1.08628501  1.77769832  1.02706102  1.0
  B  B11  1  1.58628501  1.55922399  1.30858669  1.0
  B  B12  1  0.94077601  0.91371499  1.69141331  1.0
  B  B13  1  0.44077601  0.74936270  1.02706102  1.0
  B  B14  1  1.49936270  0.97230168  0.80858669  1.0
  B  B15  1  0.99936270  1.19077601  0.52706102  1.0
  B  B16  1  0.80922399  1.33628501  0.80858669  1.0
  B  B17  1  1.30922399  1.50063730  1.47293898  1.0
  B  B18  1  1.25063730  1.27769832  0.69141331  1.0
  B  B19  1  1.75063730  1.05922399  0.97293898  1.0
  Ru  Ru20  1  1.04026227  1.57283738  1.23652279  1.0
  Ru  Ru21  1  1.54026227  1.30373949  1.46742490  1.0
  Ru  Ru22  1  1.82283738  1.79026227  1.73652279  1.0
  Ru  Ru23  1  1.32283738  1.58631459  1.03257510  1.0
  Ru  Ru24  1  0.70973773  0.67716262  1.26347721  1.0
  Ru  Ru25  1  0.20973773  0.94626051  1.03257510  1.0
  Ru  Ru26  1  0.92716262  1.45973773  0.76347721  1.0
  Ru  Ru27  1  1.42716262  1.66368541  1.46742490  1.0
  Ru  Ru28  1  0.83631459  1.07283738  0.53257510  1.0
  Ru  Ru29  1  1.33631459  0.80373949  0.76347721  1.0
  Ru  Ru30  1  1.55373949  1.29026227  0.96742490  1.0
  Ru  Ru31  1  1.05373949  1.08631459  0.26347721  1.0
  Ru  Ru32  1  0.91368541  0.17716262  0.96742490  1.0
  Ru  Ru33  1  0.41368541  0.44626051  0.73652279  1.0
  Ru  Ru34  1  1.19626051  0.95973773  0.53257510  1.0
  Ru  Ru35  1  1.69626051  1.16368541  1.23652279  1.0
