# generated using pymatgen
data_ZrCrSi2
_symmetry_space_group_name_H-M   'P 1'
_cell_length_a   9.12174906
_cell_length_b   9.79488758
_cell_length_c   8.01752975
_cell_angle_alpha   90.00000000
_cell_angle_beta   90.00000000
_cell_angle_gamma   90.00000000
_symmetry_Int_Tables_number   1
_chemical_formula_structural   ZrCrSi2
_chemical_formula_sum   'Zr12 Cr12 Si24'
_cell_volume   716.33827452
_cell_formula_units_Z   12
loop_
 _symmetry_equiv_pos_site_id
 _symmetry_equiv_pos_as_xyz
  1  'x, y, z'
loop_
 _atom_site_type_symbol
 _atom_site_label
 _atom_site_symmetry_multiplicity
 _atom_site_fract_x
 _atom_site_fract_y
 _atom_site_fract_z
 _atom_site_occupancy
  Zr  Zr0  1  0.17248370  0.54788230  0.75341718  1.0
  Zr  Zr1  1  0.17248370  0.54788230  0.24658282  1.0
  Zr  Zr2  1  0.67248370  0.95211770  0.75341718  1.0
  Zr  Zr3  1  0.67248370  0.95211770  0.24658282  1.0
  Zr  Zr4  1  0.82751630  0.45211770  0.75341718  1.0
  Zr  Zr5  1  0.82751630  0.45211770  0.24658282  1.0
  Zr  Zr6  1  0.32751630  0.04788230  0.75341718  1.0
  Zr  Zr7  1  0.32751630  0.04788230  0.24658282  1.0
  Zr  Zr8  1  0.16946110  0.82000117  0.00000000  1.0
  Zr  Zr9  1  0.66946110  0.67999883  0.00000000  1.0
  Zr  Zr10  1  0.83053890  0.17999883  0.00000000  1.0
  Zr  Zr11  1  0.33053890  0.32000117  0.00000000  1.0
  Cr  Cr12  1  0.42075711  0.74623809  0.75067963  1.0
  Cr  Cr13  1  0.42075711  0.74623809  0.24932037  1.0
  Cr  Cr14  1  0.92075711  0.75376191  0.75067963  1.0
  Cr  Cr15  1  0.92075711  0.75376191  0.24932037  1.0
  Cr  Cr16  1  0.57924289  0.25376191  0.75067963  1.0
  Cr  Cr17  1  0.57924289  0.25376191  0.24932037  1.0
  Cr  Cr18  1  0.07924289  0.24623809  0.75067963  1.0
  Cr  Cr19  1  0.07924289  0.24623809  0.24932037  1.0
  Cr  Cr20  1  0.50000000  0.50000000  0.75455021  1.0
  Cr  Cr21  1  0.50000000  0.50000000  0.24544979  1.0
  Cr  Cr22  1  0.00000000  0.00000000  0.75455021  1.0
  Cr  Cr23  1  0.00000000  0.00000000  0.24544979  1.0
  Si  Si24  1  0.17114133  0.81884777  0.64922183  1.0
  Si  Si25  1  0.17114133  0.81884777  0.35077817  1.0
  Si  Si26  1  0.67114133  0.68115223  0.64922183  1.0
  Si  Si27  1  0.67114133  0.68115223  0.35077817  1.0
  Si  Si28  1  0.82885867  0.18115223  0.64922183  1.0
  Si  Si29  1  0.82885867  0.18115223  0.35077817  1.0
  Si  Si30  1  0.32885867  0.31884777  0.64922183  1.0
  Si  Si31  1  0.32885867  0.31884777  0.35077817  1.0
  Si  Si32  1  0.45979617  0.87479496  0.50000000  1.0
  Si  Si33  1  0.95979617  0.62520504  0.50000000  1.0
  Si  Si34  1  0.54020383  0.12520504  0.50000000  1.0
  Si  Si35  1  0.04020383  0.37479496  0.50000000  1.0
  Si  Si36  1  0.39075630  0.59858340  0.50000000  1.0
  Si  Si37  1  0.89075630  0.90141660  0.50000000  1.0
  Si  Si38  1  0.60924370  0.40141660  0.50000000  1.0
  Si  Si39  1  0.10924370  0.09858340  0.50000000  1.0
  Si  Si40  1  0.46070839  0.87951987  0.00000000  1.0
  Si  Si41  1  0.96070839  0.62048013  0.00000000  1.0
  Si  Si42  1  0.53929161  0.12048013  0.00000000  1.0
  Si  Si43  1  0.03929161  0.37951987  0.00000000  1.0
  Si  Si44  1  0.37554462  0.60367836  0.00000000  1.0
  Si  Si45  1  0.87554462  0.89632164  0.00000000  1.0
  Si  Si46  1  0.62445538  0.39632164  0.00000000  1.0
  Si  Si47  1  0.12445538  0.10367836  0.00000000  1.0
