# generated using pymatgen
data_RbVSe2
_symmetry_space_group_name_H-M   'P 1'
_cell_length_a   14.35795872
_cell_length_b   12.88352716
_cell_length_c   7.53411727
_cell_angle_alpha   85.09553962
_cell_angle_beta   63.38330652
_cell_angle_gamma   31.52115386
_symmetry_Int_Tables_number   1
_chemical_formula_structural   RbVSe2
_chemical_formula_sum   'Rb4 V4 Se8'
_cell_volume   503.66427533
_cell_formula_units_Z   4
loop_
 _symmetry_equiv_pos_site_id
 _symmetry_equiv_pos_as_xyz
  1  'x, y, z'
loop_
 _atom_site_type_symbol
 _atom_site_label
 _atom_site_symmetry_multiplicity
 _atom_site_fract_x
 _atom_site_fract_y
 _atom_site_fract_z
 _atom_site_occupancy
  Rb  Rb0  1  0.32324936  1.32324936  -0.32324936  1.0
  Rb  Rb1  1  0.67675064  0.67675064  -0.67675064  1.0
  Rb  Rb2  1  0.92675064  0.92675064  0.57324936  1.0
  Rb  Rb3  1  0.57324936  -0.42675064  0.92675064  1.0
  V  V4  1  0.00000000  0.00000000  0.00000000  1.0
  V  V5  1  1.25000000  0.25000000  0.25000000  1.0
  V  V6  1  -0.50000000  0.50000000  0.50000000  1.0
  V  V7  1  0.75000000  0.75000000  0.75000000  1.0
  Se  Se8  1  0.20677219  -0.10104954  1.59992084  1.0
  Se  Se9  1  0.29435651  1.59992084  -0.10104954  1.0
  Se  Se10  1  1.59992084  0.29435651  0.20677219  1.0
  Se  Se11  1  -0.10104954  0.20677219  0.29435651  1.0
  Se  Se12  1  1.04322781  0.35104954  0.65007916  1.0
  Se  Se13  1  0.95564349  0.65007916  0.35104954  1.0
  Se  Se14  1  0.65007916  0.95564349  1.04322781  1.0
  Se  Se15  1  0.35104954  1.04322781  0.95564349  1.0
