# generated using pymatgen
data_GaMo4CS8
_symmetry_space_group_name_H-M   'P 1'
_cell_length_a   7.18799506
_cell_length_b   7.18799506
_cell_length_c   7.18799506
_cell_angle_alpha   60.00000000
_cell_angle_beta   60.00000000
_cell_angle_gamma   60.00000000
_symmetry_Int_Tables_number   1
_chemical_formula_structural   GaMo4CS8
_chemical_formula_sum   'Ga1 Mo4 C1 S8'
_cell_volume   262.60821788
_cell_formula_units_Z   1
loop_
 _symmetry_equiv_pos_site_id
 _symmetry_equiv_pos_as_xyz
  1  'x, y, z'
loop_
 _atom_site_type_symbol
 _atom_site_label
 _atom_site_symmetry_multiplicity
 _atom_site_fract_x
 _atom_site_fract_y
 _atom_site_fract_z
 _atom_site_occupancy
  Ga  Ga0  1  0.00000000  0.00000000  0.00000000  1.0
  Mo  Mo1  1  -0.40277587  0.59722413  0.59722413  1.0
  Mo  Mo2  1  1.20832761  0.59722413  -0.40277587  1.0
  Mo  Mo3  1  -0.40277587  0.59722413  1.20832761  1.0
  Mo  Mo4  1  0.59722413  1.20832761  -0.40277587  1.0
  C  C5  1  0.75000000  0.75000000  -0.25000000  1.0
  S  S6  1  0.85695704  0.85695704  -0.14304296  1.0
  S  S7  1  0.42912889  0.85695704  -0.14304296  1.0
  S  S8  1  0.85695704  0.85695704  -0.57087111  1.0
  S  S9  1  0.85695704  0.42912889  -0.14304296  1.0
  S  S10  1  0.36997345  1.36997345  0.36997345  1.0
  S  S11  1  -0.10992036  0.36997345  0.36997345  1.0
  S  S12  1  0.36997345  1.36997345  -0.10992036  1.0
  S  S13  1  0.36997345  -0.10992036  0.36997345  1.0
