# generated using pymatgen
data_CsFeBr3
_symmetry_space_group_name_H-M   'P 1'
_cell_length_a   7.81601561
_cell_length_b   7.81601561
_cell_length_c   6.23049965
_cell_angle_alpha   90.00000000
_cell_angle_beta   90.00000000
_cell_angle_gamma   120.00000000
_symmetry_Int_Tables_number   1
_chemical_formula_structural   CsFeBr3
_chemical_formula_sum   'Cs2 Fe2 Br6'
_cell_volume   329.62818862
_cell_formula_units_Z   2
loop_
 _symmetry_equiv_pos_site_id
 _symmetry_equiv_pos_as_xyz
  1  'x, y, z'
loop_
 _atom_site_type_symbol
 _atom_site_label
 _atom_site_symmetry_multiplicity
 _atom_site_fract_x
 _atom_site_fract_y
 _atom_site_fract_z
 _atom_site_occupancy
  Cs  Cs0  1  0.33333333  0.66666667  0.75000000  1.0
  Cs  Cs1  1  0.66666667  0.33333333  0.25000000  1.0
  Fe  Fe2  1  0.00000000  0.00000000  0.50000000  1.0
  Fe  Fe3  1  0.00000000  0.00000000  0.00000000  1.0
  Br  Br4  1  0.15725875  0.84274125  0.25000000  1.0
  Br  Br5  1  0.15725875  0.31451750  0.25000000  1.0
  Br  Br6  1  0.84274125  0.15725875  0.75000000  1.0
  Br  Br7  1  0.84274125  0.68548250  0.75000000  1.0
  Br  Br8  1  0.68548250  0.84274125  0.25000000  1.0
  Br  Br9  1  0.31451750  0.15725875  0.75000000  1.0
