# generated using pymatgen
data_CsGeB3O7
_symmetry_space_group_name_H-M   'P 1'
_cell_length_a   9.69645774
_cell_length_b   10.20803591
_cell_length_c   7.08920685
_cell_angle_alpha   90.00000000
_cell_angle_beta   90.00000000
_cell_angle_gamma   90.00000000
_symmetry_Int_Tables_number   1
_chemical_formula_structural   CsGeB3O7
_chemical_formula_sum   'Cs4 Ge4 B12 O28'
_cell_volume   701.70237457
_cell_formula_units_Z   4
loop_
 _symmetry_equiv_pos_site_id
 _symmetry_equiv_pos_as_xyz
  1  'x, y, z'
loop_
 _atom_site_type_symbol
 _atom_site_label
 _atom_site_symmetry_multiplicity
 _atom_site_fract_x
 _atom_site_fract_y
 _atom_site_fract_z
 _atom_site_occupancy
  Cs  Cs0  1  0.50037305  0.17694531  0.68741412  1.0
  Cs  Cs1  1  1.00037305  0.32305469  0.68741412  1.0
  Cs  Cs2  1  0.49962695  0.82305469  0.18741412  1.0
  Cs  Cs3  1  -0.00037305  0.67694531  0.18741412  1.0
  Ge  Ge4  1  0.22578076  0.88828884  0.67417377  1.0
  Ge  Ge5  1  0.72578076  0.61171116  0.67417377  1.0
  Ge  Ge6  1  0.77421924  0.11171116  0.17417377  1.0
  Ge  Ge7  1  0.27421924  0.38828884  0.17417377  1.0
  B  B8  1  0.45225759  0.71277505  0.64240604  1.0
  B  B9  1  0.95225759  0.78722495  0.64240604  1.0
  B  B10  1  0.54774241  0.28722495  0.14240604  1.0
  B  B11  1  0.04774241  0.21277505  0.14240604  1.0
  B  B12  1  0.34181076  0.56261534  0.87739587  1.0
  B  B13  1  0.84181076  0.93738466  0.87739587  1.0
  B  B14  1  0.65818924  0.43738466  0.37739587  1.0
  B  B15  1  0.15818924  0.06261534  0.37739587  1.0
  B  B16  1  0.32375606  0.50927247  0.54720064  1.0
  B  B17  1  0.82375606  0.99072753  0.54720064  1.0
  B  B18  1  0.67624394  0.49072753  0.04720064  1.0
  B  B19  1  0.17624394  0.00927247  0.04720064  1.0
  O  O20  1  0.41720745  0.67065100  0.83589571  1.0
  O  O21  1  0.91720745  0.82934900  0.83589571  1.0
  O  O22  1  0.58279255  0.32934900  0.33589571  1.0
  O  O23  1  0.08279255  0.17065100  0.33589571  1.0
  O  O24  1  0.40100475  0.61483778  0.50076165  1.0
  O  O25  1  0.90100475  0.88516222  0.50076165  1.0
  O  O26  1  0.59899525  0.38516222  0.00076165  1.0
  O  O27  1  0.09899525  0.11483778  0.00076165  1.0
  O  O28  1  0.39207235  0.84294531  0.60236498  1.0
  O  O29  1  0.89207235  0.65705469  0.60236498  1.0
  O  O30  1  0.60792765  0.15705469  0.10236498  1.0
  O  O31  1  0.10792765  0.34294531  0.10236498  1.0
  O  O32  1  0.30757578  0.54301050  0.06451870  1.0
  O  O33  1  0.80757578  0.95698950  0.06451870  1.0
  O  O34  1  0.69242422  0.45698950  0.56451870  1.0
  O  O35  1  0.19242422  0.04301050  0.56451870  1.0
  O  O36  1  0.23591128  0.92327512  0.92128567  1.0
  O  O37  1  0.73591128  0.57672488  0.92128567  1.0
  O  O38  1  0.76408872  0.07672488  0.42128567  1.0
  O  O39  1  0.26408872  0.42327512  0.42128567  1.0
  O  O40  1  0.10233629  0.76877188  0.62086042  1.0
  O  O41  1  0.60233629  0.73122812  0.62086042  1.0
  O  O42  1  0.89766371  0.23122812  0.12086042  1.0
  O  O43  1  0.39766371  0.26877188  0.12086042  1.0
  O  O44  1  0.79628935  0.02267065  0.73712244  1.0
  O  O45  1  0.29628935  0.47732935  0.73712244  1.0
  O  O46  1  0.20371065  0.97732935  0.23712244  1.0
  O  O47  1  0.70371065  0.52267065  0.23712244  1.0
