# generated using pymatgen
data_Li6Zr6HCl18
_symmetry_space_group_name_H-M   'P 1'
_cell_length_a   9.83276241
_cell_length_b   9.83276241
_cell_length_c   9.83276241
_cell_angle_alpha   111.21735616
_cell_angle_beta   111.21735616
_cell_angle_gamma   111.21735616
_symmetry_Int_Tables_number   1
_chemical_formula_structural   Li6Zr6HCl18
_chemical_formula_sum   'Li6 Zr6 H1 Cl18'
_cell_volume   680.41667667
_cell_formula_units_Z   1
loop_
 _symmetry_equiv_pos_site_id
 _symmetry_equiv_pos_as_xyz
  1  'x, y, z'
loop_
 _atom_site_type_symbol
 _atom_site_label
 _atom_site_symmetry_multiplicity
 _atom_site_fract_x
 _atom_site_fract_y
 _atom_site_fract_z
 _atom_site_occupancy
  Li  Li0  1  1.21249549  0.66622251  0.58765105  1.0
  Li  Li1  1  0.58765105  0.21249549  -0.33377749  1.0
  Li  Li2  1  0.66622251  0.58765105  0.21249549  1.0
  Li  Li3  1  0.78750451  0.33377749  0.41234895  1.0
  Li  Li4  1  0.41234895  0.78750451  -0.66622251  1.0
  Li  Li5  1  1.33377749  0.41234895  0.78750451  1.0
  Zr  Zr6  1  0.24913851  1.02485385  -0.83928519  1.0
  Zr  Zr7  1  1.16071481  1.24913851  0.02485385  1.0
  Zr  Zr8  1  1.02485385  0.16071481  0.24913851  1.0
  Zr  Zr9  1  0.75086149  -0.02485385  -0.16071481  1.0
  Zr  Zr10  1  0.83928519  0.75086149  -0.02485385  1.0
  Zr  Zr11  1  0.97514615  0.83928519  0.75086149  1.0
  H  H12  1  0.00000000  0.00000000  0.00000000  1.0
  Cl  Cl13  1  0.53359135  -0.30939509  -0.20844842  1.0
  Cl  Cl14  1  0.79155158  1.53359135  -0.30939509  1.0
  Cl  Cl15  1  0.69060491  0.79155158  -0.46640865  1.0
  Cl  Cl16  1  0.46640865  0.30939509  0.20844842  1.0
  Cl  Cl17  1  1.20844842  0.46640865  0.30939509  1.0
  Cl  Cl18  1  1.30939509  1.20844842  0.46640865  1.0
  Cl  Cl19  1  1.10206098  0.74644775  0.15478846  1.0
  Cl  Cl20  1  0.15478846  0.10206098  -0.25355225  1.0
  Cl  Cl21  1  0.74644775  0.15478846  0.10206098  1.0
  Cl  Cl22  1  0.89793902  1.25355225  -0.15478846  1.0
  Cl  Cl23  1  0.84521154  -0.10206098  0.25355225  1.0
  Cl  Cl24  1  1.25355225  0.84521154  0.89793902  1.0
  Cl  Cl25  1  0.44325062  -0.07088729  -0.37191716  1.0
  Cl  Cl26  1  0.62808284  0.44325062  -0.07088729  1.0
  Cl  Cl27  1  0.92911271  0.62808284  0.44325062  1.0
  Cl  Cl28  1  0.55674938  1.07088729  -0.62808284  1.0
  Cl  Cl29  1  1.37191716  1.55674938  0.07088729  1.0
  Cl  Cl30  1  1.07088729  0.37191716  0.55674938  1.0
