# generated using pymatgen
data_VCdO3
_symmetry_space_group_name_H-M   'P 1'
_cell_length_a   5.38204316
_cell_length_b   7.58216016
_cell_length_c   5.30690094
_cell_angle_alpha   90.00000000
_cell_angle_beta   90.00000000
_cell_angle_gamma   90.00000000
_symmetry_Int_Tables_number   1
_chemical_formula_structural   VCdO3
_chemical_formula_sum   'V4 Cd4 O12'
_cell_volume   216.56143064
_cell_formula_units_Z   4
loop_
 _symmetry_equiv_pos_site_id
 _symmetry_equiv_pos_as_xyz
  1  'x, y, z'
loop_
 _atom_site_type_symbol
 _atom_site_label
 _atom_site_symmetry_multiplicity
 _atom_site_fract_x
 _atom_site_fract_y
 _atom_site_fract_z
 _atom_site_occupancy
  V  V0  1  0.50000000  0.00000000  0.50000000  1.0
  V  V1  1  0.50000000  0.50000000  0.50000000  1.0
  V  V2  1  0.00000000  0.00000000  0.00000000  1.0
  V  V3  1  0.00000000  0.50000000  0.00000000  1.0
  Cd  Cd4  1  0.03398778  0.75000000  0.50830997  1.0
  Cd  Cd5  1  0.53398778  0.75000000  0.99169003  1.0
  Cd  Cd6  1  0.96601222  0.25000000  0.49169003  1.0
  Cd  Cd7  1  0.46601222  0.25000000  0.00830997  1.0
  O  O8  1  0.28871903  0.95609700  0.79332204  1.0
  O  O9  1  0.28871903  0.54390300  0.79332204  1.0
  O  O10  1  0.78871903  0.95609700  0.70667796  1.0
  O  O11  1  0.78871903  0.54390300  0.70667796  1.0
  O  O12  1  0.71128097  0.45609700  0.20667796  1.0
  O  O13  1  0.71128097  0.04390300  0.20667796  1.0
  O  O14  1  0.21128097  0.45609700  0.29332204  1.0
  O  O15  1  0.21128097  0.04390300  0.29332204  1.0
  O  O16  1  0.97940290  0.75000000  0.08592267  1.0
  O  O17  1  0.47940290  0.75000000  0.41407733  1.0
  O  O18  1  0.02059710  0.25000000  0.91407733  1.0
  O  O19  1  0.52059710  0.25000000  0.58592267  1.0
