# generated using pymatgen
data_CsY2Cl7
_symmetry_space_group_name_H-M   'P 1'
_cell_length_a   14.36650575
_cell_length_b   7.03580679
_cell_length_c   12.70924370
_cell_angle_alpha   90.00000000
_cell_angle_beta   90.00000000
_cell_angle_gamma   90.00000000
_symmetry_Int_Tables_number   1
_chemical_formula_structural   CsY2Cl7
_chemical_formula_sum   'Cs4 Y8 Cl28'
_cell_volume   1284.64982864
_cell_formula_units_Z   4
loop_
 _symmetry_equiv_pos_site_id
 _symmetry_equiv_pos_as_xyz
  1  'x, y, z'
loop_
 _atom_site_type_symbol
 _atom_site_label
 _atom_site_symmetry_multiplicity
 _atom_site_fract_x
 _atom_site_fract_y
 _atom_site_fract_z
 _atom_site_occupancy
  Cs  Cs0  1  0.46936536  0.75000000  0.29161769  1.0
  Cs  Cs1  1  0.96936536  0.75000000  0.20838231  1.0
  Cs  Cs2  1  0.53063464  0.25000000  0.70838231  1.0
  Cs  Cs3  1  0.03063464  0.25000000  0.79161769  1.0
  Y  Y4  1  0.25682341  0.75000000  0.94714061  1.0
  Y  Y5  1  0.75682341  0.75000000  0.55285939  1.0
  Y  Y6  1  0.74317659  0.25000000  0.05285939  1.0
  Y  Y7  1  0.24317659  0.25000000  0.44714061  1.0
  Y  Y8  1  0.25247990  0.75000000  0.64316777  1.0
  Y  Y9  1  0.75247990  0.75000000  0.85683223  1.0
  Y  Y10  1  0.74752010  0.25000000  0.35683223  1.0
  Y  Y11  1  0.24752010  0.25000000  0.14316777  1.0
  Cl  Cl12  1  0.36537385  0.98978697  0.06232478  1.0
  Cl  Cl13  1  0.36537385  0.51021303  0.06232478  1.0
  Cl  Cl14  1  0.86537385  0.98978697  0.43767522  1.0
  Cl  Cl15  1  0.86537385  0.51021303  0.43767522  1.0
  Cl  Cl16  1  0.63462615  0.48978697  0.93767522  1.0
  Cl  Cl17  1  0.63462615  0.01021303  0.93767522  1.0
  Cl  Cl18  1  0.13462615  0.48978697  0.56232478  1.0
  Cl  Cl19  1  0.13462615  0.01021303  0.56232478  1.0
  Cl  Cl20  1  0.36361436  0.99021570  0.52822999  1.0
  Cl  Cl21  1  0.36361436  0.50978430  0.52822999  1.0
  Cl  Cl22  1  0.86361436  0.99021570  0.97177001  1.0
  Cl  Cl23  1  0.86361436  0.50978430  0.97177001  1.0
  Cl  Cl24  1  0.63638564  0.49021570  0.47177001  1.0
  Cl  Cl25  1  0.63638564  0.00978430  0.47177001  1.0
  Cl  Cl26  1  0.13638564  0.49021570  0.02822999  1.0
  Cl  Cl27  1  0.13638564  0.00978430  0.02822999  1.0
  Cl  Cl28  1  0.31820209  0.98802272  0.79452531  1.0
  Cl  Cl29  1  0.31820209  0.51197728  0.79452531  1.0
  Cl  Cl30  1  0.81820209  0.98802272  0.70547469  1.0
  Cl  Cl31  1  0.81820209  0.51197728  0.70547469  1.0
  Cl  Cl32  1  0.68179791  0.48802272  0.20547469  1.0
  Cl  Cl33  1  0.68179791  0.01197728  0.20547469  1.0
  Cl  Cl34  1  0.18179791  0.48802272  0.29452531  1.0
  Cl  Cl35  1  0.18179791  0.01197728  0.29452531  1.0
  Cl  Cl36  1  0.11725522  0.75000000  0.79640250  1.0
  Cl  Cl37  1  0.61725522  0.75000000  0.70359750  1.0
  Cl  Cl38  1  0.88274478  0.25000000  0.20359750  1.0
  Cl  Cl39  1  0.38274478  0.25000000  0.29640250  1.0
