# generated using pymatgen
data_Fe2PO5
_symmetry_space_group_name_H-M   'P 1'
_cell_length_a   7.45725970
_cell_length_b   6.55464742
_cell_length_c   7.58631944
_cell_angle_alpha   90.00000000
_cell_angle_beta   90.00000000
_cell_angle_gamma   90.00000000
_symmetry_Int_Tables_number   1
_chemical_formula_structural   Fe2PO5
_chemical_formula_sum   'Fe8 P4 O20'
_cell_volume   370.81707954
_cell_formula_units_Z   4
loop_
 _symmetry_equiv_pos_site_id
 _symmetry_equiv_pos_as_xyz
  1  'x, y, z'
loop_
 _atom_site_type_symbol
 _atom_site_label
 _atom_site_symmetry_multiplicity
 _atom_site_fract_x
 _atom_site_fract_y
 _atom_site_fract_z
 _atom_site_occupancy
  Fe  Fe0  1  0.86022015  0.75000000  0.71547250  1.0
  Fe  Fe1  1  0.36022015  0.75000000  0.78452750  1.0
  Fe  Fe2  1  0.13977985  0.25000000  0.28452750  1.0
  Fe  Fe3  1  0.63977985  0.25000000  0.21547250  1.0
  Fe  Fe4  1  0.00000000  -0.00000000  0.00000000  1.0
  Fe  Fe5  1  0.00000000  0.50000000  0.00000000  1.0
  Fe  Fe6  1  0.50000000  0.00000000  0.50000000  1.0
  Fe  Fe7  1  0.50000000  0.50000000  0.50000000  1.0
  P  P8  1  0.62801850  0.75000000  0.14015536  1.0
  P  P9  1  0.12801850  0.75000000  0.35984464  1.0
  P  P10  1  0.37198150  0.25000000  0.85984464  1.0
  P  P11  1  0.87198150  0.25000000  0.64015536  1.0
  O  O12  1  0.62892358  0.94081540  0.26299625  1.0
  O  O13  1  0.62892358  0.55918460  0.26299625  1.0
  O  O14  1  0.12892358  0.94081540  0.23700375  1.0
  O  O15  1  0.12892358  0.55918460  0.23700375  1.0
  O  O16  1  0.37107642  0.44081540  0.73700375  1.0
  O  O17  1  0.37107642  0.05918460  0.73700375  1.0
  O  O18  1  0.87107642  0.44081540  0.76299625  1.0
  O  O19  1  0.87107642  0.05918460  0.76299625  1.0
  O  O20  1  0.96478559  0.75000000  0.48098115  1.0
  O  O21  1  0.46478559  0.75000000  0.01901885  1.0
  O  O22  1  0.03521441  0.25000000  0.51901885  1.0
  O  O23  1  0.53521441  0.25000000  0.98098115  1.0
  O  O24  1  0.80687772  0.75000000  0.03024670  1.0
  O  O25  1  0.30687772  0.75000000  0.46975330  1.0
  O  O26  1  0.19312228  0.25000000  0.96975330  1.0
  O  O27  1  0.69312228  0.25000000  0.53024670  1.0
  O  O28  1  0.60430417  0.75000000  0.63567286  1.0
  O  O29  1  0.10430417  0.75000000  0.86432714  1.0
  O  O30  1  0.39569583  0.25000000  0.36432714  1.0
  O  O31  1  0.89569583  0.25000000  0.13567286  1.0
