# generated using pymatgen
data_VAu4
_symmetry_space_group_name_H-M   'P 1'
_cell_length_a   5.01742757
_cell_length_b   5.01742757
_cell_length_c   5.01742757
_cell_angle_alpha   99.31786925
_cell_angle_beta   99.31786925
_cell_angle_gamma   132.54560366
_symmetry_Int_Tables_number   1
_chemical_formula_structural   VAu4
_chemical_formula_sum   'V1 Au4'
_cell_volume   85.19265153
_cell_formula_units_Z   1
loop_
 _symmetry_equiv_pos_site_id
 _symmetry_equiv_pos_as_xyz
  1  'x, y, z'
loop_
 _atom_site_type_symbol
 _atom_site_label
 _atom_site_symmetry_multiplicity
 _atom_site_fract_x
 _atom_site_fract_y
 _atom_site_fract_z
 _atom_site_occupancy
  V  V0  1  0.00000000  0.00000000  0.00000000  1.0
  Au  Au1  1  0.79450378  0.60366435  0.39816814  1.0
  Au  Au2  1  0.60366435  0.20549622  0.80916057  1.0
  Au  Au3  1  1.20549622  1.39633565  1.60183186  1.0
  Au  Au4  1  0.39633565  0.79450378  1.19083943  1.0
