# generated using pymatgen
data_CsAuSe
_symmetry_space_group_name_H-M   'P 1'
_cell_length_a   5.70415910
_cell_length_b   5.70415910
_cell_length_c   7.27506071
_cell_angle_alpha   90.00000000
_cell_angle_beta   90.00000000
_cell_angle_gamma   100.23562717
_symmetry_Int_Tables_number   1
_chemical_formula_structural   CsAuSe
_chemical_formula_sum   'Cs2 Au2 Se2'
_cell_volume   232.94459021
_cell_formula_units_Z   2
loop_
 _symmetry_equiv_pos_site_id
 _symmetry_equiv_pos_as_xyz
  1  'x, y, z'
loop_
 _atom_site_type_symbol
 _atom_site_label
 _atom_site_symmetry_multiplicity
 _atom_site_fract_x
 _atom_site_fract_y
 _atom_site_fract_z
 _atom_site_occupancy
  Cs  Cs0  1  -0.36468970  1.36468970  0.25000000  1.0
  Cs  Cs1  1  0.36468970  0.63531030  0.75000000  1.0
  Au  Au2  1  0.00000000  0.00000000  0.50000000  1.0
  Au  Au3  1  0.00000000  0.00000000  0.00000000  1.0
  Se  Se4  1  0.18755672  0.81244328  0.25000000  1.0
  Se  Se5  1  -0.18755672  1.18755672  0.75000000  1.0
