# generated using pymatgen
data_Cs5Sb8
_symmetry_space_group_name_H-M   'P 1'
_cell_length_a   7.44684586
_cell_length_b   11.68434442
_cell_length_c   28.37301216
_cell_angle_alpha   90.00000000
_cell_angle_beta   97.20097224
_cell_angle_gamma   90.00000000
_symmetry_Int_Tables_number   1
_chemical_formula_structural   Cs5Sb8
_chemical_formula_sum   'Cs20 Sb32'
_cell_volume   2449.30637446
_cell_formula_units_Z   4
loop_
 _symmetry_equiv_pos_site_id
 _symmetry_equiv_pos_as_xyz
  1  'x, y, z'
loop_
 _atom_site_type_symbol
 _atom_site_label
 _atom_site_symmetry_multiplicity
 _atom_site_fract_x
 _atom_site_fract_y
 _atom_site_fract_z
 _atom_site_occupancy
  Cs  Cs0  1  0.97993228  0.81511998  0.62377343  1.0
  Cs  Cs1  1  0.97993228  0.68488002  0.12377343  1.0
  Cs  Cs2  1  0.02006772  0.31511998  0.87622657  1.0
  Cs  Cs3  1  0.02006772  0.18488002  0.37622657  1.0
  Cs  Cs4  1  0.70483117  0.53941136  0.74177113  1.0
  Cs  Cs5  1  0.70483117  0.96058864  0.24177113  1.0
  Cs  Cs6  1  0.29516883  0.03941136  0.75822887  1.0
  Cs  Cs7  1  0.29516883  0.46058864  0.25822887  1.0
  Cs  Cs8  1  0.47043379  0.56648070  0.57511912  1.0
  Cs  Cs9  1  0.47043379  0.93351930  0.07511912  1.0
  Cs  Cs10  1  0.52956621  0.06648070  0.92488088  1.0
  Cs  Cs11  1  0.52956621  0.43351930  0.42488088  1.0
  Cs  Cs12  1  0.25714444  0.60476616  0.97967909  1.0
  Cs  Cs13  1  0.25714444  0.89523384  0.47967909  1.0
  Cs  Cs14  1  0.74285556  0.10476616  0.52032091  1.0
  Cs  Cs15  1  0.74285556  0.39523384  0.02032091  1.0
  Cs  Cs16  1  0.23248973  0.69342132  0.81273649  1.0
  Cs  Cs17  1  0.23248973  0.80657868  0.31273649  1.0
  Cs  Cs18  1  0.76751027  0.19342132  0.68726351  1.0
  Cs  Cs19  1  0.76751027  0.30657868  0.18726351  1.0
  Sb  Sb20  1  0.98866382  0.47868196  0.62523293  1.0
  Sb  Sb21  1  0.98866382  0.02131804  0.12523293  1.0
  Sb  Sb22  1  0.01133618  0.97868196  0.87476707  1.0
  Sb  Sb23  1  0.01133618  0.52131804  0.37476707  1.0
  Sb  Sb24  1  0.93758823  0.40477995  0.52793693  1.0
  Sb  Sb25  1  0.93758823  0.09522005  0.02793693  1.0
  Sb  Sb26  1  0.06241177  0.90477995  0.97206307  1.0
  Sb  Sb27  1  0.06241177  0.59522005  0.47206307  1.0
  Sb  Sb28  1  0.80952004  0.64032372  0.88738900  1.0
  Sb  Sb29  1  0.80952004  0.85967628  0.38738900  1.0
  Sb  Sb30  1  0.19047996  0.14032372  0.61261100  1.0
  Sb  Sb31  1  0.19047996  0.35967628  0.11261100  1.0
  Sb  Sb32  1  0.81347234  0.87288267  0.74387661  1.0
  Sb  Sb33  1  0.81347234  0.62711733  0.24387661  1.0
  Sb  Sb34  1  0.18652766  0.37288267  0.75612339  1.0
  Sb  Sb35  1  0.18652766  0.12711733  0.25612339  1.0
  Sb  Sb36  1  0.76367178  0.74957484  0.97538811  1.0
  Sb  Sb37  1  0.76367178  0.75042516  0.47538811  1.0
  Sb  Sb38  1  0.23632822  0.24957484  0.52461189  1.0
  Sb  Sb39  1  0.23632822  0.25042516  0.02461189  1.0
  Sb  Sb40  1  0.69877285  0.85734549  0.83580958  1.0
  Sb  Sb41  1  0.69877285  0.64265451  0.33580958  1.0
  Sb  Sb42  1  0.30122715  0.35734549  0.66419042  1.0
  Sb  Sb43  1  0.30122715  0.14265451  0.16419042  1.0
  Sb  Sb44  1  0.49283949  0.80540238  0.68277354  1.0
  Sb  Sb45  1  0.49283949  0.69459762  0.18277354  1.0
  Sb  Sb46  1  0.50716051  0.30540238  0.81722646  1.0
  Sb  Sb47  1  0.50716051  0.19459762  0.31722646  1.0
  Sb  Sb48  1  0.47007059  0.96535138  0.60815190  1.0
  Sb  Sb49  1  0.47007059  0.53464862  0.10815190  1.0
  Sb  Sb50  1  0.52992941  0.46535138  0.89184810  1.0
  Sb  Sb51  1  0.52992941  0.03464862  0.39184810  1.0
