# generated using pymatgen
data_FeH2(CN2)2
_symmetry_space_group_name_H-M   'P 1'
_cell_length_a   6.75899585
_cell_length_b   8.76492919
_cell_length_c   3.42026309
_cell_angle_alpha   90.00000000
_cell_angle_beta   90.00000000
_cell_angle_gamma   90.00000000
_symmetry_Int_Tables_number   1
_chemical_formula_structural   FeH2(CN2)2
_chemical_formula_sum   'Fe2 H4 C4 N8'
_cell_volume   202.62363648
_cell_formula_units_Z   2
loop_
 _symmetry_equiv_pos_site_id
 _symmetry_equiv_pos_as_xyz
  1  'x, y, z'
loop_
 _atom_site_type_symbol
 _atom_site_label
 _atom_site_symmetry_multiplicity
 _atom_site_fract_x
 _atom_site_fract_y
 _atom_site_fract_z
 _atom_site_occupancy
  Fe  Fe0  1  0.50000000  0.50000000  0.50000000  1.0
  Fe  Fe1  1  0.00000000  0.00000000  0.00000000  1.0
  H  H2  1  0.30256160  0.06062637  0.50000000  1.0
  H  H3  1  0.80256160  0.43937363  0.00000000  1.0
  H  H4  1  0.69743840  0.93937363  0.50000000  1.0
  H  H5  1  0.19743840  0.56062637  0.00000000  1.0
  C  C6  1  0.32335999  0.83862548  0.50000000  1.0
  C  C7  1  0.82335999  0.66137452  0.00000000  1.0
  C  C8  1  0.67664001  0.16137452  0.50000000  1.0
  C  C9  1  0.17664001  0.33862548  0.00000000  1.0
  N  N10  1  0.40571961  0.71950313  0.50000000  1.0
  N  N11  1  0.90571961  0.78049687  0.00000000  1.0
  N  N12  1  0.59428039  0.28049687  0.50000000  1.0
  N  N13  1  0.09428039  0.21950313  0.00000000  1.0
  N  N14  1  0.21897248  0.96315386  0.50000000  1.0
  N  N15  1  0.71897248  0.53684614  0.00000000  1.0
  N  N16  1  0.78102752  0.03684614  0.50000000  1.0
  N  N17  1  0.28102752  0.46315386  0.00000000  1.0
