# generated using pymatgen
data_Ba2Na(NiO2)3
_symmetry_space_group_name_H-M   'P 1'
_cell_length_a   9.22531659
_cell_length_b   8.42806284
_cell_length_c   7.01763424
_cell_angle_alpha   72.70179770
_cell_angle_beta   60.72218531
_cell_angle_gamma   46.57601699
_symmetry_Int_Tables_number   1
_chemical_formula_structural   Ba2Na(NiO2)3
_chemical_formula_sum   'Ba4 Na2 Ni6 O12'
_cell_volume   345.01377139
_cell_formula_units_Z   2
loop_
 _symmetry_equiv_pos_site_id
 _symmetry_equiv_pos_as_xyz
  1  'x, y, z'
loop_
 _atom_site_type_symbol
 _atom_site_label
 _atom_site_symmetry_multiplicity
 _atom_site_fract_x
 _atom_site_fract_y
 _atom_site_fract_z
 _atom_site_occupancy
  Ba  Ba0  1  -0.26959033  0.26959033  0.73040967  1.0
  Ba  Ba1  1  0.26959033  -0.26959033  1.26959033  1.0
  Ba  Ba2  1  -0.25000000  0.75000000  0.75000000  1.0
  Ba  Ba3  1  0.25000000  0.25000000  1.25000000  1.0
  Ni  Ni4  1  0.20826637  0.50520464  -0.20826637  1.0
  Ni  Ni5  1  -0.50520464  0.79173363  0.50520464  1.0
  Ni  Ni6  1  -0.49479536  1.20826637  0.49479536  1.0
  Ni  Ni7  1  -0.20826637  0.49479536  0.20826637  1.0
  Ni  Ni8  1  -0.80115802  0.80115802  0.80115802  1.0
  Ni  Ni9  1  -0.19884198  0.19884198  0.19884198  1.0
  O  O10  1  1.00425789  -0.19300988  0.77369170  1.0
  O  O11  1  0.19300988  -0.00425789  1.58493971  1.0
  O  O12  1  0.22630830  0.58493971  -0.00425789  1.0
  O  O13  1  -0.58493971  0.77369170  0.80699012  1.0
  O  O14  1  0.58493971  0.22630830  1.19300988  1.0
  O  O15  1  0.77369170  -0.58493971  1.00425789  1.0
  O  O16  1  -0.19300988  1.00425789  0.41506029  1.0
  O  O17  1  -0.00425789  0.19300988  0.22630830  1.0
  O  O18  1  0.57307375  -0.20221839  1.20221839  1.0
  O  O19  1  1.20221839  -0.57307375  0.57307375  1.0
  O  O20  1  -0.20221839  0.57307375  0.42692625  1.0
  O  O21  1  0.42692625  0.20221839  -0.20221839  1.0
  Na  Na22  1  -0.16880142  0.83119858  0.16880142  1.0
  Na  Na23  1  0.16880142  0.16880142  -0.16880142  1.0
