# generated using pymatgen
data_Nb2B2Ru
_symmetry_space_group_name_H-M   'P 1'
_cell_length_a   5.91704773
_cell_length_b   5.91704773
_cell_length_c   6.81588939
_cell_angle_alpha   90.00000000
_cell_angle_beta   90.00000000
_cell_angle_gamma   90.00000000
_symmetry_Int_Tables_number   1
_chemical_formula_structural   Nb2B2Ru
_chemical_formula_sum   'Nb8 B8 Ru4'
_cell_volume   238.63419677
_cell_formula_units_Z   4
loop_
 _symmetry_equiv_pos_site_id
 _symmetry_equiv_pos_as_xyz
  1  'x, y, z'
loop_
 _atom_site_type_symbol
 _atom_site_label
 _atom_site_symmetry_multiplicity
 _atom_site_fract_x
 _atom_site_fract_y
 _atom_site_fract_z
 _atom_site_occupancy
  Nb  Nb0  1  0.66665260  0.81302448  0.50000000  1.0
  Nb  Nb1  1  0.33334740  0.18697552  0.50000000  1.0
  Nb  Nb2  1  0.83334740  0.31302448  0.00000000  1.0
  Nb  Nb3  1  0.16665260  0.68697552  0.00000000  1.0
  Nb  Nb4  1  0.81302448  0.33334740  0.50000000  1.0
  Nb  Nb5  1  0.18697552  0.66665260  0.50000000  1.0
  Nb  Nb6  1  0.31302448  0.16665260  0.00000000  1.0
  Nb  Nb7  1  0.68697552  0.83334740  0.00000000  1.0
  B  B8  1  0.38826748  0.88826748  0.25000000  1.0
  B  B9  1  0.61173252  0.11173252  0.25000000  1.0
  B  B10  1  0.11173252  0.38826748  0.75000000  1.0
  B  B11  1  0.88826748  0.61173252  0.75000000  1.0
  B  B12  1  0.88826748  0.61173252  0.25000000  1.0
  B  B13  1  0.11173252  0.38826748  0.25000000  1.0
  B  B14  1  0.38826748  0.88826748  0.75000000  1.0
  B  B15  1  0.61173252  0.11173252  0.75000000  1.0
  Ru  Ru16  1  0.50000000  0.50000000  0.22121503  1.0
  Ru  Ru17  1  0.00000000  0.00000000  0.72121503  1.0
  Ru  Ru18  1  0.50000000  0.50000000  0.77878497  1.0
  Ru  Ru19  1  0.00000000  0.00000000  0.27878497  1.0
