# generated using pymatgen
data_MnPbO3
_symmetry_space_group_name_H-M   'P 1'
_cell_length_a   11.18824896
_cell_length_b   5.74709491
_cell_length_c   5.16732205
_cell_angle_alpha   90.00000000
_cell_angle_beta   81.27819480
_cell_angle_gamma   90.00000000
_symmetry_Int_Tables_number   1
_chemical_formula_structural   MnPbO3
_chemical_formula_sum   'Mn4 Pb4 O12'
_cell_volume   328.41628518
_cell_formula_units_Z   4
loop_
 _symmetry_equiv_pos_site_id
 _symmetry_equiv_pos_as_xyz
  1  'x, y, z'
loop_
 _atom_site_type_symbol
 _atom_site_label
 _atom_site_symmetry_multiplicity
 _atom_site_fract_x
 _atom_site_fract_y
 _atom_site_fract_z
 _atom_site_occupancy
  Mn  Mn0  1  0.50000000  0.87507354  0.25000000  1.0
  Mn  Mn1  1  0.50000000  0.12492646  0.75000000  1.0
  Mn  Mn2  1  0.50000000  0.37503086  0.25000000  1.0
  Mn  Mn3  1  0.50000000  0.62496914  0.75000000  1.0
  Pb  Pb4  1  0.88163184  0.75003271  0.53883252  1.0
  Pb  Pb5  1  0.88163184  0.24996729  1.03883252  1.0
  Pb  Pb6  1  0.11836816  0.75003271  -0.03883252  1.0
  Pb  Pb7  1  0.11836816  0.24996729  0.46116748  1.0
  O  O8  1  0.58536764  0.87511332  0.89023506  1.0
  O  O9  1  0.58536764  0.12488668  0.39023506  1.0
  O  O10  1  0.41463236  0.87511332  0.60976494  1.0
  O  O11  1  0.41463236  0.12488668  0.10976494  1.0
  O  O12  1  0.58537870  0.62478294  0.38986451  1.0
  O  O13  1  0.58537870  0.37521706  0.88986451  1.0
  O  O14  1  0.41462130  0.62478294  0.11013549  1.0
  O  O15  1  0.41462130  0.37521706  0.61013549  1.0
  O  O16  1  -0.00000000  0.99977471  0.25000000  1.0
  O  O17  1  -0.00000000  0.00022529  0.75000000  1.0
  O  O18  1  -0.00000000  0.49978467  0.25000000  1.0
  O  O19  1  -0.00000000  0.50021533  0.75000000  1.0
