# generated using pymatgen
data_AsPdSe
_symmetry_space_group_name_H-M   'P 1'
_cell_length_a   6.18014215
_cell_length_b   6.18014215
_cell_length_c   6.18014215
_cell_angle_alpha   90.00000000
_cell_angle_beta   90.00000000
_cell_angle_gamma   90.00000000
_symmetry_Int_Tables_number   1
_chemical_formula_structural   AsPdSe
_chemical_formula_sum   'As4 Pd4 Se4'
_cell_volume   236.04531988
_cell_formula_units_Z   4
loop_
 _symmetry_equiv_pos_site_id
 _symmetry_equiv_pos_as_xyz
  1  'x, y, z'
loop_
 _atom_site_type_symbol
 _atom_site_label
 _atom_site_symmetry_multiplicity
 _atom_site_fract_x
 _atom_site_fract_y
 _atom_site_fract_z
 _atom_site_occupancy
  As  As0  1  0.11643257  0.61643257  0.88356743  1.0
  As  As1  1  0.61643257  0.88356743  0.11643257  1.0
  As  As2  1  0.88356743  0.11643257  0.61643257  1.0
  As  As3  1  0.38356743  0.38356743  0.38356743  1.0
  Pd  Pd4  1  0.50605346  1.00605346  0.49394654  1.0
  Pd  Pd5  1  1.00605346  0.49394654  0.50605346  1.0
  Pd  Pd6  1  0.49394654  0.50605346  1.00605346  1.0
  Pd  Pd7  1  -0.00605346  -0.00605346  -0.00605346  1.0
  Se  Se8  1  0.88605037  0.38605037  0.11394963  1.0
  Se  Se9  1  0.38605037  0.11394963  0.88605037  1.0
  Se  Se10  1  0.11394963  0.88605037  0.38605037  1.0
  Se  Se11  1  0.61394963  0.61394963  0.61394963  1.0
