# generated using pymatgen
data_SrEu2Sc2O7
_symmetry_space_group_name_H-M   'P 1'
_cell_length_a   10.64179382
_cell_length_b   10.64179382
_cell_length_c   10.64179382
_cell_angle_alpha   157.98345393
_cell_angle_beta   157.98345393
_cell_angle_gamma   31.33390297
_symmetry_Int_Tables_number   1
_chemical_formula_structural   SrEu2Sc2O7
_chemical_formula_sum   'Sr1 Eu2 Sc2 O7'
_cell_volume   169.24067649
_cell_formula_units_Z   1
loop_
 _symmetry_equiv_pos_site_id
 _symmetry_equiv_pos_as_xyz
  1  'x, y, z'
loop_
 _atom_site_type_symbol
 _atom_site_label
 _atom_site_symmetry_multiplicity
 _atom_site_fract_x
 _atom_site_fract_y
 _atom_site_fract_z
 _atom_site_occupancy
  Sr  Sr0  1  0.50000000  0.50000000  1.00000000  1.0
  O  O1  1  0.00000000  0.00000000  0.00000000  1.0
  O  O2  1  1.38956952  0.88956952  0.50000000  1.0
  O  O3  1  1.11043048  0.61043048  0.50000000  1.0
  O  O4  1  0.61043048  1.11043048  0.50000000  1.0
  O  O5  1  0.88956952  1.38956952  0.50000000  1.0
  O  O6  1  0.79056183  0.79056183  -0.00000000  1.0
  O  O7  1  1.20943817  1.20943817  1.00000000  1.0
  Sc  Sc8  1  0.89949445  0.89949445  -0.00000000  1.0
  Sc  Sc9  1  1.10050555  1.10050555  1.00000000  1.0
  Eu  Eu10  1  0.68278726  0.68278726  0.00000000  1.0
  Eu  Eu11  1  1.31721274  1.31721274  1.00000000  1.0
