# generated using pymatgen
data_TiMnO3
_symmetry_space_group_name_H-M   'P 1'
_cell_length_a   5.60428635
_cell_length_b   5.60428635
_cell_length_c   5.60428635
_cell_angle_alpha   54.78814669
_cell_angle_beta   54.78814669
_cell_angle_gamma   54.78814669
_symmetry_Int_Tables_number   1
_chemical_formula_structural   TiMnO3
_chemical_formula_sum   'Ti2 Mn2 O6'
_cell_volume   109.35858318
_cell_formula_units_Z   2
loop_
 _symmetry_equiv_pos_site_id
 _symmetry_equiv_pos_as_xyz
  1  'x, y, z'
loop_
 _atom_site_type_symbol
 _atom_site_label
 _atom_site_symmetry_multiplicity
 _atom_site_fract_x
 _atom_site_fract_y
 _atom_site_fract_z
 _atom_site_occupancy
  Ti  Ti0  1  0.14662053  0.14662053  0.14662053  1.0
  Ti  Ti1  1  0.85337947  -0.14662053  -0.14662053  1.0
  Mn  Mn2  1  0.36005739  0.36005739  -0.63994261  1.0
  Mn  Mn3  1  0.63994261  0.63994261  -0.36005739  1.0
  O  O4  1  0.43711519  0.04811052  -0.22020841  1.0
  O  O5  1  1.22020841  -0.43711519  -0.04811052  1.0
  O  O6  1  0.95188948  0.22020841  -0.43711519  1.0
  O  O7  1  0.56288481  -0.04811052  0.22020841  1.0
  O  O8  1  0.77979159  -0.56288481  0.04811052  1.0
  O  O9  1  1.04811052  -0.22020841  -0.56288481  1.0
