# generated using pymatgen
data_Hf9Re4Ni
_symmetry_space_group_name_H-M   'P 1'
_cell_length_a   8.59230995
_cell_length_b   8.59230995
_cell_length_c   8.47302809
_cell_angle_alpha   90.00000000
_cell_angle_beta   90.00000000
_cell_angle_gamma   120.00000000
_symmetry_Int_Tables_number   1
_chemical_formula_structural   Hf9Re4Ni
_chemical_formula_sum   'Hf18 Re8 Ni2'
_cell_volume   541.73780963
_cell_formula_units_Z   2
loop_
 _symmetry_equiv_pos_site_id
 _symmetry_equiv_pos_as_xyz
  1  'x, y, z'
loop_
 _atom_site_type_symbol
 _atom_site_label
 _atom_site_symmetry_multiplicity
 _atom_site_fract_x
 _atom_site_fract_y
 _atom_site_fract_z
 _atom_site_occupancy
  Hf  Hf0  1  0.19777928  0.80222072  0.44384273  1.0
  Hf  Hf1  1  0.19777928  0.39555856  0.44384273  1.0
  Hf  Hf2  1  0.60444144  0.80222072  0.44384273  1.0
  Hf  Hf3  1  0.80222072  0.19777928  0.55615727  1.0
  Hf  Hf4  1  0.80222072  0.60444144  0.55615727  1.0
  Hf  Hf5  1  0.39555856  0.19777928  0.55615727  1.0
  Hf  Hf6  1  0.80222072  0.19777928  0.94384273  1.0
  Hf  Hf7  1  0.80222072  0.60444144  0.94384273  1.0
  Hf  Hf8  1  0.39555856  0.19777928  0.94384273  1.0
  Hf  Hf9  1  0.19777928  0.80222072  0.05615727  1.0
  Hf  Hf10  1  0.19777928  0.39555856  0.05615727  1.0
  Hf  Hf11  1  0.60444144  0.80222072  0.05615727  1.0
  Hf  Hf12  1  0.54127715  0.45872285  0.25000000  1.0
  Hf  Hf13  1  0.54127715  0.08255429  0.25000000  1.0
  Hf  Hf14  1  0.91744571  0.45872285  0.25000000  1.0
  Hf  Hf15  1  0.45872285  0.54127715  0.75000000  1.0
  Hf  Hf16  1  0.45872285  0.91744571  0.75000000  1.0
  Hf  Hf17  1  0.08255429  0.54127715  0.75000000  1.0
  Re  Re18  1  0.88986671  0.11013329  0.25000000  1.0
  Re  Re19  1  0.88986671  0.77973343  0.25000000  1.0
  Re  Re20  1  0.22026657  0.11013329  0.25000000  1.0
  Re  Re21  1  0.11013329  0.88986671  0.75000000  1.0
  Re  Re22  1  0.11013329  0.22026657  0.75000000  1.0
  Re  Re23  1  0.77973343  0.88986671  0.75000000  1.0
  Re  Re24  1  0.00000000  0.00000000  0.50000000  1.0
  Re  Re25  1  0.00000000  0.00000000  0.00000000  1.0
  Ni  Ni26  1  0.33333333  0.66666667  0.25000000  1.0
  Ni  Ni27  1  0.66666667  0.33333333  0.75000000  1.0
