# generated using pymatgen
data_ScCoC2
_symmetry_space_group_name_H-M   'P 1'
_cell_length_a   3.36386541
_cell_length_b   3.36386541
_cell_length_c   7.17438126
_cell_angle_alpha   90.00000000
_cell_angle_beta   90.00000000
_cell_angle_gamma   90.00000000
_symmetry_Int_Tables_number   1
_chemical_formula_structural   ScCoC2
_chemical_formula_sum   'Sc2 Co2 C4'
_cell_volume   81.18236057
_cell_formula_units_Z   2
loop_
 _symmetry_equiv_pos_site_id
 _symmetry_equiv_pos_as_xyz
  1  'x, y, z'
loop_
 _atom_site_type_symbol
 _atom_site_label
 _atom_site_symmetry_multiplicity
 _atom_site_fract_x
 _atom_site_fract_y
 _atom_site_fract_z
 _atom_site_occupancy
  Sc  Sc0  1  0.50000000  0.00000000  0.65347582  1.0
  Sc  Sc1  1  0.00000000  0.50000000  0.34652418  1.0
  Co  Co2  1  0.00000000  0.00000000  0.00000000  1.0
  Co  Co3  1  0.50000000  0.50000000  0.00000000  1.0
  C  C4  1  0.50000000  0.00000000  0.14957408  1.0
  C  C5  1  0.00000000  0.50000000  0.85042592  1.0
  C  C6  1  0.50000000  0.00000000  0.34677232  1.0
  C  C7  1  0.00000000  0.50000000  0.65322768  1.0
