# generated using pymatgen
data_TaPbF7
_symmetry_space_group_name_H-M   'P 1'
_cell_length_a   5.02698873
_cell_length_b   7.43504473
_cell_length_c   6.92207487
_cell_angle_alpha   90.00000000
_cell_angle_beta   94.19556710
_cell_angle_gamma   90.00000000
_symmetry_Int_Tables_number   1
_chemical_formula_structural   TaPbF7
_chemical_formula_sum   'Ta2 Pb2 F14'
_cell_volume   258.02535181
_cell_formula_units_Z   2
loop_
 _symmetry_equiv_pos_site_id
 _symmetry_equiv_pos_as_xyz
  1  'x, y, z'
loop_
 _atom_site_type_symbol
 _atom_site_label
 _atom_site_symmetry_multiplicity
 _atom_site_fract_x
 _atom_site_fract_y
 _atom_site_fract_z
 _atom_site_occupancy
  Ta  Ta0  1  0.53164943  0.25000000  0.71965648  1.0
  Ta  Ta1  1  0.46835057  0.75000000  0.28034352  1.0
  Pb  Pb2  1  0.99460373  0.25000000  0.17943638  1.0
  Pb  Pb3  1  0.00539627  0.75000000  0.82056362  1.0
  F  F4  1  0.80115477  0.42009903  0.86078950  1.0
  F  F5  1  0.80115477  0.07990097  0.86078950  1.0
  F  F6  1  0.19884523  0.92009903  0.13921050  1.0
  F  F7  1  0.19884523  0.57990097  0.13921050  1.0
  F  F8  1  0.33047655  0.47060208  0.71539072  1.0
  F  F9  1  0.33047655  0.02939792  0.71539072  1.0
  F  F10  1  0.66952345  0.97060208  0.28460928  1.0
  F  F11  1  0.66952345  0.52939792  0.28460928  1.0
  F  F12  1  0.81912742  0.25000000  0.54981510  1.0
  F  F13  1  0.18087258  0.75000000  0.45018490  1.0
  F  F14  1  0.40511880  0.25000000  0.98930010  1.0
  F  F15  1  0.59488120  0.75000000  0.01069990  1.0
  F  F16  1  0.34525832  0.25000000  0.45547287  1.0
  F  F17  1  0.65474168  0.75000000  0.54452713  1.0
