# generated using pymatgen
data_Zr2Ag3F14
_symmetry_space_group_name_H-M   'P 1'
_cell_length_a   5.85007134
_cell_length_b   5.85007134
_cell_length_c   9.32885697
_cell_angle_alpha   89.13898656
_cell_angle_beta   90.86101344
_cell_angle_gamma   108.88436534
_symmetry_Int_Tables_number   1
_chemical_formula_structural   Zr2Ag3F14
_chemical_formula_sum   'Zr2 Ag3 F14'
_cell_volume   302.02822896
_cell_formula_units_Z   1
loop_
 _symmetry_equiv_pos_site_id
 _symmetry_equiv_pos_as_xyz
  1  'x, y, z'
loop_
 _atom_site_type_symbol
 _atom_site_label
 _atom_site_symmetry_multiplicity
 _atom_site_fract_x
 _atom_site_fract_y
 _atom_site_fract_z
 _atom_site_occupancy
  Ag  Ag0  1  0.68570031  -0.68570031  0.39546044  1.0
  Ag  Ag1  1  0.31429969  -0.31429969  0.60453956  1.0
  Ag  Ag2  1  0.50000000  -0.50000000  -0.00000000  1.0
  F  F3  1  0.73005407  -0.73005407  0.87799648  1.0
  F  F4  1  0.26994593  -0.26994593  0.12200352  1.0
  F  F5  1  0.88688518  -0.88688518  0.29261024  1.0
  F  F6  1  0.11311482  -0.11311482  0.70738976  1.0
  F  F7  1  0.65268645  -0.01033217  0.61537982  1.0
  F  F8  1  1.01033217  0.34731355  0.61537982  1.0
  F  F9  1  0.98966783  -0.34731355  0.38462018  1.0
  F  F10  1  1.34731355  0.01033217  0.38462018  1.0
  F  F11  1  0.64581561  -0.23740618  0.83796797  1.0
  F  F12  1  1.23740618  0.35418439  0.83796797  1.0
  F  F13  1  0.76259382  -0.35418439  0.16203203  1.0
  F  F14  1  1.35418439  0.23740618  0.16203203  1.0
  F  F15  1  -0.00000000  -0.00000000  -0.00000000  1.0
  F  F16  1  0.50000000  -0.50000000  0.50000000  1.0
  Zr  Zr17  1  0.91191277  -0.91191277  0.78494546  1.0
  Zr  Zr18  1  0.08808723  -0.08808723  0.21505454  1.0
