# generated using pymatgen
data_Na8Hg3
_symmetry_space_group_name_H-M   'P 1'
_cell_length_a   18.38182096
_cell_length_b   18.38182096
_cell_length_c   18.38182096
_cell_angle_alpha   29.29307819
_cell_angle_beta   29.29307819
_cell_angle_gamma   29.29307819
_symmetry_Int_Tables_number   1
_chemical_formula_structural   Na8Hg3
_chemical_formula_sum   'Na32 Hg12'
_cell_volume   1315.68556435
_cell_formula_units_Z   4
loop_
 _symmetry_equiv_pos_site_id
 _symmetry_equiv_pos_as_xyz
  1  'x, y, z'
loop_
 _atom_site_type_symbol
 _atom_site_label
 _atom_site_symmetry_multiplicity
 _atom_site_fract_x
 _atom_site_fract_y
 _atom_site_fract_z
 _atom_site_occupancy
  Na  Na0  1  0.78008706  0.78008706  -0.21991294  1.0
  Na  Na1  1  0.28008706  0.28008706  0.28008706  1.0
  Na  Na2  1  0.71991294  0.71991294  -0.28008706  1.0
  Na  Na3  1  0.21991294  0.21991294  0.21991294  1.0
  Na  Na4  1  0.87928675  0.13907944  -0.36157985  1.0
  Na  Na5  1  1.37928675  0.13842015  -0.36092056  1.0
  Na  Na6  1  0.86157985  0.36092056  -0.37928675  1.0
  Na  Na7  1  1.36157985  0.12071325  -0.13907944  1.0
  Na  Na8  1  0.86092056  0.36157985  0.12071325  1.0
  Na  Na9  1  0.36092056  0.62071325  -0.13842015  1.0
  Na  Na10  1  1.12071325  -0.13907944  0.36157985  1.0
  Na  Na11  1  0.62071325  0.86157985  -0.63907944  1.0
  Na  Na12  1  0.63842015  -0.12071325  0.13907944  1.0
  Na  Na13  1  1.13842015  -0.36092056  0.37928675  1.0
  Na  Na14  1  0.63907944  0.37928675  0.13842015  1.0
  Na  Na15  1  1.13907944  -0.36157985  -0.12071325  1.0
  Na  Na16  1  0.79111193  1.14035410  -0.48545097  1.0
  Na  Na17  1  1.29111193  0.01454903  -0.35964590  1.0
  Na  Na18  1  0.98545097  0.35964590  -0.29111193  1.0
  Na  Na19  1  0.48545097  0.20888807  -0.14035410  1.0
  Na  Na20  1  0.85964590  0.48545097  -0.79111193  1.0
  Na  Na21  1  0.35964590  0.70888807  -0.01454903  1.0
  Na  Na22  1  0.20888807  0.85964590  -0.51454903  1.0
  Na  Na23  1  0.70888807  0.98545097  -0.64035410  1.0
  Na  Na24  1  0.51454903  0.79111193  0.14035410  1.0
  Na  Na25  1  1.01454903  -0.35964590  0.29111193  1.0
  Na  Na26  1  0.64035410  0.29111193  0.01454903  1.0
  Na  Na27  1  1.14035410  0.51454903  -0.20888807  1.0
  Na  Na28  1  0.93859925  -0.06140075  -0.06140075  1.0
  Na  Na29  1  0.43859925  0.43859925  0.43859925  1.0
  Na  Na30  1  0.56140075  0.56140075  -0.43859925  1.0
  Na  Na31  1  1.06140075  0.06140075  0.06140075  1.0
  Hg  Hg32  1  0.43396009  0.75000000  0.06603991  1.0
  Hg  Hg33  1  0.93396009  -0.43396009  0.25000000  1.0
  Hg  Hg34  1  0.25000000  0.93396009  -0.43396009  1.0
  Hg  Hg35  1  0.75000000  1.06603991  -0.56603991  1.0
  Hg  Hg36  1  0.56603991  0.25000000  -0.06603991  1.0
  Hg  Hg37  1  1.06603991  0.43396009  -0.25000000  1.0
  Hg  Hg38  1  0.84190041  -0.15809959  -0.15809959  1.0
  Hg  Hg39  1  0.34190041  0.34190041  0.34190041  1.0
  Hg  Hg40  1  0.65809959  0.65809959  -0.34190041  1.0
  Hg  Hg41  1  1.15809959  0.15809959  0.15809959  1.0
  Hg  Hg42  1  1.00000000  -0.00000000  0.00000000  1.0
  Hg  Hg43  1  0.50000000  0.50000000  0.50000000  1.0
