# generated using pymatgen
data_Cs2La10Ru2I17
_symmetry_space_group_name_H-M   'P 1'
_cell_length_a   11.94472136
_cell_length_b   11.94472136
_cell_length_c   10.13965683
_cell_angle_alpha   86.67852106
_cell_angle_beta   93.32147894
_cell_angle_gamma   72.66557298
_symmetry_Int_Tables_number   1
_chemical_formula_structural   Cs2La10Ru2I17
_chemical_formula_sum   'Cs2 La10 Ru2 I17'
_cell_volume   1374.36458811
_cell_formula_units_Z   1
loop_
 _symmetry_equiv_pos_site_id
 _symmetry_equiv_pos_as_xyz
  1  'x, y, z'
loop_
 _atom_site_type_symbol
 _atom_site_label
 _atom_site_symmetry_multiplicity
 _atom_site_fract_x
 _atom_site_fract_y
 _atom_site_fract_z
 _atom_site_occupancy
  Cs  Cs0  1  0.67621287  -0.32378713  -0.00000000  1.0
  Cs  Cs1  1  1.32378713  0.32378713  -0.00000000  1.0
  La  La2  1  0.79534848  -0.79534848  0.81266782  1.0
  La  La3  1  0.20465152  -0.20465152  0.18733218  1.0
  La  La4  1  0.70933460  -0.00799142  0.56998239  1.0
  La  La5  1  1.00799142  0.29066540  0.56998239  1.0
  La  La6  1  0.99200858  -0.29066540  0.43001761  1.0
  La  La7  1  1.29066540  0.00799142  0.43001761  1.0
  La  La8  1  0.93347050  -0.93347050  0.32131603  1.0
  La  La9  1  0.06652950  -0.06652950  0.67868397  1.0
  La  La10  1  0.66846682  -0.66846682  0.43836815  1.0
  La  La11  1  0.33153318  -0.33153318  0.56163185  1.0
  Ru  Ru12  1  0.85719568  -0.85719568  0.56970346  1.0
  Ru  Ru13  1  0.14280432  -0.14280432  0.43029654  1.0
  I  I14  1  0.52527211  -0.18598236  0.58287922  1.0
  I  I15  1  1.18598236  0.47472789  0.58287922  1.0
  I  I16  1  0.81401764  -0.47472789  0.41712078  1.0
  I  I17  1  1.47472789  0.18598236  0.41712078  1.0
  I  I18  1  1.61673957  0.04882531  0.85835821  1.0
  I  I19  1  0.95117469  -0.61673957  0.85835821  1.0
  I  I20  1  1.04882531  0.61673957  0.14164179  1.0
  I  I21  1  0.38326043  -0.04882531  0.14164179  1.0
  I  I22  1  1.24630133  0.10169589  0.72784805  1.0
  I  I23  1  0.89830411  -0.24630133  0.72784805  1.0
  I  I24  1  1.10169589  0.24630133  0.27215195  1.0
  I  I25  1  0.75369867  -0.10169589  0.27215195  1.0
  I  I26  1  0.56446289  -0.56446289  0.71487075  1.0
  I  I27  1  0.43553711  -0.43553711  0.28512925  1.0
  I  I28  1  0.28872164  -0.28872164  0.87226136  1.0
  I  I29  1  0.71127836  -0.71127836  0.12773864  1.0
  I  I30  1  0.00000000  0.00000000  0.00000000  1.0
