# generated using pymatgen
data_Mn7(PO8)2
_symmetry_space_group_name_H-M   'P 1'
_cell_length_a   11.00552985
_cell_length_b   5.29073309
_cell_length_c   10.40091192
_cell_angle_alpha   90.00000000
_cell_angle_beta   88.54494846
_cell_angle_gamma   90.00000000
_symmetry_Int_Tables_number   1
_chemical_formula_structural   Mn7(PO8)2
_chemical_formula_sum   'Mn14 P4 O32'
_cell_volume   605.42195698
_cell_formula_units_Z   2
loop_
 _symmetry_equiv_pos_site_id
 _symmetry_equiv_pos_as_xyz
  1  'x, y, z'
loop_
 _atom_site_type_symbol
 _atom_site_label
 _atom_site_symmetry_multiplicity
 _atom_site_fract_x
 _atom_site_fract_y
 _atom_site_fract_z
 _atom_site_occupancy
  O  O0  1  0.29752231  0.42250105  0.74991900  1.0
  O  O1  1  0.70247769  0.92250105  0.75008100  1.0
  O  O2  1  0.70247769  0.57749895  0.25008100  1.0
  O  O3  1  0.29752231  0.07749895  0.24991900  1.0
  O  O4  1  0.20006779  0.34297289  0.97212061  1.0
  O  O5  1  0.79993221  0.84297289  0.52787939  1.0
  O  O6  1  0.79993221  0.65702711  0.02787939  1.0
  O  O7  1  0.20006779  0.15702711  0.47212061  1.0
  O  O8  1  0.41411571  0.17880680  0.92576344  1.0
  O  O9  1  0.58588429  0.67880680  0.57423656  1.0
  O  O10  1  0.58588429  0.82119320  0.07423656  1.0
  O  O11  1  0.41411571  0.32119320  0.42576344  1.0
  O  O12  1  0.22592036  0.98959654  0.81583680  1.0
  O  O13  1  0.77407964  0.48959654  0.68416320  1.0
  O  O14  1  0.77407964  0.01040346  0.18416320  1.0
  O  O15  1  0.22592036  0.51040346  0.31583680  1.0
  O  O16  1  0.03658914  0.10277610  0.67509852  1.0
  O  O17  1  0.96341086  0.60277610  0.82490148  1.0
  O  O18  1  0.96341086  0.89722390  0.32490148  1.0
  O  O19  1  0.03658914  0.39722390  0.17509852  1.0
  O  O20  1  0.07327327  0.81202277  0.03513757  1.0
  O  O21  1  0.92672673  0.31202277  0.46486243  1.0
  O  O22  1  0.92672673  0.18797723  0.96486243  1.0
  O  O23  1  0.07327327  0.68797723  0.53513757  1.0
  O  O24  1  0.34902235  0.78661574  0.58584594  1.0
  O  O25  1  0.65097765  0.28661574  0.91415406  1.0
  O  O26  1  0.65097765  0.21338426  0.41415406  1.0
  O  O27  1  0.34902235  0.71338426  0.08584594  1.0
  O  O28  1  0.51716227  0.25839499  0.69339003  1.0
  O  O29  1  0.48283773  0.75839499  0.80660997  1.0
  O  O30  1  0.48283773  0.74160501  0.30660997  1.0
  O  O31  1  0.51716227  0.24160501  0.19339003  1.0
  Mn  Mn32  1  0.03632513  0.95851674  0.85665119  1.0
  Mn  Mn33  1  0.96367487  0.45851674  0.64334881  1.0
  Mn  Mn34  1  0.96367487  0.04148326  0.14334881  1.0
  Mn  Mn35  1  0.03632513  0.54148326  0.35665119  1.0
  Mn  Mn36  1  0.44375462  0.57303067  0.67629850  1.0
  Mn  Mn37  1  0.55624538  1.07303067  0.82370150  1.0
  Mn  Mn38  1  0.55624538  0.42696933  0.32370150  1.0
  Mn  Mn39  1  0.44375462  -0.07303067  0.17629850  1.0
  Mn  Mn40  1  0.21471921  0.94665758  0.62932371  1.0
  Mn  Mn41  1  0.78528079  0.44665758  0.87067629  1.0
  Mn  Mn42  1  0.78528079  0.05334242  0.37067629  1.0
  Mn  Mn43  1  0.21471921  0.55334242  0.12932371  1.0
  Mn  Mn44  1  0.00000000  0.50000000  0.00000000  1.0
  Mn  Mn45  1  -0.00000000  0.00000000  0.50000000  1.0
  P  P46  1  0.29067807  0.23968462  0.86688866  1.0
  P  P47  1  0.70932193  0.73968462  0.63311134  1.0
  P  P48  1  0.70932193  0.76031538  0.13311134  1.0
  P  P49  1  0.29067807  0.26031538  0.36688866  1.0
