# generated using pymatgen
data_Y
_symmetry_space_group_name_H-M   'P 1'
_cell_length_a   3.65431171
_cell_length_b   3.65431171
_cell_length_c   5.67027355
_cell_angle_alpha   89.99672609
_cell_angle_beta   90.00327391
_cell_angle_gamma   119.96993816
_symmetry_Int_Tables_number   1
_chemical_formula_structural   Y
_chemical_formula_sum   Y2
_cell_volume   65.59599110
_cell_formula_units_Z   2
loop_
 _symmetry_equiv_pos_site_id
 _symmetry_equiv_pos_as_xyz
  1  'x, y, z'
loop_
 _atom_site_type_symbol
 _atom_site_label
 _atom_site_symmetry_multiplicity
 _atom_site_fract_x
 _atom_site_fract_y
 _atom_site_fract_z
 _atom_site_occupancy
  Y  Y0  1  0.33315859  -0.33315859  0.74999614  1.0
  Y  Y1  1  0.66684141  -0.66684141  0.25000386  1.0
