# generated using pymatgen
data_HfP2
_symmetry_space_group_name_H-M   'P 1'
_cell_length_a   6.47987204
_cell_length_b   3.50707843
_cell_length_c   8.69836044
_cell_angle_alpha   90.00000000
_cell_angle_beta   90.00000000
_cell_angle_gamma   90.00000000
_symmetry_Int_Tables_number   1
_chemical_formula_structural   HfP2
_chemical_formula_sum   'Hf4 P8'
_cell_volume   197.67388978
_cell_formula_units_Z   4
loop_
 _symmetry_equiv_pos_site_id
 _symmetry_equiv_pos_as_xyz
  1  'x, y, z'
loop_
 _atom_site_type_symbol
 _atom_site_label
 _atom_site_symmetry_multiplicity
 _atom_site_fract_x
 _atom_site_fract_y
 _atom_site_fract_z
 _atom_site_occupancy
  Hf  Hf0  1  0.77818241  0.75000000  0.33627139  1.0
  Hf  Hf1  1  0.27818241  0.75000000  0.16372861  1.0
  Hf  Hf2  1  0.22181759  0.25000000  0.66372861  1.0
  Hf  Hf3  1  0.72181759  0.25000000  0.83627139  1.0
  P  P4  1  0.90731454  0.75000000  0.64305496  1.0
  P  P5  1  0.40731454  0.75000000  0.85694504  1.0
  P  P6  1  0.09268546  0.25000000  0.35694504  1.0
  P  P7  1  0.59268546  0.25000000  0.14305496  1.0
  P  P8  1  0.88943147  0.75000000  0.03957460  1.0
  P  P9  1  0.38943147  0.75000000  0.46042540  1.0
  P  P10  1  0.11056853  0.25000000  0.96042540  1.0
  P  P11  1  0.61056853  0.25000000  0.53957460  1.0
