# generated using pymatgen
data_SrCd(SeO3)2
_symmetry_space_group_name_H-M   'P 1'
_cell_length_a   4.55071047
_cell_length_b   15.38502925
_cell_length_c   10.54707164
_cell_angle_alpha   90.00000000
_cell_angle_beta   112.36816035
_cell_angle_gamma   90.00000000
_symmetry_Int_Tables_number   1
_chemical_formula_structural   SrCd(SeO3)2
_chemical_formula_sum   'Sr4 Cd4 Se8 O24'
_cell_volume   682.86894421
_cell_formula_units_Z   4
loop_
 _symmetry_equiv_pos_site_id
 _symmetry_equiv_pos_as_xyz
  1  'x, y, z'
loop_
 _atom_site_type_symbol
 _atom_site_label
 _atom_site_symmetry_multiplicity
 _atom_site_fract_x
 _atom_site_fract_y
 _atom_site_fract_z
 _atom_site_occupancy
  Sr  Sr0  1  0.71029087  0.61701377  0.97011001  1.0
  Sr  Sr1  1  0.28970913  0.11701377  0.52988999  1.0
  Sr  Sr2  1  0.28970913  0.38298623  0.02988999  1.0
  Sr  Sr3  1  0.71029087  0.88298623  0.47011001  1.0
  Cd  Cd4  1  0.52294303  0.64754450  0.30414745  1.0
  Cd  Cd5  1  0.47705697  0.14754450  0.19585255  1.0
  Cd  Cd6  1  0.47705697  0.35245550  0.69585255  1.0
  Cd  Cd7  1  0.52294303  0.85245550  0.80414745  1.0
  Se  Se8  1  0.04086016  0.49362065  0.27726721  1.0
  Se  Se9  1  0.95913984  0.99362065  0.22273279  1.0
  Se  Se10  1  0.95913984  0.50637935  0.72273279  1.0
  Se  Se11  1  0.04086016  0.00637935  0.77726721  1.0
  Se  Se12  1  0.35903340  0.70418120  0.58253603  1.0
  Se  Se13  1  0.64096660  0.20418120  0.91746397  1.0
  Se  Se14  1  0.64096660  0.29581880  0.41746397  1.0
  Se  Se15  1  0.35903340  0.79581880  0.08253603  1.0
  O  O16  1  0.27585159  0.81486360  0.56369268  1.0
  O  O17  1  0.72414841  0.31486360  0.93630732  1.0
  O  O18  1  0.72414841  0.18513640  0.43630732  1.0
  O  O19  1  0.27585159  0.68513640  0.06369268  1.0
  O  O20  1  0.65843134  0.70075197  0.51924610  1.0
  O  O21  1  0.34156866  0.20075197  0.98075390  1.0
  O  O22  1  0.34156866  0.29924803  0.48075390  1.0
  O  O23  1  0.65843134  0.79924803  0.01924610  1.0
  O  O24  1  0.42729229  0.49867398  0.28873721  1.0
  O  O25  1  0.57270771  0.99867398  0.21126279  1.0
  O  O26  1  0.57270771  0.50132602  0.71126279  1.0
  O  O27  1  0.42729229  0.00132602  0.78873721  1.0
  O  O28  1  0.97574009  0.60668561  0.27118224  1.0
  O  O29  1  0.02425991  0.10668561  0.22881776  1.0
  O  O30  1  0.02425991  0.39331439  0.72881776  1.0
  O  O31  1  0.97574009  0.89331439  0.77118224  1.0
  O  O32  1  0.56209493  0.70549301  0.75758640  1.0
  O  O33  1  0.43790507  0.20549301  0.74241360  1.0
  O  O34  1  0.43790507  0.29450699  0.24241360  1.0
  O  O35  1  0.56209493  0.79450699  0.25758640  1.0
  O  O36  1  0.84313818  0.46716399  0.10686124  1.0
  O  O37  1  0.15686182  0.96716399  0.39313876  1.0
  O  O38  1  0.15686182  0.53283601  0.89313876  1.0
  O  O39  1  0.84313818  0.03283601  0.60686124  1.0
