# generated using pymatgen
data_TlIn(PSe3)2
_symmetry_space_group_name_H-M   'P 1'
_cell_length_a   6.59232390
_cell_length_b   12.32128512
_cell_length_c   8.30375738
_cell_angle_alpha   103.25409643
_cell_angle_beta   108.55452532
_cell_angle_gamma   94.01932780
_symmetry_Int_Tables_number   1
_chemical_formula_structural   TlIn(PSe3)2
_chemical_formula_sum   'Tl2 In2 P4 Se12'
_cell_volume   614.86527318
_cell_formula_units_Z   2
loop_
 _symmetry_equiv_pos_site_id
 _symmetry_equiv_pos_as_xyz
  1  'x, y, z'
loop_
 _atom_site_type_symbol
 _atom_site_label
 _atom_site_symmetry_multiplicity
 _atom_site_fract_x
 _atom_site_fract_y
 _atom_site_fract_z
 _atom_site_occupancy
  Tl  Tl0  1  -0.67156672  -0.53553620  -0.30170265  1.0
  Tl  Tl1  1  -0.32843328  -0.46446380  -0.69829735  1.0
  In  In2  1  -0.20996196  -0.90766759  -0.92985040  1.0
  In  In3  1  -0.79003804  -0.09233241  -0.07014960  1.0
  P  P4  1  -0.69807387  -0.74314483  -0.94613823  1.0
  P  P5  1  -0.30192613  -0.25685517  -0.05386177  1.0
  P  P6  1  -0.59798058  -0.79011335  -0.68410357  1.0
  P  P7  1  -0.40201942  -0.20988665  -0.31589643  1.0
  Se  Se8  1  -0.95195165  -0.88915876  -0.13715943  1.0
  Se  Se9  1  -0.04804835  -0.11084124  -0.86284057  1.0
  Se  Se10  1  -0.89184548  -0.80637586  -0.61196355  1.0
  Se  Se11  1  -0.10815452  -0.19362414  -0.38803645  1.0
  Se  Se12  1  -0.82262971  -0.58522745  -0.91689731  1.0
  Se  Se13  1  -0.17737029  -0.41477255  -0.08310269  1.0
  Se  Se14  1  -0.65551608  -0.33782912  -0.51285946  1.0
  Se  Se15  1  -0.34448392  -0.66217088  -0.48714054  1.0
  Se  Se16  1  -0.59914511  -0.27249030  -0.98470874  1.0
  Se  Se17  1  -0.40085489  -0.72750970  -0.01529126  1.0
  Se  Se18  1  -0.47828834  -0.95821616  -0.74388261  1.0
  Se  Se19  1  -0.52171166  -0.04178384  -0.25611739  1.0
