# generated using pymatgen
data_BaSO4
_symmetry_space_group_name_H-M   'P 1'
_cell_length_a   8.99968321
_cell_length_b   5.56007550
_cell_length_c   7.27055372
_cell_angle_alpha   90.00000000
_cell_angle_beta   90.00000000
_cell_angle_gamma   90.00000000
_symmetry_Int_Tables_number   1
_chemical_formula_structural   BaSO4
_chemical_formula_sum   'Ba4 S4 O16'
_cell_volume   363.81064229
_cell_formula_units_Z   4
loop_
 _symmetry_equiv_pos_site_id
 _symmetry_equiv_pos_as_xyz
  1  'x, y, z'
loop_
 _atom_site_type_symbol
 _atom_site_label
 _atom_site_symmetry_multiplicity
 _atom_site_fract_x
 _atom_site_fract_y
 _atom_site_fract_z
 _atom_site_occupancy
  Ba  Ba0  1  0.31430143  0.75000000  0.15637143  1.0
  Ba  Ba1  1  0.81430143  0.75000000  0.34362857  1.0
  Ba  Ba2  1  0.68569857  0.25000000  0.84362857  1.0
  Ba  Ba3  1  0.18569857  0.25000000  0.65637143  1.0
  S  S4  1  0.43828652  0.75000000  0.68988474  1.0
  S  S5  1  0.93828652  0.75000000  0.81011526  1.0
  S  S6  1  0.56171348  0.25000000  0.31011526  1.0
  S  S7  1  0.06171348  0.25000000  0.18988474  1.0
  O  O8  1  0.41991012  0.96935186  0.81035526  1.0
  O  O9  1  0.41991012  0.53064814  0.81035526  1.0
  O  O10  1  0.91991012  0.96935186  0.68964474  1.0
  O  O11  1  0.91991012  0.53064814  0.68964474  1.0
  O  O12  1  0.58008988  0.46935186  0.18964474  1.0
  O  O13  1  0.58008988  0.03064814  0.18964474  1.0
  O  O14  1  0.08008988  0.46935186  0.31035526  1.0
  O  O15  1  0.08008988  0.03064814  0.31035526  1.0
  O  O16  1  0.31818068  0.75000000  0.54789355  1.0
  O  O17  1  0.81818068  0.75000000  0.95210645  1.0
  O  O18  1  0.68181932  0.25000000  0.45210645  1.0
  O  O19  1  0.18181932  0.25000000  0.04789355  1.0
  O  O20  1  0.08916661  0.75000000  0.89183370  1.0
  O  O21  1  0.58916661  0.75000000  0.60816630  1.0
  O  O22  1  0.91083339  0.25000000  0.10816630  1.0
  O  O23  1  0.41083339  0.25000000  0.39183370  1.0
