# generated using pymatgen
data_GeBiH8C2S4N
_symmetry_space_group_name_H-M   'P 1'
_cell_length_a   6.88876305
_cell_length_b   7.12139793
_cell_length_c   10.97792168
_cell_angle_alpha   90.00000000
_cell_angle_beta   103.46733244
_cell_angle_gamma   90.00000000
_symmetry_Int_Tables_number   1
_chemical_formula_structural   GeBiH8C2S4N
_chemical_formula_sum   'Ge2 Bi2 H16 C4 S8 N2'
_cell_volume   523.74213832
_cell_formula_units_Z   2
loop_
 _symmetry_equiv_pos_site_id
 _symmetry_equiv_pos_as_xyz
  1  'x, y, z'
loop_
 _atom_site_type_symbol
 _atom_site_label
 _atom_site_symmetry_multiplicity
 _atom_site_fract_x
 _atom_site_fract_y
 _atom_site_fract_z
 _atom_site_occupancy
  Ge  Ge0  1  0.22488395  0.80629267  0.34753088  1.0
  Ge  Ge1  1  0.77511605  0.30629267  0.65246912  1.0
  Bi  Bi2  1  0.24206076  0.20940285  0.53877536  1.0
  Bi  Bi3  1  0.75793924  0.70940285  0.46122464  1.0
  H  H4  1  0.25939418  0.24215124  0.20880314  1.0
  H  H5  1  0.74060582  0.74215124  0.79119686  1.0
  H  H6  1  0.35065019  0.45715236  0.18317018  1.0
  H  H7  1  0.64934981  0.95715236  0.81682982  1.0
  H  H8  1  0.61819870  0.24825589  0.20521338  1.0
  H  H9  1  0.38180130  0.74825589  0.79478662  1.0
  H  H10  1  0.53860388  0.30398134  0.04096559  1.0
  H  H11  1  0.46139612  0.80398134  0.95903441  1.0
  H  H12  1  0.46889918  0.08484489  0.10077505  1.0
  H  H13  1  0.53110082  0.58484489  0.89922495  1.0
  H  H14  1  0.01674191  0.38942353  0.05722817  1.0
  H  H15  1  0.98325809  0.88942353  0.94277183  1.0
  H  H16  1  0.12229198  0.20520123  0.98217399  1.0
  H  H17  1  0.87770802  0.70520123  0.01782601  1.0
  H  H18  1  0.19368596  0.44265222  -0.03492422  1.0
  H  H19  1  0.80631404  0.94265222  1.03492422  1.0
  C  C20  1  0.49820231  0.23425996  0.12056101  1.0
  C  C21  1  0.50179769  0.73425996  0.87943899  1.0
  C  C22  1  0.15085245  0.34137752  0.02914849  1.0
  C  C23  1  0.84914755  0.84137752  0.97085151  1.0
  S  S24  1  0.05392414  0.07219023  0.30093928  1.0
  S  S25  1  0.94607586  0.57219023  0.69906072  1.0
  S  S26  1  0.01954748  0.55945573  0.34007508  1.0
  S  S27  1  0.98045252  0.05945573  0.65992492  1.0
  S  S28  1  0.44602185  0.74391126  0.23486213  1.0
  S  S29  1  0.55397815  0.24391126  0.76513787  1.0
  S  S30  1  0.60564514  0.36509801  0.45234812  1.0
  S  S31  1  0.39435486  0.86509801  0.54765188  1.0
  N  N32  1  0.31427572  0.32220910  0.14345579  1.0
  N  N33  1  0.68572428  0.82220910  0.85654421  1.0
