# generated using pymatgen
data_Ba3Ge2(B3O8)2
_symmetry_space_group_name_H-M   'P 1'
_cell_length_a   7.77951422
_cell_length_b   5.15794138
_cell_length_c   8.73543271
_cell_angle_alpha   102.68416598
_cell_angle_beta   102.74835674
_cell_angle_gamma   88.71941683
_symmetry_Int_Tables_number   1
_chemical_formula_structural   Ba3Ge2(B3O8)2
_chemical_formula_sum   'Ba3 Ge2 B6 O16'
_cell_volume   333.41057757
_cell_formula_units_Z   1
loop_
 _symmetry_equiv_pos_site_id
 _symmetry_equiv_pos_as_xyz
  1  'x, y, z'
loop_
 _atom_site_type_symbol
 _atom_site_label
 _atom_site_symmetry_multiplicity
 _atom_site_fract_x
 _atom_site_fract_y
 _atom_site_fract_z
 _atom_site_occupancy
  Ba  Ba0  1  0.41875830  0.39086193  -0.75499724  1.0
  Ba  Ba1  1  0.58124170  0.60913807  -0.24500276  1.0
  Ba  Ba2  1  -0.00000000  0.50000000  -0.50000000  1.0
  Ge  Ge3  1  0.82727951  0.21653746  -0.94180441  1.0
  Ge  Ge4  1  0.17272049  0.78346254  -0.05819559  1.0
  B  B5  1  0.09056049  0.96586857  -0.74744864  1.0
  B  B6  1  0.90943951  0.03413143  -0.25255136  1.0
  B  B7  1  0.30046707  0.96284842  -0.47097366  1.0
  B  B8  1  0.69953293  0.03715158  -0.52902634  1.0
  B  B9  1  0.75875661  0.79406485  -0.79676476  1.0
  B  B10  1  0.24124339  0.20593515  -0.20323524  1.0
  O  O11  1  0.70628778  0.93473022  -0.93200461  1.0
  O  O12  1  0.29371222  0.06526978  -0.06799539  1.0
  O  O13  1  0.78050751  0.91476198  -0.40416133  1.0
  O  O14  1  0.21949249  0.08523802  -0.59583867  1.0
  O  O15  1  0.64002963  0.86631649  -0.68158285  1.0
  O  O16  1  0.35997037  0.13368351  -0.31841715  1.0
  O  O17  1  0.94183047  0.84750090  -0.70942578  1.0
  O  O18  1  0.05816953  0.15249910  -0.29057422  1.0
  O  O19  1  0.95928112  0.79358854  -0.18127236  1.0
  O  O20  1  0.04071888  0.20641146  -0.81872764  1.0
  O  O21  1  0.18153605  0.77392482  -0.85579875  1.0
  O  O22  1  0.81846395  0.22607518  -0.14420125  1.0
  O  O23  1  0.32286061  0.69893886  -0.49304594  1.0
  O  O24  1  0.67713939  0.30106114  -0.50695406  1.0
  O  O25  1  0.71424914  0.50087286  -0.86697759  1.0
  O  O26  1  0.28575086  0.49912714  -0.13302241  1.0
