# generated using pymatgen
data_Mg3Sb2
_symmetry_space_group_name_H-M   'P 1'
_cell_length_a   11.59673950
_cell_length_b   11.59673950
_cell_length_c   11.59673950
_cell_angle_alpha   109.47122063
_cell_angle_beta   109.47122063
_cell_angle_gamma   109.47122063
_symmetry_Int_Tables_number   1
_chemical_formula_structural   Mg3Sb2
_chemical_formula_sum   'Mg24 Sb16'
_cell_volume   1200.56537602
_cell_formula_units_Z   8
loop_
 _symmetry_equiv_pos_site_id
 _symmetry_equiv_pos_as_xyz
  1  'x, y, z'
loop_
 _atom_site_type_symbol
 _atom_site_label
 _atom_site_symmetry_multiplicity
 _atom_site_fract_x
 _atom_site_fract_y
 _atom_site_fract_z
 _atom_site_occupancy
  Mg  Mg0  1  1.00573198  0.48327098  0.74384354  1.0
  Mg  Mg1  1  1.26057256  1.01672902  1.02246100  1.0
  Mg  Mg2  1  1.49426802  1.23811156  1.47753900  1.0
  Mg  Mg3  1  1.23942744  1.26188844  1.75615646  1.0
  Mg  Mg4  1  1.26188844  0.75615646  1.23942744  1.0
  Mg  Mg5  1  1.23811156  1.47753900  1.49426802  1.0
  Mg  Mg6  1  1.01672902  1.02246100  1.26057256  1.0
  Mg  Mg7  1  1.48327098  0.74384354  1.00573198  1.0
  Mg  Mg8  1  1.02246100  1.26057256  1.01672902  1.0
  Mg  Mg9  1  0.74384354  1.00573198  0.48327098  1.0
  Mg  Mg10  1  1.75615646  1.23942744  1.26188844  1.0
  Mg  Mg11  1  1.47753900  1.49426802  1.23811156  1.0
  Mg  Mg12  1  0.99426802  1.51672902  1.25615646  1.0
  Mg  Mg13  1  0.73942744  0.98327098  0.97753900  1.0
  Mg  Mg14  1  0.50573198  0.76188844  0.52246100  1.0
  Mg  Mg15  1  0.76057256  0.73811156  0.24384354  1.0
  Mg  Mg16  1  0.73811156  1.24384354  0.76057256  1.0
  Mg  Mg17  1  0.76188844  0.52246100  0.50573198  1.0
  Mg  Mg18  1  0.98327098  0.97753900  0.73942744  1.0
  Mg  Mg19  1  0.51672902  1.25615646  0.99426802  1.0
  Mg  Mg20  1  0.97753900  0.73942744  0.98327098  1.0
  Mg  Mg21  1  1.25615646  0.99426802  1.51672902  1.0
  Mg  Mg22  1  0.24384354  0.76057256  0.73811156  1.0
  Mg  Mg23  1  0.52246100  0.50573198  0.76188844  1.0
  Sb  Sb24  1  0.00000000  0.50000000  0.50000000  1.0
  Sb  Sb25  1  1.00000000  1.00000000  1.00000000  1.0
  Sb  Sb26  1  0.50000000  1.00000000  0.50000000  1.0
  Sb  Sb27  1  0.50000000  0.50000000  0.00000000  1.0
  Sb  Sb28  1  0.73450845  0.75000000  0.48450845  1.0
  Sb  Sb29  1  0.76549155  0.25000000  1.01549155  1.0
  Sb  Sb30  1  0.25000000  1.01549155  0.76549155  1.0
  Sb  Sb31  1  0.75000000  1.48450845  0.73450845  1.0
  Sb  Sb32  1  0.48450845  0.73450845  0.75000000  1.0
  Sb  Sb33  1  1.01549155  0.76549155  1.25000000  1.0
  Sb  Sb34  1  1.26549155  1.25000000  1.51549155  1.0
  Sb  Sb35  1  0.23450845  0.75000000  0.98450845  1.0
  Sb  Sb36  1  0.75000000  0.98450845  0.23450845  1.0
  Sb  Sb37  1  0.25000000  0.51549155  0.26549155  1.0
  Sb  Sb38  1  1.51549155  1.26549155  1.25000000  1.0
  Sb  Sb39  1  0.98450845  1.23450845  0.75000000  1.0
