# generated using pymatgen
data_AgSb(S8F3)2
_symmetry_space_group_name_H-M   'P 1'
_cell_length_a   10.48332660
_cell_length_b   10.48332660
_cell_length_c   16.28788289
_cell_angle_alpha   81.01676660
_cell_angle_beta   98.98323340
_cell_angle_gamma   132.38897824
_symmetry_Int_Tables_number   1
_chemical_formula_structural   AgSb(S8F3)2
_chemical_formula_sum   'Ag2 Sb2 S32 F12'
_cell_volume   1302.70071870
_cell_formula_units_Z   2
loop_
 _symmetry_equiv_pos_site_id
 _symmetry_equiv_pos_as_xyz
  1  'x, y, z'
loop_
 _atom_site_type_symbol
 _atom_site_label
 _atom_site_symmetry_multiplicity
 _atom_site_fract_x
 _atom_site_fract_y
 _atom_site_fract_z
 _atom_site_occupancy
  Ag  Ag0  1  0.68865143  0.68865143  0.75000000  1.0
  Ag  Ag1  1  0.31134857  0.31134857  0.25000000  1.0
  Sb  Sb2  1  0.00000000  0.00000000  0.00000000  1.0
  Sb  Sb3  1  0.00000000  -0.00000000  0.50000000  1.0
  S  S4  1  0.46035309  -0.38659572  0.85254147  1.0
  S  S5  1  1.38659572  0.53964691  0.35254147  1.0
  S  S6  1  0.61340428  0.46035309  0.64745853  1.0
  S  S7  1  0.53964691  0.38659572  0.14745853  1.0
  S  S8  1  0.72748225  -0.02188863  0.74008221  1.0
  S  S9  1  1.02188863  0.27251775  0.24008221  1.0
  S  S10  1  0.97811137  0.72748225  0.75991779  1.0
  S  S11  1  0.27251775  0.02188863  0.25991779  1.0
  S  S12  1  0.48911649  -0.21448081  0.56301203  1.0
  S  S13  1  1.21448081  0.51088351  0.06301203  1.0
  S  S14  1  0.78551919  0.48911649  0.93698797  1.0
  S  S15  1  0.51088351  0.21448081  0.43698797  1.0
  S  S16  1  0.56776891  -0.13205352  0.83747048  1.0
  S  S17  1  1.13205352  0.43223109  0.33747048  1.0
  S  S18  1  0.86794648  0.56776891  0.66252952  1.0
  S  S19  1  0.43223109  0.13205352  0.16252952  1.0
  S  S20  1  0.60724601  -0.00443564  0.63027096  1.0
  S  S21  1  1.00443564  0.39275399  0.13027096  1.0
  S  S22  1  0.99556436  0.60724601  0.86972904  1.0
  S  S23  1  0.39275399  0.00443564  0.36972904  1.0
  S  S24  1  0.59097427  0.23263911  0.90969412  1.0
  S  S25  1  0.76736089  0.40902573  0.40969412  1.0
  S  S26  1  1.23263911  0.59097427  0.59030588  1.0
  S  S27  1  0.40902573  -0.23263911  0.09030588  1.0
  S  S28  1  0.45063240  0.21054837  0.70515105  1.0
  S  S29  1  0.78945163  0.54936760  0.20515105  1.0
  S  S30  1  1.21054837  0.45063240  0.79484895  1.0
  S  S31  1  0.54936760  -0.21054837  0.29484895  1.0
  S  S32  1  0.41229507  0.21555007  0.82426594  1.0
  S  S33  1  0.78444993  0.58770493  0.32426594  1.0
  S  S34  1  1.21555007  0.41229507  0.67573406  1.0
  S  S35  1  0.58770493  -0.21555007  0.17573406  1.0
  F  F36  1  0.93093032  -0.05466220  0.61312204  1.0
  F  F37  1  1.05466220  0.06906968  0.11312204  1.0
  F  F38  1  0.94533780  0.93093032  0.88687796  1.0
  F  F39  1  0.06906968  0.05466220  0.38687796  1.0
  F  F40  1  0.84957404  0.04626856  0.46482701  1.0
  F  F41  1  0.95373144  0.15042596  0.96482701  1.0
  F  F42  1  1.04626856  0.84957404  0.03517299  1.0
  F  F43  1  0.15042596  -0.04626856  0.53517299  1.0
  F  F44  1  0.23935995  0.18849587  0.97662959  1.0
  F  F45  1  0.81150413  0.76064005  0.47662959  1.0
  F  F46  1  1.18849587  0.23935995  0.52337041  1.0
  F  F47  1  0.76064005  -0.18849587  0.02337041  1.0
