# generated using pymatgen
data_Na3N
_symmetry_space_group_name_H-M   'P 1'
_cell_length_a   7.72259753
_cell_length_b   7.72259753
_cell_length_c   7.81327187
_cell_angle_alpha   90.00000000
_cell_angle_beta   90.00000000
_cell_angle_gamma   120.00000000
_symmetry_Int_Tables_number   1
_chemical_formula_structural   Na3N
_chemical_formula_sum   'Na18 N6'
_cell_volume   403.54351417
_cell_formula_units_Z   6
loop_
 _symmetry_equiv_pos_site_id
 _symmetry_equiv_pos_as_xyz
  1  'x, y, z'
loop_
 _atom_site_type_symbol
 _atom_site_label
 _atom_site_symmetry_multiplicity
 _atom_site_fract_x
 _atom_site_fract_y
 _atom_site_fract_z
 _atom_site_occupancy
  Na  Na0  1  0.61464017  0.61464017  0.36433493  1.0
  Na  Na1  1  0.61464017  -0.00000000  0.86433493  1.0
  Na  Na2  1  0.00000000  0.61464017  0.86433493  1.0
  Na  Na3  1  0.00000000  0.38535983  0.36433493  1.0
  Na  Na4  1  0.38535983  0.38535983  0.86433493  1.0
  Na  Na5  1  0.38535983  0.00000000  0.36433493  1.0
  Na  Na6  1  0.27890567  0.27890567  0.22024382  1.0
  Na  Na7  1  0.27890567  0.00000000  0.72024382  1.0
  Na  Na8  1  0.00000000  0.27890567  0.72024382  1.0
  Na  Na9  1  -0.00000000  0.72109433  0.22024382  1.0
  Na  Na10  1  0.72109433  0.72109433  0.72024382  1.0
  Na  Na11  1  0.72109433  -0.00000000  0.22024382  1.0
  Na  Na12  1  0.33333333  0.66666667  0.06847029  1.0
  Na  Na13  1  0.33333333  0.66666667  0.56847029  1.0
  Na  Na14  1  0.66666667  0.33333333  0.06847029  1.0
  Na  Na15  1  0.66666667  0.33333333  0.56847029  1.0
  Na  Na16  1  0.00000000  0.00000000  -0.00238096  1.0
  Na  Na17  1  -0.00000000  -0.00000000  0.49761904  1.0
  N  N18  1  0.67349040  0.67349040  0.04523471  1.0
  N  N19  1  0.67349040  0.00000000  0.54523471  1.0
  N  N20  1  -0.00000000  0.67349040  0.54523471  1.0
  N  N21  1  -0.00000000  0.32650960  0.04523471  1.0
  N  N22  1  0.32650960  0.32650960  0.54523471  1.0
  N  N23  1  0.32650960  -0.00000000  0.04523471  1.0
