# generated using pymatgen
data_YCu2
_symmetry_space_group_name_H-M   'P 1'
_cell_length_a   5.26455610
_cell_length_b   5.26455610
_cell_length_c   8.54686699
_cell_angle_alpha   90.00000000
_cell_angle_beta   90.00000000
_cell_angle_gamma   120.00000000
_symmetry_Int_Tables_number   1
_chemical_formula_structural   YCu2
_chemical_formula_sum   'Y4 Cu8'
_cell_volume   205.14507389
_cell_formula_units_Z   4
loop_
 _symmetry_equiv_pos_site_id
 _symmetry_equiv_pos_as_xyz
  1  'x, y, z'
loop_
 _atom_site_type_symbol
 _atom_site_label
 _atom_site_symmetry_multiplicity
 _atom_site_fract_x
 _atom_site_fract_y
 _atom_site_fract_z
 _atom_site_occupancy
  Y  Y0  1  0.33333333  0.66666667  0.44534387  1.0
  Y  Y1  1  0.66666667  0.33333333  0.55465613  1.0
  Y  Y2  1  0.66666667  0.33333333  0.94534387  1.0
  Y  Y3  1  0.33333333  0.66666667  0.05465613  1.0
  Cu  Cu4  1  0.00000000  0.00000000  0.50000000  1.0
  Cu  Cu5  1  0.00000000  0.00000000  -0.00000000  1.0
  Cu  Cu6  1  0.83490152  0.16509848  0.25000000  1.0
  Cu  Cu7  1  0.83490152  0.66980303  0.25000000  1.0
  Cu  Cu8  1  0.33019697  0.16509848  0.25000000  1.0
  Cu  Cu9  1  0.16509848  0.83490152  0.75000000  1.0
  Cu  Cu10  1  0.16509848  0.33019697  0.75000000  1.0
  Cu  Cu11  1  0.66980303  0.83490152  0.75000000  1.0
