# generated using pymatgen
data_Eu2TiO5
_symmetry_space_group_name_H-M   'P 1'
_cell_length_a   10.70175464
_cell_length_b   3.80389365
_cell_length_c   11.41470880
_cell_angle_alpha   90.00000000
_cell_angle_beta   90.00000000
_cell_angle_gamma   90.00000000
_symmetry_Int_Tables_number   1
_chemical_formula_structural   Eu2TiO5
_chemical_formula_sum   'Eu8 Ti4 O20'
_cell_volume   464.67380714
_cell_formula_units_Z   4
loop_
 _symmetry_equiv_pos_site_id
 _symmetry_equiv_pos_as_xyz
  1  'x, y, z'
loop_
 _atom_site_type_symbol
 _atom_site_label
 _atom_site_symmetry_multiplicity
 _atom_site_fract_x
 _atom_site_fract_y
 _atom_site_fract_z
 _atom_site_occupancy
  O  O0  1  0.97949357  0.75000000  0.34257595  1.0
  O  O1  1  0.47949357  0.75000000  0.15742405  1.0
  O  O2  1  0.02050643  0.25000000  0.65742405  1.0
  O  O3  1  0.52050643  0.25000000  0.84257595  1.0
  O  O4  1  0.77259986  0.75000000  0.53953965  1.0
  O  O5  1  0.27259986  0.75000000  0.96046035  1.0
  O  O6  1  0.22740014  0.25000000  0.46046035  1.0
  O  O7  1  0.72740014  0.25000000  0.03953965  1.0
  O  O8  1  0.73510427  0.75000000  0.88060557  1.0
  O  O9  1  0.23510427  0.75000000  0.61939443  1.0
  O  O10  1  0.26489573  0.25000000  0.11939443  1.0
  O  O11  1  0.76489573  0.25000000  0.38060557  1.0
  O  O12  1  0.73449183  0.75000000  0.22873994  1.0
  O  O13  1  0.23449183  0.75000000  0.27126006  1.0
  O  O14  1  0.26550817  0.25000000  0.77126006  1.0
  O  O15  1  0.76550817  0.25000000  0.72873994  1.0
  O  O16  1  0.50676281  0.75000000  0.60327352  1.0
  O  O17  1  0.00676281  0.75000000  0.89672648  1.0
  O  O18  1  0.49323719  0.25000000  0.39672648  1.0
  O  O19  1  0.99323719  0.25000000  0.10327352  1.0
  Ti  Ti20  1  0.81751613  0.75000000  0.37686318  1.0
  Ti  Ti21  1  0.31751613  0.75000000  0.12313682  1.0
  Ti  Ti22  1  0.18248387  0.25000000  0.62313682  1.0
  Ti  Ti23  1  0.68248387  0.25000000  0.87686318  1.0
  Eu  Eu24  1  0.86409708  0.75000000  0.05885323  1.0
  Eu  Eu25  1  0.36409708  0.75000000  0.44114677  1.0
  Eu  Eu26  1  0.13590292  0.25000000  0.94114677  1.0
  Eu  Eu27  1  0.63590292  0.25000000  0.55885323  1.0
  Eu  Eu28  1  0.89279643  0.75000000  0.71870146  1.0
  Eu  Eu29  1  0.39279643  0.75000000  0.78129854  1.0
  Eu  Eu30  1  0.10720357  0.25000000  0.28129854  1.0
  Eu  Eu31  1  0.60720357  0.25000000  0.21870146  1.0
