# generated using pymatgen
data_Hf3P3Pd4
_symmetry_space_group_name_H-M   'P 1'
_cell_length_a   16.46934636
_cell_length_b   3.80746651
_cell_length_c   10.04870299
_cell_angle_alpha   90.00000000
_cell_angle_beta   90.00000000
_cell_angle_gamma   90.00000000
_symmetry_Int_Tables_number   1
_chemical_formula_structural   Hf3P3Pd4
_chemical_formula_sum   'Hf12 P12 Pd16'
_cell_volume   630.11884108
_cell_formula_units_Z   4
loop_
 _symmetry_equiv_pos_site_id
 _symmetry_equiv_pos_as_xyz
  1  'x, y, z'
loop_
 _atom_site_type_symbol
 _atom_site_label
 _atom_site_symmetry_multiplicity
 _atom_site_fract_x
 _atom_site_fract_y
 _atom_site_fract_z
 _atom_site_occupancy
  Hf  Hf0  1  0.23971942  0.75000000  0.52134829  1.0
  Hf  Hf1  1  0.73971942  0.75000000  0.97865171  1.0
  Hf  Hf2  1  0.76028058  0.25000000  0.47865171  1.0
  Hf  Hf3  1  0.26028058  0.25000000  0.02134829  1.0
  Hf  Hf4  1  0.04768515  0.75000000  0.38228386  1.0
  Hf  Hf5  1  0.54768515  0.75000000  0.11771614  1.0
  Hf  Hf6  1  0.95231485  0.25000000  0.61771614  1.0
  Hf  Hf7  1  0.45231485  0.25000000  0.88228386  1.0
  Hf  Hf8  1  0.93890384  0.75000000  0.08797787  1.0
  Hf  Hf9  1  0.43890384  0.75000000  0.41202213  1.0
  Hf  Hf10  1  0.06109616  0.25000000  0.91202213  1.0
  Hf  Hf11  1  0.56109616  0.25000000  0.58797787  1.0
  P  P12  1  0.45703965  0.75000000  0.67964048  1.0
  P  P13  1  0.95703965  0.75000000  0.82035952  1.0
  P  P14  1  0.54296035  0.25000000  0.32035952  1.0
  P  P15  1  0.04296035  0.25000000  0.17964048  1.0
  P  P16  1  0.38600293  0.75000000  0.03339009  1.0
  P  P17  1  0.88600293  0.75000000  0.46660991  1.0
  P  P18  1  0.61399707  0.25000000  0.96660991  1.0
  P  P19  1  0.11399707  0.25000000  0.53339009  1.0
  P  P20  1  0.17701157  0.75000000  0.88990393  1.0
  P  P21  1  0.67701157  0.75000000  0.61009607  1.0
  P  P22  1  0.82298843  0.25000000  0.11009607  1.0
  P  P23  1  0.32298843  0.25000000  0.38990393  1.0
  Pd  Pd24  1  0.32455511  0.75000000  0.81012699  1.0
  Pd  Pd25  1  0.82455511  0.75000000  0.68987301  1.0
  Pd  Pd26  1  0.67544489  0.25000000  0.18987301  1.0
  Pd  Pd27  1  0.17544489  0.25000000  0.31012699  1.0
  Pd  Pd28  1  0.29388686  0.75000000  0.23211618  1.0
  Pd  Pd29  1  0.79388686  0.75000000  0.26788382  1.0
  Pd  Pd30  1  0.70611314  0.25000000  0.76788382  1.0
  Pd  Pd31  1  0.20611314  0.25000000  0.73211618  1.0
  Pd  Pd32  1  0.12810657  0.75000000  0.11737845  1.0
  Pd  Pd33  1  0.62810657  0.75000000  0.38262155  1.0
  Pd  Pd34  1  0.87189343  0.25000000  0.88262155  1.0
  Pd  Pd35  1  0.37189343  0.25000000  0.61737845  1.0
  Pd  Pd36  1  0.08083152  0.75000000  0.68140733  1.0
  Pd  Pd37  1  0.58083152  0.75000000  0.81859267  1.0
  Pd  Pd38  1  0.91916848  0.25000000  0.31859267  1.0
  Pd  Pd39  1  0.41916848  0.25000000  0.18140733  1.0
