# generated using pymatgen
data_Ba14Na14CaN6
_symmetry_space_group_name_H-M   'P 1'
_cell_length_a   12.61486300
_cell_length_b   12.61486300
_cell_length_c   12.61486300
_cell_angle_alpha   60.00000000
_cell_angle_beta   60.00000000
_cell_angle_gamma   60.00000000
_symmetry_Int_Tables_number   1
_chemical_formula_structural   Ba14Na14CaN6
_chemical_formula_sum   'Ba14 Na14 Ca1 N6'
_cell_volume   1419.49091409
_cell_formula_units_Z   1
loop_
 _symmetry_equiv_pos_site_id
 _symmetry_equiv_pos_as_xyz
  1  'x, y, z'
loop_
 _atom_site_type_symbol
 _atom_site_label
 _atom_site_symmetry_multiplicity
 _atom_site_fract_x
 _atom_site_fract_y
 _atom_site_fract_z
 _atom_site_occupancy
  Ba  Ba0  1  0.89328618  0.89328618  -0.10671382  1.0
  Ba  Ba1  1  1.10671382  0.10671382  0.67985855  1.0
  Ba  Ba2  1  1.10671382  0.67985855  0.10671382  1.0
  Ba  Ba3  1  0.32014145  0.89328618  -0.10671382  1.0
  Ba  Ba4  1  1.67985855  0.10671382  0.10671382  1.0
  Ba  Ba5  1  0.89328618  0.32014145  -0.10671382  1.0
  Ba  Ba6  1  0.89328618  0.89328618  -0.67985855  1.0
  Ba  Ba7  1  1.10671382  0.10671382  0.10671382  1.0
  Ba  Ba8  1  -0.71487890  0.71487890  0.71487890  1.0
  Ba  Ba9  1  -0.28512110  0.28512110  0.71487890  1.0
  Ba  Ba10  1  0.71487890  0.71487890  -0.71487890  1.0
  Ba  Ba11  1  0.28512110  1.28512110  -0.28512110  1.0
  Ba  Ba12  1  0.28512110  -0.28512110  1.28512110  1.0
  Ba  Ba13  1  -0.28512110  0.28512110  0.28512110  1.0
  Na  Na14  1  0.67116725  0.67116725  -0.32883275  1.0
  Na  Na15  1  1.32883275  0.32883275  0.01350175  1.0
  Na  Na16  1  1.32883275  0.01350175  0.32883275  1.0
  Na  Na17  1  0.98649825  0.67116725  -0.32883275  1.0
  Na  Na18  1  1.01350175  0.32883275  0.32883275  1.0
  Na  Na19  1  0.67116725  0.98649825  -0.32883275  1.0
  Na  Na20  1  0.67116725  0.67116725  -0.01350175  1.0
  Na  Na21  1  1.32883275  0.32883275  0.32883275  1.0
  Na  Na22  1  1.50000000  0.00000000  -0.00000000  1.0
  Na  Na23  1  1.00000000  0.50000000  -0.50000000  1.0
  Na  Na24  1  0.00000000  1.50000000  -0.00000000  1.0
  Na  Na25  1  0.50000000  1.00000000  -0.50000000  1.0
  Na  Na26  1  0.00000000  -0.00000000  0.50000000  1.0
  Na  Na27  1  0.50000000  -0.50000000  1.00000000  1.0
  Ca  Ca28  1  0.00000000  0.00000000  0.00000000  1.0
  N  N29  1  -0.85549263  0.85549263  0.85549263  1.0
  N  N30  1  -0.14450737  0.14450737  0.85549263  1.0
  N  N31  1  0.85549263  0.85549263  -0.85549263  1.0
  N  N32  1  0.14450737  1.14450737  -0.14450737  1.0
  N  N33  1  0.14450737  -0.14450737  1.14450737  1.0
  N  N34  1  -0.14450737  0.14450737  0.14450737  1.0
