# generated using pymatgen
data_V3Pb5IO12
_symmetry_space_group_name_H-M   'P 1'
_cell_length_a   10.85685877
_cell_length_b   10.85685877
_cell_length_c   7.36087094
_cell_angle_alpha   90.00000000
_cell_angle_beta   90.00000000
_cell_angle_gamma   120.00000000
_symmetry_Int_Tables_number   1
_chemical_formula_structural   V3Pb5IO12
_chemical_formula_sum   'V6 Pb10 I2 O24'
_cell_volume   751.39484624
_cell_formula_units_Z   2
loop_
 _symmetry_equiv_pos_site_id
 _symmetry_equiv_pos_as_xyz
  1  'x, y, z'
loop_
 _atom_site_type_symbol
 _atom_site_label
 _atom_site_symmetry_multiplicity
 _atom_site_fract_x
 _atom_site_fract_y
 _atom_site_fract_z
 _atom_site_occupancy
  V  V0  1  0.38778616  0.96782624  0.25000000  1.0
  V  V1  1  0.96782624  0.58004008  0.75000000  1.0
  V  V2  1  0.58004008  0.61221384  0.25000000  1.0
  V  V3  1  0.03217376  0.41995992  0.25000000  1.0
  V  V4  1  0.61221384  0.03217376  0.75000000  1.0
  V  V5  1  0.41995992  0.38778616  0.75000000  1.0
  Pb  Pb6  1  0.04058452  0.75884376  0.25000000  1.0
  Pb  Pb7  1  0.75884376  0.71825923  0.75000000  1.0
  Pb  Pb8  1  0.71825923  0.95941548  0.25000000  1.0
  Pb  Pb9  1  0.24115624  0.28174077  0.25000000  1.0
  Pb  Pb10  1  0.95941548  0.24115624  0.75000000  1.0
  Pb  Pb11  1  0.28174077  0.04058452  0.75000000  1.0
  Pb  Pb12  1  0.33333333  0.66666667  0.50985171  1.0
  Pb  Pb13  1  0.33333333  0.66666667  0.99014829  1.0
  Pb  Pb14  1  0.66666667  0.33333333  0.00985171  1.0
  Pb  Pb15  1  0.66666667  0.33333333  0.49014829  1.0
  I  I16  1  0.00000000  0.00000000  0.50000000  1.0
  I  I17  1  -0.00000000  -0.00000000  -0.00000000  1.0
  O  O18  1  0.27774801  0.91511338  0.43634018  1.0
  O  O19  1  0.27774801  0.91511338  0.06365982  1.0
  O  O20  1  0.91511338  0.63736537  0.93634018  1.0
  O  O21  1  0.91511338  0.63736537  0.56365982  1.0
  O  O22  1  0.63736537  0.72225199  0.43634018  1.0
  O  O23  1  0.63736537  0.72225199  0.06365982  1.0
  O  O24  1  0.08488662  0.36263463  0.43634018  1.0
  O  O25  1  0.08488662  0.36263463  0.06365982  1.0
  O  O26  1  0.72225199  0.08488662  0.93634018  1.0
  O  O27  1  0.72225199  0.08488662  0.56365982  1.0
  O  O28  1  0.36263463  0.27774801  0.93634018  1.0
  O  O29  1  0.36263463  0.27774801  0.56365982  1.0
  O  O30  1  0.46881385  0.86154819  0.25000000  1.0
  O  O31  1  0.86154819  0.39273434  0.75000000  1.0
  O  O32  1  0.39273434  0.53118615  0.25000000  1.0
  O  O33  1  0.13845181  0.60726566  0.25000000  1.0
  O  O34  1  0.53118615  0.13845181  0.75000000  1.0
  O  O35  1  0.60726566  0.46881385  0.75000000  1.0
  O  O36  1  0.63197082  0.48620337  0.25000000  1.0
  O  O37  1  0.48620337  0.85423255  0.75000000  1.0
  O  O38  1  0.85423255  0.36802918  0.25000000  1.0
  O  O39  1  0.51379663  0.14576745  0.25000000  1.0
  O  O40  1  0.36802918  0.51379663  0.75000000  1.0
  O  O41  1  0.14576745  0.63197082  0.75000000  1.0
