# generated using pymatgen
data_CaHfS3
_symmetry_space_group_name_H-M   'P 1'
_cell_length_a   7.01353156
_cell_length_b   9.58602540
_cell_length_c   6.55403897
_cell_angle_alpha   90.00000000
_cell_angle_beta   90.00000000
_cell_angle_gamma   90.00000000
_symmetry_Int_Tables_number   1
_chemical_formula_structural   CaHfS3
_chemical_formula_sum   'Ca4 Hf4 S12'
_cell_volume   440.64043763
_cell_formula_units_Z   4
loop_
 _symmetry_equiv_pos_site_id
 _symmetry_equiv_pos_as_xyz
  1  'x, y, z'
loop_
 _atom_site_type_symbol
 _atom_site_label
 _atom_site_symmetry_multiplicity
 _atom_site_fract_x
 _atom_site_fract_y
 _atom_site_fract_z
 _atom_site_occupancy
  Ca  Ca0  1  0.09108544  0.75000000  0.53225411  1.0
  Ca  Ca1  1  0.59108544  0.75000000  0.96774589  1.0
  Ca  Ca2  1  0.90891456  0.25000000  0.46774589  1.0
  Ca  Ca3  1  0.40891456  0.25000000  0.03225411  1.0
  Hf  Hf4  1  0.50000000  0.00000000  0.50000000  1.0
  Hf  Hf5  1  0.50000000  0.50000000  0.50000000  1.0
  Hf  Hf6  1  0.00000000  0.00000000  0.00000000  1.0
  Hf  Hf7  1  0.00000000  0.50000000  0.00000000  1.0
  S  S8  1  0.30878685  0.93806535  0.81553217  1.0
  S  S9  1  0.30878685  0.56193465  0.81553217  1.0
  S  S10  1  0.80878685  0.93806535  0.68446783  1.0
  S  S11  1  0.80878685  0.56193465  0.68446783  1.0
  S  S12  1  0.69121315  0.43806535  0.18446783  1.0
  S  S13  1  0.69121315  0.06193465  0.18446783  1.0
  S  S14  1  0.19121315  0.43806535  0.31553217  1.0
  S  S15  1  0.19121315  0.06193465  0.31553217  1.0
  S  S16  1  0.96758827  0.75000000  0.12209496  1.0
  S  S17  1  0.46758827  0.75000000  0.37790504  1.0
  S  S18  1  0.03241173  0.25000000  0.87790504  1.0
  S  S19  1  0.53241173  0.25000000  0.62209496  1.0
