# generated using pymatgen
data_Sc3Si3Pt
_symmetry_space_group_name_H-M   'P 1'
_cell_length_a   11.71416690
_cell_length_b   4.03967301
_cell_length_c   10.25360661
_cell_angle_alpha   90.00000000
_cell_angle_beta   90.00000000
_cell_angle_gamma   90.00000000
_symmetry_Int_Tables_number   1
_chemical_formula_structural   Sc3Si3Pt
_chemical_formula_sum   'Sc12 Si12 Pt4'
_cell_volume   485.21505941
_cell_formula_units_Z   4
loop_
 _symmetry_equiv_pos_site_id
 _symmetry_equiv_pos_as_xyz
  1  'x, y, z'
loop_
 _atom_site_type_symbol
 _atom_site_label
 _atom_site_symmetry_multiplicity
 _atom_site_fract_x
 _atom_site_fract_y
 _atom_site_fract_z
 _atom_site_occupancy
  Sc  Sc0  1  0.47911933  0.75000000  0.12423893  1.0
  Sc  Sc1  1  0.97911933  0.75000000  0.37576107  1.0
  Sc  Sc2  1  0.52088067  0.25000000  0.87576107  1.0
  Sc  Sc3  1  0.02088067  0.25000000  0.62423893  1.0
  Sc  Sc4  1  0.19917893  0.75000000  0.15758439  1.0
  Sc  Sc5  1  0.69917893  0.75000000  0.34241561  1.0
  Sc  Sc6  1  0.80082107  0.25000000  0.84241561  1.0
  Sc  Sc7  1  0.30082107  0.25000000  0.65758439  1.0
  Sc  Sc8  1  0.90078149  0.75000000  0.07992282  1.0
  Sc  Sc9  1  0.40078149  0.75000000  0.42007718  1.0
  Sc  Sc10  1  0.09921851  0.25000000  0.92007718  1.0
  Sc  Sc11  1  0.59921851  0.25000000  0.57992282  1.0
  Si  Si12  1  0.45682644  0.75000000  0.68820116  1.0
  Si  Si13  1  0.95682644  0.75000000  0.81179884  1.0
  Si  Si14  1  0.54317356  0.25000000  0.31179884  1.0
  Si  Si15  1  0.04317356  0.25000000  0.18820116  1.0
  Si  Si16  1  0.17543344  0.75000000  0.51695773  1.0
  Si  Si17  1  0.67543344  0.75000000  0.98304227  1.0
  Si  Si18  1  0.82456656  0.25000000  0.48304227  1.0
  Si  Si19  1  0.32456656  0.25000000  0.01695773  1.0
  Si  Si20  1  0.15564370  0.75000000  0.74721713  1.0
  Si  Si21  1  0.65564370  0.75000000  0.75278287  1.0
  Si  Si22  1  0.84435630  0.25000000  0.25278287  1.0
  Si  Si23  1  0.34435630  0.25000000  0.24721713  1.0
  Pt  Pt24  1  0.32169557  0.75000000  0.88662114  1.0
  Pt  Pt25  1  0.82169557  0.75000000  0.61337886  1.0
  Pt  Pt26  1  0.67830443  0.25000000  0.11337886  1.0
  Pt  Pt27  1  0.17830443  0.25000000  0.38662114  1.0
