# generated using pymatgen
data_Ba2CoSi2O7
_symmetry_space_group_name_H-M   'P 1'
_cell_length_a   6.90554028
_cell_length_b   6.90554028
_cell_length_c   8.55069259
_cell_angle_alpha   76.84349347
_cell_angle_beta   103.15650653
_cell_angle_gamma   76.46174446
_symmetry_Int_Tables_number   1
_chemical_formula_structural   Ba2CoSi2O7
_chemical_formula_sum   'Ba4 Co2 Si4 O14'
_cell_volume   368.63395619
_cell_formula_units_Z   2
loop_
 _symmetry_equiv_pos_site_id
 _symmetry_equiv_pos_as_xyz
  1  'x, y, z'
loop_
 _atom_site_type_symbol
 _atom_site_label
 _atom_site_symmetry_multiplicity
 _atom_site_fract_x
 _atom_site_fract_y
 _atom_site_fract_z
 _atom_site_occupancy
  Ba  Ba0  1  1.73287635  0.18770438  0.02543290  1.0
  Ba  Ba1  1  0.81229562  -0.73287635  0.52543290  1.0
  Ba  Ba2  1  1.18770438  0.73287635  0.47456710  1.0
  Ba  Ba3  1  0.26712365  -0.18770438  0.97456710  1.0
  Co  Co4  1  1.25674594  0.25674594  0.25000000  1.0
  Co  Co5  1  0.74325406  -0.25674594  0.75000000  1.0
  Si  Si6  1  0.60723018  -0.16715824  0.36221806  1.0
  Si  Si7  1  1.16715824  0.39276982  0.86221806  1.0
  Si  Si8  1  0.83284176  -0.39276982  0.13778194  1.0
  Si  Si9  1  1.39276982  0.16715824  0.63778194  1.0
  O  O10  1  0.76143599  -0.02276085  0.36618326  1.0
  O  O11  1  1.02276085  0.23856401  0.86618326  1.0
  O  O12  1  0.97723915  -0.23856401  0.13381674  1.0
  O  O13  1  1.23856401  0.02276085  0.63381674  1.0
  O  O14  1  0.35814558  -0.04211191  0.26395448  1.0
  O  O15  1  1.04211191  0.64185442  0.76395448  1.0
  O  O16  1  0.95788809  -0.64185442  0.23604552  1.0
  O  O17  1  1.64185442  0.04211191  0.73604552  1.0
  O  O18  1  1.37642276  0.32494952  0.45538616  1.0
  O  O19  1  0.67505048  -0.37642276  0.95538616  1.0
  O  O20  1  1.32494952  0.37642276  0.04461384  1.0
  O  O21  1  0.62357724  -0.32494952  0.54461384  1.0
  O  O22  1  0.66636712  -0.33363288  0.25000000  1.0
  O  O23  1  1.33363288  0.33363288  0.75000000  1.0
