# generated using pymatgen
data_Li5(CuGe)2
_symmetry_space_group_name_H-M   'P 1'
_cell_length_a   4.22404039
_cell_length_b   4.22404039
_cell_length_c   8.11061682
_cell_angle_alpha   90.00000000
_cell_angle_beta   90.00000000
_cell_angle_gamma   120.00000000
_symmetry_Int_Tables_number   1
_chemical_formula_structural   Li5(CuGe)2
_chemical_formula_sum   'Li5 Cu2 Ge2'
_cell_volume   125.32584465
_cell_formula_units_Z   1
loop_
 _symmetry_equiv_pos_site_id
 _symmetry_equiv_pos_as_xyz
  1  'x, y, z'
loop_
 _atom_site_type_symbol
 _atom_site_label
 _atom_site_symmetry_multiplicity
 _atom_site_fract_x
 _atom_site_fract_y
 _atom_site_fract_z
 _atom_site_occupancy
  Li  Li0  1  0.33333333  0.66666667  0.11467752  1.0
  Li  Li1  1  0.66666667  0.33333333  0.88532248  1.0
  Li  Li2  1  0.33333333  0.66666667  0.43179132  1.0
  Li  Li3  1  0.66666667  0.33333333  0.56820868  1.0
  Li  Li4  1  0.00000000  0.00000000  0.00000000  1.0
  Cu  Cu5  1  0.00000000  0.00000000  0.30543747  1.0
  Cu  Cu6  1  0.00000000  0.00000000  0.69456253  1.0
  Ge  Ge7  1  0.33333333  0.66666667  0.75917795  1.0
  Ge  Ge8  1  0.66666667  0.33333333  0.24082205  1.0
