# generated using pymatgen
data_Te5Pd21
_symmetry_space_group_name_H-M   'P 1'
_cell_length_a   8.86386019
_cell_length_b   8.86386019
_cell_length_c   8.86386019
_cell_angle_alpha   60.00000000
_cell_angle_beta   60.00000000
_cell_angle_gamma   60.00000000
_symmetry_Int_Tables_number   1
_chemical_formula_structural   Te5Pd21
_chemical_formula_sum   'Te5 Pd21'
_cell_volume   492.44042117
_cell_formula_units_Z   1
loop_
 _symmetry_equiv_pos_site_id
 _symmetry_equiv_pos_as_xyz
  1  'x, y, z'
loop_
 _atom_site_type_symbol
 _atom_site_label
 _atom_site_symmetry_multiplicity
 _atom_site_fract_x
 _atom_site_fract_y
 _atom_site_fract_z
 _atom_site_occupancy
  Te  Te0  1  0.75000000  0.75000000  -0.25000000  1.0
  Te  Te1  1  0.37544759  1.37544759  0.37544759  1.0
  Te  Te2  1  -0.12634276  0.37544759  0.37544759  1.0
  Te  Te3  1  0.37544759  1.37544759  -0.12634276  1.0
  Te  Te4  1  0.37544759  -0.12634276  0.37544759  1.0
  Pd  Pd5  1  -0.37043674  0.62956326  0.62956326  1.0
  Pd  Pd6  1  1.11131022  0.62956326  -0.37043674  1.0
  Pd  Pd7  1  -0.37043674  0.62956326  1.11131022  1.0
  Pd  Pd8  1  0.62956326  1.11131022  -0.37043674  1.0
  Pd  Pd9  1  0.12317162  0.12317162  0.12317162  1.0
  Pd  Pd10  1  0.63048513  0.12317162  0.12317162  1.0
  Pd  Pd11  1  0.12317162  0.12317162  0.63048513  1.0
  Pd  Pd12  1  0.12317162  0.63048513  0.12317162  1.0
  Pd  Pd13  1  -0.24693900  0.24693900  0.75306100  1.0
  Pd  Pd14  1  -0.24693900  0.75306100  0.24693900  1.0
  Pd  Pd15  1  -0.75306100  0.75306100  0.75306100  1.0
  Pd  Pd16  1  0.24693900  -0.24693900  0.24693900  1.0
  Pd  Pd17  1  0.24693900  1.24693900  -0.24693900  1.0
  Pd  Pd18  1  -0.24693900  0.24693900  0.24693900  1.0
  Pd  Pd19  1  0.00147377  0.49852623  0.00147377  1.0
  Pd  Pd20  1  0.00147377  0.00147377  0.49852623  1.0
  Pd  Pd21  1  0.49852623  0.00147377  0.00147377  1.0
  Pd  Pd22  1  0.49852623  1.00147377  -0.50147377  1.0
  Pd  Pd23  1  -0.50147377  0.49852623  1.00147377  1.0
  Pd  Pd24  1  1.00147377  0.49852623  -0.50147377  1.0
  Pd  Pd25  1  0.00000000  -0.00000000  -0.00000000  1.0
