# generated using pymatgen
data_Cs5Nb2S4Br9
_symmetry_space_group_name_H-M   'P 1'
_cell_length_a   10.89937800
_cell_length_b   10.89937800
_cell_length_c   10.89937800
_cell_angle_alpha   138.35055755
_cell_angle_beta   118.37940513
_cell_angle_gamma   77.14215519
_symmetry_Int_Tables_number   1
_chemical_formula_structural   Cs5Nb2S4Br9
_chemical_formula_sum   'Cs5 Nb2 S4 Br9'
_cell_volume   737.34339902
_cell_formula_units_Z   1
loop_
 _symmetry_equiv_pos_site_id
 _symmetry_equiv_pos_as_xyz
  1  'x, y, z'
loop_
 _atom_site_type_symbol
 _atom_site_label
 _atom_site_symmetry_multiplicity
 _atom_site_fract_x
 _atom_site_fract_y
 _atom_site_fract_z
 _atom_site_occupancy
  Cs  Cs0  1  1.61398784  0.83788632  0.77610151  1.0
  Cs  Cs1  1  0.93821519  0.16211368  0.77610151  1.0
  Cs  Cs2  1  1.06178481  0.83788632  0.22389849  1.0
  Cs  Cs3  1  0.38601216  0.16211368  0.22389849  1.0
  Cs  Cs4  1  0.00000000  0.50000000  0.50000000  1.0
  Nb  Nb5  1  0.58576990  0.58576990  1.00000000  1.0
  Nb  Nb6  1  1.41423010  1.41423010  1.00000000  1.0
  S  S7  1  0.59078751  0.72753825  1.31832575  1.0
  S  S8  1  0.40921249  0.72753825  1.13675074  1.0
  S  S9  1  0.59078751  0.27246175  0.86324926  1.0
  S  S10  1  0.40921249  0.27246175  0.68167425  1.0
  Br  Br11  1  0.70237467  0.46344319  0.76106853  1.0
  Br  Br12  1  1.29762533  1.05869386  0.76106853  1.0
  Br  Br13  1  0.70237467  0.94130614  1.23893147  1.0
  Br  Br14  1  1.29762533  1.53655681  1.23893147  1.0
  Br  Br15  1  0.38146177  0.62654144  0.75492033  1.0
  Br  Br16  1  1.12837889  1.37345856  0.75492033  1.0
  Br  Br17  1  0.87162111  0.62654144  1.24507967  1.0
  Br  Br18  1  1.61853823  1.37345856  1.24507967  1.0
  Br  Br19  1  0.00000000  0.00000000  0.00000000  1.0
