# generated using pymatgen
data_H8PtN2(ClO)2
_symmetry_space_group_name_H-M   'P 1'
_cell_length_a   6.57856892
_cell_length_b   7.64927138
_cell_length_c   6.58137808
_cell_angle_alpha   90.00000000
_cell_angle_beta   88.86200032
_cell_angle_gamma   90.00000000
_symmetry_Int_Tables_number   1
_chemical_formula_structural   H8PtN2(ClO)2
_chemical_formula_sum   'H16 Pt2 N4 Cl4 O4'
_cell_volume   331.11790790
_cell_formula_units_Z   2
loop_
 _symmetry_equiv_pos_site_id
 _symmetry_equiv_pos_as_xyz
  1  'x, y, z'
loop_
 _atom_site_type_symbol
 _atom_site_label
 _atom_site_symmetry_multiplicity
 _atom_site_fract_x
 _atom_site_fract_y
 _atom_site_fract_z
 _atom_site_occupancy
  H  H0  1  0.88656598  0.93247241  0.64870676  1.0
  H  H1  1  0.88656598  0.56752759  0.64870676  1.0
  H  H2  1  0.11343402  0.43247241  0.35129324  1.0
  H  H3  1  0.11343402  0.06752759  0.35129324  1.0
  H  H4  1  0.85431566  0.92430657  0.90177722  1.0
  H  H5  1  0.85431566  0.57569343  0.90177722  1.0
  H  H6  1  0.14568434  0.42430657  0.09822278  1.0
  H  H7  1  0.14568434  0.07569343  0.09822278  1.0
  H  H8  1  0.65316557  0.93831360  0.75301160  1.0
  H  H9  1  0.65316557  0.56168640  0.75301160  1.0
  H  H10  1  0.34683443  0.43831360  0.24698840  1.0
  H  H11  1  0.34683443  0.06168640  0.24698840  1.0
  H  H12  1  0.83659721  0.25000000  0.39818466  1.0
  H  H13  1  0.16340279  0.75000000  0.60181534  1.0
  H  H14  1  0.17861320  0.25000000  0.80053718  1.0
  H  H15  1  0.82138680  0.75000000  0.19946282  1.0
  Pt  Pt16  1  0.80040234  0.25000000  0.77282132  1.0
  Pt  Pt17  1  0.19959766  0.75000000  0.22717868  1.0
  N  N18  1  0.80007062  0.98085276  0.76942550  1.0
  N  N19  1  0.80007062  0.51914724  0.76942550  1.0
  N  N20  1  0.19992938  0.48085276  0.23057450  1.0
  N  N21  1  0.19992938  0.01914724  0.23057450  1.0
  Cl  Cl22  1  0.65023875  0.25000000  0.10051450  1.0
  Cl  Cl23  1  0.34976125  0.75000000  0.89948550  1.0
  Cl  Cl24  1  0.48318847  0.25000000  0.61553841  1.0
  Cl  Cl25  1  0.51681153  0.75000000  0.38446159  1.0
  O  O26  1  0.94522163  0.25000000  0.49880258  1.0
  O  O27  1  0.05477837  0.75000000  0.50119742  1.0
  O  O28  1  0.07358319  0.25000000  0.90884790  1.0
  O  O29  1  0.92641681  0.75000000  0.09115210  1.0
