# generated using pymatgen
data_TlCo(CO)4
_symmetry_space_group_name_H-M   'P 1'
_cell_length_a   9.17009236
_cell_length_b   9.17009236
_cell_length_c   9.17009236
_cell_angle_alpha   90.00000000
_cell_angle_beta   90.00000000
_cell_angle_gamma   90.00000000
_symmetry_Int_Tables_number   1
_chemical_formula_structural   TlCo(CO)4
_chemical_formula_sum   'Tl4 Co4 C16 O16'
_cell_volume   771.11851146
_cell_formula_units_Z   4
loop_
 _symmetry_equiv_pos_site_id
 _symmetry_equiv_pos_as_xyz
  1  'x, y, z'
loop_
 _atom_site_type_symbol
 _atom_site_label
 _atom_site_symmetry_multiplicity
 _atom_site_fract_x
 _atom_site_fract_y
 _atom_site_fract_z
 _atom_site_occupancy
  Tl  Tl0  1  0.81046221  0.31046221  0.18953779  1.0
  Tl  Tl1  1  0.31046221  0.18953779  0.81046221  1.0
  Tl  Tl2  1  0.18953779  0.81046221  0.31046221  1.0
  Tl  Tl3  1  0.68953779  0.68953779  0.68953779  1.0
  Co  Co4  1  0.30381564  0.80381564  0.69618436  1.0
  Co  Co5  1  0.80381564  0.69618436  0.30381564  1.0
  Co  Co6  1  0.69618436  0.30381564  0.80381564  1.0
  Co  Co7  1  0.19618436  0.19618436  0.19618436  1.0
  C  C8  1  0.34491596  0.81515254  0.88394869  1.0
  C  C9  1  0.84491596  0.68484746  0.11605131  1.0
  C  C10  1  0.31515254  0.61605131  0.65508404  1.0
  C  C11  1  0.81515254  0.88394869  0.34491596  1.0
  C  C12  1  0.11605131  0.84491596  0.68484746  1.0
  C  C13  1  0.61605131  0.65508404  0.31515254  1.0
  C  C14  1  0.65508404  0.31515254  0.61605131  1.0
  C  C15  1  0.15508404  0.18484746  0.38394869  1.0
  C  C16  1  0.68484746  0.11605131  0.84491596  1.0
  C  C17  1  0.18484746  0.38394869  0.15508404  1.0
  C  C18  1  0.88394869  0.34491596  0.81515254  1.0
  C  C19  1  0.38394869  0.15508404  0.18484746  1.0
  C  C20  1  0.41514011  0.91514011  0.58485989  1.0
  C  C21  1  0.91514011  0.58485989  0.41514011  1.0
  C  C22  1  0.58485989  0.41514011  0.91514011  1.0
  C  C23  1  0.08485989  0.08485989  0.08485989  1.0
  O  O24  1  0.36544159  0.81972584  0.00927591  1.0
  O  O25  1  0.86544159  0.68027416  0.99072409  1.0
  O  O26  1  0.31972584  0.49072409  0.63455841  1.0
  O  O27  1  0.81972584  0.00927591  0.36544159  1.0
  O  O28  1  0.99072409  0.86544159  0.68027416  1.0
  O  O29  1  0.49072409  0.63455841  0.31972584  1.0
  O  O30  1  0.63455841  0.31972584  0.49072409  1.0
  O  O31  1  0.13455841  0.18027416  0.50927591  1.0
  O  O32  1  0.68027416  0.99072409  0.86544159  1.0
  O  O33  1  0.18027416  0.50927591  0.13455841  1.0
  O  O34  1  0.00927591  0.36544159  0.81972584  1.0
  O  O35  1  0.50927591  0.13455841  0.18027416  1.0
  O  O36  1  0.48873527  0.98873527  0.51126473  1.0
  O  O37  1  0.98873527  0.51126473  0.48873527  1.0
  O  O38  1  0.51126473  0.48873527  0.98873527  1.0
  O  O39  1  0.01126473  0.01126473  0.01126473  1.0
