# generated using pymatgen
data_KAg2SbS3
_symmetry_space_group_name_H-M   'P 1'
_cell_length_a   11.06722468
_cell_length_b   9.56740721
_cell_length_c   6.87042216
_cell_angle_alpha   90.09522670
_cell_angle_beta   92.38853285
_cell_angle_gamma   91.38257506
_symmetry_Int_Tables_number   1
_chemical_formula_structural   KAg2SbS3
_chemical_formula_sum   'K4 Ag8 Sb4 S12'
_cell_volume   726.62598511
_cell_formula_units_Z   4
loop_
 _symmetry_equiv_pos_site_id
 _symmetry_equiv_pos_as_xyz
  1  'x, y, z'
loop_
 _atom_site_type_symbol
 _atom_site_label
 _atom_site_symmetry_multiplicity
 _atom_site_fract_x
 _atom_site_fract_y
 _atom_site_fract_z
 _atom_site_occupancy
  K  K0  1  -0.62934796  -0.56903600  -0.29114525  1.0
  K  K1  1  -0.37065204  -0.43096400  -0.70885475  1.0
  K  K2  1  -0.12718810  -0.42081574  -0.20054647  1.0
  K  K3  1  -0.87281190  -0.57918426  -0.79945353  1.0
  Ag  Ag4  1  -0.14155970  -0.73124550  -0.51858967  1.0
  Ag  Ag5  1  -0.85844030  -0.26875450  -0.48141033  1.0
  Ag  Ag6  1  -0.04671614  -0.83231630  -0.09594516  1.0
  Ag  Ag7  1  -0.95328386  -0.16768370  -0.90405484  1.0
  Ag  Ag8  1  -0.33534385  -0.10942748  0.00145852  1.0
  Ag  Ag9  1  -0.66465615  -0.89057252  -1.00145852  1.0
  Ag  Ag10  1  -0.55488101  -0.15996839  -0.41376154  1.0
  Ag  Ag11  1  -0.44511899  -0.84003161  -0.58623846  1.0
  Sb  Sb12  1  -0.14725325  -0.05508428  -0.52464727  1.0
  Sb  Sb13  1  -0.85274675  -0.94491572  -0.47535273  1.0
  Sb  Sb14  1  -0.34097247  -0.79558383  -0.04957646  1.0
  Sb  Sb15  1  -0.65902753  -0.20441617  -0.95042354  1.0
  S  S16  1  -0.36223698  -0.08705046  -0.62883142  1.0
  S  S17  1  -0.63776302  -0.91294954  -0.37116858  1.0
  S  S18  1  -0.33451108  -0.65829981  -0.35672001  1.0
  S  S19  1  -0.66548892  -0.34170019  -0.64327999  1.0
  S  S20  1  -0.07531906  -0.28716482  -0.63229350  1.0
  S  S21  1  -0.92468094  -0.71283518  -0.36770650  1.0
  S  S22  1  -0.13742003  -0.08238156  -0.16337267  1.0
  S  S23  1  -0.86257997  -0.91761844  -0.83662733  1.0
  S  S24  1  -0.51620016  -0.69926898  -0.88628241  1.0
  S  S25  1  -0.48379984  -0.30073102  -0.11371759  1.0
  S  S26  1  -0.16856344  -0.66727073  -0.88120460  1.0
  S  S27  1  -0.83143656  -0.33272927  -0.11879540  1.0
