# generated using pymatgen
data_Ag25(BiO6)3
_symmetry_space_group_name_H-M   'P 1'
_cell_length_a   11.68306445
_cell_length_b   11.68306445
_cell_length_c   6.42413414
_cell_angle_alpha   90.00000000
_cell_angle_beta   90.00000000
_cell_angle_gamma   120.00000000
_symmetry_Int_Tables_number   1
_chemical_formula_structural   Ag25(BiO6)3
_chemical_formula_sum   'Ag25 Bi3 O18'
_cell_volume   759.37934004
_cell_formula_units_Z   1
loop_
 _symmetry_equiv_pos_site_id
 _symmetry_equiv_pos_as_xyz
  1  'x, y, z'
loop_
 _atom_site_type_symbol
 _atom_site_label
 _atom_site_symmetry_multiplicity
 _atom_site_fract_x
 _atom_site_fract_y
 _atom_site_fract_z
 _atom_site_occupancy
  Ag  Ag0  1  0.25845352  0.95738139  0.16183909  1.0
  Ag  Ag1  1  0.95738139  0.69892786  0.83816091  1.0
  Ag  Ag2  1  0.69892786  0.74154648  0.16183909  1.0
  Ag  Ag3  1  0.04261861  0.30107214  0.16183909  1.0
  Ag  Ag4  1  0.74154648  0.04261861  0.83816091  1.0
  Ag  Ag5  1  0.30107214  0.25845352  0.83816091  1.0
  Ag  Ag6  1  0.02612332  0.75157773  0.34446628  1.0
  Ag  Ag7  1  0.75157773  0.72545442  0.65553372  1.0
  Ag  Ag8  1  0.72545442  0.97387668  0.34446628  1.0
  Ag  Ag9  1  0.24842227  0.27454558  0.34446628  1.0
  Ag  Ag10  1  0.97387668  0.24842227  0.65553372  1.0
  Ag  Ag11  1  0.27454558  0.02612332  0.65553372  1.0
  Ag  Ag12  1  0.75372843  0.51610977  0.24710370  1.0
  Ag  Ag13  1  0.51610977  0.76238134  0.75289630  1.0
  Ag  Ag14  1  0.76238134  0.24627157  0.24710370  1.0
  Ag  Ag15  1  0.48389023  0.23761866  0.24710370  1.0
  Ag  Ag16  1  0.24627157  0.48389023  0.75289630  1.0
  Ag  Ag17  1  0.23761866  0.75372843  0.75289630  1.0
  Ag  Ag18  1  0.50000000  0.50000000  0.50000000  1.0
  Ag  Ag19  1  0.50000000  0.00000000  0.50000000  1.0
  Ag  Ag20  1  -0.00000000  0.50000000  0.50000000  1.0
  Ag  Ag21  1  0.50000000  0.50000000  0.00000000  1.0
  Ag  Ag22  1  0.50000000  0.00000000  0.00000000  1.0
  Ag  Ag23  1  -0.00000000  0.50000000  -0.00000000  1.0
  Ag  Ag24  1  0.00000000  0.00000000  0.50000000  1.0
  Bi  Bi25  1  0.33333333  0.66666667  0.26178664  1.0
  Bi  Bi26  1  0.66666667  0.33333333  0.73821336  1.0
  Bi  Bi27  1  0.00000000  0.00000000  -0.00000000  1.0
  O  O28  1  0.90918344  0.82645626  0.20435583  1.0
  O  O29  1  0.82645626  0.91727282  0.79564417  1.0
  O  O30  1  0.91727282  0.09081656  0.20435583  1.0
  O  O31  1  0.17354374  0.08272718  0.20435583  1.0
  O  O32  1  0.09081656  0.17354374  0.79564417  1.0
  O  O33  1  0.08272718  0.90918344  0.79564417  1.0
  O  O34  1  0.32273027  0.81970495  0.05422082  1.0
  O  O35  1  0.81970495  0.49697468  0.94577918  1.0
  O  O36  1  0.49697468  0.67726973  0.05422082  1.0
  O  O37  1  0.18029505  0.50302532  0.05422082  1.0
  O  O38  1  0.67726973  0.18029505  0.94577918  1.0
  O  O39  1  0.50302532  0.32273027  0.94577918  1.0
  O  O40  1  0.16260494  0.68948890  0.44779400  1.0
  O  O41  1  0.68948890  0.52688396  0.55220600  1.0
  O  O42  1  0.52688396  0.83739506  0.44779400  1.0
  O  O43  1  0.31051110  0.47311604  0.44779400  1.0
  O  O44  1  0.83739506  0.31051110  0.55220600  1.0
  O  O45  1  0.47311604  0.16260494  0.55220600  1.0
