# generated using pymatgen
data_Sr2GaSbO6
_symmetry_space_group_name_H-M   'P 1'
_cell_length_a   5.66250133
_cell_length_b   5.66250133
_cell_length_c   5.66250133
_cell_angle_alpha   120.85633728
_cell_angle_beta   120.85633728
_cell_angle_gamma   88.52307124
_symmetry_Int_Tables_number   1
_chemical_formula_structural   Sr2GaSbO6
_chemical_formula_sum   'Sr2 Ga1 Sb1 O6'
_cell_volume   126.67631344
_cell_formula_units_Z   1
loop_
 _symmetry_equiv_pos_site_id
 _symmetry_equiv_pos_as_xyz
  1  'x, y, z'
loop_
 _atom_site_type_symbol
 _atom_site_label
 _atom_site_symmetry_multiplicity
 _atom_site_fract_x
 _atom_site_fract_y
 _atom_site_fract_z
 _atom_site_occupancy
  Sr  Sr0  1  0.25000000  0.75000000  0.50000000  1.0
  Sr  Sr1  1  0.75000000  0.25000000  0.50000000  1.0
  Ga  Ga2  1  0.00000000  0.00000000  0.00000000  1.0
  Sb  Sb3  1  0.50000000  0.50000000  1.00000000  1.0
  O  O4  1  0.70664542  0.79462797  1.50127339  1.0
  O  O5  1  0.20537203  0.70664542  0.91201745  1.0
  O  O6  1  0.29335458  0.20537203  0.49872661  1.0
  O  O7  1  0.79462797  0.29335458  1.08798255  1.0
  O  O8  1  0.74821740  0.74821740  1.00000000  1.0
  O  O9  1  0.25178260  0.25178260  -0.00000000  1.0
