# generated using pymatgen
data_FeBiO3
_symmetry_space_group_name_H-M   'P 1'
_cell_length_a   5.50501361
_cell_length_b   5.50501361
_cell_length_c   5.50501361
_cell_angle_alpha   67.18675230
_cell_angle_beta   67.18675230
_cell_angle_gamma   67.18675230
_symmetry_Int_Tables_number   1
_chemical_formula_structural   FeBiO3
_chemical_formula_sum   'Fe1 Bi1 O3'
_cell_volume   136.10504045
_cell_formula_units_Z   1
loop_
 _symmetry_equiv_pos_site_id
 _symmetry_equiv_pos_as_xyz
  1  'x, y, z'
loop_
 _atom_site_type_symbol
 _atom_site_label
 _atom_site_symmetry_multiplicity
 _atom_site_fract_x
 _atom_site_fract_y
 _atom_site_fract_z
 _atom_site_occupancy
  Fe  Fe0  1  0.72174518  0.72174518  -0.27825482  1.0
  Bi  Bi1  1  -0.02666765  -0.02666765  -0.02666765  1.0
  O  O2  1  0.40120966  0.89478244  -1.10506963  1.0
  O  O3  1  0.89478244  -0.10506963  -0.59879034  1.0
  O  O4  1  -0.10506963  0.40120966  -0.10521756  1.0
