# generated using pymatgen
data_CaHgO2
_symmetry_space_group_name_H-M   'P 1'
_cell_length_a   5.80993412
_cell_length_b   5.80993412
_cell_length_c   5.80993412
_cell_angle_alpha   35.07043725
_cell_angle_beta   35.07043725
_cell_angle_gamma   35.07043725
_symmetry_Int_Tables_number   1
_chemical_formula_structural   CaHgO2
_chemical_formula_sum   'Ca1 Hg1 O2'
_cell_volume   57.81825303
_cell_formula_units_Z   1
loop_
 _symmetry_equiv_pos_site_id
 _symmetry_equiv_pos_as_xyz
  1  'x, y, z'
loop_
 _atom_site_type_symbol
 _atom_site_label
 _atom_site_symmetry_multiplicity
 _atom_site_fract_x
 _atom_site_fract_y
 _atom_site_fract_z
 _atom_site_occupancy
  Ca  Ca0  1  -0.00000000  -0.00000000  0.00000000  1.0
  Hg  Hg1  1  1.50000000  0.50000000  0.50000000  1.0
  O  O2  1  0.74452204  0.74452204  0.74452204  1.0
  O  O3  1  1.25547796  1.25547796  0.25547796  1.0
