# generated using pymatgen
data_Sr4Zn(ReO6)2
_symmetry_space_group_name_H-M   'P 1'
_cell_length_a   9.61432566
_cell_length_b   9.61432566
_cell_length_c   9.61432566
_cell_angle_alpha   33.87432793
_cell_angle_beta   33.87432793
_cell_angle_gamma   33.87432792
_symmetry_Int_Tables_number   1
_chemical_formula_structural   Sr4Zn(ReO6)2
_chemical_formula_sum   'Sr4 Zn1 Re2 O12'
_cell_volume   246.04746912
_cell_formula_units_Z   1
loop_
 _symmetry_equiv_pos_site_id
 _symmetry_equiv_pos_as_xyz
  1  'x, y, z'
loop_
 _atom_site_type_symbol
 _atom_site_label
 _atom_site_symmetry_multiplicity
 _atom_site_fract_x
 _atom_site_fract_y
 _atom_site_fract_z
 _atom_site_occupancy
  Sr  Sr0  1  0.86742376  0.86742376  0.86742376  1.0
  Sr  Sr1  1  1.13257624  1.13257624  0.13257624  1.0
  Sr  Sr2  1  0.70807029  0.70807029  0.70807029  1.0
  Sr  Sr3  1  1.29192971  1.29192971  0.29192971  1.0
  Zn  Zn4  1  0.00000000  0.00000000  0.00000000  1.0
  Re  Re5  1  1.57906420  0.57906420  0.57906420  1.0
  Re  Re6  1  1.42093580  0.42093580  0.42093580  1.0
  O  O7  1  1.38168057  0.38168057  0.86740529  1.0
  O  O8  1  1.38168057  0.86740529  0.38168057  1.0
  O  O9  1  1.13259471  0.61831943  0.61831943  1.0
  O  O10  1  1.61831943  0.13259471  0.61831943  1.0
  O  O11  1  1.61831943  0.61831943  0.13259471  1.0
  O  O12  1  0.86740529  1.38168057  0.38168057  1.0
  O  O13  1  1.21941647  0.21941647  0.69311637  1.0
  O  O14  1  1.21941647  0.69311637  0.21941647  1.0
  O  O15  1  1.30688363  0.78058353  0.78058353  1.0
  O  O16  1  1.78058353  0.30688363  0.78058353  1.0
  O  O17  1  1.78058353  0.78058353  0.30688363  1.0
  O  O18  1  0.69311637  1.21941647  0.21941647  1.0
