# generated using pymatgen
data_Rb2FeO4
_symmetry_space_group_name_H-M   'P 1'
_cell_length_a   8.13987805
_cell_length_b   6.15917533
_cell_length_c   10.89618220
_cell_angle_alpha   90.00000000
_cell_angle_beta   90.00000000
_cell_angle_gamma   90.00000000
_symmetry_Int_Tables_number   1
_chemical_formula_structural   Rb2FeO4
_chemical_formula_sum   'Rb8 Fe4 O16'
_cell_volume   546.27939766
_cell_formula_units_Z   4
loop_
 _symmetry_equiv_pos_site_id
 _symmetry_equiv_pos_as_xyz
  1  'x, y, z'
loop_
 _atom_site_type_symbol
 _atom_site_label
 _atom_site_symmetry_multiplicity
 _atom_site_fract_x
 _atom_site_fract_y
 _atom_site_fract_z
 _atom_site_occupancy
  Rb  Rb0  1  0.83391882  0.75000000  0.41432040  1.0
  Rb  Rb1  1  0.33391882  0.75000000  0.08567960  1.0
  Rb  Rb2  1  0.16608118  0.25000000  0.58567960  1.0
  Rb  Rb3  1  0.66608118  0.25000000  0.91432040  1.0
  Rb  Rb4  1  0.51028779  0.75000000  0.69563385  1.0
  Rb  Rb5  1  0.01028779  0.75000000  0.80436615  1.0
  Rb  Rb6  1  0.48971221  0.25000000  0.30436615  1.0
  Rb  Rb7  1  0.98971221  0.25000000  0.19563385  1.0
  Fe  Fe8  1  0.76839620  0.75000000  0.08021102  1.0
  Fe  Fe9  1  0.26839620  0.75000000  0.41978898  1.0
  Fe  Fe10  1  0.23160380  0.25000000  0.91978898  1.0
  Fe  Fe11  1  0.73160380  0.25000000  0.58021102  1.0
  O  O12  1  0.69700461  0.97074351  0.15028839  1.0
  O  O13  1  0.69700461  0.52925649  0.15028839  1.0
  O  O14  1  0.19700461  0.97074351  0.34971161  1.0
  O  O15  1  0.19700461  0.52925649  0.34971161  1.0
  O  O16  1  0.30299539  0.47074351  0.84971161  1.0
  O  O17  1  0.30299539  0.02925649  0.84971161  1.0
  O  O18  1  0.80299539  0.47074351  0.65028839  1.0
  O  O19  1  0.80299539  0.02925649  0.65028839  1.0
  O  O20  1  0.97174464  0.75000000  0.08293059  1.0
  O  O21  1  0.47174464  0.75000000  0.41706941  1.0
  O  O22  1  0.02825536  0.25000000  0.91706941  1.0
  O  O23  1  0.52825536  0.25000000  0.58293059  1.0
  O  O24  1  0.20011491  0.75000000  0.56429193  1.0
  O  O25  1  0.70011491  0.75000000  0.93570807  1.0
  O  O26  1  0.79988509  0.25000000  0.43570807  1.0
  O  O27  1  0.29988509  0.25000000  0.06429193  1.0
