# generated using pymatgen
data_Ga5CuMo2
_symmetry_space_group_name_H-M   'P 1'
_cell_length_a   4.97580968
_cell_length_b   4.97580968
_cell_length_c   5.31641020
_cell_angle_alpha   90.00000000
_cell_angle_beta   90.00000000
_cell_angle_gamma   115.46243064
_symmetry_Int_Tables_number   1
_chemical_formula_structural   Ga5CuMo2
_chemical_formula_sum   'Ga5 Cu1 Mo2'
_cell_volume   118.84200375
_cell_formula_units_Z   1
loop_
 _symmetry_equiv_pos_site_id
 _symmetry_equiv_pos_as_xyz
  1  'x, y, z'
loop_
 _atom_site_type_symbol
 _atom_site_label
 _atom_site_symmetry_multiplicity
 _atom_site_fract_x
 _atom_site_fract_y
 _atom_site_fract_z
 _atom_site_occupancy
  Ga  Ga0  1  -0.00000000  0.50000000  0.24455035  1.0
  Ga  Ga1  1  0.50000000  1.00000000  0.75544965  1.0
  Ga  Ga2  1  -0.00000000  0.50000000  0.75544965  1.0
  Ga  Ga3  1  0.50000000  1.00000000  0.24455035  1.0
  Ga  Ga4  1  -0.50000000  0.50000000  0.50000000  1.0
  Cu  Cu5  1  0.00000000  0.00000000  0.00000000  1.0
  Mo  Mo6  1  0.00000000  0.00000000  0.50000000  1.0
  Mo  Mo7  1  -0.50000000  0.50000000  0.00000000  1.0
