# generated using pymatgen
data_Mn5V2Pb3O16
_symmetry_space_group_name_H-M   'P 1'
_cell_length_a   5.75508066
_cell_length_b   5.75508066
_cell_length_c   11.43610459
_cell_angle_alpha   90.00000000
_cell_angle_beta   90.00000000
_cell_angle_gamma   120.00000000
_symmetry_Int_Tables_number   1
_chemical_formula_structural   Mn5V2Pb3O16
_chemical_formula_sum   'Mn5 V2 Pb3 O16'
_cell_volume   328.02850140
_cell_formula_units_Z   1
loop_
 _symmetry_equiv_pos_site_id
 _symmetry_equiv_pos_as_xyz
  1  'x, y, z'
loop_
 _atom_site_type_symbol
 _atom_site_label
 _atom_site_symmetry_multiplicity
 _atom_site_fract_x
 _atom_site_fract_y
 _atom_site_fract_z
 _atom_site_occupancy
  Mn  Mn0  1  0.50000000  0.50000000  0.50000000  1.0
  Mn  Mn1  1  0.50000000  0.00000000  0.50000000  1.0
  Mn  Mn2  1  0.00000000  0.50000000  0.50000000  1.0
  Mn  Mn3  1  0.00000000  0.00000000  0.30950821  1.0
  Mn  Mn4  1  0.00000000  0.00000000  0.69049179  1.0
  V  V5  1  0.33333333  0.66666667  0.86002522  1.0
  V  V6  1  0.66666667  0.33333333  0.13997478  1.0
  Pb  Pb7  1  0.33333333  0.66666667  0.23576903  1.0
  Pb  Pb8  1  0.66666667  0.33333333  0.76423097  1.0
  Pb  Pb9  1  0.00000000  0.00000000  0.00000000  1.0
  O  O10  1  0.65041919  0.82520959  0.40531253  1.0
  O  O11  1  0.82520959  0.65041919  0.59468747  1.0
  O  O12  1  0.82520959  0.17479041  0.59468747  1.0
  O  O13  1  0.17479041  0.82520959  0.40531253  1.0
  O  O14  1  0.17479041  0.34958081  0.40531253  1.0
  O  O15  1  0.34958081  0.17479041  0.59468747  1.0
  O  O16  1  0.33028121  0.16514060  0.18553287  1.0
  O  O17  1  0.16514060  0.33028121  0.81446713  1.0
  O  O18  1  0.16514060  0.83485940  0.81446713  1.0
  O  O19  1  0.83485940  0.16514060  0.18553287  1.0
  O  O20  1  0.83485940  0.66971879  0.18553287  1.0
  O  O21  1  0.66971879  0.83485940  0.81446713  1.0
  O  O22  1  0.33333333  0.66666667  0.00609049  1.0
  O  O23  1  0.66666667  0.33333333  0.99390951  1.0
  O  O24  1  0.33333333  0.66666667  0.58294879  1.0
  O  O25  1  0.66666667  0.33333333  0.41705121  1.0
