# generated using pymatgen
data_Sr6GdMn(BO3)6
_symmetry_space_group_name_H-M   'P 1'
_cell_length_a   7.78302794
_cell_length_b   7.78302794
_cell_length_c   7.78302794
_cell_angle_alpha   105.31385855
_cell_angle_beta   105.31385855
_cell_angle_gamma   105.31385855
_symmetry_Int_Tables_number   1
_chemical_formula_structural   Sr6GdMn(BO3)6
_chemical_formula_sum   'Sr6 Gd1 Mn1 B6 O18'
_cell_volume   409.35726799
_cell_formula_units_Z   1
loop_
 _symmetry_equiv_pos_site_id
 _symmetry_equiv_pos_as_xyz
  1  'x, y, z'
loop_
 _atom_site_type_symbol
 _atom_site_label
 _atom_site_symmetry_multiplicity
 _atom_site_fract_x
 _atom_site_fract_y
 _atom_site_fract_z
 _atom_site_occupancy
  Sr  Sr0  1  0.76908131  0.66218976  0.14825630  1.0
  Sr  Sr1  1  1.33781024  -0.14825630  0.23091869  1.0
  Sr  Sr2  1  0.85174370  0.23091869  0.33781024  1.0
  Sr  Sr3  1  1.23091869  0.33781024  -0.14825630  1.0
  Sr  Sr4  1  0.66218976  1.14825630  -0.23091869  1.0
  Sr  Sr5  1  1.14825630  0.76908131  -0.33781024  1.0
  Gd  Gd6  1  0.50000000  0.50000000  0.50000000  1.0
  Mn  Mn7  1  0.00000000  0.00000000  0.00000000  1.0
  B  B8  1  1.54841300  0.79633560  -0.11716355  1.0
  B  B9  1  1.20366440  0.11716355  -0.54841300  1.0
  B  B10  1  1.11716355  -0.54841300  0.20366440  1.0
  B  B11  1  0.45158700  0.20366440  0.11716355  1.0
  B  B12  1  0.79633560  0.88283645  0.54841300  1.0
  B  B13  1  0.88283645  1.54841300  -0.20366440  1.0
  O  O14  1  0.72904165  0.93044978  0.00369983  1.0
  O  O15  1  1.06955022  -0.00369983  -0.72904165  1.0
  O  O16  1  0.99630017  -0.72904165  0.06955022  1.0
  O  O17  1  0.27095835  0.06955022  -0.00369983  1.0
  O  O18  1  0.93044978  1.00369983  -0.27095835  1.0
  O  O19  1  1.00369983  0.72904165  -0.06955022  1.0
  O  O20  1  1.48438824  0.77694309  -0.30842825  1.0
  O  O21  1  1.22305691  0.30842825  -0.48438824  1.0
  O  O22  1  1.30842825  -0.48438824  0.22305691  1.0
  O  O23  1  0.51561176  0.22305691  0.30842825  1.0
  O  O24  1  0.77694309  0.69157175  0.48438824  1.0
  O  O25  1  0.69157175  1.48438824  -0.22305691  1.0
  O  O26  1  0.56429408  0.30617824  0.04331891  1.0
  O  O27  1  0.69382176  0.95668109  0.43570592  1.0
  O  O28  1  0.95668109  1.43570592  -0.30617824  1.0
  O  O29  1  1.43570592  0.69382176  -0.04331891  1.0
  O  O30  1  1.30617824  0.04331891  -0.43570592  1.0
  O  O31  1  1.04331891  -0.43570592  0.30617824  1.0
