# generated using pymatgen
data_Ba2Cu3P4
_symmetry_space_group_name_H-M   'P 1'
_cell_length_a   8.38761581
_cell_length_b   8.38761581
_cell_length_c   8.38761581
_cell_angle_alpha   111.91129844
_cell_angle_beta   84.35955171
_cell_angle_gamma   136.47839219
_symmetry_Int_Tables_number   1
_chemical_formula_structural   Ba2Cu3P4
_chemical_formula_sum   'Ba4 Cu6 P8'
_cell_volume   363.02670642
_cell_formula_units_Z   2
loop_
 _symmetry_equiv_pos_site_id
 _symmetry_equiv_pos_as_xyz
  1  'x, y, z'
loop_
 _atom_site_type_symbol
 _atom_site_label
 _atom_site_symmetry_multiplicity
 _atom_site_fract_x
 _atom_site_fract_y
 _atom_site_fract_z
 _atom_site_occupancy
  Ba  Ba0  1  0.60943231  0.79703383  0.40646614  1.0
  Ba  Ba1  1  0.89056769  0.29703383  1.18760152  1.0
  Ba  Ba2  1  0.10943231  0.70296617  0.81239848  1.0
  Ba  Ba3  1  1.39056769  1.20296617  1.59353386  1.0
  Cu  Cu4  1  0.53008689  0.75000000  0.78008689  1.0
  Cu  Cu5  1  1.03008689  1.25000000  0.78008689  1.0
  Cu  Cu6  1  1.46991311  1.25000000  1.21991311  1.0
  Cu  Cu7  1  0.96991311  0.75000000  1.21991311  1.0
  Cu  Cu8  1  0.75000000  0.75000000  -0.00000000  1.0
  Cu  Cu9  1  0.25000000  0.25000000  0.00000000  1.0
  P  P10  1  0.87887636  0.86743273  1.74630910  1.0
  P  P11  1  0.62112364  1.36743273  0.98855637  1.0
  P  P12  1  1.37887636  0.63256727  1.01144363  1.0
  P  P13  1  0.12112364  0.13256727  0.25369090  1.0
  P  P14  1  0.83964340  0.63201212  1.47165553  1.0
  P  P15  1  0.66035660  1.13201212  0.79236872  1.0
  P  P16  1  1.33964340  0.86798788  1.20763128  1.0
  P  P17  1  0.16035660  0.36798788  0.52834447  1.0
