# generated using pymatgen
data_Ti(NbS2)3
_symmetry_space_group_name_H-M   'P 1'
_cell_length_a   5.78511265
_cell_length_b   5.78511265
_cell_length_c   12.45453824
_cell_angle_alpha   90.00000000
_cell_angle_beta   90.00000000
_cell_angle_gamma   120.00000000
_symmetry_Int_Tables_number   1
_chemical_formula_structural   Ti(NbS2)3
_chemical_formula_sum   'Ti2 Nb6 S12'
_cell_volume   360.97897106
_cell_formula_units_Z   2
loop_
 _symmetry_equiv_pos_site_id
 _symmetry_equiv_pos_as_xyz
  1  'x, y, z'
loop_
 _atom_site_type_symbol
 _atom_site_label
 _atom_site_symmetry_multiplicity
 _atom_site_fract_x
 _atom_site_fract_y
 _atom_site_fract_z
 _atom_site_occupancy
  Ti  Ti0  1  0.33333333  0.66666667  0.25000000  1.0
  Ti  Ti1  1  0.66666667  0.33333333  0.75000000  1.0
  Nb  Nb2  1  0.00000000  0.00000000  0.00000000  1.0
  Nb  Nb3  1  0.00000000  0.00000000  0.50000000  1.0
  Nb  Nb4  1  0.33333333  0.66666667  0.50195051  1.0
  Nb  Nb5  1  0.33333333  0.66666667  0.99804949  1.0
  Nb  Nb6  1  0.66666667  0.33333333  0.49804949  1.0
  Nb  Nb7  1  0.66666667  0.33333333  0.00195051  1.0
  S  S8  1  0.66620453  0.66799215  0.12730706  1.0
  S  S9  1  0.66620453  -0.00178762  0.37269294  1.0
  S  S10  1  0.66799215  0.66620453  0.87269294  1.0
  S  S11  1  0.66799215  1.00178762  0.62730706  1.0
  S  S12  1  1.00178762  0.66799215  0.37269294  1.0
  S  S13  1  1.00178762  0.33379547  0.12730706  1.0
  S  S14  1  0.33200785  0.33379547  0.37269294  1.0
  S  S15  1  0.33200785  -0.00178762  0.12730706  1.0
  S  S16  1  0.33379547  1.00178762  0.87269294  1.0
  S  S17  1  0.33379547  0.33200785  0.62730706  1.0
  S  S18  1  -0.00178762  0.66620453  0.62730706  1.0
  S  S19  1  -0.00178762  0.33200785  0.87269294  1.0
