# generated using pymatgen
data_K2CoP4(HO2)8
_symmetry_space_group_name_H-M   'P 1'
_cell_length_a   7.00779464
_cell_length_b   7.46997274
_cell_length_c   7.62045303
_cell_angle_alpha   80.95104572
_cell_angle_beta   73.44464370
_cell_angle_gamma   84.17958759
_symmetry_Int_Tables_number   1
_chemical_formula_structural   K2CoP4(HO2)8
_chemical_formula_sum   'K2 Co1 P4 H8 O16'
_cell_volume   376.94417180
_cell_formula_units_Z   1
loop_
 _symmetry_equiv_pos_site_id
 _symmetry_equiv_pos_as_xyz
  1  'x, y, z'
loop_
 _atom_site_type_symbol
 _atom_site_label
 _atom_site_symmetry_multiplicity
 _atom_site_fract_x
 _atom_site_fract_y
 _atom_site_fract_z
 _atom_site_occupancy
  K  K0  1  0.62061361  0.24020488  0.79865561  1.0
  K  K1  1  0.37938639  0.75979512  0.20134439  1.0
  Co  Co2  1  0.00000000  0.00000000  0.00000000  1.0
  P  P3  1  0.82296557  0.76997829  0.74290627  1.0
  P  P4  1  0.17703443  0.23002171  0.25709373  1.0
  P  P5  1  0.24491294  0.68923991  0.74114036  1.0
  P  P6  1  0.75508706  0.31076009  0.25885964  1.0
  H  H7  1  0.88203435  0.68643094  0.20959241  1.0
  H  H8  1  0.11796565  0.31356906  0.79040759  1.0
  H  H9  1  0.87036036  0.82232587  0.35346439  1.0
  H  H10  1  0.12963964  0.17767413  0.64653561  1.0
  H  H11  1  0.75049873  0.54786459  0.97619806  1.0
  H  H12  1  0.24950127  0.45213541  0.02380194  1.0
  H  H13  1  0.54823973  0.76810497  0.57514959  1.0
  H  H14  1  0.45176027  0.23189503  0.42485041  1.0
  O  O15  1  0.94291370  0.79445374  0.22713568  1.0
  O  O16  1  0.05708630  0.20554626  0.77286432  1.0
  O  O17  1  0.94030546  0.27166612  0.35208728  1.0
  O  O18  1  0.05969454  0.72833388  0.64791272  1.0
  O  O19  1  0.79590414  0.90034002  0.88386396  1.0
  O  O20  1  0.20409586  0.09965998  0.11613604  1.0
  O  O21  1  0.73740706  0.83487264  0.58003950  1.0
  O  O22  1  0.26259294  0.16512736  0.41996050  1.0
  O  O23  1  0.73575527  0.58073241  0.84185114  1.0
  O  O24  1  0.26424473  0.41926759  0.15814886  1.0
  O  O25  1  0.42125880  0.71880626  0.55895967  1.0
  O  O26  1  0.57874120  0.28119374  0.44104033  1.0
  O  O27  1  0.24401424  0.48968336  0.82883737  1.0
  O  O28  1  0.75598576  0.51031664  0.17116263  1.0
  O  O29  1  0.23612851  0.82463781  0.87297693  1.0
  O  O30  1  0.76387149  0.17536219  0.12702307  1.0
