# generated using pymatgen
data_Mn3Si(O2F)2
_symmetry_space_group_name_H-M   'P 1'
_cell_length_a   10.90062345
_cell_length_b   9.28091992
_cell_length_c   4.90729972
_cell_angle_alpha   90.00000000
_cell_angle_beta   90.00000000
_cell_angle_gamma   90.00000000
_symmetry_Int_Tables_number   1
_chemical_formula_structural   Mn3Si(O2F)2
_chemical_formula_sum   'Mn12 Si4 O16 F8'
_cell_volume   496.46078202
_cell_formula_units_Z   4
loop_
 _symmetry_equiv_pos_site_id
 _symmetry_equiv_pos_as_xyz
  1  'x, y, z'
loop_
 _atom_site_type_symbol
 _atom_site_label
 _atom_site_symmetry_multiplicity
 _atom_site_fract_x
 _atom_site_fract_y
 _atom_site_fract_z
 _atom_site_occupancy
  Mn  Mn0  1  0.91345858  0.25000000  0.99172258  1.0
  Mn  Mn1  1  0.41345858  0.25000000  0.50827742  1.0
  Mn  Mn2  1  0.08654142  0.75000000  0.00827742  1.0
  Mn  Mn3  1  0.58654142  0.75000000  0.49172258  1.0
  Mn  Mn4  1  0.63835375  0.43049992  0.01832390  1.0
  Mn  Mn5  1  0.63835375  0.06950008  0.01832390  1.0
  Mn  Mn6  1  0.13835375  0.43049992  0.48167610  1.0
  Mn  Mn7  1  0.13835375  0.06950008  0.48167610  1.0
  Mn  Mn8  1  0.36164625  0.93049992  0.98167610  1.0
  Mn  Mn9  1  0.36164625  0.56950008  0.98167610  1.0
  Mn  Mn10  1  0.86164625  0.93049992  0.51832390  1.0
  Mn  Mn11  1  0.86164625  0.56950008  0.51832390  1.0
  Si  Si12  1  0.72067896  0.25000000  0.57892601  1.0
  Si  Si13  1  0.22067896  0.25000000  0.92107399  1.0
  Si  Si14  1  0.27932104  0.75000000  0.42107399  1.0
  Si  Si15  1  0.77932104  0.75000000  0.07892601  1.0
  O  O16  1  0.72241440  0.25000000  0.24539367  1.0
  O  O17  1  0.22241440  0.25000000  0.25460633  1.0
  O  O18  1  0.27758560  0.75000000  0.75460633  1.0
  O  O19  1  0.77758560  0.75000000  0.74539367  1.0
  O  O20  1  0.58147407  0.25000000  0.71518925  1.0
  O  O21  1  0.08147407  0.25000000  0.78481075  1.0
  O  O22  1  0.41852593  0.75000000  0.28481075  1.0
  O  O23  1  0.91852593  0.75000000  0.21518925  1.0
  O  O24  1  0.70951061  0.89046981  0.22201931  1.0
  O  O25  1  0.70951061  0.60953019  0.22201931  1.0
  O  O26  1  0.20951061  0.89046981  0.27798069  1.0
  O  O27  1  0.20951061  0.60953019  0.27798069  1.0
  O  O28  1  0.29048939  0.39046981  0.77798069  1.0
  O  O29  1  0.29048939  0.10953019  0.77798069  1.0
  O  O30  1  0.79048939  0.39046981  0.72201931  1.0
  O  O31  1  0.79048939  0.10953019  0.72201931  1.0
  F  F32  1  0.96763832  0.41640563  0.26928656  1.0
  F  F33  1  0.96763832  0.08359437  0.26928656  1.0
  F  F34  1  0.46763832  0.41640563  0.23071344  1.0
  F  F35  1  0.46763832  0.08359437  0.23071344  1.0
  F  F36  1  0.03236168  0.91640563  0.73071344  1.0
  F  F37  1  0.03236168  0.58359437  0.73071344  1.0
  F  F38  1  0.53236168  0.91640563  0.76928656  1.0
  F  F39  1  0.53236168  0.58359437  0.76928656  1.0
