# generated using pymatgen
data_ScCo5P3
_symmetry_space_group_name_H-M   'P 1'
_cell_length_a   11.59693160
_cell_length_b   3.57544048
_cell_length_c   10.13883557
_cell_angle_alpha   90.00000000
_cell_angle_beta   90.00000000
_cell_angle_gamma   90.00000000
_symmetry_Int_Tables_number   1
_chemical_formula_structural   ScCo5P3
_chemical_formula_sum   'Sc4 Co20 P12'
_cell_volume   420.39808416
_cell_formula_units_Z   4
loop_
 _symmetry_equiv_pos_site_id
 _symmetry_equiv_pos_as_xyz
  1  'x, y, z'
loop_
 _atom_site_type_symbol
 _atom_site_label
 _atom_site_symmetry_multiplicity
 _atom_site_fract_x
 _atom_site_fract_y
 _atom_site_fract_z
 _atom_site_occupancy
  P  P0  1  0.38963940  0.75000000  0.09863482  1.0
  P  P1  1  0.88963940  0.75000000  0.40136518  1.0
  P  P2  1  0.61036060  0.25000000  0.90136518  1.0
  P  P3  1  0.11036060  0.25000000  0.59863482  1.0
  P  P4  1  0.36846165  0.75000000  0.73475101  1.0
  P  P5  1  0.86846165  0.75000000  0.76524899  1.0
  P  P6  1  0.63153835  0.25000000  0.26524899  1.0
  P  P7  1  0.13153835  0.25000000  0.23475101  1.0
  P  P8  1  0.11515784  0.75000000  0.91921721  1.0
  P  P9  1  0.61515784  0.75000000  0.58078279  1.0
  P  P10  1  0.88484216  0.25000000  0.08078279  1.0
  P  P11  1  0.38484216  0.25000000  0.41921721  1.0
  Co  Co12  1  0.17648127  0.75000000  0.72202674  1.0
  Co  Co13  1  0.67648127  0.75000000  0.77797326  1.0
  Co  Co14  1  0.82351873  0.25000000  0.27797326  1.0
  Co  Co15  1  0.32351873  0.25000000  0.22202674  1.0
  Co  Co16  1  0.43098889  0.75000000  0.53392907  1.0
  Co  Co17  1  0.93098889  0.75000000  0.96607093  1.0
  Co  Co18  1  0.56901111  0.25000000  0.46607093  1.0
  Co  Co19  1  0.06901111  0.25000000  0.03392907  1.0
  Co  Co20  1  0.19996299  0.75000000  0.11726628  1.0
  Co  Co21  1  0.69996299  0.75000000  0.38273372  1.0
  Co  Co22  1  0.80003701  0.25000000  0.88273372  1.0
  Co  Co23  1  0.30003701  0.25000000  0.61726628  1.0
  Co  Co24  1  0.49261362  0.75000000  0.28180051  1.0
  Co  Co25  1  0.99261362  0.75000000  0.21819949  1.0
  Co  Co26  1  0.50738638  0.25000000  0.71819949  1.0
  Co  Co27  1  0.00738638  0.25000000  0.78180051  1.0
  Co  Co28  1  0.48549377  0.75000000  0.90809805  1.0
  Co  Co29  1  0.98549377  0.75000000  0.59190195  1.0
  Co  Co30  1  0.51450623  0.25000000  0.09190195  1.0
  Co  Co31  1  0.01450623  0.25000000  0.40809805  1.0
  Sc  Sc32  1  0.20281632  0.75000000  0.41876858  1.0
  Sc  Sc33  1  0.70281632  0.75000000  0.08123142  1.0
  Sc  Sc34  1  0.79718368  0.25000000  0.58123142  1.0
  Sc  Sc35  1  0.29718368  0.25000000  0.91876858  1.0
