# generated using pymatgen
data_LiCu2BP2(HO5)2
_symmetry_space_group_name_H-M   'P 1'
_cell_length_a   8.18780974
_cell_length_b   8.18780974
_cell_length_c   9.72698596
_cell_angle_alpha   87.99929499
_cell_angle_beta   92.00070501
_cell_angle_gamma   145.48680822
_symmetry_Int_Tables_number   1
_chemical_formula_structural   LiCu2BP2(HO5)2
_chemical_formula_sum   'Li2 Cu4 B2 P4 H4 O20'
_cell_volume   369.22989329
_cell_formula_units_Z   2
loop_
 _symmetry_equiv_pos_site_id
 _symmetry_equiv_pos_as_xyz
  1  'x, y, z'
loop_
 _atom_site_type_symbol
 _atom_site_label
 _atom_site_symmetry_multiplicity
 _atom_site_fract_x
 _atom_site_fract_y
 _atom_site_fract_z
 _atom_site_occupancy
  Li  Li0  1  0.50000000  0.00000000  -0.00000000  1.0
  Li  Li1  1  1.00000000  0.50000000  0.50000000  1.0
  Cu  Cu2  1  0.35381355  0.06232023  0.73249227  1.0
  Cu  Cu3  1  0.93767977  0.64618645  0.23249227  1.0
  Cu  Cu4  1  1.06232023  0.35381355  0.76750773  1.0
  Cu  Cu5  1  0.64618645  -0.06232023  0.26750773  1.0
  B  B6  1  0.78378433  0.78378433  0.75000000  1.0
  B  B7  1  0.21621567  0.21621567  0.25000000  1.0
  P  P8  1  0.53839115  -0.17754315  0.58653463  1.0
  P  P9  1  1.17754315  0.46160885  0.08653463  1.0
  P  P10  1  0.82245685  0.53839115  0.91346537  1.0
  P  P11  1  0.46160885  0.17754315  0.41346537  1.0
  H  H12  1  0.78887178  -0.06968609  0.91751585  1.0
  H  H13  1  1.06968609  0.21112822  0.41751585  1.0
  H  H14  1  0.93031391  0.78887178  0.58248415  1.0
  H  H15  1  0.21112822  0.06968609  0.08248415  1.0
  O  O16  1  0.55397449  -0.34249640  0.65698625  1.0
  O  O17  1  1.34249640  0.44602551  0.15698625  1.0
  O  O18  1  0.65750360  0.55397449  0.84301375  1.0
  O  O19  1  0.44602551  0.34249640  0.34301375  1.0
  O  O20  1  0.91011702  0.01537401  0.83717362  1.0
  O  O21  1  0.98462599  0.08988298  0.33717362  1.0
  O  O22  1  1.01537401  0.91011702  0.66282638  1.0
  O  O23  1  0.08988298  -0.01537401  0.16282638  1.0
  O  O24  1  0.83931797  0.15332757  0.59235216  1.0
  O  O25  1  0.84667243  0.16068203  0.09235216  1.0
  O  O26  1  1.15332757  0.83931797  0.90764784  1.0
  O  O27  1  0.16068203  -0.15332757  0.40764784  1.0
  O  O28  1  0.30017857  -0.28076081  0.66559709  1.0
  O  O29  1  1.28076081  0.69982143  0.16559709  1.0
  O  O30  1  0.71923919  0.30017857  0.83440291  1.0
  O  O31  1  0.69982143  0.28076081  0.33440291  1.0
  O  O32  1  0.57216674  0.28159220  0.56302493  1.0
  O  O33  1  0.71840780  0.42783326  0.06302493  1.0
  O  O34  1  1.28159220  0.57216674  0.93697507  1.0
  O  O35  1  0.42783326  -0.28159220  0.43697507  1.0
