# generated using pymatgen
data_Al(SiO3)2
_symmetry_space_group_name_H-M   'P 1'
_cell_length_a   5.27511553
_cell_length_b   5.27511553
_cell_length_c   20.03227917
_cell_angle_alpha   88.26351047
_cell_angle_beta   91.73648953
_cell_angle_gamma   59.84354095
_symmetry_Int_Tables_number   1
_chemical_formula_structural   Al(SiO3)2
_chemical_formula_sum   'Al4 Si8 O24'
_cell_volume   481.09985088
_cell_formula_units_Z   4
loop_
 _symmetry_equiv_pos_site_id
 _symmetry_equiv_pos_as_xyz
  1  'x, y, z'
loop_
 _atom_site_type_symbol
 _atom_site_label
 _atom_site_symmetry_multiplicity
 _atom_site_fract_x
 _atom_site_fract_y
 _atom_site_fract_z
 _atom_site_occupancy
  O  O0  1  0.69436488  -0.03542987  0.15505786  1.0
  O  O1  1  1.03542987  0.30563512  0.65505786  1.0
  O  O2  1  0.96457013  -0.30563512  0.34494214  1.0
  O  O3  1  1.30563512  0.03542987  0.84494214  1.0
  O  O4  1  0.59333679  -0.09123702  0.44578068  1.0
  O  O5  1  1.09123702  0.40666321  0.94578068  1.0
  O  O6  1  0.90876298  -0.40666321  0.05421932  1.0
  O  O7  1  1.40666321  0.09123702  0.55421932  1.0
  O  O8  1  1.38189119  0.51485447  0.44570107  1.0
  O  O9  1  0.48514553  -0.38189119  0.94570107  1.0
  O  O10  1  1.51485447  0.38189119  0.05429893  1.0
  O  O11  1  0.61810881  -0.51485447  0.55429893  1.0
  O  O12  1  0.43223316  -0.24259471  0.33263166  1.0
  O  O13  1  1.24259471  0.56776684  0.83263166  1.0
  O  O14  1  0.75740529  -0.56776684  0.16736834  1.0
  O  O15  1  1.56776684  0.24259471  0.66736834  1.0
  O  O16  1  1.49162183  0.22760941  0.33255302  1.0
  O  O17  1  0.77239059  -0.49162183  0.83255302  1.0
  O  O18  1  1.22760941  0.49162183  0.16744698  1.0
  O  O19  1  0.50837817  -0.22760941  0.66744698  1.0
  O  O20  1  1.88977252  0.01044349  0.95586113  1.0
  O  O21  1  0.98955651  -0.88977252  0.45586113  1.0
  O  O22  1  1.01044349  0.88977252  0.54413887  1.0
  O  O23  1  0.11022748  -0.01044349  0.04413887  1.0
  Al  Al24  1  1.64572451  0.17693989  0.50000788  1.0
  Al  Al25  1  0.82306011  -0.64572451  0.00000788  1.0
  Al  Al26  1  1.17693989  0.64572451  -0.00000788  1.0
  Al  Al27  1  0.35427549  -0.17693989  0.49999212  1.0
  Si  Si28  1  0.62450487  -0.10672269  0.36375822  1.0
  Si  Si29  1  1.10672269  0.37549513  0.86375822  1.0
  Si  Si30  1  0.89327731  -0.37549513  0.13624178  1.0
  Si  Si31  1  1.37549513  0.10672269  0.63624178  1.0
  Si  Si32  1  1.54950627  0.31317717  0.13636685  1.0
  Si  Si33  1  0.68682283  -0.54950627  0.63636685  1.0
  Si  Si34  1  1.31317717  0.54950627  0.36363315  1.0
  Si  Si35  1  0.45049373  -0.31317717  0.86363315  1.0
