# generated using pymatgen
data_P2Pb2O7
_symmetry_space_group_name_H-M   'P 1'
_cell_length_a   7.10636501
_cell_length_b   7.19184515
_cell_length_c   13.03173187
_cell_angle_alpha   84.20633718
_cell_angle_beta   92.07266445
_cell_angle_gamma   89.77556688
_symmetry_Int_Tables_number   1
_chemical_formula_structural   P2Pb2O7
_chemical_formula_sum   'P8 Pb8 O28'
_cell_volume   662.16931868
_cell_formula_units_Z   4
loop_
 _symmetry_equiv_pos_site_id
 _symmetry_equiv_pos_as_xyz
  1  'x, y, z'
loop_
 _atom_site_type_symbol
 _atom_site_label
 _atom_site_symmetry_multiplicity
 _atom_site_fract_x
 _atom_site_fract_y
 _atom_site_fract_z
 _atom_site_occupancy
  P  P0  1  0.73266465  0.38059375  0.09616562  1.0
  P  P1  1  0.26733535  0.61940625  0.90383438  1.0
  P  P2  1  0.90046405  0.78781397  0.40274730  1.0
  P  P3  1  0.09953595  0.21218603  0.59725270  1.0
  P  P4  1  0.32717613  0.81217209  0.09502524  1.0
  P  P5  1  0.67282387  0.18782791  0.90497476  1.0
  P  P6  1  0.67001459  0.79977960  0.59057820  1.0
  P  P7  1  0.32998541  0.20022040  0.40942180  1.0
  Pb  Pb8  1  0.39865803  0.69808759  0.35821117  1.0
  Pb  Pb9  1  0.60134197  0.30191241  0.64178883  1.0
  Pb  Pb10  1  0.74942482  0.68253898  0.85502194  1.0
  Pb  Pb11  1  0.25057518  0.31746102  0.14497806  1.0
  Pb  Pb12  1  0.82096324  0.28975815  0.35869292  1.0
  Pb  Pb13  1  0.17903676  0.71024185  0.64130708  1.0
  Pb  Pb14  1  0.85490949  0.87886899  0.13112834  1.0
  Pb  Pb15  1  0.14509051  0.12113101  0.86887166  1.0
  O  O16  1  0.50771267  0.86241650  0.15266932  1.0
  O  O17  1  0.49228733  0.13758350  0.84733068  1.0
  O  O18  1  0.78534478  0.88737552  0.49041513  1.0
  O  O19  1  0.21465522  0.11262448  0.50958487  1.0
  O  O20  1  0.77222239  0.63490698  0.36381045  1.0
  O  O21  1  0.22777761  0.36509302  0.63618955  1.0
  O  O22  1  0.79921315  0.56793775  0.04286612  1.0
  O  O23  1  0.20078685  0.43206225  0.95713388  1.0
  O  O24  1  0.80665461  0.66387793  0.65686639  1.0
  O  O25  1  0.19334539  0.33612207  0.34313361  1.0
  O  O26  1  0.89726096  0.24641889  0.13442050  1.0
  O  O27  1  0.10273904  0.75358111  0.86557950  1.0
  O  O28  1  0.91270796  0.28924912  0.54532001  1.0
  O  O29  1  0.08729204  0.71075088  0.45467999  1.0
  O  O30  1  0.60721890  0.27766970  0.00923415  1.0
  O  O31  1  0.39278110  0.72233030  0.99076585  1.0
  O  O32  1  0.60754318  0.96520753  0.64587653  1.0
  O  O33  1  0.39245682  0.03479247  0.35412347  1.0
  O  O34  1  0.49987718  0.69071218  0.54853785  1.0
  O  O35  1  0.50012282  0.30928782  0.45146215  1.0
  O  O36  1  0.20928368  0.66389019  0.15883771  1.0
  O  O37  1  0.79071632  0.33610981  0.84116229  1.0
  O  O38  1  0.59513671  0.39864455  0.18295835  1.0
  O  O39  1  0.40486329  0.60135545  0.81704165  1.0
  O  O40  1  0.92720843  0.95036468  0.31893527  1.0
  O  O41  1  0.07279157  0.04963532  0.68106473  1.0
  O  O42  1  0.20105529  0.98437607  0.05754352  1.0
  O  O43  1  0.79894471  0.01562393  0.94245648  1.0
