# generated using pymatgen
data_Ba(CO)4
_symmetry_space_group_name_H-M   'P 1'
_cell_length_a   7.73724826
_cell_length_b   7.73724826
_cell_length_c   7.73724826
_cell_angle_alpha   130.62022480
_cell_angle_beta   130.62022480
_cell_angle_gamma   72.41716092
_symmetry_Int_Tables_number   1
_chemical_formula_structural   Ba(CO)4
_chemical_formula_sum   'Ba2 C8 O8'
_cell_volume   260.83572886
_cell_formula_units_Z   2
loop_
 _symmetry_equiv_pos_site_id
 _symmetry_equiv_pos_as_xyz
  1  'x, y, z'
loop_
 _atom_site_type_symbol
 _atom_site_label
 _atom_site_symmetry_multiplicity
 _atom_site_fract_x
 _atom_site_fract_y
 _atom_site_fract_z
 _atom_site_occupancy
  Ba  Ba0  1  0.75000000  0.75000000  1.00000000  1.0
  Ba  Ba1  1  0.25000000  0.25000000  -0.00000000  1.0
  C  C2  1  1.36054022  0.86054022  1.33910796  1.0
  C  C3  1  0.47856774  0.97856774  1.33910796  1.0
  C  C4  1  1.02143226  1.36054022  1.50000000  1.0
  C  C5  1  0.13945978  0.47856774  0.50000000  1.0
  C  C6  1  0.86054022  0.52143226  0.50000000  1.0
  C  C7  1  0.97856774  0.63945978  1.50000000  1.0
  C  C8  1  0.52143226  1.02143226  0.66089204  1.0
  C  C9  1  0.63945978  0.13945978  0.66089204  1.0
  O  O10  1  1.19141242  0.69141242  1.14548043  1.0
  O  O11  1  0.45406801  0.95406801  1.14548043  1.0
  O  O12  1  1.04593199  1.19141242  1.50000000  1.0
  O  O13  1  0.30858758  0.45406801  0.50000000  1.0
  O  O14  1  0.69141242  0.54593199  0.50000000  1.0
  O  O15  1  0.95406801  0.80858758  1.50000000  1.0
  O  O16  1  0.54593199  1.04593199  0.85451957  1.0
  O  O17  1  0.80858758  0.30858758  0.85451957  1.0
