# generated using pymatgen
data_Ba8CuSi16
_symmetry_space_group_name_H-M   'P 1'
_cell_length_a   11.93427768
_cell_length_b   9.08252620
_cell_length_c   6.75315354
_cell_angle_alpha   89.05233505
_cell_angle_beta   88.93667513
_cell_angle_gamma   91.26672594
_symmetry_Int_Tables_number   1
_chemical_formula_structural   Ba8CuSi16
_chemical_formula_sum   'Ba8 Cu1 Si16'
_cell_volume   731.58709676
_cell_formula_units_Z   1
loop_
 _symmetry_equiv_pos_site_id
 _symmetry_equiv_pos_as_xyz
  1  'x, y, z'
loop_
 _atom_site_type_symbol
 _atom_site_label
 _atom_site_symmetry_multiplicity
 _atom_site_fract_x
 _atom_site_fract_y
 _atom_site_fract_z
 _atom_site_occupancy
  Ba  Ba0  1  -0.27980701  -1.01157021  -0.72928799  1.0
  Ba  Ba1  1  -0.79956237  -0.51290527  -0.25244279  1.0
  Ba  Ba2  1  -0.70294064  -0.01743236  -0.27524492  1.0
  Ba  Ba3  1  -0.20044558  -0.51537140  -0.72879640  1.0
  Ba  Ba4  1  -0.90450480  -0.16217227  -0.73997116  1.0
  Ba  Ba5  1  -0.40847811  -0.35919675  -0.22387352  1.0
  Ba  Ba6  1  -0.05766549  -0.80661652  -0.23202015  1.0
  Ba  Ba7  1  -0.59711057  -0.65051991  -0.71673516  1.0
  Cu  Cu8  1  -0.51782449  0.07887928  0.02162924  1.0
  Si  Si9  1  -0.90872878  -0.58931901  -0.75274532  1.0
  Si  Si10  1  -0.41315220  -0.96174315  -0.26005120  1.0
  Si  Si11  1  -0.08650284  -0.43899929  -0.23185505  1.0
  Si  Si12  1  -0.56090287  -0.11714663  -0.77642662  1.0
  Si  Si13  1  -0.02273186  -0.81555474  -0.73647782  1.0
  Si  Si14  1  -0.55363170  -0.69183277  -0.19589632  1.0
  Si  Si15  1  -0.96163669  -0.21549657  -0.23450335  1.0
  Si  Si16  1  -0.44797724  -0.32167968  -0.71790910  1.0
  Si  Si17  1  -0.84435686  -0.80946180  -0.91938489  1.0
  Si  Si18  1  -0.36991503  -0.73767649  -0.04561777  1.0
  Si  Si19  1  -0.12874248  -0.22756877  -0.43422647  1.0
  Si  Si20  1  -0.63819241  -0.30346532  -0.57475499  1.0
  Si  Si21  1  -0.23342353  -0.06005058  -0.24078054  1.0
  Si  Si22  1  -0.13240352  -0.22690217  -1.03762840  1.0
  Si  Si23  1  -0.84801434  -0.80374878  -0.56589505  1.0
  Si  Si24  1  -0.38134860  -0.72244884  -0.39910425  1.0
