# generated using pymatgen
data_Sr(InHg)2
_symmetry_space_group_name_H-M   'P 1'
_cell_length_a   7.33309403
_cell_length_b   7.33309403
_cell_length_c   7.33309403
_cell_angle_alpha   142.93507716
_cell_angle_beta   142.93507716
_cell_angle_gamma   53.42274418
_symmetry_Int_Tables_number   1
_chemical_formula_structural   Sr(InHg)2
_chemical_formula_sum   'Sr1 In2 Hg2'
_cell_volume   142.34187688
_cell_formula_units_Z   1
loop_
 _symmetry_equiv_pos_site_id
 _symmetry_equiv_pos_as_xyz
  1  'x, y, z'
loop_
 _atom_site_type_symbol
 _atom_site_label
 _atom_site_symmetry_multiplicity
 _atom_site_fract_x
 _atom_site_fract_y
 _atom_site_fract_z
 _atom_site_occupancy
  Sr  Sr0  1  0.00000000  0.00000000  0.00000000  1.0
  In  In1  1  0.25000000  0.75000000  0.50000000  1.0
  In  In2  1  0.75000000  0.25000000  0.50000000  1.0
  Hg  Hg3  1  0.60756468  0.60756468  1.00000000  1.0
  Hg  Hg4  1  0.39243532  0.39243532  -0.00000000  1.0
