# generated using pymatgen
data_LiAlB14
_symmetry_space_group_name_H-M   'P 1'
_cell_length_a   7.19655334
_cell_length_b   7.19655334
_cell_length_c   7.19655334
_cell_angle_alpha   132.03619024
_cell_angle_beta   88.15027215
_cell_angle_gamma   111.26477477
_symmetry_Int_Tables_number   1
_chemical_formula_structural   LiAlB14
_chemical_formula_sum   'Li2 Al2 B28'
_cell_volume   245.74600373
_cell_formula_units_Z   2
loop_
 _symmetry_equiv_pos_site_id
 _symmetry_equiv_pos_as_xyz
  1  'x, y, z'
loop_
 _atom_site_type_symbol
 _atom_site_label
 _atom_site_symmetry_multiplicity
 _atom_site_fract_x
 _atom_site_fract_y
 _atom_site_fract_z
 _atom_site_occupancy
  Li  Li0  1  0.89856826  0.64856826  0.25000000  1.0
  Li  Li1  1  1.10143174  0.35143174  0.75000000  1.0
  Al  Al2  1  0.50000000  1.00000000  1.00000000  1.0
  Al  Al3  1  0.50000000  0.50000000  0.50000000  1.0
  B  B4  1  0.53619172  1.20531270  0.82846659  1.0
  B  B5  1  1.46380828  1.29227488  1.66912098  1.0
  B  B6  1  1.12315389  1.29227488  1.32846659  1.0
  B  B7  1  0.87684611  1.20531270  1.16912098  1.0
  B  B8  1  1.46380828  0.79468730  1.17153341  1.0
  B  B9  1  0.53619172  0.70772512  0.33087902  1.0
  B  B10  1  0.87684611  0.70772512  0.67153341  1.0
  B  B11  1  1.12315389  0.79468730  0.83087902  1.0
  B  B12  1  0.72657123  1.32313883  0.72091722  1.0
  B  B13  1  1.27342877  0.99434599  1.59656760  1.0
  B  B14  1  0.89777840  0.99434599  0.22091722  1.0
  B  B15  1  1.10222160  0.32313883  1.09656760  1.0
  B  B16  1  1.27342877  0.67686117  1.27908278  1.0
  B  B17  1  0.72657123  1.00565401  0.40343240  1.0
  B  B18  1  1.10222160  1.00565401  1.77908278  1.0
  B  B19  1  0.89777840  1.67686117  0.90343240  1.0
  B  B20  1  0.41518579  0.82987800  0.58530779  1.0
  B  B21  1  1.58481421  1.17012200  1.41469221  1.0
  B  B22  1  0.25542979  0.17012200  0.08530779  1.0
  B  B23  1  1.74457021  0.82987800  0.91469221  1.0
  B  B24  1  0.69825504  1.03177606  0.66647898  1.0
  B  B25  1  1.30174496  0.96822394  1.33352102  1.0
  B  B26  1  1.13470292  0.96822394  1.16647898  1.0
  B  B27  1  0.86529708  1.03177606  0.83352102  1.0
  B  B28  1  1.26890361  0.61960506  0.64929855  1.0
  B  B29  1  0.73109639  0.38039494  0.35070145  1.0
  B  B30  1  0.52969348  0.38039494  0.14929855  1.0
  B  B31  1  1.47030652  0.61960506  0.85070145  1.0
