# generated using pymatgen
data_Co21(B3Mo)2
_symmetry_space_group_name_H-M   'P 1'
_cell_length_a   7.38443679
_cell_length_b   7.38443679
_cell_length_c   7.38443679
_cell_angle_alpha   60.00000000
_cell_angle_beta   60.00000000
_cell_angle_gamma   60.00000000
_symmetry_Int_Tables_number   1
_chemical_formula_structural   Co21(B3Mo)2
_chemical_formula_sum   'Co21 B6 Mo2'
_cell_volume   284.73256035
_cell_formula_units_Z   1
loop_
 _symmetry_equiv_pos_site_id
 _symmetry_equiv_pos_as_xyz
  1  'x, y, z'
loop_
 _atom_site_type_symbol
 _atom_site_label
 _atom_site_symmetry_multiplicity
 _atom_site_fract_x
 _atom_site_fract_y
 _atom_site_fract_z
 _atom_site_occupancy
  Co  Co0  1  0.00000000  0.00000000  0.00000000  1.0
  Co  Co1  1  1.66113966  0.00000000  -0.00000000  1.0
  Co  Co2  1  1.00000000  0.33886034  -0.33886034  1.0
  Co  Co3  1  1.00000000  0.66113966  -0.66113966  1.0
  Co  Co4  1  1.33886034  0.00000000  -0.00000000  1.0
  Co  Co5  1  0.00000000  1.66113966  -0.00000000  1.0
  Co  Co6  1  0.33886034  1.00000000  -0.33886034  1.0
  Co  Co7  1  -0.00000000  -0.00000000  0.66113966  1.0
  Co  Co8  1  0.33886034  -0.33886034  1.00000000  1.0
  Co  Co9  1  0.66113966  1.00000000  -0.66113966  1.0
  Co  Co10  1  0.00000000  1.33886034  -0.00000000  1.0
  Co  Co11  1  0.66113966  -0.66113966  1.00000000  1.0
  Co  Co12  1  -0.00000000  0.00000000  0.33886034  1.0
  Co  Co13  1  0.61795132  0.61795132  -0.38204868  1.0
  Co  Co14  1  0.38204868  1.38204868  -0.14614605  1.0
  Co  Co15  1  1.38204868  -0.14614605  0.38204868  1.0
  Co  Co16  1  1.14614605  0.61795132  0.61795132  1.0
  Co  Co17  1  -0.14614605  1.38204868  0.38204868  1.0
  Co  Co18  1  0.61795132  1.14614605  -0.38204868  1.0
  Co  Co19  1  0.61795132  0.61795132  1.14614605  1.0
  Co  Co20  1  1.38204868  0.38204868  0.38204868  1.0
  B  B21  1  -0.72568691  0.72568691  0.72568691  1.0
  B  B22  1  -0.27431309  0.27431309  0.72568691  1.0
  B  B23  1  0.72568691  0.72568691  -0.72568691  1.0
  B  B24  1  0.27431309  1.27431309  -0.27431309  1.0
  B  B25  1  0.27431309  -0.27431309  1.27431309  1.0
  B  B26  1  -0.27431309  0.27431309  0.27431309  1.0
  Mo  Mo27  1  0.75000000  0.75000000  -0.25000000  1.0
  Mo  Mo28  1  1.25000000  0.25000000  0.25000000  1.0
