# generated using pymatgen
data_BaCoSO
_symmetry_space_group_name_H-M   'P 1'
_cell_length_a   6.63906671
_cell_length_b   6.63906671
_cell_length_c   6.13051497
_cell_angle_alpha   90.00000000
_cell_angle_beta   90.00000000
_cell_angle_gamma   145.13233792
_symmetry_Int_Tables_number   1
_chemical_formula_structural   BaCoSO
_chemical_formula_sum   'Ba2 Co2 S2 O2'
_cell_volume   154.47784901
_cell_formula_units_Z   2
loop_
 _symmetry_equiv_pos_site_id
 _symmetry_equiv_pos_as_xyz
  1  'x, y, z'
loop_
 _atom_site_type_symbol
 _atom_site_label
 _atom_site_symmetry_multiplicity
 _atom_site_fract_x
 _atom_site_fract_y
 _atom_site_fract_z
 _atom_site_occupancy
  Ba  Ba0  1  -0.61732176  0.61732176  0.25000000  1.0
  Ba  Ba1  1  -0.38267824  1.38267824  0.75000000  1.0
  Co  Co2  1  -0.90922271  0.90922271  0.25000000  1.0
  Co  Co3  1  -0.09077729  1.09077729  0.75000000  1.0
  S  S4  1  -0.31609130  1.31609130  0.25000000  1.0
  S  S5  1  -0.68390870  0.68390870  0.75000000  1.0
  O  O6  1  0.00000000  0.00000000  0.50000000  1.0
  O  O7  1  0.00000000  0.00000000  0.00000000  1.0
