# generated using pymatgen
data_La2Zn17
_symmetry_space_group_name_H-M   'P 1'
_cell_length_a   6.89873655
_cell_length_b   6.89873655
_cell_length_c   6.89873655
_cell_angle_alpha   82.89842221
_cell_angle_beta   82.89842221
_cell_angle_gamma   82.89842221
_symmetry_Int_Tables_number   1
_chemical_formula_structural   La2Zn17
_chemical_formula_sum   'La2 Zn17'
_cell_volume   321.34744974
_cell_formula_units_Z   1
loop_
 _symmetry_equiv_pos_site_id
 _symmetry_equiv_pos_as_xyz
  1  'x, y, z'
loop_
 _atom_site_type_symbol
 _atom_site_label
 _atom_site_symmetry_multiplicity
 _atom_site_fract_x
 _atom_site_fract_y
 _atom_site_fract_z
 _atom_site_occupancy
  La  La0  1  0.66352302  0.66352302  -0.33647698  1.0
  La  La1  1  1.33647698  1.33647698  0.33647698  1.0
  Zn  Zn2  1  0.34911073  0.34911073  -0.16058905  1.0
  Zn  Zn3  1  0.34911073  0.83941095  -0.65088927  1.0
  Zn  Zn4  1  0.16058905  0.65088927  -0.34911073  1.0
  Zn  Zn5  1  0.65088927  0.16058905  -0.34911073  1.0
  Zn  Zn6  1  0.65088927  -0.34911073  0.16058905  1.0
  Zn  Zn7  1  0.83941095  0.34911073  -0.65088927  1.0
  Zn  Zn8  1  0.70944786  -0.00000000  0.29055214  1.0
  Zn  Zn9  1  0.70944786  -0.70944786  0.00000000  1.0
  Zn  Zn10  1  -0.00000000  0.70944786  -0.70944786  1.0
  Zn  Zn11  1  -0.00000000  0.29055214  -0.29055214  1.0
  Zn  Zn12  1  1.29055214  -0.00000000  -0.29055214  1.0
  Zn  Zn13  1  0.29055214  -0.29055214  -0.00000000  1.0
  Zn  Zn14  1  1.00000000  1.50000000  -0.00000000  1.0
  Zn  Zn15  1  1.00000000  0.00000000  -0.50000000  1.0
  Zn  Zn16  1  0.50000000  0.00000000  -0.00000000  1.0
  Zn  Zn17  1  0.90151223  0.90151223  -0.09848777  1.0
  Zn  Zn18  1  1.09848777  1.09848777  0.09848777  1.0
