# generated using pymatgen
data_Ba2AlInO5
_symmetry_space_group_name_H-M   'P 1'
_cell_length_a   5.92582067
_cell_length_b   5.92582067
_cell_length_c   19.99024663
_cell_angle_alpha   90.00000000
_cell_angle_beta   90.00000000
_cell_angle_gamma   120.00000000
_symmetry_Int_Tables_number   1
_chemical_formula_structural   Ba2AlInO5
_chemical_formula_sum   'Ba8 Al4 In4 O20'
_cell_volume   607.91910584
_cell_formula_units_Z   4
loop_
 _symmetry_equiv_pos_site_id
 _symmetry_equiv_pos_as_xyz
  1  'x, y, z'
loop_
 _atom_site_type_symbol
 _atom_site_label
 _atom_site_symmetry_multiplicity
 _atom_site_fract_x
 _atom_site_fract_y
 _atom_site_fract_z
 _atom_site_occupancy
  Ba  Ba0  1  0.33333333  0.66666667  0.89519958  1.0
  Ba  Ba1  1  0.33333333  0.66666667  0.60480042  1.0
  Ba  Ba2  1  0.66666667  0.33333333  0.39519958  1.0
  Ba  Ba3  1  0.66666667  0.33333333  0.10480042  1.0
  Ba  Ba4  1  0.33333333  0.66666667  0.25000000  1.0
  Ba  Ba5  1  0.66666667  0.33333333  0.75000000  1.0
  Ba  Ba6  1  -0.00000000  -0.00000000  0.50000000  1.0
  Ba  Ba7  1  -0.00000000  -0.00000000  0.00000000  1.0
  Al  Al8  1  -0.00000000  -0.00000000  0.33675345  1.0
  Al  Al9  1  0.00000000  0.00000000  0.16324655  1.0
  Al  Al10  1  -0.00000000  -0.00000000  0.83675345  1.0
  Al  Al11  1  0.00000000  0.00000000  0.66324655  1.0
  In  In12  1  0.33333333  0.66666667  0.43296942  1.0
  In  In13  1  0.33333333  0.66666667  0.06703058  1.0
  In  In14  1  0.66666667  0.33333333  0.93296942  1.0
  In  In15  1  0.66666667  0.33333333  0.56703058  1.0
  O  O16  1  0.16350427  0.83649573  0.36570269  1.0
  O  O17  1  0.16350427  0.83649573  0.13429731  1.0
  O  O18  1  0.16350427  0.32700854  0.36570269  1.0
  O  O19  1  0.16350427  0.32700854  0.13429731  1.0
  O  O20  1  0.83649573  0.16350427  0.86570269  1.0
  O  O21  1  0.83649573  0.16350427  0.63429731  1.0
  O  O22  1  0.83649573  0.67299146  0.86570269  1.0
  O  O23  1  0.83649573  0.67299146  0.63429731  1.0
  O  O24  1  0.67299146  0.83649573  0.36570269  1.0
  O  O25  1  0.67299146  0.83649573  0.13429731  1.0
  O  O26  1  0.32700854  0.16350427  0.86570269  1.0
  O  O27  1  0.32700854  0.16350427  0.63429731  1.0
  O  O28  1  0.50000000  0.50000000  0.50000000  1.0
  O  O29  1  0.50000000  0.50000000  0.00000000  1.0
  O  O30  1  0.50000000  -0.00000000  0.50000000  1.0
  O  O31  1  0.50000000  0.00000000  -0.00000000  1.0
  O  O32  1  0.00000000  0.50000000  0.50000000  1.0
  O  O33  1  0.00000000  0.50000000  -0.00000000  1.0
  O  O34  1  0.00000000  0.00000000  0.25000000  1.0
  O  O35  1  -0.00000000  -0.00000000  0.75000000  1.0
