# generated using pymatgen
data_Ga3Si2SbPb3O14
_symmetry_space_group_name_H-M   'P 1'
_cell_length_a   8.45925423
_cell_length_b   8.45925423
_cell_length_c   5.16166958
_cell_angle_alpha   90.00000000
_cell_angle_beta   90.00000000
_cell_angle_gamma   120.00000000
_symmetry_Int_Tables_number   1
_chemical_formula_structural   Ga3Si2SbPb3O14
_chemical_formula_sum   'Ga3 Si2 Sb1 Pb3 O14'
_cell_volume   319.87845248
_cell_formula_units_Z   1
loop_
 _symmetry_equiv_pos_site_id
 _symmetry_equiv_pos_as_xyz
  1  'x, y, z'
loop_
 _atom_site_type_symbol
 _atom_site_label
 _atom_site_symmetry_multiplicity
 _atom_site_fract_x
 _atom_site_fract_y
 _atom_site_fract_z
 _atom_site_occupancy
  Ga  Ga0  1  0.74641480  0.74641480  0.50000000  1.0
  Ga  Ga1  1  0.00000000  0.25358520  0.50000000  1.0
  Ga  Ga2  1  0.25358520  0.00000000  0.50000000  1.0
  Si  Si3  1  0.33333333  0.66666667  0.52779771  1.0
  Si  Si4  1  0.66666667  0.33333333  0.47220229  1.0
  Sb  Sb5  1  -0.00000000  -0.00000000  -0.00000000  1.0
  Pb  Pb6  1  0.42542426  0.42542426  0.00000000  1.0
  Pb  Pb7  1  -0.00000000  0.57457574  -0.00000000  1.0
  Pb  Pb8  1  0.57457574  0.00000000  0.00000000  1.0
  O  O9  1  0.09371864  0.87296596  0.22998219  1.0
  O  O10  1  0.87296596  0.09371864  0.77001781  1.0
  O  O11  1  0.77924732  0.90628136  0.22998219  1.0
  O  O12  1  0.12703404  0.22075268  0.22998219  1.0
  O  O13  1  0.90628136  0.77924732  0.77001781  1.0
  O  O14  1  0.22075268  0.12703404  0.77001781  1.0
  O  O15  1  0.69701738  0.52635173  0.34133834  1.0
  O  O16  1  0.52635173  0.69701738  0.65866166  1.0
  O  O17  1  0.82933435  0.30298262  0.34133834  1.0
  O  O18  1  0.47364827  0.17066565  0.34133834  1.0
  O  O19  1  0.30298262  0.82933435  0.65866166  1.0
  O  O20  1  0.17066565  0.47364827  0.65866166  1.0
  O  O21  1  0.33333333  0.66666667  0.21449473  1.0
  O  O22  1  0.66666667  0.33333333  0.78550527  1.0
