# generated using pymatgen
data_MgMn2O4
_symmetry_space_group_name_H-M   'P 1'
_cell_length_a   6.27948239
_cell_length_b   6.27948239
_cell_length_c   6.27948239
_cell_angle_alpha   125.60841477
_cell_angle_beta   125.60841477
_cell_angle_gamma   80.53269553
_symmetry_Int_Tables_number   1
_chemical_formula_structural   MgMn2O4
_chemical_formula_sum   'Mg2 Mn4 O8'
_cell_volume   157.86208104
_cell_formula_units_Z   2
loop_
 _symmetry_equiv_pos_site_id
 _symmetry_equiv_pos_as_xyz
  1  'x, y, z'
loop_
 _atom_site_type_symbol
 _atom_site_label
 _atom_site_symmetry_multiplicity
 _atom_site_fract_x
 _atom_site_fract_y
 _atom_site_fract_z
 _atom_site_occupancy
  Mg  Mg0  1  0.25000000  0.75000000  0.50000000  1.0
  Mg  Mg1  1  0.50000000  0.50000000  1.00000000  1.0
  Mn  Mn2  1  0.87500000  0.62500000  0.75000000  1.0
  Mn  Mn3  1  0.87500000  1.12500000  1.25000000  1.0
  Mn  Mn4  1  0.37500000  0.12500000  0.25000000  1.0
  Mn  Mn5  1  0.87500000  0.12500000  0.75000000  1.0
  O  O6  1  0.12265008  0.89746924  0.77481917  1.0
  O  O7  1  0.12265008  0.34783091  0.22518083  1.0
  O  O8  1  0.62734992  0.90216909  1.27481917  1.0
  O  O9  1  0.62734992  0.35253076  0.72518083  1.0
  O  O10  1  1.10253076  0.87734992  1.22518083  1.0
  O  O11  1  0.65216909  0.87734992  0.77481917  1.0
  O  O12  1  1.09783091  0.37265008  0.72518083  1.0
  O  O13  1  0.64746924  0.37265008  0.27481917  1.0
