# generated using pymatgen
data_Ba3GdRu2O9
_symmetry_space_group_name_H-M   'P 1'
_cell_length_a   5.96388096
_cell_length_b   5.96388096
_cell_length_c   14.66269824
_cell_angle_alpha   90.00000000
_cell_angle_beta   90.00000000
_cell_angle_gamma   120.00000000
_symmetry_Int_Tables_number   1
_chemical_formula_structural   Ba3GdRu2O9
_chemical_formula_sum   'Ba6 Gd2 Ru4 O18'
_cell_volume   451.65046389
_cell_formula_units_Z   2
loop_
 _symmetry_equiv_pos_site_id
 _symmetry_equiv_pos_as_xyz
  1  'x, y, z'
loop_
 _atom_site_type_symbol
 _atom_site_label
 _atom_site_symmetry_multiplicity
 _atom_site_fract_x
 _atom_site_fract_y
 _atom_site_fract_z
 _atom_site_occupancy
  Ba  Ba0  1  0.33333333  0.66666667  0.40259224  1.0
  Ba  Ba1  1  0.33333333  0.66666667  0.09740776  1.0
  Ba  Ba2  1  0.66666667  0.33333333  0.90259224  1.0
  Ba  Ba3  1  0.66666667  0.33333333  0.59740776  1.0
  Ba  Ba4  1  0.00000000  0.00000000  0.25000000  1.0
  Ba  Ba5  1  0.00000000  0.00000000  0.75000000  1.0
  Gd  Gd6  1  0.00000000  0.00000000  0.50000000  1.0
  Gd  Gd7  1  0.00000000  0.00000000  0.00000000  1.0
  Ru  Ru8  1  0.33333333  0.66666667  0.83461285  1.0
  Ru  Ru9  1  0.33333333  0.66666667  0.66538715  1.0
  Ru  Ru10  1  0.66666667  0.33333333  0.33461285  1.0
  Ru  Ru11  1  0.66666667  0.33333333  0.16538715  1.0
  O  O12  1  0.17738021  0.82261979  0.90987960  1.0
  O  O13  1  0.17738021  0.82261979  0.59012040  1.0
  O  O14  1  0.17738021  0.35476042  0.90987960  1.0
  O  O15  1  0.17738021  0.35476042  0.59012040  1.0
  O  O16  1  0.82261979  0.17738021  0.40987960  1.0
  O  O17  1  0.82261979  0.17738021  0.09012040  1.0
  O  O18  1  0.82261979  0.64523958  0.40987960  1.0
  O  O19  1  0.82261979  0.64523958  0.09012040  1.0
  O  O20  1  0.64523958  0.82261979  0.90987960  1.0
  O  O21  1  0.64523958  0.82261979  0.59012040  1.0
  O  O22  1  0.35476042  0.17738021  0.40987960  1.0
  O  O23  1  0.35476042  0.17738021  0.09012040  1.0
  O  O24  1  0.50982931  0.49017069  0.25000000  1.0
  O  O25  1  0.50982931  0.01965862  0.25000000  1.0
  O  O26  1  0.49017069  0.50982931  0.75000000  1.0
  O  O27  1  0.49017069  0.98034138  0.75000000  1.0
  O  O28  1  0.98034138  0.49017069  0.25000000  1.0
  O  O29  1  0.01965862  0.50982931  0.75000000  1.0
