# generated using pymatgen
data_Na2PdS2
_symmetry_space_group_name_H-M   'P 1'
_cell_length_a   5.51993980
_cell_length_b   5.51993980
_cell_length_c   10.96768762
_cell_angle_alpha   90.00000000
_cell_angle_beta   90.00000000
_cell_angle_gamma   142.11231183
_symmetry_Int_Tables_number   1
_chemical_formula_structural   Na2PdS2
_chemical_formula_sum   'Na4 Pd2 S4'
_cell_volume   205.22671956
_cell_formula_units_Z   2
loop_
 _symmetry_equiv_pos_site_id
 _symmetry_equiv_pos_as_xyz
  1  'x, y, z'
loop_
 _atom_site_type_symbol
 _atom_site_label
 _atom_site_symmetry_multiplicity
 _atom_site_fract_x
 _atom_site_fract_y
 _atom_site_fract_z
 _atom_site_occupancy
  Na  Na0  1  0.07038187  0.92961813  0.75752296  1.0
  Na  Na1  1  -0.07038186  0.07038186  0.25752296  1.0
  Na  Na2  1  0.32859606  0.67140394  0.54598851  1.0
  Na  Na3  1  -0.32859606  0.32859606  0.04598851  1.0
  Pd  Pd4  1  0.36647323  0.63352677  0.88278163  1.0
  Pd  Pd5  1  -0.36647323  0.36647323  0.38278163  1.0
  S  S6  1  0.04884192  0.95115808  0.49967388  1.0
  S  S7  1  -0.04884192  0.04884192  -0.00032612  1.0
  S  S8  1  0.21690118  0.78309882  0.26403302  1.0
  S  S9  1  -0.21690118  0.21690118  0.76403302  1.0
