# generated using pymatgen
data_Na2PtO3
_symmetry_space_group_name_H-M   'P 1'
_cell_length_a   10.54925056
_cell_length_b   10.05808785
_cell_length_c   5.57446820
_cell_angle_alpha   79.23081021
_cell_angle_beta   69.49618357
_cell_angle_gamma   31.27300623
_symmetry_Int_Tables_number   1
_chemical_formula_structural   Na2PtO3
_chemical_formula_sum   'Na8 Pt4 O12'
_cell_volume   279.78837276
_cell_formula_units_Z   4
loop_
 _symmetry_equiv_pos_site_id
 _symmetry_equiv_pos_as_xyz
  1  'x, y, z'
loop_
 _atom_site_type_symbol
 _atom_site_label
 _atom_site_symmetry_multiplicity
 _atom_site_fract_x
 _atom_site_fract_y
 _atom_site_fract_z
 _atom_site_occupancy
  Na  Na0  1  0.99479251  -0.00520749  0.50520749  1.0
  Na  Na1  1  0.50520749  -0.49479251  0.99479251  1.0
  Na  Na2  1  0.25520749  0.25520749  -0.25520749  1.0
  Na  Na3  1  -0.25520749  0.74479251  0.25520749  1.0
  Na  Na4  1  0.66999907  -0.33000093  0.83000093  1.0
  Na  Na5  1  0.83000093  -0.16999907  0.66999907  1.0
  Na  Na6  1  -0.41999907  0.58000093  0.41999907  1.0
  Na  Na7  1  0.41999907  0.41999907  -0.41999907  1.0
  Pt  Pt8  1  0.16641716  0.16641716  0.33358284  1.0
  Pt  Pt9  1  0.33358284  0.33358284  0.16641716  1.0
  Pt  Pt10  1  0.08358284  0.08358284  -0.08358284  1.0
  Pt  Pt11  1  -0.08358284  0.91641716  0.08358284  1.0
  O  O12  1  0.29430578  -0.11427719  1.16297276  1.0
  O  O13  1  0.65699866  0.16297276  -0.11427719  1.0
  O  O14  1  -0.04430578  0.36427719  0.08702724  1.0
  O  O15  1  0.59300134  0.08702724  1.36427719  1.0
  O  O16  1  -0.11427719  0.29430578  0.65699866  1.0
  O  O17  1  0.16297276  0.65699866  1.29430578  1.0
  O  O18  1  0.36427719  -0.04430578  1.59300134  1.0
  O  O19  1  0.08702724  0.59300134  -0.04430578  1.0
  O  O20  1  0.45688893  0.04311107  0.04311107  1.0
  O  O21  1  -0.20688893  0.20688893  0.20688893  1.0
  O  O22  1  0.04311107  0.45688893  0.45688893  1.0
  O  O23  1  -0.79311107  0.79311107  0.79311107  1.0
