# generated using pymatgen
data_Ti12Al4NiN
_symmetry_space_group_name_H-M   'P 1'
_cell_length_a   10.19296453
_cell_length_b   10.19296453
_cell_length_c   10.19296453
_cell_angle_alpha   60.00000000
_cell_angle_beta   60.00000000
_cell_angle_gamma   60.00000000
_symmetry_Int_Tables_number   1
_chemical_formula_structural   Ti12Al4NiN
_chemical_formula_sum   'Ti24 Al8 Ni2 N2'
_cell_volume   748.83570071
_cell_formula_units_Z   2
loop_
 _symmetry_equiv_pos_site_id
 _symmetry_equiv_pos_as_xyz
  1  'x, y, z'
loop_
 _atom_site_type_symbol
 _atom_site_label
 _atom_site_symmetry_multiplicity
 _atom_site_fract_x
 _atom_site_fract_y
 _atom_site_fract_z
 _atom_site_occupancy
  Ti  Ti0  1  0.98990145  -0.71920302  0.73940013  1.0
  Ti  Ti1  1  -0.01009855  0.73940013  0.28079698  1.0
  Ti  Ti2  1  -0.03079698  0.26009855  0.26009855  1.0
  Ti  Ti3  1  0.51059987  0.26009855  0.26009855  1.0
  Ti  Ti4  1  -0.71920302  0.98990145  0.73940013  1.0
  Ti  Ti5  1  0.98990145  -0.01009855  0.73940013  1.0
  Ti  Ti6  1  0.98990145  -0.26059987  0.98990145  1.0
  Ti  Ti7  1  -0.71920302  0.73940013  0.98990145  1.0
  Ti  Ti8  1  0.26009855  -0.03079698  0.26009855  1.0
  Ti  Ti9  1  0.26009855  0.26009855  -0.03079698  1.0
  Ti  Ti10  1  0.51059987  0.26009855  -0.03079698  1.0
  Ti  Ti11  1  0.51059987  -0.03079698  0.26009855  1.0
  Ti  Ti12  1  0.73940013  -0.01009855  0.98990145  1.0
  Ti  Ti13  1  -0.71920302  0.98990145  0.98990145  1.0
  Ti  Ti14  1  0.26009855  0.51059987  -0.03079698  1.0
  Ti  Ti15  1  0.26009855  -0.03079698  0.51059987  1.0
  Ti  Ti16  1  -0.26059987  0.98990145  0.28079698  1.0
  Ti  Ti17  1  0.73940013  -0.71920302  0.98990145  1.0
  Ti  Ti18  1  0.98990145  -0.71920302  0.98990145  1.0
  Ti  Ti19  1  -0.01009855  0.98990145  0.28079698  1.0
  Ti  Ti20  1  0.26009855  0.51059987  0.26009855  1.0
  Ti  Ti21  1  -0.03079698  0.51059987  0.26009855  1.0
  Ti  Ti22  1  -0.03079698  0.26009855  0.51059987  1.0
  Ti  Ti23  1  0.26009855  0.26009855  0.51059987  1.0
  Al  Al24  1  0.66919888  -0.33080112  0.99240336  1.0
  Al  Al25  1  0.66919888  -0.00759664  0.66919888  1.0
  Al  Al26  1  0.58080112  -0.41919888  0.58080112  1.0
  Al  Al27  1  1.25759664  -0.41919888  0.58080112  1.0
  Al  Al28  1  0.99240336  -0.33080112  0.66919888  1.0
  Al  Al29  1  0.66919888  -0.33080112  0.66919888  1.0
  Al  Al30  1  0.58080112  0.25759664  0.58080112  1.0
  Al  Al31  1  0.58080112  -0.41919888  1.25759664  1.0
  Ni  Ni32  1  0.50000000  0.50000000  -0.50000000  1.0
  Ni  Ni33  1  0.75000000  -0.25000000  0.75000000  1.0
  N  N34  1  0.00000000  1.00000000  -0.00000000  1.0
  N  N35  1  0.25000000  0.25000000  0.25000000  1.0
