# generated using pymatgen
data_CeSi2
_symmetry_space_group_name_H-M   'P 1'
_cell_length_a   7.65117590
_cell_length_b   7.65117590
_cell_length_c   7.65117590
_cell_angle_alpha   148.88193820
_cell_angle_beta   148.85912805
_cell_angle_gamma   44.60191244
_symmetry_Int_Tables_number   1
_chemical_formula_structural   CeSi2
_chemical_formula_sum   'Ce2 Si4'
_cell_volume   119.34664534
_cell_formula_units_Z   2
loop_
 _symmetry_equiv_pos_site_id
 _symmetry_equiv_pos_as_xyz
  1  'x, y, z'
loop_
 _atom_site_type_symbol
 _atom_site_label
 _atom_site_symmetry_multiplicity
 _atom_site_fract_x
 _atom_site_fract_y
 _atom_site_fract_z
 _atom_site_occupancy
  Ce  Ce0  1  0.62497337  0.37497337  0.25000000  1.0
  Ce  Ce1  1  0.37502663  0.62502663  0.75000000  1.0
  Si  Si2  1  1.20846667  0.95846667  1.25000000  1.0
  Si  Si3  1  0.79153333  0.04153333  0.75000000  1.0
  Si  Si4  1  1.04160736  0.79160736  1.25000000  1.0
  Si  Si5  1  0.95839264  0.20839264  0.75000000  1.0
