# generated using pymatgen
data_YS
_symmetry_space_group_name_H-M   'P 1'
_cell_length_a   11.20119943
_cell_length_b   3.80674155
_cell_length_c   11.20120027
_cell_angle_alpha   80.21649337
_cell_angle_beta   19.56698836
_cell_angle_gamma   80.21651827
_symmetry_Int_Tables_number   1
_chemical_formula_structural   YS
_chemical_formula_sum   'Y2 S2'
_cell_volume   157.56310635
_cell_formula_units_Z   2
loop_
 _symmetry_equiv_pos_site_id
 _symmetry_equiv_pos_as_xyz
  1  'x, y, z'
loop_
 _atom_site_type_symbol
 _atom_site_label
 _atom_site_symmetry_multiplicity
 _atom_site_fract_x
 _atom_site_fract_y
 _atom_site_fract_z
 _atom_site_occupancy
  Y  Y0  1  -0.29241328  0.31341158  0.68658842  1.0
  Y  Y1  1  0.31341158  -0.29241328  0.29241328  1.0
  S  S2  1  -0.16435461  0.18535631  0.81464369  1.0
  S  S3  1  0.18535631  -0.16435461  0.16435461  1.0
