# generated using pymatgen
data_MnAg2GeSe4
_symmetry_space_group_name_H-M   'P 1'
_cell_length_a   8.15558212
_cell_length_b   7.37874715
_cell_length_c   6.92304442
_cell_angle_alpha   90.00000000
_cell_angle_beta   90.00000000
_cell_angle_gamma   90.00000000
_symmetry_Int_Tables_number   1
_chemical_formula_structural   MnAg2GeSe4
_chemical_formula_sum   'Mn2 Ag4 Ge2 Se8'
_cell_volume   416.61481697
_cell_formula_units_Z   2
loop_
 _symmetry_equiv_pos_site_id
 _symmetry_equiv_pos_as_xyz
  1  'x, y, z'
loop_
 _atom_site_type_symbol
 _atom_site_label
 _atom_site_symmetry_multiplicity
 _atom_site_fract_x
 _atom_site_fract_y
 _atom_site_fract_z
 _atom_site_occupancy
  Mn  Mn0  1  0.50000000  0.65063530  -0.00395136  1.0
  Mn  Mn1  1  0.00000000  0.34936470  0.49604864  1.0
  Ag  Ag2  1  0.24457304  0.17824386  0.02006785  1.0
  Ag  Ag3  1  0.74457304  0.82175614  0.52006785  1.0
  Ag  Ag4  1  0.75542696  0.17824386  0.02006785  1.0
  Ag  Ag5  1  0.25542696  0.82175614  0.52006785  1.0
  Ge  Ge6  1  0.50000000  0.33456923  0.50205988  1.0
  Ge  Ge7  1  -0.00000000  0.66543077  0.00205988  1.0
  Se  Se8  1  0.25710170  0.16904049  0.39997057  1.0
  Se  Se9  1  0.75710170  0.83095951  0.89997057  1.0
  Se  Se10  1  0.74289830  0.16904049  0.39997057  1.0
  Se  Se11  1  0.24289830  0.83095951  0.89997057  1.0
  Se  Se12  1  0.50000000  0.33925586  0.85133824  1.0
  Se  Se13  1  0.00000000  0.66074414  0.35133824  1.0
  Se  Se14  1  0.50000000  0.63333122  0.36297641  1.0
  Se  Se15  1  0.00000000  0.36666878  0.86297641  1.0
