# generated using pymatgen
data_Ta5Ga2Sn
_symmetry_space_group_name_H-M   'P 1'
_cell_length_a   7.81457124
_cell_length_b   7.81457124
_cell_length_c   7.81457124
_cell_angle_alpha   96.65387884
_cell_angle_beta   96.65387884
_cell_angle_gamma   140.19767415
_symmetry_Int_Tables_number   1
_chemical_formula_structural   Ta5Ga2Sn
_chemical_formula_sum   'Ta10 Ga4 Sn2'
_cell_volume   287.24256222
_cell_formula_units_Z   2
loop_
 _symmetry_equiv_pos_site_id
 _symmetry_equiv_pos_as_xyz
  1  'x, y, z'
loop_
 _atom_site_type_symbol
 _atom_site_label
 _atom_site_symmetry_multiplicity
 _atom_site_fract_x
 _atom_site_fract_y
 _atom_site_fract_z
 _atom_site_occupancy
  Ta  Ta0  1  0.07670953  0.23490269  0.31161222  1.0
  Ta  Ta1  1  0.92329047  0.76509731  1.68838778  1.0
  Ta  Ta2  1  0.57670953  1.26509731  0.84180683  1.0
  Ta  Ta3  1  1.42329047  0.73490269  1.15819317  1.0
  Ta  Ta4  1  0.76509731  1.07670953  0.84180683  1.0
  Ta  Ta5  1  1.23490269  0.92329047  1.15819317  1.0
  Ta  Ta6  1  0.73490269  0.57670953  1.31161222  1.0
  Ta  Ta7  1  0.26509731  0.42329047  0.68838778  1.0
  Ta  Ta8  1  0.75000000  1.25000000  0.50000000  1.0
  Ta  Ta9  1  0.25000000  0.75000000  0.50000000  1.0
  Ga  Ga10  1  0.16675066  0.66675066  0.83350132  1.0
  Ga  Ga11  1  0.83324934  0.33324934  1.16649868  1.0
  Ga  Ga12  1  0.66675066  0.83324934  0.50000000  1.0
  Ga  Ga13  1  1.33324934  1.16675066  1.50000000  1.0
  Sn  Sn14  1  0.75000000  0.75000000  -0.00000000  1.0
  Sn  Sn15  1  0.25000000  0.25000000  -0.00000000  1.0
