# generated using pymatgen
data_In4Te3
_symmetry_space_group_name_H-M   'P 1'
_cell_length_a   13.02558698
_cell_length_b   16.04107974
_cell_length_c   4.51470223
_cell_angle_alpha   90.00000000
_cell_angle_beta   90.00000000
_cell_angle_gamma   90.00000000
_symmetry_Int_Tables_number   1
_chemical_formula_structural   In4Te3
_chemical_formula_sum   'In16 Te12'
_cell_volume   943.32210700
_cell_formula_units_Z   4
loop_
 _symmetry_equiv_pos_site_id
 _symmetry_equiv_pos_as_xyz
  1  'x, y, z'
loop_
 _atom_site_type_symbol
 _atom_site_label
 _atom_site_symmetry_multiplicity
 _atom_site_fract_x
 _atom_site_fract_y
 _atom_site_fract_z
 _atom_site_occupancy
  In  In0  1  0.47579883  0.68471721  0.50000000  1.0
  In  In1  1  0.97579883  0.81528279  0.00000000  1.0
  In  In2  1  0.52420117  0.31528279  0.50000000  1.0
  In  In3  1  0.02420117  0.18471721  0.00000000  1.0
  In  In4  1  0.39135169  0.92909277  0.50000000  1.0
  In  In5  1  0.89135169  0.57090723  0.00000000  1.0
  In  In6  1  0.60864831  0.07090723  0.50000000  1.0
  In  In7  1  0.10864831  0.42909277  0.00000000  1.0
  In  In8  1  0.35346936  0.53825251  0.50000000  1.0
  In  In9  1  0.85346936  0.96174749  0.00000000  1.0
  In  In10  1  0.64653064  0.46174749  0.50000000  1.0
  In  In11  1  0.14653064  0.03825251  0.00000000  1.0
  In  In12  1  0.34188475  0.21499130  0.50000000  1.0
  In  In13  1  0.84188475  0.28500870  0.00000000  1.0
  In  In14  1  0.65811525  0.78500870  0.50000000  1.0
  In  In15  1  0.15811525  0.71499130  0.00000000  1.0
  Te  Te16  1  0.14589615  0.92543203  0.50000000  1.0
  Te  Te17  1  0.64589615  0.57456797  0.00000000  1.0
  Te  Te18  1  0.85410385  0.07456797  0.50000000  1.0
  Te  Te19  1  0.35410385  0.42543203  0.00000000  1.0
  Te  Te20  1  0.13979151  0.59707721  0.50000000  1.0
  Te  Te21  1  0.63979151  0.90292279  0.00000000  1.0
  Te  Te22  1  0.86020849  0.40292279  0.50000000  1.0
  Te  Te23  1  0.36020849  0.09707721  0.00000000  1.0
  Te  Te24  1  0.86571680  0.72381541  0.50000000  1.0
  Te  Te25  1  0.36571680  0.77618459  0.00000000  1.0
  Te  Te26  1  0.13428320  0.27618459  0.50000000  1.0
  Te  Te27  1  0.63428320  0.22381541  0.00000000  1.0
