# generated using pymatgen
data_AgTe3
_symmetry_space_group_name_H-M   'P 1'
_cell_length_a   5.31488146
_cell_length_b   5.31488146
_cell_length_c   5.31488146
_cell_angle_alpha   109.46422082
_cell_angle_beta   109.46422082
_cell_angle_gamma   109.46422082
_symmetry_Int_Tables_number   1
_chemical_formula_structural   AgTe3
_chemical_formula_sum   'Ag1 Te3'
_cell_volume   115.60359985
_cell_formula_units_Z   1
loop_
 _symmetry_equiv_pos_site_id
 _symmetry_equiv_pos_as_xyz
  1  'x, y, z'
loop_
 _atom_site_type_symbol
 _atom_site_label
 _atom_site_symmetry_multiplicity
 _atom_site_fract_x
 _atom_site_fract_y
 _atom_site_fract_z
 _atom_site_occupancy
  Ag  Ag0  1  -0.00569067  -0.00569067  -0.00569067  1.0
  Te  Te1  1  0.49390018  0.49390018  -0.00610968  1.0
  Te  Te2  1  0.49390018  0.99389032  -0.50609982  1.0
  Te  Te3  1  0.99389032  0.49390018  0.49390018  1.0
