# generated using pymatgen
data_TlBr
_symmetry_space_group_name_H-M   'P 1'
_cell_length_a   6.88829275
_cell_length_b   6.88829275
_cell_length_c   4.97965511
_cell_angle_alpha   90.00000000
_cell_angle_beta   90.00000000
_cell_angle_gamma   141.57727777
_symmetry_Int_Tables_number   1
_chemical_formula_structural   TlBr
_chemical_formula_sum   'Tl2 Br2'
_cell_volume   146.83669716
_cell_formula_units_Z   2
loop_
 _symmetry_equiv_pos_site_id
 _symmetry_equiv_pos_as_xyz
  1  'x, y, z'
loop_
 _atom_site_type_symbol
 _atom_site_label
 _atom_site_symmetry_multiplicity
 _atom_site_fract_x
 _atom_site_fract_y
 _atom_site_fract_z
 _atom_site_occupancy
  Tl  Tl0  1  0.12004091  0.87995909  0.75000000  1.0
  Tl  Tl1  1  -0.12004091  0.12004091  0.25000000  1.0
  Br  Br2  1  0.36303142  0.63696858  0.75000000  1.0
  Br  Br3  1  -0.36303142  0.36303142  0.25000000  1.0
