# generated using pymatgen
data_CoAsS
_symmetry_space_group_name_H-M   'P 1'
_cell_length_a   3.49443811
_cell_length_b   5.57443909
_cell_length_c   4.60232767
_cell_angle_alpha   90.00000000
_cell_angle_beta   89.99956319
_cell_angle_gamma   90.00000000
_symmetry_Int_Tables_number   1
_chemical_formula_structural   CoAsS
_chemical_formula_sum   'Co2 As2 S2'
_cell_volume   89.65119089
_cell_formula_units_Z   2
loop_
 _symmetry_equiv_pos_site_id
 _symmetry_equiv_pos_as_xyz
  1  'x, y, z'
loop_
 _atom_site_type_symbol
 _atom_site_label
 _atom_site_symmetry_multiplicity
 _atom_site_fract_x
 _atom_site_fract_y
 _atom_site_fract_z
 _atom_site_occupancy
  Co  Co0  1  0.75007055  0.50304774  0.73520873  1.0
  Co  Co1  1  0.24992945  0.00304774  0.26479127  1.0
  As  As2  1  0.74993905  0.12805867  0.96057165  1.0
  As  As3  1  0.25006095  0.62805867  0.03942835  1.0
  S  S4  1  0.74995157  0.87504358  0.54816802  1.0
  S  S5  1  0.25004843  0.37504358  0.45183198  1.0
