# generated using pymatgen
data_FeBi2Se2Cl3O7
_symmetry_space_group_name_H-M   'P 1'
_cell_length_a   8.72954063
_cell_length_b   7.21774356
_cell_length_c   8.91372014
_cell_angle_alpha   90.00000000
_cell_angle_beta   105.73130486
_cell_angle_gamma   90.00000000
_symmetry_Int_Tables_number   1
_chemical_formula_structural   FeBi2Se2Cl3O7
_chemical_formula_sum   'Fe2 Bi4 Se4 Cl6 O14'
_cell_volume   540.59535964
_cell_formula_units_Z   2
loop_
 _symmetry_equiv_pos_site_id
 _symmetry_equiv_pos_as_xyz
  1  'x, y, z'
loop_
 _atom_site_type_symbol
 _atom_site_label
 _atom_site_symmetry_multiplicity
 _atom_site_fract_x
 _atom_site_fract_y
 _atom_site_fract_z
 _atom_site_occupancy
  Fe  Fe0  1  0.00000000  0.50000000  0.00000000  1.0
  Fe  Fe1  1  0.00000000  0.00000000  0.00000000  1.0
  Cl  Cl2  1  0.52891428  0.25000000  0.97924111  1.0
  Cl  Cl3  1  0.47108572  0.75000000  0.02075889  1.0
  Cl  Cl4  1  0.62048850  0.48733197  0.37792591  1.0
  Cl  Cl5  1  0.62048850  0.01266803  0.37792591  1.0
  Cl  Cl6  1  0.37951150  0.98733197  0.62207409  1.0
  Cl  Cl7  1  0.37951150  0.51266803  0.62207409  1.0
  Bi  Bi8  1  0.77408966  0.25000000  0.23003114  1.0
  Bi  Bi9  1  0.22591034  0.75000000  0.76996886  1.0
  Bi  Bi10  1  0.70317782  0.25000000  0.75484685  1.0
  Bi  Bi11  1  0.29682218  0.75000000  0.24515315  1.0
  O  O12  1  0.80051553  0.93695160  0.81864364  1.0
  O  O13  1  0.80051553  0.56304840  0.81864364  1.0
  O  O14  1  0.19948447  0.43695160  0.18135636  1.0
  O  O15  1  0.19948447  0.06304840  0.18135636  1.0
  O  O16  1  0.05678018  0.25000000  0.36864080  1.0
  O  O17  1  0.94321982  0.75000000  0.63135920  1.0
  O  O18  1  0.90190145  0.25000000  0.63465684  1.0
  O  O19  1  0.09809855  0.75000000  0.36534316  1.0
  O  O20  1  0.89542079  0.25000000  0.98011984  1.0
  O  O21  1  0.10457921  0.75000000  0.01988016  1.0
  O  O22  1  0.12860683  0.43809150  0.84574362  1.0
  O  O23  1  0.12860683  0.06190850  0.84574362  1.0
  O  O24  1  0.87139317  0.93809150  0.15425638  1.0
  O  O25  1  0.87139317  0.56190850  0.15425638  1.0
  Se  Se26  1  0.10369771  0.25000000  0.71607002  1.0
  Se  Se27  1  0.89630229  0.75000000  0.28392998  1.0
  Se  Se28  1  0.22824366  0.25000000  0.31655930  1.0
  Se  Se29  1  0.77175634  0.75000000  0.68344070  1.0
