# generated using pymatgen
data_MgGa
_symmetry_space_group_name_H-M   'P 1'
_cell_length_a   8.01690783
_cell_length_b   8.01690783
_cell_length_c   8.01690783
_cell_angle_alpha   96.87009629
_cell_angle_beta   96.87009629
_cell_angle_gamma   139.53147597
_symmetry_Int_Tables_number   1
_chemical_formula_structural   MgGa
_chemical_formula_sum   'Mg8 Ga8'
_cell_volume   313.77691946
_cell_formula_units_Z   8
loop_
 _symmetry_equiv_pos_site_id
 _symmetry_equiv_pos_as_xyz
  1  'x, y, z'
loop_
 _atom_site_type_symbol
 _atom_site_label
 _atom_site_symmetry_multiplicity
 _atom_site_fract_x
 _atom_site_fract_y
 _atom_site_fract_z
 _atom_site_occupancy
  Mg  Mg0  1  1.64849459  1.94373930  1.55859123  1.0
  Mg  Mg1  1  1.38514807  1.08990336  0.44140877  1.0
  Mg  Mg2  1  0.36485193  1.16009664  1.05859123  1.0
  Mg  Mg3  1  1.10150541  0.30626070  0.94140877  1.0
  Mg  Mg4  1  0.91009664  1.35150541  1.29524471  1.0
  Mg  Mg5  1  1.05626070  0.61485193  0.70475529  1.0
  Mg  Mg6  1  0.69373930  0.63514807  0.79524471  1.0
  Mg  Mg7  1  0.83990336  0.89849459  1.20475529  1.0
  Ga  Ga8  1  1.20270407  1.39720446  1.58880177  1.0
  Ga  Ga9  1  0.80840269  0.61390230  0.41119823  1.0
  Ga  Ga10  1  0.94159731  1.63609770  1.08880177  1.0
  Ga  Ga11  1  1.54729593  0.85279554  0.91119823  1.0
  Ga  Ga12  1  0.38609770  0.79729593  1.19450039  1.0
  Ga  Ga13  1  0.60279554  0.19159731  0.80549961  1.0
  Ga  Ga14  1  1.14720446  1.05840269  0.69450039  1.0
  Ga  Ga15  1  1.36390230  1.45270407  1.30549961  1.0
