# generated using pymatgen
data_ZrNiH3
_symmetry_space_group_name_H-M   'P 1'
_cell_length_a   5.53658632
_cell_length_b   5.53658632
_cell_length_c   4.31824965
_cell_angle_alpha   90.00000000
_cell_angle_beta   90.00000000
_cell_angle_gamma   142.91606957
_symmetry_Int_Tables_number   1
_chemical_formula_structural   ZrNiH3
_chemical_formula_sum   'Zr2 Ni2 H6'
_cell_volume   79.81745544
_cell_formula_units_Z   2
loop_
 _symmetry_equiv_pos_site_id
 _symmetry_equiv_pos_as_xyz
  1  'x, y, z'
loop_
 _atom_site_type_symbol
 _atom_site_label
 _atom_site_symmetry_multiplicity
 _atom_site_fract_x
 _atom_site_fract_y
 _atom_site_fract_z
 _atom_site_occupancy
  Zr  Zr0  1  -0.63963182  0.63963182  0.25000000  1.0
  Zr  Zr1  1  -0.36036818  1.36036818  0.75000000  1.0
  Ni  Ni2  1  -0.93067465  0.93067465  0.25000000  1.0
  Ni  Ni3  1  -0.06932535  1.06932535  0.75000000  1.0
  H  H4  1  -0.43151875  1.43151875  0.25000000  1.0
  H  H5  1  -0.56848125  0.56848125  0.75000000  1.0
  H  H6  1  -0.81242945  0.81242945  0.99549244  1.0
  H  H7  1  -0.81242945  0.81242945  0.50450756  1.0
  H  H8  1  -0.18757055  1.18757055  0.49549244  1.0
  H  H9  1  -0.18757055  1.18757055  0.00450756  1.0
