# generated using pymatgen
data_K4Au6S5
_symmetry_space_group_name_H-M   'P 1'
_cell_length_a   9.80145803
_cell_length_b   9.80145803
_cell_length_c   10.14194298
_cell_angle_alpha   90.00000000
_cell_angle_beta   90.00000000
_cell_angle_gamma   120.00000000
_symmetry_Int_Tables_number   1
_chemical_formula_structural   K4Au6S5
_chemical_formula_sum   'K8 Au12 S10'
_cell_volume   843.78765170
_cell_formula_units_Z   2
loop_
 _symmetry_equiv_pos_site_id
 _symmetry_equiv_pos_as_xyz
  1  'x, y, z'
loop_
 _atom_site_type_symbol
 _atom_site_label
 _atom_site_symmetry_multiplicity
 _atom_site_fract_x
 _atom_site_fract_y
 _atom_site_fract_z
 _atom_site_occupancy
  K  K0  1  0.07314434  0.65465480  0.25000000  1.0
  K  K1  1  0.65465480  0.07314434  0.75000000  1.0
  K  K2  1  0.58151046  0.92685566  0.25000000  1.0
  K  K3  1  0.34534520  0.41848954  0.25000000  1.0
  K  K4  1  0.92685566  0.58151046  0.75000000  1.0
  K  K5  1  0.41848954  0.34534520  0.75000000  1.0
  K  K6  1  0.00000000  0.00000000  0.50000000  1.0
  K  K7  1  0.00000000  0.00000000  0.00000000  1.0
  Au  Au8  1  0.71772292  0.54965146  0.41078171  1.0
  Au  Au9  1  0.71772292  0.54965146  0.08921829  1.0
  Au  Au10  1  0.54965146  0.71772292  0.91078171  1.0
  Au  Au11  1  0.54965146  0.71772292  0.58921829  1.0
  Au  Au12  1  0.83192854  0.28227708  0.41078171  1.0
  Au  Au13  1  0.83192854  0.28227708  0.08921829  1.0
  Au  Au14  1  0.45034854  0.16807146  0.41078171  1.0
  Au  Au15  1  0.45034854  0.16807146  0.08921829  1.0
  Au  Au16  1  0.28227708  0.83192854  0.91078171  1.0
  Au  Au17  1  0.28227708  0.83192854  0.58921829  1.0
  Au  Au18  1  0.16807146  0.45034854  0.91078171  1.0
  Au  Au19  1  0.16807146  0.45034854  0.58921829  1.0
  S  S20  1  0.77349907  0.73931235  0.25000000  1.0
  S  S21  1  0.73931235  0.77349907  0.75000000  1.0
  S  S22  1  0.96581328  0.22650093  0.25000000  1.0
  S  S23  1  0.26068765  0.03418672  0.25000000  1.0
  S  S24  1  0.22650093  0.96581328  0.75000000  1.0
  S  S25  1  0.03418672  0.26068765  0.75000000  1.0
  S  S26  1  0.33333333  0.66666667  0.45583749  1.0
  S  S27  1  0.33333333  0.66666667  0.04416251  1.0
  S  S28  1  0.66666667  0.33333333  0.95583749  1.0
  S  S29  1  0.66666667  0.33333333  0.54416251  1.0
