# generated using pymatgen
data_Na2B3SbO8
_symmetry_space_group_name_H-M   'P 1'
_cell_length_a   5.93171699
_cell_length_b   10.49750269
_cell_length_c   10.83726053
_cell_angle_alpha   90.00000000
_cell_angle_beta   103.88763178
_cell_angle_gamma   90.00000000
_symmetry_Int_Tables_number   1
_chemical_formula_structural   Na2B3SbO8
_chemical_formula_sum   'Na8 B12 Sb4 O32'
_cell_volume   655.09083569
_cell_formula_units_Z   4
loop_
 _symmetry_equiv_pos_site_id
 _symmetry_equiv_pos_as_xyz
  1  'x, y, z'
loop_
 _atom_site_type_symbol
 _atom_site_label
 _atom_site_symmetry_multiplicity
 _atom_site_fract_x
 _atom_site_fract_y
 _atom_site_fract_z
 _atom_site_occupancy
  Na  Na0  1  0.65361835  0.58228804  0.84968835  1.0
  Na  Na1  1  0.34638165  0.08228804  0.65031165  1.0
  Na  Na2  1  0.34638165  0.41771196  0.15031165  1.0
  Na  Na3  1  0.65361835  0.91771196  0.34968835  1.0
  Na  Na4  1  0.24893893  0.38094826  0.48854578  1.0
  Na  Na5  1  0.75106107  0.88094826  0.01145422  1.0
  Na  Na6  1  0.75106107  0.61905174  0.51145422  1.0
  Na  Na7  1  0.24893893  0.11905174  0.98854578  1.0
  B  B8  1  0.18517375  0.52656661  0.82961802  1.0
  B  B9  1  0.81482625  0.02656661  0.67038198  1.0
  B  B10  1  0.81482625  0.47343339  0.17038198  1.0
  B  B11  1  0.18517375  0.97343339  0.32961802  1.0
  B  B12  1  0.39424941  0.32770867  0.78316908  1.0
  B  B13  1  0.60575059  0.82770867  0.71683092  1.0
  B  B14  1  0.60575059  0.67229133  0.21683092  1.0
  B  B15  1  0.39424941  0.17229133  0.28316908  1.0
  B  B16  1  0.73063714  0.20045098  0.92334199  1.0
  B  B17  1  0.26936286  0.70045098  0.57665801  1.0
  B  B18  1  0.26936286  0.79954902  0.07665801  1.0
  B  B19  1  0.73063714  0.29954902  0.42334199  1.0
  Sb  Sb20  1  0.86167179  0.32161726  0.70362123  1.0
  Sb  Sb21  1  0.13832821  0.82161726  0.79637877  1.0
  Sb  Sb22  1  0.13832821  0.67838274  0.29637877  1.0
  Sb  Sb23  1  0.86167179  0.17838274  0.20362123  1.0
  O  O24  1  0.96076203  0.50199522  0.76271761  1.0
  O  O25  1  0.03923797  0.00199522  0.73728239  1.0
  O  O26  1  0.03923797  0.49800478  0.23728239  1.0
  O  O27  1  0.96076203  0.99800478  0.26271761  1.0
  O  O28  1  0.25998893  0.64883327  0.86562800  1.0
  O  O29  1  0.74001107  0.14883327  0.63437200  1.0
  O  O30  1  0.74001107  0.35116673  0.13437200  1.0
  O  O31  1  0.25998893  0.85116673  0.36562800  1.0
  O  O32  1  0.34879047  0.43220567  0.86653973  1.0
  O  O33  1  0.65120953  0.93220567  0.63346027  1.0
  O  O34  1  0.65120953  0.56779433  0.13346027  1.0
  O  O35  1  0.34879047  0.06779433  0.36653973  1.0
  O  O36  1  0.54487568  0.37872833  0.70478016  1.0
  O  O37  1  0.45512432  0.87872833  0.79521984  1.0
  O  O38  1  0.45512432  0.62127167  0.29521984  1.0
  O  O39  1  0.54487568  0.12127167  0.20478016  1.0
  O  O40  1  0.49971389  0.21887186  0.86635947  1.0
  O  O41  1  0.50028611  0.71887186  0.63364053  1.0
  O  O42  1  0.50028611  0.78112814  0.13364053  1.0
  O  O43  1  0.49971389  0.28112814  0.36635947  1.0
  O  O44  1  0.18208714  0.28126427  0.69235641  1.0
  O  O45  1  0.81791286  0.78126427  0.80764359  1.0
  O  O46  1  0.81791286  0.71873573  0.30764359  1.0
  O  O47  1  0.18208714  0.21873573  0.19235641  1.0
  O  O48  1  0.79062618  0.11273606  0.02271995  1.0
  O  O49  1  0.20937382  0.61273606  0.47728005  1.0
  O  O50  1  0.20937382  0.88726394  0.97728005  1.0
  O  O51  1  0.79062618  0.38726394  0.52271995  1.0
  O  O52  1  0.91336065  0.25489899  0.88352189  1.0
  O  O53  1  0.08663935  0.75489899  0.61647811  1.0
  O  O54  1  0.08663935  0.74510101  0.11647811  1.0
  O  O55  1  0.91336065  0.24510101  0.38352189  1.0
