# generated using pymatgen
data_CsBrF4
_symmetry_space_group_name_H-M   'P 1'
_cell_length_a   7.74882734
_cell_length_b   7.74882734
_cell_length_c   7.74882734
_cell_angle_alpha   135.00501084
_cell_angle_beta   125.44086551
_cell_angle_gamma   73.31970904
_symmetry_Int_Tables_number   1
_chemical_formula_structural   CsBrF4
_chemical_formula_sum   'Cs2 Br2 F8'
_cell_volume   261.83158751
_cell_formula_units_Z   2
loop_
 _symmetry_equiv_pos_site_id
 _symmetry_equiv_pos_as_xyz
  1  'x, y, z'
loop_
 _atom_site_type_symbol
 _atom_site_label
 _atom_site_symmetry_multiplicity
 _atom_site_fract_x
 _atom_site_fract_y
 _atom_site_fract_z
 _atom_site_occupancy
  Cs  Cs0  1  0.71832562  0.21832562  0.50000000  1.0
  Cs  Cs1  1  0.28167438  0.78167438  0.50000000  1.0
  Br  Br2  1  0.50000000  0.50000000  1.00000000  1.0
  Br  Br3  1  0.00000000  0.00000000  0.00000000  1.0
  F  F4  1  0.42234970  0.61226604  0.81008366  1.0
  F  F5  1  1.19781763  0.38773396  0.81008366  1.0
  F  F6  1  0.80218237  0.61226604  1.18991634  1.0
  F  F7  1  0.57765030  0.38773396  0.18991634  1.0
  F  F8  1  0.84338575  0.84338575  1.00000000  1.0
  F  F9  1  0.15661425  0.15661425  0.00000000  1.0
  F  F10  1  0.72715325  0.00000000  0.72715325  1.0
  F  F11  1  0.27284675  0.00000000  0.27284675  1.0
