# generated using pymatgen
data_K2Sn(HO)6
_symmetry_space_group_name_H-M   'P 1'
_cell_length_a   5.65515307
_cell_length_b   5.65515307
_cell_length_c   5.65515307
_cell_angle_alpha   74.74940941
_cell_angle_beta   74.74940941
_cell_angle_gamma   74.74940941
_symmetry_Int_Tables_number   1
_chemical_formula_structural   K2Sn(HO)6
_chemical_formula_sum   'K2 Sn1 H6 O6'
_cell_volume   164.65135409
_cell_formula_units_Z   1
loop_
 _symmetry_equiv_pos_site_id
 _symmetry_equiv_pos_as_xyz
  1  'x, y, z'
loop_
 _atom_site_type_symbol
 _atom_site_label
 _atom_site_symmetry_multiplicity
 _atom_site_fract_x
 _atom_site_fract_y
 _atom_site_fract_z
 _atom_site_occupancy
  K  K0  1  0.69958204  0.69958204  -0.30041796  1.0
  K  K1  1  1.30041796  1.30041796  0.30041796  1.0
  Sn  Sn2  1  0.00000000  0.00000000  0.00000000  1.0
  H  H3  1  0.62224715  -0.22769561  0.18168067  1.0
  H  H4  1  0.22769561  0.81831933  -0.62224715  1.0
  H  H5  1  0.81831933  0.37775285  -0.77230439  1.0
  H  H6  1  0.37775285  0.22769561  -0.18168067  1.0
  H  H7  1  0.77230439  0.18168067  -0.37775285  1.0
  H  H8  1  1.18168067  -0.37775285  -0.22769561  1.0
  O  O9  1  0.80255678  -0.28692908  0.18756530  1.0
  O  O10  1  0.28692908  0.81243470  -0.80255678  1.0
  O  O11  1  0.81243470  0.19744322  -0.71307092  1.0
  O  O12  1  0.19744322  0.28692908  -0.18756530  1.0
  O  O13  1  0.71307092  0.18756530  -0.19744322  1.0
  O  O14  1  1.18756530  -0.19744322  -0.28692908  1.0
