# generated using pymatgen
data_V2PC
_symmetry_space_group_name_H-M   'P 1'
_cell_length_a   3.06879097
_cell_length_b   3.06879097
_cell_length_c   10.89639698
_cell_angle_alpha   90.00000000
_cell_angle_beta   90.00000000
_cell_angle_gamma   120.00000000
_symmetry_Int_Tables_number   1
_chemical_formula_structural   V2PC
_chemical_formula_sum   'V4 P2 C2'
_cell_volume   88.86856424
_cell_formula_units_Z   2
loop_
 _symmetry_equiv_pos_site_id
 _symmetry_equiv_pos_as_xyz
  1  'x, y, z'
loop_
 _atom_site_type_symbol
 _atom_site_label
 _atom_site_symmetry_multiplicity
 _atom_site_fract_x
 _atom_site_fract_y
 _atom_site_fract_z
 _atom_site_occupancy
  V  V0  1  0.33333333  0.66666667  0.90203206  1.0
  V  V1  1  0.33333333  0.66666667  0.59796794  1.0
  V  V2  1  0.66666667  0.33333333  0.40203206  1.0
  V  V3  1  0.66666667  0.33333333  0.09796794  1.0
  P  P4  1  0.33333333  0.66666667  0.25000000  1.0
  P  P5  1  0.66666667  0.33333333  0.75000000  1.0
  C  C6  1  0.00000000  0.00000000  0.50000000  1.0
  C  C7  1  0.00000000  0.00000000  0.00000000  1.0
