# generated using pymatgen
data_Rb2Ba(MoO4)2
_symmetry_space_group_name_H-M   'P 1'
_cell_length_a   8.29093013
_cell_length_b   8.29093013
_cell_length_c   8.29093013
_cell_angle_alpha   43.95674174
_cell_angle_beta   43.95674174
_cell_angle_gamma   43.95674174
_symmetry_Int_Tables_number   1
_chemical_formula_structural   Rb2Ba(MoO4)2
_chemical_formula_sum   'Rb2 Ba1 Mo2 O8'
_cell_volume   249.37293086
_cell_formula_units_Z   1
loop_
 _symmetry_equiv_pos_site_id
 _symmetry_equiv_pos_as_xyz
  1  'x, y, z'
loop_
 _atom_site_type_symbol
 _atom_site_label
 _atom_site_symmetry_multiplicity
 _atom_site_fract_x
 _atom_site_fract_y
 _atom_site_fract_z
 _atom_site_occupancy
  Rb  Rb0  1  0.80375861  0.80375861  0.80375861  1.0
  Rb  Rb1  1  1.19624139  1.19624139  0.19624139  1.0
  Ba  Ba2  1  0.00000000  0.00000000  0.00000000  1.0
  Mo  Mo3  1  1.60002620  0.60002620  0.60002620  1.0
  Mo  Mo4  1  1.39997380  0.39997380  0.39997380  1.0
  O  O5  1  1.26734201  0.26734201  0.74067694  1.0
  O  O6  1  1.26734201  0.74067694  0.26734201  1.0
  O  O7  1  1.25932306  0.73265799  0.73265799  1.0
  O  O8  1  1.73265799  0.25932306  0.73265799  1.0
  O  O9  1  1.73265799  0.73265799  0.25932306  1.0
  O  O10  1  1.74067694  0.26734201  0.26734201  1.0
  O  O11  1  0.67879545  0.67879545  0.67879545  1.0
  O  O12  1  1.32120455  1.32120455  0.32120455  1.0
