# generated using pymatgen
data_CsS3
_symmetry_space_group_name_H-M   'P 1'
_cell_length_a   9.63745158
_cell_length_b   4.92943729
_cell_length_c   11.59437771
_cell_angle_alpha   84.69424336
_cell_angle_beta   85.39844635
_cell_angle_gamma   89.54025119
_symmetry_Int_Tables_number   1
_chemical_formula_structural   CsS3
_chemical_formula_sum   'Cs4 S12'
_cell_volume   546.68861242
_cell_formula_units_Z   4
loop_
 _symmetry_equiv_pos_site_id
 _symmetry_equiv_pos_as_xyz
  1  'x, y, z'
loop_
 _atom_site_type_symbol
 _atom_site_label
 _atom_site_symmetry_multiplicity
 _atom_site_fract_x
 _atom_site_fract_y
 _atom_site_fract_z
 _atom_site_occupancy
  Cs  Cs0  1  -0.82105490  -0.53524995  -0.40495776  1.0
  Cs  Cs1  1  -0.17894510  -0.46475005  -0.59504224  1.0
  Cs  Cs2  1  -0.81422760  -0.37079212  -0.88356136  1.0
  Cs  Cs3  1  -0.18577240  -0.62920788  -0.11643864  1.0
  S  S4  1  -0.64625497  -0.96661915  -0.60575636  1.0
  S  S5  1  -0.35374503  -0.03338085  -0.39424364  1.0
  S  S6  1  -0.84999355  -0.94288301  -0.64919700  1.0
  S  S7  1  -0.15000645  -0.05711699  -0.35080300  1.0
  S  S8  1  -0.11286443  -0.92759725  -0.82569526  1.0
  S  S9  1  -0.88713557  -0.07240275  -0.17430474  1.0
  S  S10  1  -0.45797821  -0.84114172  -0.87270287  1.0
  S  S11  1  -0.54202179  -0.15885828  -0.12729713  1.0
  S  S12  1  -0.70734898  -0.88563921  -0.13987568  1.0
  S  S13  1  -0.29265102  -0.11436079  -0.86012432  1.0
  S  S14  1  -0.51954489  -0.69194615  -0.71056426  1.0
  S  S15  1  -0.48045511  -0.30805385  -0.28943574  1.0
