# generated using pymatgen
data_Mn4Ge6Ir7
_symmetry_space_group_name_H-M   'P 1'
_cell_length_a   6.98508184
_cell_length_b   6.98508184
_cell_length_c   6.98508184
_cell_angle_alpha   109.47122063
_cell_angle_beta   109.47122063
_cell_angle_gamma   109.47122063
_symmetry_Int_Tables_number   1
_chemical_formula_structural   Mn4Ge6Ir7
_chemical_formula_sum   'Mn4 Ge6 Ir7'
_cell_volume   262.35696943
_cell_formula_units_Z   1
loop_
 _symmetry_equiv_pos_site_id
 _symmetry_equiv_pos_as_xyz
  1  'x, y, z'
loop_
 _atom_site_type_symbol
 _atom_site_label
 _atom_site_symmetry_multiplicity
 _atom_site_fract_x
 _atom_site_fract_y
 _atom_site_fract_z
 _atom_site_occupancy
  Mn  Mn0  1  0.50000000  0.50000000  0.50000000  1.0
  Mn  Mn1  1  1.00000000  1.00000000  0.50000000  1.0
  Mn  Mn2  1  1.00000000  1.50000000  1.00000000  1.0
  Mn  Mn3  1  1.50000000  1.00000000  1.00000000  1.0
  Ir  Ir4  1  0.00000000  0.00000000  0.00000000  1.0
  Ir  Ir5  1  0.50000000  0.25000000  0.75000000  1.0
  Ir  Ir6  1  0.50000000  0.75000000  0.25000000  1.0
  Ir  Ir7  1  0.25000000  0.50000000  0.75000000  1.0
  Ir  Ir8  1  1.25000000  0.75000000  0.50000000  1.0
  Ir  Ir9  1  0.75000000  1.25000000  0.50000000  1.0
  Ir  Ir10  1  0.75000000  0.50000000  0.25000000  1.0
  Ge  Ge11  1  0.00000000  0.69366082  0.69366082  1.0
  Ge  Ge12  1  0.69366082  -0.00000000  0.69366082  1.0
  Ge  Ge13  1  0.69366082  0.69366082  -0.00000000  1.0
  Ge  Ge14  1  0.30633918  0.30633918  -0.00000000  1.0
  Ge  Ge15  1  0.30633918  -0.00000000  0.30633918  1.0
  Ge  Ge16  1  0.00000000  0.30633918  0.30633918  1.0
