# generated using pymatgen
data_CaMgGe
_symmetry_space_group_name_H-M   'P 1'
_cell_length_a   7.52304129
_cell_length_b   4.45775661
_cell_length_c   8.40767125
_cell_angle_alpha   90.00000000
_cell_angle_beta   90.00000000
_cell_angle_gamma   90.00000000
_symmetry_Int_Tables_number   1
_chemical_formula_structural   CaMgGe
_chemical_formula_sum   'Ca4 Mg4 Ge4'
_cell_volume   281.95871301
_cell_formula_units_Z   4
loop_
 _symmetry_equiv_pos_site_id
 _symmetry_equiv_pos_as_xyz
  1  'x, y, z'
loop_
 _atom_site_type_symbol
 _atom_site_label
 _atom_site_symmetry_multiplicity
 _atom_site_fract_x
 _atom_site_fract_y
 _atom_site_fract_z
 _atom_site_occupancy
  Ca  Ca0  1  0.02050595  0.25000000  0.32024327  1.0
  Ca  Ca1  1  0.52050595  0.25000000  0.17975673  1.0
  Ca  Ca2  1  0.97949405  0.75000000  0.67975673  1.0
  Ca  Ca3  1  0.47949405  0.75000000  0.82024327  1.0
  Mg  Mg4  1  0.14283130  0.25000000  0.93786908  1.0
  Mg  Mg5  1  0.64283130  0.25000000  0.56213092  1.0
  Mg  Mg6  1  0.85716870  0.75000000  0.06213092  1.0
  Mg  Mg7  1  0.35716870  0.75000000  0.43786908  1.0
  Ge  Ge8  1  0.26787150  0.25000000  0.61663010  1.0
  Ge  Ge9  1  0.76787150  0.25000000  0.88336990  1.0
  Ge  Ge10  1  0.73212850  0.75000000  0.38336990  1.0
  Ge  Ge11  1  0.23212850  0.75000000  0.11663010  1.0
