# generated using pymatgen
data_MoCl5
_symmetry_space_group_name_H-M   'P 1'
_cell_length_a   9.86998539
_cell_length_b   12.71124027
_cell_length_c   13.24760564
_cell_angle_alpha   90.00000000
_cell_angle_beta   109.79660946
_cell_angle_gamma   90.00000000
_symmetry_Int_Tables_number   1
_chemical_formula_structural   MoCl5
_chemical_formula_sum   'Mo8 Cl40'
_cell_volume   1563.81607380
_cell_formula_units_Z   8
loop_
 _symmetry_equiv_pos_site_id
 _symmetry_equiv_pos_as_xyz
  1  'x, y, z'
loop_
 _atom_site_type_symbol
 _atom_site_label
 _atom_site_symmetry_multiplicity
 _atom_site_fract_x
 _atom_site_fract_y
 _atom_site_fract_z
 _atom_site_occupancy
  Mo  Mo0  1  0.80276580  0.87575487  0.79262881  1.0
  Mo  Mo1  1  0.80276580  0.62424513  0.29262881  1.0
  Mo  Mo2  1  0.19723420  0.37575487  0.70737119  1.0
  Mo  Mo3  1  0.19723420  0.12424513  0.20737119  1.0
  Mo  Mo4  1  0.38289695  0.87295676  0.68589659  1.0
  Mo  Mo5  1  0.38289695  0.62704324  0.18589659  1.0
  Mo  Mo6  1  0.61710305  0.37295676  0.81410341  1.0
  Mo  Mo7  1  0.61710305  0.12704324  0.31410341  1.0
  Cl  Cl8  1  0.96606732  0.76838728  0.90865056  1.0
  Cl  Cl9  1  0.96606732  0.73161272  0.40865056  1.0
  Cl  Cl10  1  0.03393268  0.26838728  0.59134944  1.0
  Cl  Cl11  1  0.03393268  0.23161272  0.09134944  1.0
  Cl  Cl12  1  0.96366367  0.98547637  0.75889502  1.0
  Cl  Cl13  1  0.96366367  0.51452363  0.25889502  1.0
  Cl  Cl14  1  0.03633633  0.48547637  0.74110498  1.0
  Cl  Cl15  1  0.03633633  0.01452363  0.24110498  1.0
  Cl  Cl16  1  0.77924352  0.77164131  0.64736756  1.0
  Cl  Cl17  1  0.77924352  0.72835869  0.14736756  1.0
  Cl  Cl18  1  0.22075648  0.27164131  0.85263244  1.0
  Cl  Cl19  1  0.22075648  0.22835869  0.35263244  1.0
  Cl  Cl20  1  0.77950055  0.48119859  0.92929569  1.0
  Cl  Cl21  1  0.77950055  0.01880141  0.42929569  1.0
  Cl  Cl22  1  0.22049945  0.98119859  0.57070431  1.0
  Cl  Cl23  1  0.22049945  0.51880141  0.07070431  1.0
  Cl  Cl24  1  0.77820863  0.26361580  0.78039927  1.0
  Cl  Cl25  1  0.77820863  0.23638420  0.28039927  1.0
  Cl  Cl26  1  0.22179137  0.76361580  0.71960073  1.0
  Cl  Cl27  1  0.22179137  0.73638420  0.21960073  1.0
  Cl  Cl28  1  0.77511326  0.97973970  0.92477347  1.0
  Cl  Cl29  1  0.77511326  0.52026030  0.42477347  1.0
  Cl  Cl30  1  0.22488674  0.47973970  0.57522653  1.0
  Cl  Cl31  1  0.22488674  0.02026030  0.07522653  1.0
  Cl  Cl32  1  0.59416653  0.77010634  0.81115770  1.0
  Cl  Cl33  1  0.59416653  0.72989366  0.31115770  1.0
  Cl  Cl34  1  0.40583347  0.27010634  0.68884230  1.0
  Cl  Cl35  1  0.40583347  0.22989366  0.18884230  1.0
  Cl  Cl36  1  0.59168760  0.97818032  0.66741212  1.0
  Cl  Cl37  1  0.59168760  0.52181968  0.16741212  1.0
  Cl  Cl38  1  0.40831240  0.47818032  0.83258788  1.0
  Cl  Cl39  1  0.40831240  0.02181968  0.33258788  1.0
  Cl  Cl40  1  0.40983434  0.76871288  0.55386894  1.0
  Cl  Cl41  1  0.40983434  0.73128712  0.05386894  1.0
  Cl  Cl42  1  0.59016566  0.26871288  0.94613106  1.0
  Cl  Cl43  1  0.59016566  0.23128712  0.44613106  1.0
  Cl  Cl44  1  0.40701625  0.97628424  0.83193228  1.0
  Cl  Cl45  1  0.40701625  0.52371576  0.33193228  1.0
  Cl  Cl46  1  0.59298375  0.47628424  0.66806772  1.0
  Cl  Cl47  1  0.59298375  0.02371576  0.16806772  1.0
