# generated using pymatgen
data_Gd2(Ga3Ir)3
_symmetry_space_group_name_H-M   'P 1'
_cell_length_a   7.59686029
_cell_length_b   7.59686029
_cell_length_c   9.54548051
_cell_angle_alpha   90.00000000
_cell_angle_beta   90.00000000
_cell_angle_gamma   60.20421667
_symmetry_Int_Tables_number   1
_chemical_formula_structural   Gd2(Ga3Ir)3
_chemical_formula_sum   'Gd4 Ga18 Ir6'
_cell_volume   478.06476297
_cell_formula_units_Z   2
loop_
 _symmetry_equiv_pos_site_id
 _symmetry_equiv_pos_as_xyz
  1  'x, y, z'
loop_
 _atom_site_type_symbol
 _atom_site_label
 _atom_site_symmetry_multiplicity
 _atom_site_fract_x
 _atom_site_fract_y
 _atom_site_fract_z
 _atom_site_occupancy
  Gd  Gd0  1  -0.00230547  1.33072330  0.25000000  1.0
  Gd  Gd1  1  0.33072330  0.99769453  0.75000000  1.0
  Gd  Gd2  1  -0.33072330  1.00230547  0.25000000  1.0
  Gd  Gd3  1  0.00230547  0.66927670  0.75000000  1.0
  Ga  Ga4  1  0.00033441  0.66534140  0.42055705  1.0
  Ga  Ga5  1  0.00033441  0.66534140  0.07944295  1.0
  Ga  Ga6  1  -0.33465860  1.00033441  0.92055705  1.0
  Ga  Ga7  1  -0.33465860  1.00033441  0.57944295  1.0
  Ga  Ga8  1  0.33465860  0.99966559  0.42055705  1.0
  Ga  Ga9  1  0.33465860  0.99966559  0.07944295  1.0
  Ga  Ga10  1  -0.00033441  1.33465860  0.92055705  1.0
  Ga  Ga11  1  -0.00033441  1.33465860  0.57944295  1.0
  Ga  Ga12  1  0.33896528  0.45396605  0.25000000  1.0
  Ga  Ga13  1  -0.54603395  1.33896528  0.75000000  1.0
  Ga  Ga14  1  0.54603395  0.66103472  0.25000000  1.0
  Ga  Ga15  1  -0.33896528  1.54603395  0.75000000  1.0
  Ga  Ga16  1  0.33294206  0.66705794  0.93567301  1.0
  Ga  Ga17  1  0.33294206  0.66705794  0.56432699  1.0
  Ga  Ga18  1  -0.33294206  1.33294206  0.43567301  1.0
  Ga  Ga19  1  -0.33294206  1.33294206  0.06432699  1.0
  Ga  Ga20  1  0.12904977  0.87095023  0.25000000  1.0
  Ga  Ga21  1  -0.12904977  1.12904977  0.75000000  1.0
  Ir  Ir22  1  0.67101532  0.67101532  0.50000000  1.0
  Ir  Ir23  1  0.67101532  0.67101532  0.00000000  1.0
  Ir  Ir24  1  0.32898468  0.32898468  0.50000000  1.0
  Ir  Ir25  1  0.32898468  0.32898468  0.00000000  1.0
  Ir  Ir26  1  0.00000000  0.00000000  0.50000000  1.0
  Ir  Ir27  1  0.00000000  0.00000000  0.00000000  1.0
