# generated using pymatgen
data_FeAsO6
_symmetry_space_group_name_H-M   'P 1'
_cell_length_a   8.61686396
_cell_length_b   8.61686396
_cell_length_c   9.66083698
_cell_angle_alpha   90.00000000
_cell_angle_beta   90.00000000
_cell_angle_gamma   120.00000000
_symmetry_Int_Tables_number   1
_chemical_formula_structural   FeAsO6
_chemical_formula_sum   'Fe6 As6 O36'
_cell_volume   621.21775281
_cell_formula_units_Z   6
loop_
 _symmetry_equiv_pos_site_id
 _symmetry_equiv_pos_as_xyz
  1  'x, y, z'
loop_
 _atom_site_type_symbol
 _atom_site_label
 _atom_site_symmetry_multiplicity
 _atom_site_fract_x
 _atom_site_fract_y
 _atom_site_fract_z
 _atom_site_occupancy
  Fe  Fe0  1  0.00000000  0.00000000  0.00000000  1.0
  Fe  Fe1  1  0.00000000  0.00000000  0.50000000  1.0
  Fe  Fe2  1  0.33333333  0.66666667  0.19845249  1.0
  Fe  Fe3  1  0.33333333  0.66666667  0.69845249  1.0
  Fe  Fe4  1  0.66666667  0.33333333  0.30154751  1.0
  Fe  Fe5  1  0.66666667  0.33333333  0.80154751  1.0
  O  O6  1  0.11031901  0.90567023  0.11207852  1.0
  O  O7  1  0.11031901  0.20464878  0.61207852  1.0
  O  O8  1  0.90567023  0.11031901  0.38792148  1.0
  O  O9  1  0.90567023  0.79535122  0.88792148  1.0
  O  O10  1  0.79535122  0.90567023  0.61207852  1.0
  O  O11  1  0.79535122  0.88968099  0.11207852  1.0
  O  O12  1  0.09432977  0.88968099  0.61207852  1.0
  O  O13  1  0.09432977  0.20464878  0.11207852  1.0
  O  O14  1  0.88968099  0.79535122  0.38792148  1.0
  O  O15  1  0.88968099  0.09432977  0.88792148  1.0
  O  O16  1  0.20464878  0.11031901  0.88792148  1.0
  O  O17  1  0.20464878  0.09432977  0.38792148  1.0
  O  O18  1  0.72163994  0.53957621  0.18693953  1.0
  O  O19  1  0.72163994  0.18206372  0.68693953  1.0
  O  O20  1  0.53957621  0.72163994  0.31306047  1.0
  O  O21  1  0.53957621  0.81793628  0.81306047  1.0
  O  O22  1  0.81793628  0.53957621  0.68693953  1.0
  O  O23  1  0.81793628  0.27836006  0.18693953  1.0
  O  O24  1  0.46042379  0.27836006  0.68693953  1.0
  O  O25  1  0.46042379  0.18206372  0.18693953  1.0
  O  O26  1  0.27836006  0.81793628  0.31306047  1.0
  O  O27  1  0.27836006  0.46042379  0.81306047  1.0
  O  O28  1  0.18206372  0.72163994  0.81306047  1.0
  O  O29  1  0.18206372  0.46042379  0.31306047  1.0
  O  O30  1  0.15882082  0.61382077  0.08240862  1.0
  O  O31  1  0.15882082  0.54500005  0.58240862  1.0
  O  O32  1  0.61382077  0.15882082  0.41759138  1.0
  O  O33  1  0.61382077  0.45499995  0.91759138  1.0
  O  O34  1  0.45499995  0.61382077  0.58240862  1.0
  O  O35  1  0.45499995  0.84117918  0.08240862  1.0
  O  O36  1  0.38617923  0.84117918  0.58240862  1.0
  O  O37  1  0.38617923  0.54500005  0.08240862  1.0
  O  O38  1  0.84117918  0.45499995  0.41759138  1.0
  O  O39  1  0.84117918  0.38617923  0.91759138  1.0
  O  O40  1  0.54500005  0.15882082  0.91759138  1.0
  O  O41  1  0.54500005  0.38617923  0.41759138  1.0
  As  As42  1  0.73425130  0.73425130  0.25000000  1.0
  As  As43  1  0.73425130  0.00000000  0.75000000  1.0
  As  As44  1  0.00000000  0.73425130  0.75000000  1.0
  As  As45  1  0.00000000  0.26574870  0.25000000  1.0
  As  As46  1  0.26574870  0.26574870  0.75000000  1.0
  As  As47  1  0.26574870  0.00000000  0.25000000  1.0
