# generated using pymatgen
data_SnH4SNO4F
_symmetry_space_group_name_H-M   'P 1'
_cell_length_a   4.90222206
_cell_length_b   14.97531367
_cell_length_c   8.17994490
_cell_angle_alpha   90.00000000
_cell_angle_beta   89.50783799
_cell_angle_gamma   90.00000000
_symmetry_Int_Tables_number   1
_chemical_formula_structural   SnH4SNO4F
_chemical_formula_sum   'Sn4 H16 S4 N4 O16 F4'
_cell_volume   600.48652076
_cell_formula_units_Z   4
loop_
 _symmetry_equiv_pos_site_id
 _symmetry_equiv_pos_as_xyz
  1  'x, y, z'
loop_
 _atom_site_type_symbol
 _atom_site_label
 _atom_site_symmetry_multiplicity
 _atom_site_fract_x
 _atom_site_fract_y
 _atom_site_fract_z
 _atom_site_occupancy
  Sn  Sn0  1  0.82332897  0.77352438  0.01264984  1.0
  Sn  Sn1  1  0.82332897  0.72647562  0.51264984  1.0
  Sn  Sn2  1  0.17667103  0.27352438  0.48735016  1.0
  Sn  Sn3  1  0.17667103  0.22647562  0.98735016  1.0
  H  H4  1  0.07908741  0.56825460  0.28601699  1.0
  H  H5  1  0.07908741  0.93174540  0.78601699  1.0
  H  H6  1  0.92091259  0.06825460  0.21398301  1.0
  H  H7  1  0.92091259  0.43174540  0.71398301  1.0
  H  H8  1  0.24830461  0.56021080  0.10651545  1.0
  H  H9  1  0.24830461  0.93978920  0.60651545  1.0
  H  H10  1  0.75169539  0.06021080  0.39348455  1.0
  H  H11  1  0.75169539  0.43978920  0.89348455  1.0
  H  H12  1  0.28485803  0.47913473  0.24772661  1.0
  H  H13  1  0.28485803  1.02086527  0.74772661  1.0
  H  H14  1  0.71514197  -0.02086527  0.25227339  1.0
  H  H15  1  0.71514197  0.52086527  0.75227339  1.0
  H  H16  1  0.42562486  0.58047591  0.28054080  1.0
  H  H17  1  0.42562486  0.91952409  0.78054080  1.0
  H  H18  1  0.57437514  0.08047591  0.21945920  1.0
  H  H19  1  0.57437514  0.41952409  0.71945920  1.0
  S  S20  1  0.27686615  0.85320163  0.26641552  1.0
  S  S21  1  0.27686615  0.64679837  0.76641552  1.0
  S  S22  1  0.72313385  0.35320163  0.23358448  1.0
  S  S23  1  0.72313385  0.14679837  0.73358448  1.0
  N  N24  1  0.25946573  0.54723577  0.23117980  1.0
  N  N25  1  0.25946573  0.95276423  0.73117980  1.0
  N  N26  1  0.74053427  0.04723577  0.26882020  1.0
  N  N27  1  0.74053427  0.45276423  0.76882020  1.0
  O  O28  1  0.13159007  0.86972813  0.10552376  1.0
  O  O29  1  0.13159007  0.63027187  0.60552376  1.0
  O  O30  1  0.86840993  0.36972813  0.39447624  1.0
  O  O31  1  0.86840993  0.13027187  0.89447624  1.0
  O  O32  1  0.20833443  0.76000734  0.32284882  1.0
  O  O33  1  0.20833443  0.73999266  0.82284882  1.0
  O  O34  1  0.79166557  0.26000734  0.17715118  1.0
  O  O35  1  0.79166557  0.23999266  0.67715118  1.0
  O  O36  1  0.19602626  0.92113094  0.38751365  1.0
  O  O37  1  0.19602626  0.57886906  0.88751365  1.0
  O  O38  1  0.80397374  0.42113094  0.11248635  1.0
  O  O39  1  0.80397374  0.07886906  0.61248635  1.0
  O  O40  1  0.57883323  0.85890722  0.23196968  1.0
  O  O41  1  0.57883323  0.64109278  0.73196968  1.0
  O  O42  1  0.42116677  0.35890722  0.26803032  1.0
  O  O43  1  0.42116677  0.14109278  0.76803032  1.0
  F  F44  1  0.75379773  0.62352696  0.34659836  1.0
  F  F45  1  0.75379773  0.87647304  0.84659836  1.0
  F  F46  1  0.24620227  0.12352696  0.15340164  1.0
  F  F47  1  0.24620227  0.37647304  0.65340164  1.0
