# generated using pymatgen
data_BiP(PbO2)4
_symmetry_space_group_name_H-M   'P 1'
_cell_length_a   7.37471463
_cell_length_b   6.45469395
_cell_length_c   11.18530218
_cell_angle_alpha   106.44088442
_cell_angle_beta   99.48252177
_cell_angle_gamma   89.97684738
_symmetry_Int_Tables_number   1
_chemical_formula_structural   BiP(PbO2)4
_chemical_formula_sum   'Bi2 P2 Pb8 O16'
_cell_volume   503.08785056
_cell_formula_units_Z   2
loop_
 _symmetry_equiv_pos_site_id
 _symmetry_equiv_pos_as_xyz
  1  'x, y, z'
loop_
 _atom_site_type_symbol
 _atom_site_label
 _atom_site_symmetry_multiplicity
 _atom_site_fract_x
 _atom_site_fract_y
 _atom_site_fract_z
 _atom_site_occupancy
  Bi  Bi0  1  -0.22422352  -0.82485463  -0.89580874  1.0
  Bi  Bi1  1  -0.77577648  -0.17514537  -0.10419126  1.0
  P  P2  1  -0.70269541  -0.75232628  -0.81128619  1.0
  P  P3  1  -0.29730459  -0.24767372  -0.18871381  1.0
  Pb  Pb4  1  -0.38104281  -0.77183644  -0.52802623  1.0
  Pb  Pb5  1  -0.61895719  -0.22816356  -0.47197377  1.0
  Pb  Pb6  1  -0.88512633  -0.77799729  -0.53574412  1.0
  Pb  Pb7  1  -0.11487367  -0.22200271  -0.46425588  1.0
  Pb  Pb8  1  -0.44191745  -0.27791697  -0.79363349  1.0
  Pb  Pb9  1  -0.55808255  -0.72208303  -0.20636651  1.0
  Pb  Pb10  1  -0.95494769  -0.28076563  -0.79763511  1.0
  Pb  Pb11  1  -0.04505231  -0.71923437  -0.20236489  1.0
  O  O12  1  -0.18874831  -0.99263215  -0.75938160  1.0
  O  O13  1  -0.81125169  -0.00736785  -0.24061840  1.0
  O  O14  1  -0.68154723  -0.90639571  -0.72444065  1.0
  O  O15  1  -0.31845277  -0.09360429  -0.27555935  1.0
  O  O16  1  -0.60683380  -0.85020191  -0.42021269  1.0
  O  O17  1  -0.39316620  -0.14979809  -0.57978731  1.0
  O  O18  1  -0.89607706  -0.79518459  -0.89933707  1.0
  O  O19  1  -0.10392294  -0.20481541  -0.10066293  1.0
  O  O20  1  -0.55293309  -0.79589566  -0.89905441  1.0
  O  O21  1  -0.44706691  -0.20410434  -0.10094559  1.0
  O  O22  1  -0.80715493  -0.50247479  -0.22723368  1.0
  O  O23  1  -0.19284507  -0.49752521  -0.77276632  1.0
  O  O24  1  -0.68163426  -0.51119920  -0.72674869  1.0
  O  O25  1  -0.31836574  -0.48880080  -0.27325131  1.0
  O  O26  1  -0.89719770  -0.14555433  -0.58561461  1.0
  O  O27  1  -0.10280230  -0.85444567  -0.41438539  1.0
