# generated using pymatgen
data_ZnSe
_symmetry_space_group_name_H-M   'P 1'
_cell_length_a   4.01676032
_cell_length_b   4.01676032
_cell_length_c   9.14658955
_cell_angle_alpha   90.00000000
_cell_angle_beta   90.00000000
_cell_angle_gamma   120.00000000
_symmetry_Int_Tables_number   1
_chemical_formula_structural   ZnSe
_chemical_formula_sum   'Zn3 Se3'
_cell_volume   127.80317962
_cell_formula_units_Z   3
loop_
 _symmetry_equiv_pos_site_id
 _symmetry_equiv_pos_as_xyz
  1  'x, y, z'
loop_
 _atom_site_type_symbol
 _atom_site_label
 _atom_site_symmetry_multiplicity
 _atom_site_fract_x
 _atom_site_fract_y
 _atom_site_fract_z
 _atom_site_occupancy
  Zn  Zn0  1  0.50027197  0.50027197  0.00000000  1.0
  Zn  Zn1  1  -0.00000000  0.49972803  0.66666667  1.0
  Zn  Zn2  1  0.49972803  0.00000000  0.33333333  1.0
  Se  Se3  1  0.50010467  0.50010467  0.50000000  1.0
  Se  Se4  1  -0.00000000  0.49989533  0.16666667  1.0
  Se  Se5  1  0.49989533  0.00000000  0.83333333  1.0
