# generated using pymatgen
data_LaCoCu12
_symmetry_space_group_name_H-M   'P 1'
_cell_length_a   8.17483748
_cell_length_b   8.17483748
_cell_length_c   8.17483748
_cell_angle_alpha   60.00000000
_cell_angle_beta   60.00000000
_cell_angle_gamma   60.00000000
_symmetry_Int_Tables_number   1
_chemical_formula_structural   LaCoCu12
_chemical_formula_sum   'La2 Co2 Cu24'
_cell_volume   386.29793308
_cell_formula_units_Z   2
loop_
 _symmetry_equiv_pos_site_id
 _symmetry_equiv_pos_as_xyz
  1  'x, y, z'
loop_
 _atom_site_type_symbol
 _atom_site_label
 _atom_site_symmetry_multiplicity
 _atom_site_fract_x
 _atom_site_fract_y
 _atom_site_fract_z
 _atom_site_occupancy
  La  La0  1  0.25000000  0.25000000  0.25000000  1.0
  La  La1  1  0.75000000  -0.25000000  0.75000000  1.0
  Co  Co2  1  0.50000000  0.50000000  -0.50000000  1.0
  Co  Co3  1  -0.00000000  1.00000000  0.00000000  1.0
  Cu  Cu4  1  1.20420339  -0.56215721  0.56215721  1.0
  Cu  Cu5  1  0.56215721  -0.20420339  1.20420339  1.0
  Cu  Cu6  1  0.70420339  0.06215721  0.93784279  1.0
  Cu  Cu7  1  0.93784279  -0.70420339  0.70420339  1.0
  Cu  Cu8  1  0.43784279  0.20420339  -0.20420339  1.0
  Cu  Cu9  1  -0.20420339  0.56215721  0.43784279  1.0
  Cu  Cu10  1  0.06215721  0.70420339  0.29579661  1.0
  Cu  Cu11  1  0.29579661  -0.06215721  0.06215721  1.0
  Cu  Cu12  1  -0.06215721  0.70420339  0.06215721  1.0
  Cu  Cu13  1  -0.70420339  1.06215721  0.70420339  1.0
  Cu  Cu14  1  0.43784279  0.56215721  0.20420339  1.0
  Cu  Cu15  1  0.79579661  0.20420339  0.56215721  1.0
  Cu  Cu16  1  -0.43784279  1.20420339  0.43784279  1.0
  Cu  Cu17  1  -0.20420339  0.43784279  0.20420339  1.0
  Cu  Cu18  1  1.06215721  -0.06215721  0.70420339  1.0
  Cu  Cu19  1  0.29579661  0.70420339  -0.06215721  1.0
  Cu  Cu20  1  -0.29579661  0.93784279  0.29579661  1.0
  Cu  Cu21  1  0.06215721  0.29579661  -0.06215721  1.0
  Cu  Cu22  1  0.20420339  0.79579661  0.43784279  1.0
  Cu  Cu23  1  0.56215721  0.43784279  0.79579661  1.0
  Cu  Cu24  1  0.20420339  0.56215721  -0.20420339  1.0
  Cu  Cu25  1  -0.56215721  0.79579661  0.56215721  1.0
  Cu  Cu26  1  0.70420339  0.29579661  1.06215721  1.0
  Cu  Cu27  1  -0.06215721  1.06215721  0.29579661  1.0
