# generated using pymatgen
data_Y(Ni2B)6
_symmetry_space_group_name_H-M   'P 1'
_cell_length_a   6.01111935
_cell_length_b   6.01111935
_cell_length_c   6.01111935
_cell_angle_alpha   104.39399858
_cell_angle_beta   104.39399858
_cell_angle_gamma   104.39399858
_symmetry_Int_Tables_number   1
_chemical_formula_structural   Y(Ni2B)6
_chemical_formula_sum   'Y1 Ni12 B6'
_cell_volume   192.30606687
_cell_formula_units_Z   1
loop_
 _symmetry_equiv_pos_site_id
 _symmetry_equiv_pos_as_xyz
  1  'x, y, z'
loop_
 _atom_site_type_symbol
 _atom_site_label
 _atom_site_symmetry_multiplicity
 _atom_site_fract_x
 _atom_site_fract_y
 _atom_site_fract_z
 _atom_site_occupancy
  Y  Y0  1  -0.00000000  -0.00000000  -0.00000000  1.0
  Ni  Ni1  1  1.54665959  0.54665959  -0.18670966  1.0
  Ni  Ni2  1  1.54665959  -0.18670966  0.54665959  1.0
  Ni  Ni3  1  1.18670966  0.45334041  -0.54665959  1.0
  Ni  Ni4  1  0.45334041  1.18670966  -0.54665959  1.0
  Ni  Ni5  1  0.45334041  0.45334041  0.18670966  1.0
  Ni  Ni6  1  0.81329034  0.54665959  0.54665959  1.0
  Ni  Ni7  1  1.13019735  0.50000000  -0.13019735  1.0
  Ni  Ni8  1  1.13019735  -0.13019735  0.50000000  1.0
  Ni  Ni9  1  0.50000000  1.13019735  -0.13019735  1.0
  Ni  Ni10  1  0.50000000  0.86980265  0.13019735  1.0
  Ni  Ni11  1  0.86980265  0.50000000  0.13019735  1.0
  Ni  Ni12  1  0.86980265  0.13019735  0.50000000  1.0
  B  B13  1  1.23565412  0.23565412  -0.32927763  1.0
  B  B14  1  1.23565412  -0.32927763  0.23565412  1.0
  B  B15  1  1.32927763  0.76434588  -0.23565412  1.0
  B  B16  1  0.76434588  1.32927763  -0.23565412  1.0
  B  B17  1  0.76434588  0.76434588  0.32927763  1.0
  B  B18  1  0.67072237  0.23565412  0.23565412  1.0
