# generated using pymatgen
data_Sc3Co
_symmetry_space_group_name_H-M   'P 1'
_cell_length_a   13.00395579
_cell_length_b   8.57545315
_cell_length_c   5.81547939
_cell_angle_alpha   90.00000000
_cell_angle_beta   90.00000000
_cell_angle_gamma   90.00000000
_symmetry_Int_Tables_number   1
_chemical_formula_structural   Sc3Co
_chemical_formula_sum   'Sc24 Co8'
_cell_volume   648.51210088
_cell_formula_units_Z   8
loop_
 _symmetry_equiv_pos_site_id
 _symmetry_equiv_pos_as_xyz
  1  'x, y, z'
loop_
 _atom_site_type_symbol
 _atom_site_label
 _atom_site_symmetry_multiplicity
 _atom_site_fract_x
 _atom_site_fract_y
 _atom_site_fract_z
 _atom_site_occupancy
  Sc  Sc0  1  0.96455886  0.93599132  0.24450368  1.0
  Sc  Sc1  1  0.96455886  0.56400868  0.24450368  1.0
  Sc  Sc2  1  0.46455886  0.93599132  0.25549632  1.0
  Sc  Sc3  1  0.46455886  0.56400868  0.25549632  1.0
  Sc  Sc4  1  0.03544114  0.43599132  0.75549632  1.0
  Sc  Sc5  1  0.03544114  0.06400868  0.75549632  1.0
  Sc  Sc6  1  0.53544114  0.43599132  0.74450368  1.0
  Sc  Sc7  1  0.53544114  0.06400868  0.74450368  1.0
  Sc  Sc8  1  0.85385877  0.25000000  0.45110795  1.0
  Sc  Sc9  1  0.35385877  0.25000000  0.04889205  1.0
  Sc  Sc10  1  0.14614123  0.75000000  0.54889205  1.0
  Sc  Sc11  1  0.64614123  0.75000000  0.95110795  1.0
  Sc  Sc12  1  0.60898302  0.25000000  0.21297758  1.0
  Sc  Sc13  1  0.10898302  0.25000000  0.28702242  1.0
  Sc  Sc14  1  0.39101698  0.75000000  0.78702242  1.0
  Sc  Sc15  1  0.89101698  0.75000000  0.71297758  1.0
  Sc  Sc16  1  0.71266984  0.93255515  0.40579639  1.0
  Sc  Sc17  1  0.71266984  0.56744485  0.40579639  1.0
  Sc  Sc18  1  0.21266984  0.93255515  0.09420361  1.0
  Sc  Sc19  1  0.21266984  0.56744485  0.09420361  1.0
  Sc  Sc20  1  0.28733016  0.43255515  0.59420361  1.0
  Sc  Sc21  1  0.28733016  0.06744485  0.59420361  1.0
  Sc  Sc22  1  0.78733016  0.43255515  0.90579639  1.0
  Sc  Sc23  1  0.78733016  0.06744485  0.90579639  1.0
  Co  Co24  1  0.94052364  0.25000000  0.05273287  1.0
  Co  Co25  1  0.44052364  0.25000000  0.44726713  1.0
  Co  Co26  1  0.05947636  0.75000000  0.94726713  1.0
  Co  Co27  1  0.55947636  0.75000000  0.55273287  1.0
  Co  Co28  1  0.67966660  0.25000000  0.62599877  1.0
  Co  Co29  1  0.17966660  0.25000000  0.87400123  1.0
  Co  Co30  1  0.32033340  0.75000000  0.37400123  1.0
  Co  Co31  1  0.82033340  0.75000000  0.12599877  1.0
