# generated using pymatgen
data_YI3
_symmetry_space_group_name_H-M   'P 1'
_cell_length_a   8.83566843
_cell_length_b   8.83566843
_cell_length_c   8.83566843
_cell_angle_alpha   51.60812970
_cell_angle_beta   51.60812970
_cell_angle_gamma   51.60812970
_symmetry_Int_Tables_number   1
_chemical_formula_structural   YI3
_chemical_formula_sum   'Y2 I6'
_cell_volume   391.41765847
_cell_formula_units_Z   2
loop_
 _symmetry_equiv_pos_site_id
 _symmetry_equiv_pos_as_xyz
  1  'x, y, z'
loop_
 _atom_site_type_symbol
 _atom_site_label
 _atom_site_symmetry_multiplicity
 _atom_site_fract_x
 _atom_site_fract_y
 _atom_site_fract_z
 _atom_site_occupancy
  Y  Y0  1  0.16665484  0.16665484  0.16665484  1.0
  Y  Y1  1  0.83334516  -0.16665484  -0.16665484  1.0
  I  I2  1  0.42290068  0.06544666  -0.21984594  1.0
  I  I3  1  0.21984594  0.57709932  -0.06544666  1.0
  I  I4  1  0.93455334  0.21984594  -0.42290068  1.0
  I  I5  1  0.57709932  0.93455334  -0.78015406  1.0
  I  I6  1  0.78015406  -0.57709932  0.06544666  1.0
  I  I7  1  1.06544666  -0.21984594  -0.57709932  1.0
