# generated using pymatgen
data_BaGdCuS3
_symmetry_space_group_name_H-M   'P 1'
_cell_length_a   7.08766264
_cell_length_b   7.08766264
_cell_length_c   10.37119143
_cell_angle_alpha   90.00000000
_cell_angle_beta   90.00000000
_cell_angle_gamma   146.79756871
_symmetry_Int_Tables_number   1
_chemical_formula_structural   BaGdCuS3
_chemical_formula_sum   'Ba2 Gd2 Cu2 S6'
_cell_volume   285.29696944
_cell_formula_units_Z   2
loop_
 _symmetry_equiv_pos_site_id
 _symmetry_equiv_pos_as_xyz
  1  'x, y, z'
loop_
 _atom_site_type_symbol
 _atom_site_label
 _atom_site_symmetry_multiplicity
 _atom_site_fract_x
 _atom_site_fract_y
 _atom_site_fract_z
 _atom_site_occupancy
  Ba  Ba0  1  -0.25498487  0.25498487  0.75000000  1.0
  Ba  Ba1  1  0.25498487  0.74501513  0.25000000  1.0
  Gd  Gd2  1  0.00000000  0.00000000  0.00000000  1.0
  Gd  Gd3  1  0.00000000  0.00000000  0.50000000  1.0
  Cu  Cu4  1  0.46922774  0.53077226  0.75000000  1.0
  Cu  Cu5  1  -0.46922774  0.46922774  0.25000000  1.0
  S  S6  1  0.36819581  0.63180419  0.93289768  1.0
  S  S7  1  0.36819581  0.63180419  0.56710232  1.0
  S  S8  1  -0.36819581  0.36819581  0.43289768  1.0
  S  S9  1  -0.36819581  0.36819581  0.06710232  1.0
  S  S10  1  0.06715686  0.93284314  0.75000000  1.0
  S  S11  1  -0.06715686  0.06715686  0.25000000  1.0
