# generated using pymatgen
data_Cu3BiSe2ClO8
_symmetry_space_group_name_H-M   'P 1'
_cell_length_a   6.40860835
_cell_length_b   9.78209892
_cell_length_c   7.37027879
_cell_angle_alpha   90.00000000
_cell_angle_beta   90.00000000
_cell_angle_gamma   90.00000000
_symmetry_Int_Tables_number   1
_chemical_formula_structural   Cu3BiSe2ClO8
_chemical_formula_sum   'Cu6 Bi2 Se4 Cl2 O16'
_cell_volume   462.04013041
_cell_formula_units_Z   2
loop_
 _symmetry_equiv_pos_site_id
 _symmetry_equiv_pos_as_xyz
  1  'x, y, z'
loop_
 _atom_site_type_symbol
 _atom_site_label
 _atom_site_symmetry_multiplicity
 _atom_site_fract_x
 _atom_site_fract_y
 _atom_site_fract_z
 _atom_site_occupancy
  O  O0  1  0.78871336  0.33308540  0.24442712  1.0
  O  O1  1  0.21128664  0.33308540  0.24442712  1.0
  O  O2  1  0.78871336  0.66691460  0.24442712  1.0
  O  O3  1  0.21128664  0.66691460  0.24442712  1.0
  O  O4  1  0.71128664  0.16691460  0.75557288  1.0
  O  O5  1  0.28871336  0.16691460  0.75557288  1.0
  O  O6  1  0.71128664  0.83308540  0.75557288  1.0
  O  O7  1  0.28871336  0.83308540  0.75557288  1.0
  O  O8  1  0.00000000  0.86815634  0.40982207  1.0
  O  O9  1  0.00000000  0.13184366  0.40982207  1.0
  O  O10  1  0.50000000  0.63184366  0.59017793  1.0
  O  O11  1  0.50000000  0.36815634  0.59017793  1.0
  O  O12  1  0.00000000  0.86413566  0.00825593  1.0
  O  O13  1  0.00000000  0.13586434  0.00825593  1.0
  O  O14  1  0.50000000  0.63586434  0.99174407  1.0
  O  O15  1  0.50000000  0.36413566  0.99174407  1.0
  Cu  Cu16  1  0.75000000  0.75000000  0.00000000  1.0
  Cu  Cu17  1  0.25000000  0.75000000  0.00000000  1.0
  Cu  Cu18  1  0.75000000  0.25000000  0.00000000  1.0
  Cu  Cu19  1  0.25000000  0.25000000  0.00000000  1.0
  Cu  Cu20  1  0.00000000  0.00000000  0.20518573  1.0
  Cu  Cu21  1  0.50000000  0.50000000  0.79481427  1.0
  Se  Se22  1  0.00000000  0.30584142  0.38870149  1.0
  Se  Se23  1  0.00000000  0.69415858  0.38870149  1.0
  Se  Se24  1  0.50000000  0.19415858  0.61129851  1.0
  Se  Se25  1  0.50000000  0.80584142  0.61129851  1.0
  Bi  Bi26  1  0.00000000  0.00000000  0.75434330  1.0
  Bi  Bi27  1  0.50000000  0.50000000  0.24565670  1.0
  Cl  Cl28  1  0.00000000  0.50000000  0.84801516  1.0
  Cl  Cl29  1  0.50000000  0.00000000  0.15198484  1.0
