# generated using pymatgen
data_Ca5Au3
_symmetry_space_group_name_H-M   'P 1'
_cell_length_a   9.15255932
_cell_length_b   9.15255932
_cell_length_c   9.15255932
_cell_angle_alpha   129.11573523
_cell_angle_beta   129.11573523
_cell_angle_gamma   74.82442207
_symmetry_Int_Tables_number   1
_chemical_formula_structural   Ca5Au3
_chemical_formula_sum   'Ca10 Au6'
_cell_volume   449.56365371
_cell_formula_units_Z   2
loop_
 _symmetry_equiv_pos_site_id
 _symmetry_equiv_pos_as_xyz
  1  'x, y, z'
loop_
 _atom_site_type_symbol
 _atom_site_label
 _atom_site_symmetry_multiplicity
 _atom_site_fract_x
 _atom_site_fract_y
 _atom_site_fract_z
 _atom_site_occupancy
  Ca  Ca0  1  1.18660141  0.68660141  1.16158563  1.0
  Ca  Ca1  1  0.47498421  0.97498421  1.16158563  1.0
  Ca  Ca2  1  1.02501579  1.18660141  1.50000000  1.0
  Ca  Ca3  1  0.31339859  0.47498421  0.50000000  1.0
  Ca  Ca4  1  0.68660141  0.52501579  0.50000000  1.0
  Ca  Ca5  1  0.97498421  0.81339859  1.50000000  1.0
  Ca  Ca6  1  0.52501579  1.02501579  0.83841437  1.0
  Ca  Ca7  1  0.81339859  0.31339859  0.83841437  1.0
  Ca  Ca8  1  0.00000000  0.00000000  0.00000000  1.0
  Ca  Ca9  1  0.50000000  0.50000000  1.00000000  1.0
  Au  Au10  1  0.87018127  0.37018127  1.24036255  1.0
  Au  Au11  1  0.62981873  0.87018127  1.50000000  1.0
  Au  Au12  1  0.37018127  0.12981873  0.50000000  1.0
  Au  Au13  1  0.12981873  0.62981873  0.75963745  1.0
  Au  Au14  1  0.75000000  0.75000000  1.00000000  1.0
  Au  Au15  1  0.25000000  0.25000000  -0.00000000  1.0
