# generated using pymatgen
data_VAsRh
_symmetry_space_group_name_H-M   'P 1'
_cell_length_a   6.12591763
_cell_length_b   3.90692600
_cell_length_c   7.30356583
_cell_angle_alpha   90.00000000
_cell_angle_beta   90.00000000
_cell_angle_gamma   90.00000000
_symmetry_Int_Tables_number   1
_chemical_formula_structural   VAsRh
_chemical_formula_sum   'V4 As4 Rh4'
_cell_volume   174.79994269
_cell_formula_units_Z   4
loop_
 _symmetry_equiv_pos_site_id
 _symmetry_equiv_pos_as_xyz
  1  'x, y, z'
loop_
 _atom_site_type_symbol
 _atom_site_label
 _atom_site_symmetry_multiplicity
 _atom_site_fract_x
 _atom_site_fract_y
 _atom_site_fract_z
 _atom_site_occupancy
  V  V0  1  0.96858942  0.75000000  0.68115108  1.0
  V  V1  1  0.46858942  0.75000000  0.81884892  1.0
  V  V2  1  0.03141058  0.25000000  0.31884892  1.0
  V  V3  1  0.53141058  0.25000000  0.18115108  1.0
  As  As4  1  0.76004058  0.75000000  0.38234021  1.0
  As  As5  1  0.26004058  0.75000000  0.11765979  1.0
  As  As6  1  0.23995942  0.25000000  0.61765979  1.0
  As  As7  1  0.73995942  0.25000000  0.88234021  1.0
  Rh  Rh8  1  0.85552064  0.75000000  0.06359515  1.0
  Rh  Rh9  1  0.35552064  0.75000000  0.43640485  1.0
  Rh  Rh10  1  0.14447936  0.25000000  0.93640485  1.0
  Rh  Rh11  1  0.64447936  0.25000000  0.56359515  1.0
