# generated using pymatgen
data_SrCrO4
_symmetry_space_group_name_H-M   'P 1'
_cell_length_a   7.26636684
_cell_length_b   7.26636684
_cell_length_c   7.26636684
_cell_angle_alpha   137.70206922
_cell_angle_beta   137.70206922
_cell_angle_gamma   61.35960104
_symmetry_Int_Tables_number   1
_chemical_formula_structural   SrCrO4
_chemical_formula_sum   'Sr2 Cr2 O8'
_cell_volume   171.80873629
_cell_formula_units_Z   2
loop_
 _symmetry_equiv_pos_site_id
 _symmetry_equiv_pos_as_xyz
  1  'x, y, z'
loop_
 _atom_site_type_symbol
 _atom_site_label
 _atom_site_symmetry_multiplicity
 _atom_site_fract_x
 _atom_site_fract_y
 _atom_site_fract_z
 _atom_site_occupancy
  Sr  Sr0  1  0.25000000  0.75000000  0.50000000  1.0
  Sr  Sr1  1  0.50000000  0.50000000  0.00000000  1.0
  Cr  Cr2  1  0.75000000  0.25000000  0.50000000  1.0
  Cr  Cr3  1  1.00000000  1.00000000  1.00000000  1.0
  O  O4  1  0.56968059  0.41597095  0.63351410  1.0
  O  O5  1  1.18031941  0.83402905  0.86648590  1.0
  O  O6  1  0.78245685  0.93616649  1.36648590  1.0
  O  O7  1  0.96754315  1.31383351  1.13351410  1.0
  O  O8  1  1.16597095  1.03245685  1.34629037  1.0
  O  O9  1  0.58402905  1.21754315  1.15370963  1.0
  O  O10  1  0.68616649  0.81968059  0.65370963  1.0
  O  O11  1  1.06383351  0.43031941  0.84629037  1.0
