# generated using pymatgen
data_InAg(PS3)2
_symmetry_space_group_name_H-M   'P 1'
_cell_length_a   6.26002848
_cell_length_b   6.26002848
_cell_length_c   14.71639741
_cell_angle_alpha   90.00000000
_cell_angle_beta   90.00000000
_cell_angle_gamma   120.00000000
_symmetry_Int_Tables_number   1
_chemical_formula_structural   InAg(PS3)2
_chemical_formula_sum   'In2 Ag2 P4 S12'
_cell_volume   499.44165013
_cell_formula_units_Z   2
loop_
 _symmetry_equiv_pos_site_id
 _symmetry_equiv_pos_as_xyz
  1  'x, y, z'
loop_
 _atom_site_type_symbol
 _atom_site_label
 _atom_site_symmetry_multiplicity
 _atom_site_fract_x
 _atom_site_fract_y
 _atom_site_fract_z
 _atom_site_occupancy
  In  In0  1  0.00000000  0.00000000  0.25000000  1.0
  In  In1  1  0.00000000  0.00000000  0.75000000  1.0
  Ag  Ag2  1  0.66666667  0.33333333  0.25000000  1.0
  Ag  Ag3  1  0.33333333  0.66666667  0.75000000  1.0
  P  P4  1  0.33333333  0.66666667  0.17323274  1.0
  P  P5  1  0.33333333  0.66666667  0.32676726  1.0
  P  P6  1  0.66666667  0.33333333  0.67323274  1.0
  P  P7  1  0.66666667  0.33333333  0.82676726  1.0
  S  S8  1  0.31729275  0.97229247  0.13422951  1.0
  S  S9  1  0.31729275  0.34500029  0.36577049  1.0
  S  S10  1  0.97229247  0.31729275  0.63422951  1.0
  S  S11  1  0.97229247  0.65499971  0.86577049  1.0
  S  S12  1  0.65499971  0.97229247  0.36577049  1.0
  S  S13  1  0.65499971  0.68270725  0.13422951  1.0
  S  S14  1  0.02770753  0.68270725  0.36577049  1.0
  S  S15  1  0.02770753  0.34500029  0.13422951  1.0
  S  S16  1  0.68270725  0.65499971  0.63422951  1.0
  S  S17  1  0.68270725  0.02770753  0.86577049  1.0
  S  S18  1  0.34500029  0.31729275  0.86577049  1.0
  S  S19  1  0.34500029  0.02770753  0.63422951  1.0
