# generated using pymatgen
data_YbFeO3
_symmetry_space_group_name_H-M   'P 1'
_cell_length_a   5.50039483
_cell_length_b   7.49822575
_cell_length_c   5.25284882
_cell_angle_alpha   90.00000000
_cell_angle_beta   90.00000000
_cell_angle_gamma   90.00000000
_symmetry_Int_Tables_number   1
_chemical_formula_structural   YbFeO3
_chemical_formula_sum   'Yb4 Fe4 O12'
_cell_volume   216.64430561
_cell_formula_units_Z   4
loop_
 _symmetry_equiv_pos_site_id
 _symmetry_equiv_pos_as_xyz
  1  'x, y, z'
loop_
 _atom_site_type_symbol
 _atom_site_label
 _atom_site_symmetry_multiplicity
 _atom_site_fract_x
 _atom_site_fract_y
 _atom_site_fract_z
 _atom_site_occupancy
  Yb  Yb0  1  0.06414334  0.75000000  0.51680373  1.0
  Yb  Yb1  1  0.56414334  0.75000000  0.98319627  1.0
  Yb  Yb2  1  0.93585666  0.25000000  0.48319627  1.0
  Yb  Yb3  1  0.43585666  0.25000000  0.01680373  1.0
  Fe  Fe4  1  0.50000000  0.00000000  0.50000000  1.0
  Fe  Fe5  1  0.50000000  0.50000000  0.50000000  1.0
  Fe  Fe6  1  0.00000000  0.00000000  0.00000000  1.0
  Fe  Fe7  1  0.00000000  0.50000000  0.00000000  1.0
  O  O8  1  0.29849312  0.95150105  0.80009498  1.0
  O  O9  1  0.29849312  0.54849895  0.80009498  1.0
  O  O10  1  0.79849312  0.95150105  0.69990502  1.0
  O  O11  1  0.79849312  0.54849895  0.69990502  1.0
  O  O12  1  0.70150688  0.45150105  0.19990502  1.0
  O  O13  1  0.70150688  0.04849895  0.19990502  1.0
  O  O14  1  0.20150688  0.45150105  0.30009498  1.0
  O  O15  1  0.20150688  0.04849895  0.30009498  1.0
  O  O16  1  0.97609756  0.75000000  0.09292826  1.0
  O  O17  1  0.47609756  0.75000000  0.40707174  1.0
  O  O18  1  0.02390244  0.25000000  0.90707174  1.0
  O  O19  1  0.52390244  0.25000000  0.59292826  1.0
