# generated using pymatgen
data_AsS
_symmetry_space_group_name_H-M   'P 1'
_cell_length_a   7.08060353
_cell_length_b   14.82073531
_cell_length_c   10.40681995
_cell_angle_alpha   90.00000000
_cell_angle_beta   115.30007432
_cell_angle_gamma   90.00000000
_symmetry_Int_Tables_number   1
_chemical_formula_structural   AsS
_chemical_formula_sum   'As16 S16'
_cell_volume   987.33808470
_cell_formula_units_Z   16
loop_
 _symmetry_equiv_pos_site_id
 _symmetry_equiv_pos_as_xyz
  1  'x, y, z'
loop_
 _atom_site_type_symbol
 _atom_site_label
 _atom_site_symmetry_multiplicity
 _atom_site_fract_x
 _atom_site_fract_y
 _atom_site_fract_z
 _atom_site_occupancy
  As  As0  1  0.86767093  0.12280831  0.18497405  1.0
  As  As1  1  0.86767093  0.37719169  0.68497405  1.0
  As  As2  1  0.13232907  0.62280831  0.31502595  1.0
  As  As3  1  0.13232907  0.87719169  0.81502595  1.0
  As  As4  1  0.68769219  0.16319165  0.44454387  1.0
  As  As5  1  0.68769219  0.33680835  0.94454387  1.0
  As  As6  1  0.31230781  0.66319165  0.05545613  1.0
  As  As7  1  0.31230781  0.83680835  0.55545613  1.0
  As  As8  1  0.64791921  0.99193510  0.36815386  1.0
  As  As9  1  0.64791921  0.50806490  0.86815386  1.0
  As  As10  1  0.35208079  0.49193510  0.13184614  1.0
  As  As11  1  0.35208079  0.00806490  0.63184614  1.0
  As  As12  1  0.45963447  0.13895517  0.07434901  1.0
  As  As13  1  0.45963447  0.36104483  0.57434901  1.0
  As  As14  1  0.54036553  0.63895517  0.42565099  1.0
  As  As15  1  0.54036553  0.86104483  0.92565099  1.0
  S  S16  1  0.95130086  0.20172969  0.38784578  1.0
  S  S17  1  0.95130086  0.29827031  0.88784578  1.0
  S  S18  1  0.04869914  0.70172969  0.11215422  1.0
  S  S19  1  0.04869914  0.79827031  0.61215422  1.0
  S  S20  1  0.89820545  0.98512397  0.28762883  1.0
  S  S21  1  0.89820545  0.51487603  0.78762883  1.0
  S  S22  1  0.10179455  0.48512397  0.21237117  1.0
  S  S23  1  0.10179455  0.01487603  0.71237117  1.0
  S  S24  1  0.62023197  0.50668071  0.35017971  1.0
  S  S25  1  0.62023197  -0.00668071  0.85017971  1.0
  S  S26  1  0.37976803  1.00668071  0.14982029  1.0
  S  S27  1  0.37976803  0.49331929  0.64982029  1.0
  S  S28  1  0.43144705  0.22251874  0.24752869  1.0
  S  S29  1  0.43144705  0.27748126  0.74752869  1.0
  S  S30  1  0.56855295  0.72251874  0.25247131  1.0
  S  S31  1  0.56855295  0.77748126  0.75247131  1.0
