# generated using pymatgen
data_InCS(OF)3
_symmetry_space_group_name_H-M   'P 1'
_cell_length_a   18.33948154
_cell_length_b   7.44648416
_cell_length_c   5.11479961
_cell_angle_alpha   101.27788121
_cell_angle_beta   94.74565901
_cell_angle_gamma   90.34514900
_symmetry_Int_Tables_number   1
_chemical_formula_structural   InCS(OF)3
_chemical_formula_sum   'In4 C4 S4 O12 F12'
_cell_volume   682.48839262
_cell_formula_units_Z   4
loop_
 _symmetry_equiv_pos_site_id
 _symmetry_equiv_pos_as_xyz
  1  'x, y, z'
loop_
 _atom_site_type_symbol
 _atom_site_label
 _atom_site_symmetry_multiplicity
 _atom_site_fract_x
 _atom_site_fract_y
 _atom_site_fract_z
 _atom_site_occupancy
  In  In0  1  -0.07080529  -0.23384160  -0.08771745  1.0
  In  In1  1  -0.92919471  -0.76615840  -0.91228255  1.0
  In  In2  1  -0.43011798  -0.72781483  -0.04571136  1.0
  In  In3  1  -0.56988202  -0.27218517  -0.95428864  1.0
  C  C4  1  -0.83260425  -0.28434132  -0.39236763  1.0
  C  C5  1  -0.16739575  -0.71565868  -0.60763237  1.0
  C  C6  1  -0.66959668  -0.79597617  -0.49661850  1.0
  C  C7  1  -0.33040332  -0.20402383  -0.50338150  1.0
  S  S8  1  -0.91519182  -0.15187202  -0.47567736  1.0
  S  S9  1  -0.08480818  -0.84812798  -0.52432264  1.0
  S  S10  1  -0.58554376  -0.65903909  -0.52768537  1.0
  S  S11  1  -0.41445624  -0.34096091  -0.47231463  1.0
  O  O12  1  -0.94749886  -0.10055457  -0.21383289  1.0
  O  O13  1  -0.05250114  -0.89944543  -0.78616711  1.0
  O  O14  1  -0.88488278  0.00572063  -0.56570941  1.0
  O  O15  1  -0.11511722  -1.00572063  -0.43429059  1.0
  O  O16  1  -0.96070335  -0.28327563  -0.67380726  1.0
  O  O17  1  -0.03929665  -0.71672437  -0.32619274  1.0
  O  O18  1  -0.54102024  -0.78745003  -0.69822222  1.0
  O  O19  1  -0.45897976  -0.21254997  -0.30177778  1.0
  O  O20  1  -0.55310729  -0.60629489  -0.24549850  1.0
  O  O21  1  -0.44689271  -0.39370511  -0.75450150  1.0
  O  O22  1  -0.61424827  -0.50270384  -0.63526317  1.0
  O  O23  1  -0.38575173  -0.49729616  -0.36473683  1.0
  F  F24  1  -0.78650773  -0.17957447  -0.20250821  1.0
  F  F25  1  -0.21349227  -0.82042553  -0.79749179  1.0
  F  F26  1  -0.79670191  -0.34041103  -0.61322146  1.0
  F  F27  1  -0.20329809  -0.65958897  -0.38677854  1.0
  F  F28  1  -0.85311997  -0.43410306  -0.29971620  1.0
  F  F29  1  -0.14688003  -0.56589694  -0.70028380  1.0
  F  F30  1  -0.65075023  -0.94701342  -0.39757006  1.0
  F  F31  1  -0.34924977  -0.05298658  -0.60242994  1.0
  F  F32  1  -0.71397756  -0.69457691  -0.33065685  1.0
  F  F33  1  -0.28602244  -0.30542309  -0.66934315  1.0
  F  F34  1  -0.70667002  -0.85027617  -0.73933523  1.0
  F  F35  1  -0.29332998  -0.14972383  -0.26066477  1.0
