# generated using pymatgen
data_CsBi3Se5
_symmetry_space_group_name_H-M   'P 1'
_cell_length_a   23.17829497
_cell_length_b   4.21391053
_cell_length_c   12.57064254
_cell_angle_alpha   90.00000000
_cell_angle_beta   90.00000000
_cell_angle_gamma   90.00000000
_symmetry_Int_Tables_number   1
_chemical_formula_structural   CsBi3Se5
_chemical_formula_sum   'Cs4 Bi12 Se20'
_cell_volume   1227.79051149
_cell_formula_units_Z   4
loop_
 _symmetry_equiv_pos_site_id
 _symmetry_equiv_pos_as_xyz
  1  'x, y, z'
loop_
 _atom_site_type_symbol
 _atom_site_label
 _atom_site_symmetry_multiplicity
 _atom_site_fract_x
 _atom_site_fract_y
 _atom_site_fract_z
 _atom_site_occupancy
  Cs  Cs0  1  0.28666947  0.75000000  0.99018553  1.0
  Cs  Cs1  1  0.78666947  0.75000000  0.50981447  1.0
  Cs  Cs2  1  0.71333053  0.25000000  0.00981447  1.0
  Cs  Cs3  1  0.21333053  0.25000000  0.49018553  1.0
  Bi  Bi4  1  0.47633765  0.75000000  0.86362109  1.0
  Bi  Bi5  1  0.97633765  0.75000000  0.63637891  1.0
  Bi  Bi6  1  0.52366235  0.25000000  0.13637891  1.0
  Bi  Bi7  1  0.02366235  0.25000000  0.36362109  1.0
  Bi  Bi8  1  0.37881937  0.75000000  0.30430959  1.0
  Bi  Bi9  1  0.87881937  0.75000000  0.19569041  1.0
  Bi  Bi10  1  0.62118063  0.25000000  0.69569041  1.0
  Bi  Bi11  1  0.12118063  0.25000000  0.80430959  1.0
  Bi  Bi12  1  0.07283563  0.75000000  0.09280475  1.0
  Bi  Bi13  1  0.57283563  0.75000000  0.40719525  1.0
  Bi  Bi14  1  0.92716437  0.25000000  0.90719525  1.0
  Bi  Bi15  1  0.42716437  0.25000000  0.59280475  1.0
  Se  Se16  1  0.43819665  0.75000000  0.08433584  1.0
  Se  Se17  1  0.93819665  0.75000000  0.41566416  1.0
  Se  Se18  1  0.56180335  0.25000000  0.91566416  1.0
  Se  Se19  1  0.06180335  0.25000000  0.58433584  1.0
  Se  Se20  1  0.34762530  0.75000000  0.52641933  1.0
  Se  Se21  1  0.84762530  0.75000000  0.97358067  1.0
  Se  Se22  1  0.65237470  0.25000000  0.47358067  1.0
  Se  Se23  1  0.15237470  0.25000000  0.02641933  1.0
  Se  Se24  1  0.19595004  0.75000000  0.74958134  1.0
  Se  Se25  1  0.69595004  0.75000000  0.75041866  1.0
  Se  Se26  1  0.80404996  0.25000000  0.25041866  1.0
  Se  Se27  1  0.30404996  0.25000000  0.24958134  1.0
  Se  Se28  1  0.10923143  0.75000000  0.30577978  1.0
  Se  Se29  1  0.60923143  0.75000000  0.19422022  1.0
  Se  Se30  1  0.89076857  0.25000000  0.69422022  1.0
  Se  Se31  1  0.39076857  0.25000000  0.80577978  1.0
  Se  Se32  1  0.01925252  0.75000000  0.86088388  1.0
  Se  Se33  1  0.51925252  0.75000000  0.63911612  1.0
  Se  Se34  1  0.98074748  0.25000000  0.13911612  1.0
  Se  Se35  1  0.48074748  0.25000000  0.36088388  1.0
