# generated using pymatgen
data_Fe3B7ClO13
_symmetry_space_group_name_H-M   'P 1'
_cell_length_a   8.64074033
_cell_length_b   8.64074033
_cell_length_c   8.64074033
_cell_angle_alpha   60.00000000
_cell_angle_beta   60.00000000
_cell_angle_gamma   60.00000000
_symmetry_Int_Tables_number   1
_chemical_formula_structural   Fe3B7ClO13
_chemical_formula_sum   'Fe6 B14 Cl2 O26'
_cell_volume   456.18170451
_cell_formula_units_Z   2
loop_
 _symmetry_equiv_pos_site_id
 _symmetry_equiv_pos_as_xyz
  1  'x, y, z'
loop_
 _atom_site_type_symbol
 _atom_site_label
 _atom_site_symmetry_multiplicity
 _atom_site_fract_x
 _atom_site_fract_y
 _atom_site_fract_z
 _atom_site_occupancy
  Fe  Fe0  1  0.50000000  0.00000000  -0.00000000  1.0
  Fe  Fe1  1  1.00000000  0.50000000  -0.50000000  1.0
  Fe  Fe2  1  -0.50000000  0.50000000  1.00000000  1.0
  Fe  Fe3  1  0.00000000  0.50000000  -0.00000000  1.0
  Fe  Fe4  1  0.00000000  0.00000000  0.50000000  1.0
  Fe  Fe5  1  0.50000000  1.00000000  -0.50000000  1.0
  B  B6  1  0.91960194  0.91960194  -0.08039806  1.0
  B  B7  1  0.41960194  1.41960194  0.41960194  1.0
  B  B8  1  0.24119417  0.91960194  -0.08039806  1.0
  B  B9  1  -0.25880583  0.41960194  0.41960194  1.0
  B  B10  1  0.91960194  0.91960194  -0.75880583  1.0
  B  B11  1  0.41960194  1.41960194  -0.25880583  1.0
  B  B12  1  0.91960194  0.24119417  -0.08039806  1.0
  B  B13  1  0.41960194  -0.25880583  0.41960194  1.0
  B  B14  1  -0.75000000  0.75000000  0.75000000  1.0
  B  B15  1  -0.25000000  0.25000000  0.25000000  1.0
  B  B16  1  0.25000000  1.25000000  -0.25000000  1.0
  B  B17  1  -0.25000000  0.25000000  0.75000000  1.0
  B  B18  1  -0.25000000  0.75000000  0.25000000  1.0
  B  B19  1  0.25000000  -0.25000000  0.25000000  1.0
  Cl  Cl20  1  0.75000000  0.75000000  -0.25000000  1.0
  Cl  Cl21  1  0.25000000  0.25000000  0.25000000  1.0
  O  O22  1  0.74395019  1.06333357  -0.10498090  1.0
  O  O23  1  0.24395019  1.39501910  0.56333357  1.0
  O  O24  1  -0.70230286  0.89501910  1.06333357  1.0
  O  O25  1  -0.20230286  0.56333357  0.39501910  1.0
  O  O26  1  0.39501910  1.56333357  0.24395019  1.0
  O  O27  1  -0.10498090  0.74395019  1.06333357  1.0
  O  O28  1  -0.20230286  0.24395019  0.56333357  1.0
  O  O29  1  0.29769714  1.06333357  -0.25604981  1.0
  O  O30  1  1.06333357  0.89501910  -0.25604981  1.0
  O  O31  1  0.56333357  1.24395019  0.39501910  1.0
  O  O32  1  -0.70230286  0.74395019  0.89501910  1.0
  O  O33  1  -0.20230286  0.39501910  0.24395019  1.0
  O  O34  1  1.06333357  0.74395019  -0.70230286  1.0
  O  O35  1  0.39501910  1.24395019  -0.20230286  1.0
  O  O36  1  -0.10498090  0.29769714  0.74395019  1.0
  O  O37  1  0.56333357  -0.20230286  0.24395019  1.0
  O  O38  1  0.56333357  1.39501910  -0.20230286  1.0
  O  O39  1  -0.25604981  0.89501910  0.29769714  1.0
  O  O40  1  0.24395019  -0.20230286  0.39501910  1.0
  O  O41  1  1.06333357  0.29769714  -0.10498090  1.0
  O  O42  1  0.89501910  1.06333357  -0.70230286  1.0
  O  O43  1  0.24395019  1.56333357  -0.20230286  1.0
  O  O44  1  -0.25604981  0.29769714  1.06333357  1.0
  O  O45  1  0.39501910  -0.20230286  0.56333357  1.0
  O  O46  1  0.00000000  0.00000000  0.00000000  1.0
  O  O47  1  -0.50000000  0.50000000  0.50000000  1.0
