# generated using pymatgen
data_MgH4(ClO5)2
_symmetry_space_group_name_H-M   'P 1'
_cell_length_a   7.90249776
_cell_length_b   7.90249776
_cell_length_c   5.51792309
_cell_angle_alpha   75.53204669
_cell_angle_beta   104.46795331
_cell_angle_gamma   141.11476175
_symmetry_Int_Tables_number   1
_chemical_formula_structural   MgH4(ClO5)2
_chemical_formula_sum   'Mg1 H4 Cl2 O10'
_cell_volume   208.59086713
_cell_formula_units_Z   1
loop_
 _symmetry_equiv_pos_site_id
 _symmetry_equiv_pos_as_xyz
  1  'x, y, z'
loop_
 _atom_site_type_symbol
 _atom_site_label
 _atom_site_symmetry_multiplicity
 _atom_site_fract_x
 _atom_site_fract_y
 _atom_site_fract_z
 _atom_site_occupancy
  Mg  Mg0  1  0.50000000  0.50000000  0.00000000  1.0
  H  H1  1  1.48983820  0.21170048  0.79871395  1.0
  H  H2  1  0.78829952  -0.48983820  0.79871395  1.0
  H  H3  1  1.21170048  -0.51016180  0.20128605  1.0
  H  H4  1  1.51016180  -0.21170048  0.20128605  1.0
  Cl  Cl5  1  0.88513410  -0.88513410  0.65870045  1.0
  Cl  Cl6  1  1.11486590  -0.11486590  0.34129955  1.0
  O  O7  1  1.71912267  -0.17192397  0.72244535  1.0
  O  O8  1  1.17192397  -0.71912267  0.72244535  1.0
  O  O9  1  0.82807603  -0.28087733  0.27755465  1.0
  O  O10  1  1.28087733  0.17192397  0.27755465  1.0
  O  O11  1  0.84436943  -0.84436943  0.38733418  1.0
  O  O12  1  1.15563057  -0.15563057  0.61266582  1.0
  O  O13  1  0.81510197  -0.81510197  0.79633114  1.0
  O  O14  1  1.18489803  -0.18489803  0.20366886  1.0
  O  O15  1  0.61698785  -0.61698785  0.87109360  1.0
  O  O16  1  1.38301215  -0.38301215  0.12890640  1.0
