# generated using pymatgen
data_BiSeClO3
_symmetry_space_group_name_H-M   'P 1'
_cell_length_a   12.36978900
_cell_length_b   6.85878667
_cell_length_c   5.42718856
_cell_angle_alpha   90.00000000
_cell_angle_beta   90.00000000
_cell_angle_gamma   90.00000000
_symmetry_Int_Tables_number   1
_chemical_formula_structural   BiSeClO3
_chemical_formula_sum   'Bi4 Se4 Cl4 O12'
_cell_volume   460.45214177
_cell_formula_units_Z   4
loop_
 _symmetry_equiv_pos_site_id
 _symmetry_equiv_pos_as_xyz
  1  'x, y, z'
loop_
 _atom_site_type_symbol
 _atom_site_label
 _atom_site_symmetry_multiplicity
 _atom_site_fract_x
 _atom_site_fract_y
 _atom_site_fract_z
 _atom_site_occupancy
  Bi  Bi0  1  0.45000826  0.20460875  0.00554998  1.0
  Bi  Bi1  1  0.95000826  0.29539125  0.00554998  1.0
  Bi  Bi2  1  0.54999174  0.79539125  0.50554998  1.0
  Bi  Bi3  1  0.04999174  0.70460875  0.50554998  1.0
  Se  Se4  1  0.29474829  0.00965765  0.50503532  1.0
  Se  Se5  1  0.79474829  0.49034235  0.50503532  1.0
  Se  Se6  1  0.70525171  0.99034235  0.00503532  1.0
  Se  Se7  1  0.20525171  0.50965765  0.00503532  1.0
  Cl  Cl8  1  0.44109303  0.39455822  0.50390924  1.0
  Cl  Cl9  1  0.94109303  0.10544178  0.50390924  1.0
  Cl  Cl10  1  0.55890697  0.60544178  1.00390924  1.0
  Cl  Cl11  1  0.05890697  0.89455822  1.00390924  1.0
  O  O12  1  0.38700298  0.96310546  0.26761657  1.0
  O  O13  1  0.88700298  0.53689454  0.26761657  1.0
  O  O14  1  0.61299702  0.03689454  0.76761657  1.0
  O  O15  1  0.11299702  0.46310546  0.76761657  1.0
  O  O16  1  0.27104575  0.29006860  0.00484832  1.0
  O  O17  1  0.77104575  0.20993140  0.00484832  1.0
  O  O18  1  0.72895425  0.70993140  0.50484832  1.0
  O  O19  1  0.22895425  0.79006860  0.50484832  1.0
  O  O20  1  0.11272971  0.46300888  0.24184056  1.0
  O  O21  1  0.61272971  0.03699112  0.24184056  1.0
  O  O22  1  0.88727029  0.53699112  0.74184056  1.0
  O  O23  1  0.38727029  0.96300888  0.74184056  1.0
