# generated using pymatgen
data_LaCoSi3
_symmetry_space_group_name_H-M   'P 1'
_cell_length_a   5.66602914
_cell_length_b   5.66602914
_cell_length_c   5.66602914
_cell_angle_alpha   136.68406062
_cell_angle_beta   136.68406062
_cell_angle_gamma   62.92452114
_symmetry_Int_Tables_number   1
_chemical_formula_structural   LaCoSi3
_chemical_formula_sum   'La1 Co1 Si3'
_cell_volume   84.53630453
_cell_formula_units_Z   1
loop_
 _symmetry_equiv_pos_site_id
 _symmetry_equiv_pos_as_xyz
  1  'x, y, z'
loop_
 _atom_site_type_symbol
 _atom_site_label
 _atom_site_symmetry_multiplicity
 _atom_site_fract_x
 _atom_site_fract_y
 _atom_site_fract_z
 _atom_site_occupancy
  La  La0  1  0.57369978  0.57369978  1.00000000  1.0
  Co  Co1  1  0.23043643  0.23043643  0.00000000  1.0
  Si  Si2  1  0.83005516  0.33005516  0.50000000  1.0
  Si  Si3  1  0.33005516  0.83005516  0.50000000  1.0
  Si  Si4  1  -0.00644652  -0.00644652  -0.00000000  1.0
