# generated using pymatgen
data_CoH10S2(NO2)4
_symmetry_space_group_name_H-M   'P 1'
_cell_length_a   7.46313405
_cell_length_b   5.88592401
_cell_length_c   5.39226571
_cell_angle_alpha   97.55537117
_cell_angle_beta   105.99033623
_cell_angle_gamma   91.12980529
_symmetry_Int_Tables_number   1
_chemical_formula_structural   CoH10S2(NO2)4
_chemical_formula_sum   'Co1 H10 S2 N4 O8'
_cell_volume   225.33747334
_cell_formula_units_Z   1
loop_
 _symmetry_equiv_pos_site_id
 _symmetry_equiv_pos_as_xyz
  1  'x, y, z'
loop_
 _atom_site_type_symbol
 _atom_site_label
 _atom_site_symmetry_multiplicity
 _atom_site_fract_x
 _atom_site_fract_y
 _atom_site_fract_z
 _atom_site_occupancy
  Co  Co0  1  0.00000000  0.00000000  0.00000000  1.0
  H  H1  1  -0.24726542  -0.70345938  -0.88678268  1.0
  H  H2  1  -0.75273458  -0.29654062  -0.11321732  1.0
  H  H3  1  -0.63806982  -0.07497627  -0.91266613  1.0
  H  H4  1  -0.36193018  -0.92502373  -0.08733387  1.0
  H  H5  1  -0.81343401  -0.44782809  -0.76171521  1.0
  H  H6  1  -0.18656599  -0.55217191  -0.23828479  1.0
  H  H7  1  -0.57966431  -0.39460396  -0.72225227  1.0
  H  H8  1  -0.42033569  -0.60539604  -0.27774773  1.0
  H  H9  1  -0.70031575  -0.20883505  -0.56506161  1.0
  H  H10  1  -0.29968425  -0.79116495  -0.43493839  1.0
  S  S11  1  -0.22108348  -0.23734081  -0.62743601  1.0
  S  S12  1  -0.77891652  -0.76265919  -0.37256399  1.0
  N  N13  1  -0.75331365  -0.18573949  -0.94794097  1.0
  N  N14  1  -0.24668635  -0.81426051  -0.05205903  1.0
  N  N15  1  -0.70908599  -0.32179558  -0.73656524  1.0
  N  N16  1  -0.29091401  -0.67820442  -0.26343476  1.0
  O  O17  1  -0.09173836  -0.24653347  -0.79824349  1.0
  O  O18  1  -0.90826164  -0.75346653  -0.20175651  1.0
  O  O19  1  -0.33615700  -0.03284672  -0.66003872  1.0
  O  O20  1  -0.66384300  -0.96715328  -0.33996128  1.0
  O  O21  1  -0.34659290  -0.45181596  -0.70532105  1.0
  O  O22  1  -0.65340710  -0.54818404  -0.29467895  1.0
  O  O23  1  -0.10965566  -0.23349152  -0.34715994  1.0
  O  O24  1  -0.89034434  -0.76650848  -0.65284006  1.0
