# generated using pymatgen
data_Nb3AgO8
_symmetry_space_group_name_H-M   'P 1'
_cell_length_a   7.32879682
_cell_length_b   7.32879682
_cell_length_c   7.32879682
_cell_angle_alpha   118.46484875
_cell_angle_beta   89.63323887
_cell_angle_gamma   121.99070189
_symmetry_Int_Tables_number   1
_chemical_formula_structural   Nb3AgO8
_chemical_formula_sum   'Nb6 Ag2 O16'
_cell_volume   277.04936653
_cell_formula_units_Z   2
loop_
 _symmetry_equiv_pos_site_id
 _symmetry_equiv_pos_as_xyz
  1  'x, y, z'
loop_
 _atom_site_type_symbol
 _atom_site_label
 _atom_site_symmetry_multiplicity
 _atom_site_fract_x
 _atom_site_fract_y
 _atom_site_fract_z
 _atom_site_occupancy
  Nb  Nb0  1  0.76616896  0.75697617  1.52314513  1.0
  Nb  Nb1  1  0.73383104  1.25697617  0.99080722  1.0
  Nb  Nb2  1  1.26616896  0.74302383  1.00919278  1.0
  Nb  Nb3  1  0.23383104  0.24302383  0.47685487  1.0
  Nb  Nb4  1  0.75000000  1.25000000  0.50000000  1.0
  Nb  Nb5  1  0.25000000  0.75000000  0.50000000  1.0
  Ag  Ag6  1  0.75000000  0.75000000  0.00000000  1.0
  Ag  Ag7  1  0.25000000  0.25000000  0.00000000  1.0
  O  O8  1  1.55673602  1.39026541  1.54970889  1.0
  O  O9  1  1.15944348  0.99297287  1.54970889  1.0
  O  O10  1  0.34055652  0.89026541  0.83352939  1.0
  O  O11  1  0.94326398  1.49297287  0.83352939  1.0
  O  O12  1  1.05673602  0.50702713  1.16647061  1.0
  O  O13  1  1.65944348  1.10973459  1.16647061  1.0
  O  O14  1  0.84055652  1.00702713  0.45029111  1.0
  O  O15  1  0.44326398  0.60973459  0.45029111  1.0
  O  O16  1  0.83321553  0.98625430  0.81946983  1.0
  O  O17  1  0.66678447  0.48625430  1.15303877  1.0
  O  O18  1  0.33321553  0.51374570  0.84696123  1.0
  O  O19  1  1.16678447  1.01374570  1.18053017  1.0
  O  O20  1  0.92432874  0.60824648  1.53257521  1.0
  O  O21  1  0.57567126  1.10824648  0.68391774  1.0
  O  O22  1  1.42432874  0.89175352  1.31608226  1.0
  O  O23  1  0.07567126  0.39175352  0.46742479  1.0
