# generated using pymatgen
data_BiSeCl
_symmetry_space_group_name_H-M   'P 1'
_cell_length_a   12.69049689
_cell_length_b   4.14965172
_cell_length_c   7.82805688
_cell_angle_alpha   90.00000000
_cell_angle_beta   90.00000000
_cell_angle_gamma   90.00000000
_symmetry_Int_Tables_number   1
_chemical_formula_structural   BiSeCl
_chemical_formula_sum   'Bi4 Se4 Cl4'
_cell_volume   412.23441674
_cell_formula_units_Z   4
loop_
 _symmetry_equiv_pos_site_id
 _symmetry_equiv_pos_as_xyz
  1  'x, y, z'
loop_
 _atom_site_type_symbol
 _atom_site_label
 _atom_site_symmetry_multiplicity
 _atom_site_fract_x
 _atom_site_fract_y
 _atom_site_fract_z
 _atom_site_occupancy
  Bi  Bi0  1  0.87355765  0.75000000  0.42365734  1.0
  Bi  Bi1  1  0.37355765  0.75000000  0.07634266  1.0
  Bi  Bi2  1  0.12644235  0.25000000  0.57634266  1.0
  Bi  Bi3  1  0.62644235  0.25000000  0.92365734  1.0
  Se  Se4  1  0.99980088  0.75000000  0.71971393  1.0
  Se  Se5  1  0.49980088  0.75000000  0.78028607  1.0
  Se  Se6  1  0.00019912  0.25000000  0.28028607  1.0
  Se  Se7  1  0.50019912  0.25000000  0.21971393  1.0
  Cl  Cl8  1  0.75674832  0.75000000  0.08807608  1.0
  Cl  Cl9  1  0.25674832  0.75000000  0.41192392  1.0
  Cl  Cl10  1  0.24325168  0.25000000  0.91192392  1.0
  Cl  Cl11  1  0.74325168  0.25000000  0.58807608  1.0
