# generated using pymatgen
data_KC2N3
_symmetry_space_group_name_H-M   'P 1'
_cell_length_a   8.41154013
_cell_length_b   6.66964126
_cell_length_c   7.47623068
_cell_angle_alpha   90.00000000
_cell_angle_beta   90.00000000
_cell_angle_gamma   90.00000000
_symmetry_Int_Tables_number   1
_chemical_formula_structural   KC2N3
_chemical_formula_sum   'K4 C8 N12'
_cell_volume   419.43115831
_cell_formula_units_Z   4
loop_
 _symmetry_equiv_pos_site_id
 _symmetry_equiv_pos_as_xyz
  1  'x, y, z'
loop_
 _atom_site_type_symbol
 _atom_site_label
 _atom_site_symmetry_multiplicity
 _atom_site_fract_x
 _atom_site_fract_y
 _atom_site_fract_z
 _atom_site_occupancy
  K  K0  1  0.31945349  0.75000000  0.00000000  1.0
  K  K1  1  0.31945349  0.75000000  0.50000000  1.0
  K  K2  1  0.68054651  0.25000000  0.00000000  1.0
  K  K3  1  0.68054651  0.25000000  0.50000000  1.0
  C  C4  1  0.94014362  0.84629225  0.75000000  1.0
  C  C5  1  0.94014362  0.65370775  0.25000000  1.0
  C  C6  1  0.05985638  0.34629225  0.75000000  1.0
  C  C7  1  0.05985638  0.15370775  0.25000000  1.0
  C  C8  1  0.68094029  0.73098710  0.75000000  1.0
  C  C9  1  0.68094029  0.76901290  0.25000000  1.0
  C  C10  1  0.31905971  0.23098710  0.75000000  1.0
  C  C11  1  0.31905971  0.26901290  0.25000000  1.0
  N  N12  1  0.91985748  0.34326377  0.75000000  1.0
  N  N13  1  0.91985748  0.15673623  0.25000000  1.0
  N  N14  1  0.08014252  0.84326377  0.75000000  1.0
  N  N15  1  0.08014252  0.65673623  0.25000000  1.0
  N  N16  1  0.78663618  0.87217762  0.75000000  1.0
  N  N17  1  0.78663618  0.62782238  0.25000000  1.0
  N  N18  1  0.21336382  0.37217762  0.75000000  1.0
  N  N19  1  0.21336382  0.12782238  0.25000000  1.0
  N  N20  1  0.57243717  0.61774670  0.75000000  1.0
  N  N21  1  0.57243717  0.88225330  0.25000000  1.0
  N  N22  1  0.42756283  0.11774670  0.75000000  1.0
  N  N23  1  0.42756283  0.38225330  0.25000000  1.0
