# generated using pymatgen
data_SiNi2(P2O7)2
_symmetry_space_group_name_H-M   'P 1'
_cell_length_a   8.90654048
_cell_length_b   8.90654048
_cell_length_c   12.37964663
_cell_angle_alpha   77.05018646
_cell_angle_beta   102.94981354
_cell_angle_gamma   147.54301483
_symmetry_Int_Tables_number   1
_chemical_formula_structural   SiNi2(P2O7)2
_chemical_formula_sum   'Si2 Ni4 P8 O28'
_cell_volume   512.46867453
_cell_formula_units_Z   2
loop_
 _symmetry_equiv_pos_site_id
 _symmetry_equiv_pos_as_xyz
  1  'x, y, z'
loop_
 _atom_site_type_symbol
 _atom_site_label
 _atom_site_symmetry_multiplicity
 _atom_site_fract_x
 _atom_site_fract_y
 _atom_site_fract_z
 _atom_site_occupancy
  Si  Si0  1  0.65688095  0.65688095  0.75000000  1.0
  Si  Si1  1  0.34311905  0.34311905  0.25000000  1.0
  Ni  Ni2  1  0.59578189  0.09999329  0.62868899  1.0
  Ni  Ni3  1  0.90000671  0.40421811  0.12868899  1.0
  Ni  Ni4  1  1.09999329  0.59578189  0.87131101  1.0
  Ni  Ni5  1  0.40421811  -0.09999329  0.37131101  1.0
  P  P6  1  0.73735853  -0.00703796  0.86173212  1.0
  P  P7  1  1.00703796  0.26264147  0.36173212  1.0
  P  P8  1  0.99296204  0.73735853  0.63826788  1.0
  P  P9  1  0.26264147  0.00703796  0.13826788  1.0
  P  P10  1  0.47233754  0.19925970  0.91712429  1.0
  P  P11  1  0.80074030  0.52766246  0.41712429  1.0
  P  P12  1  1.19925970  0.47233754  0.58287571  1.0
  P  P13  1  0.52766246  -0.19925970  0.08287571  1.0
  O  O14  1  0.80367231  -0.10315753  0.82037052  1.0
  O  O15  1  1.10315753  0.19632769  0.32037052  1.0
  O  O16  1  0.89684247  0.80367231  0.67962948  1.0
  O  O17  1  0.19632769  0.10315753  0.17962948  1.0
  O  O18  1  0.62012806  -0.18852298  0.97983213  1.0
  O  O19  1  1.18852298  0.37987194  0.47983213  1.0
  O  O20  1  0.81147702  0.62012806  0.52016787  1.0
  O  O21  1  0.37987194  0.18852298  0.02016787  1.0
  O  O22  1  0.49671479  -0.11294906  0.79123776  1.0
  O  O23  1  1.11294906  0.50328521  0.29123776  1.0
  O  O24  1  0.88705094  0.49671479  0.70876224  1.0
  O  O25  1  0.50328521  0.11294906  0.20876224  1.0
  O  O26  1  0.66492266  0.25607054  0.45610218  1.0
  O  O27  1  0.74392946  0.33507734  0.95610218  1.0
  O  O28  1  1.25607054  0.66492266  0.04389782  1.0
  O  O29  1  0.33507734  -0.25607054  0.54389782  1.0
  O  O30  1  0.22975519  -0.08214815  0.86922259  1.0
  O  O31  1  1.08214815  0.77024481  0.36922259  1.0
  O  O32  1  0.91785185  0.22975519  0.63077741  1.0
  O  O33  1  0.77024481  0.08214815  0.13077741  1.0
  O  O34  1  0.30158685  0.01083087  0.62221048  1.0
  O  O35  1  0.98916913  0.69841315  0.12221048  1.0
  O  O36  1  1.01083087  0.30158685  0.87778952  1.0
  O  O37  1  0.69841315  -0.01083087  0.37778952  1.0
  O  O38  1  0.52852218  0.40294778  0.83347093  1.0
  O  O39  1  0.59705222  0.47147782  0.33347093  1.0
  O  O40  1  1.40294778  0.52852218  0.66652907  1.0
  O  O41  1  0.47147782  -0.40294778  0.16652907  1.0
