# generated using pymatgen
data_CaCrO4
_symmetry_space_group_name_H-M   'P 1'
_cell_length_a   6.06539026
_cell_length_b   6.06539026
_cell_length_c   6.06539026
_cell_angle_alpha   105.66712291
_cell_angle_beta   105.66712291
_cell_angle_gamma   117.38091350
_symmetry_Int_Tables_number   1
_chemical_formula_structural   CaCrO4
_chemical_formula_sum   'Ca2 Cr2 O8'
_cell_volume   169.28599415
_cell_formula_units_Z   2
loop_
 _symmetry_equiv_pos_site_id
 _symmetry_equiv_pos_as_xyz
  1  'x, y, z'
loop_
 _atom_site_type_symbol
 _atom_site_label
 _atom_site_symmetry_multiplicity
 _atom_site_fract_x
 _atom_site_fract_y
 _atom_site_fract_z
 _atom_site_occupancy
  Ca  Ca0  1  0.25000000  0.75000000  0.50000000  1.0
  Ca  Ca1  1  0.50000000  0.50000000  0.00000000  1.0
  Cr  Cr2  1  0.00000000  0.00000000  0.00000000  1.0
  Cr  Cr3  1  0.75000000  1.25000000  0.50000000  1.0
  O  O4  1  0.59034008  0.91129697  0.32095689  1.0
  O  O5  1  1.66129697  0.84034008  0.82095689  1.0
  O  O6  1  1.01938319  0.84034008  1.17904311  1.0
  O  O7  1  0.59034008  1.26938319  0.67904311  1.0
  O  O8  1  0.15965992  0.33870303  0.17904311  1.0
  O  O9  1  1.08870303  1.40965992  0.67904311  1.0
  O  O10  1  0.73061681  0.40965992  0.32095689  1.0
  O  O11  1  0.15965992  0.98061681  0.82095689  1.0
