# generated using pymatgen
data_Sc3Zn17
_symmetry_space_group_name_H-M   'P 1'
_cell_length_a   11.92464268
_cell_length_b   11.92464268
_cell_length_c   11.92464268
_cell_angle_alpha   109.47122063
_cell_angle_beta   109.47122063
_cell_angle_gamma   109.47122063
_symmetry_Int_Tables_number   1
_chemical_formula_structural   Sc3Zn17
_chemical_formula_sum   'Sc12 Zn68'
_cell_volume   1305.31170464
_cell_formula_units_Z   4
loop_
 _symmetry_equiv_pos_site_id
 _symmetry_equiv_pos_as_xyz
  1  'x, y, z'
loop_
 _atom_site_type_symbol
 _atom_site_label
 _atom_site_symmetry_multiplicity
 _atom_site_fract_x
 _atom_site_fract_y
 _atom_site_fract_z
 _atom_site_occupancy
  Sc  Sc0  1  0.81153034  1.30031066  1.11184100  1.0
  Sc  Sc1  1  0.81153034  0.69968934  0.51121969  1.0
  Sc  Sc2  1  0.18846966  0.30031066  0.48878031  1.0
  Sc  Sc3  1  0.18846966  0.69968934  0.88815900  1.0
  Sc  Sc4  1  0.51121969  0.81153034  0.69968934  1.0
  Sc  Sc5  1  1.11184100  0.81153034  1.30031066  1.0
  Sc  Sc6  1  0.69968934  0.88815900  0.18846966  1.0
  Sc  Sc7  1  0.69968934  0.51121969  0.81153034  1.0
  Sc  Sc8  1  0.88815900  0.18846966  0.69968934  1.0
  Sc  Sc9  1  0.48878031  0.18846966  0.30031066  1.0
  Sc  Sc10  1  0.30031066  0.48878031  0.18846966  1.0
  Sc  Sc11  1  1.30031066  1.11184100  0.81153034  1.0
  Zn  Zn12  1  1.54472079  1.08415567  0.86055973  1.0
  Zn  Zn13  1  0.54472079  0.68416106  0.46056512  1.0
  Zn  Zn14  1  1.22359594  1.08415567  0.53943488  1.0
  Zn  Zn15  1  1.22359594  0.68416106  1.13944027  1.0
  Zn  Zn16  1  0.46056512  0.77640406  0.91584433  1.0
  Zn  Zn17  1  0.46056512  0.54472079  0.68416106  1.0
  Zn  Zn18  1  0.86055973  0.77640406  0.31583894  1.0
  Zn  Zn19  1  0.86055973  1.54472079  1.08415567  1.0
  Zn  Zn20  1  0.68416106  1.13944027  1.22359594  1.0
  Zn  Zn21  1  0.68416106  0.46056512  0.54472079  1.0
  Zn  Zn22  1  0.91584433  1.13944027  1.45527921  1.0
  Zn  Zn23  1  0.91584433  0.46056512  0.77640406  1.0
  Zn  Zn24  1  0.77640406  0.31583894  0.86055973  1.0
  Zn  Zn25  1  0.77640406  0.91584433  0.46056512  1.0
  Zn  Zn26  1  0.45527921  0.31583894  0.53943488  1.0
  Zn  Zn27  1  1.45527921  0.91584433  1.13944027  1.0
  Zn  Zn28  1  1.13944027  1.45527921  0.91584433  1.0
  Zn  Zn29  1  1.13944027  1.22359594  0.68416106  1.0
  Zn  Zn30  1  0.53943488  0.45527921  0.31583894  1.0
  Zn  Zn31  1  0.53943488  1.22359594  1.08415567  1.0
  Zn  Zn32  1  1.08415567  0.53943488  1.22359594  1.0
  Zn  Zn33  1  1.08415567  0.86055973  1.54472079  1.0
  Zn  Zn34  1  0.31583894  0.53943488  0.45527921  1.0
  Zn  Zn35  1  0.31583894  0.86055973  0.77640406  1.0
  Zn  Zn36  1  0.76987270  0.09015132  0.86002401  1.0
  Zn  Zn37  1  0.76987270  0.90984868  0.67972138  1.0
  Zn  Zn38  1  0.23012730  0.09015132  0.32027862  1.0
  Zn  Zn39  1  1.23012730  0.90984868  1.13997599  1.0
  Zn  Zn40  1  0.67972138  0.76987270  0.90984868  1.0
  Zn  Zn41  1  0.86002401  0.76987270  0.09015132  1.0
  Zn  Zn42  1  0.90984868  1.13997599  1.23012730  1.0
  Zn  Zn43  1  0.90984868  0.67972138  0.76987270  1.0
  Zn  Zn44  1  1.13997599  1.23012730  0.90984868  1.0
  Zn  Zn45  1  0.32027862  0.23012730  0.09015132  1.0
  Zn  Zn46  1  0.09015132  0.32027862  0.23012730  1.0
  Zn  Zn47  1  0.09015132  0.86002401  0.76987270  1.0
  Zn  Zn48  1  0.59603021  0.34607702  0.94210723  1.0
  Zn  Zn49  1  0.59603021  0.65392298  0.24995319  1.0
  Zn  Zn50  1  0.40396979  0.34607702  0.75004681  1.0
  Zn  Zn51  1  1.40396979  0.65392298  1.05789277  1.0
  Zn  Zn52  1  0.24995319  0.59603021  0.65392298  1.0
  Zn  Zn53  1  0.94210723  0.59603021  0.34607702  1.0
  Zn  Zn54  1  0.65392298  1.05789277  1.40396979  1.0
  Zn  Zn55  1  0.65392298  0.24995319  0.59603021  1.0
  Zn  Zn56  1  1.05789277  1.40396979  0.65392298  1.0
  Zn  Zn57  1  0.75004681  0.40396979  0.34607702  1.0
  Zn  Zn58  1  0.34607702  0.75004681  0.40396979  1.0
  Zn  Zn59  1  0.34607702  0.94210723  0.59603021  1.0
  Zn  Zn60  1  0.68346842  1.00000000  1.00000000  1.0
  Zn  Zn61  1  0.68346842  0.68346842  0.68346842  1.0
  Zn  Zn62  1  1.00000000  1.00000000  0.31653158  1.0
  Zn  Zn63  1  1.00000000  0.68346842  1.00000000  1.0
  Zn  Zn64  1  1.00000000  0.31653158  1.00000000  1.0
  Zn  Zn65  1  1.00000000  1.00000000  0.68346842  1.0
  Zn  Zn66  1  0.31653158  0.31653158  0.31653158  1.0
  Zn  Zn67  1  0.31653158  1.00000000  1.00000000  1.0
  Zn  Zn68  1  0.80963738  0.30963738  0.50000000  1.0
  Zn  Zn69  1  0.50000000  0.19036262  0.69036262  1.0
  Zn  Zn70  1  0.50000000  0.80963738  0.30963738  1.0
  Zn  Zn71  1  0.30963738  0.50000000  0.80963738  1.0
  Zn  Zn72  1  0.69036262  0.50000000  0.19036262  1.0
  Zn  Zn73  1  0.19036262  0.69036262  0.50000000  1.0
  Zn  Zn74  1  0.59563953  0.59563953  0.00000000  1.0
  Zn  Zn75  1  0.00000000  0.40436047  0.40436047  1.0
  Zn  Zn76  1  0.00000000  0.59563953  0.59563953  1.0
  Zn  Zn77  1  0.59563953  0.00000000  0.59563953  1.0
  Zn  Zn78  1  0.40436047  0.00000000  0.40436047  1.0
  Zn  Zn79  1  0.40436047  0.40436047  0.00000000  1.0
