# generated using pymatgen
data_K4Mo2H6S2O9
_symmetry_space_group_name_H-M   'P 1'
_cell_length_a   6.54477811
_cell_length_b   6.54477811
_cell_length_c   18.92066011
_cell_angle_alpha   82.58010552
_cell_angle_beta   97.41989448
_cell_angle_gamma   99.83212421
_symmetry_Int_Tables_number   1
_chemical_formula_structural   K4Mo2H6S2O9
_chemical_formula_sum   'K8 Mo4 H12 S4 O18'
_cell_volume   787.08898166
_cell_formula_units_Z   2
loop_
 _symmetry_equiv_pos_site_id
 _symmetry_equiv_pos_as_xyz
  1  'x, y, z'
loop_
 _atom_site_type_symbol
 _atom_site_label
 _atom_site_symmetry_multiplicity
 _atom_site_fract_x
 _atom_site_fract_y
 _atom_site_fract_z
 _atom_site_occupancy
  K  K0  1  1.74060856  -0.13311693  0.93933874  1.0
  K  K1  1  1.13311693  -0.74060856  0.43933874  1.0
  K  K2  1  0.86688307  0.74060856  0.56066126  1.0
  K  K3  1  0.25939144  0.13311693  0.06066126  1.0
  K  K4  1  1.21711751  -0.19942562  0.78493063  1.0
  K  K5  1  1.19942562  -0.21711751  0.28493063  1.0
  K  K6  1  0.80057438  0.21711751  0.71506937  1.0
  K  K7  1  0.78288249  0.19942562  0.21506937  1.0
  Mo  Mo8  1  0.45933411  0.30651881  0.88008226  1.0
  Mo  Mo9  1  0.69348119  0.54066589  0.38008226  1.0
  Mo  Mo10  1  1.30651881  -0.54066589  0.61991774  1.0
  Mo  Mo11  1  1.54066589  -0.30651881  0.11991774  1.0
  H  H12  1  1.70719851  -0.28700298  0.79013530  1.0
  H  H13  1  1.28700298  -0.70719851  0.29013530  1.0
  H  H14  1  0.71299702  0.70719851  0.70986470  1.0
  H  H15  1  0.29280149  0.28700298  0.20986470  1.0
  H  H16  1  0.71231906  0.20822737  0.53421805  1.0
  H  H17  1  0.79177263  0.28768094  0.03421805  1.0
  H  H18  1  1.20822737  -0.28768094  0.96578195  1.0
  H  H19  1  1.28768094  -0.20822737  0.46578195  1.0
  H  H20  1  0.54463885  0.07645811  0.57969802  1.0
  H  H21  1  0.92354189  0.45536115  0.07969802  1.0
  H  H22  1  1.07645811  -0.45536115  0.92030198  1.0
  H  H23  1  1.45536115  -0.07645811  0.42030198  1.0
  S  S24  1  1.75675254  -0.10960882  0.37747008  1.0
  S  S25  1  1.10960882  -0.75675254  0.87747008  1.0
  S  S26  1  0.89039118  0.75675254  0.12252992  1.0
  S  S27  1  0.24324746  0.10960882  0.62252992  1.0
  O  O28  1  1.54093319  -0.42628797  0.85077114  1.0
  O  O29  1  1.42628797  -0.54093319  0.35077114  1.0
  O  O30  1  0.57371203  0.54093319  0.64922886  1.0
  O  O31  1  0.45906681  0.42628797  0.14922886  1.0
  O  O32  1  0.69274497  0.08918868  0.57203044  1.0
  O  O33  1  0.91081132  0.30725503  0.07203044  1.0
  O  O34  1  1.08918868  -0.30725503  0.92796956  1.0
  O  O35  1  1.30725503  -0.08918868  0.42796956  1.0
  O  O36  1  0.53702716  0.14038002  0.82588885  1.0
  O  O37  1  0.85961998  0.46297284  0.32588885  1.0
  O  O38  1  1.14038002  -0.46297284  0.67411115  1.0
  O  O39  1  1.46297284  -0.14038002  0.17411115  1.0
  O  O40  1  0.57163990  0.24665002  0.96889756  1.0
  O  O41  1  0.75334998  0.42836010  0.46889756  1.0
  O  O42  1  1.24665002  -0.42836010  0.53110244  1.0
  O  O43  1  1.42836010  -0.24665002  0.03110244  1.0
  O  O44  1  0.78508042  0.78508042  0.75000000  1.0
  O  O45  1  0.21491958  0.21491958  0.25000000  1.0
