# generated using pymatgen
data_S4I2O15
_symmetry_space_group_name_H-M   'P 1'
_cell_length_a   9.39999476
_cell_length_b   6.72631515
_cell_length_c   5.95077462
_cell_angle_alpha   106.58307956
_cell_angle_beta   93.45105112
_cell_angle_gamma   93.84521714
_symmetry_Int_Tables_number   1
_chemical_formula_structural   S4I2O15
_chemical_formula_sum   'S4 I2 O15'
_cell_volume   358.54993904
_cell_formula_units_Z   1
loop_
 _symmetry_equiv_pos_site_id
 _symmetry_equiv_pos_as_xyz
  1  'x, y, z'
loop_
 _atom_site_type_symbol
 _atom_site_label
 _atom_site_symmetry_multiplicity
 _atom_site_fract_x
 _atom_site_fract_y
 _atom_site_fract_z
 _atom_site_occupancy
  S  S0  1  -0.85670987  -0.31436618  -0.72609647  1.0
  S  S1  1  -0.22323566  -0.78913885  -0.54505196  1.0
  S  S2  1  -0.29763516  -0.35449418  -0.38081807  1.0
  S  S3  1  -0.64677652  -0.83722631  -0.10776185  1.0
  I  I4  1  -0.56801355  -0.35526191  -0.06758333  1.0
  I  I5  1  -0.94480018  -0.80490835  -0.83108199  1.0
  O  O6  1  -0.71566717  -0.82327026  -0.87676675  1.0
  O  O7  1  -0.52654247  -0.64307413  -0.03122988  1.0
  O  O8  1  -0.92763176  -0.53113247  -0.91303551  1.0
  O  O9  1  -0.46122154  -0.43138549  -0.37387715  1.0
  O  O10  1  -0.69560027  -0.31487991  -0.74608567  1.0
  O  O11  1  -0.24754799  -0.19153138  -0.17186401  1.0
  O  O12  1  -0.21112434  -0.55129169  -0.35055687  1.0
  O  O13  1  -0.16407438  -0.75128464  -0.77103978  1.0
  O  O14  1  -0.74492777  -0.82046742  -0.29518110  1.0
  O  O15  1  -0.28663286  -0.33914115  -0.61482706  1.0
  O  O16  1  -0.55843021  -0.01557042  -0.15447857  1.0
  O  O17  1  -0.88793120  -0.30752086  -0.49048110  1.0
  O  O18  1  -0.37208855  -0.86014564  -0.59877319  1.0
  O  O19  1  -0.91911756  -0.16828467  -0.83860405  1.0
  O  O20  1  -0.12360997  -0.89081909  -0.43242264  1.0
