# generated using pymatgen
data_La3MgAlS7
_symmetry_space_group_name_H-M   'P 1'
_cell_length_a   10.25407683
_cell_length_b   10.25407683
_cell_length_c   6.15381225
_cell_angle_alpha   90.00000000
_cell_angle_beta   90.00000000
_cell_angle_gamma   120.00000000
_symmetry_Int_Tables_number   1
_chemical_formula_structural   La3MgAlS7
_chemical_formula_sum   'La6 Mg2 Al2 S14'
_cell_volume   560.36113638
_cell_formula_units_Z   2
loop_
 _symmetry_equiv_pos_site_id
 _symmetry_equiv_pos_as_xyz
  1  'x, y, z'
loop_
 _atom_site_type_symbol
 _atom_site_label
 _atom_site_symmetry_multiplicity
 _atom_site_fract_x
 _atom_site_fract_y
 _atom_site_fract_z
 _atom_site_occupancy
  La  La0  1  0.76410854  0.62396268  0.22108899  1.0
  La  La1  1  0.62396268  0.85985414  0.72108899  1.0
  La  La2  1  0.85985414  0.23589146  0.22108899  1.0
  La  La3  1  0.37603732  0.14014586  0.22108899  1.0
  La  La4  1  0.23589146  0.37603732  0.72108899  1.0
  La  La5  1  0.14014586  0.76410854  0.72108899  1.0
  Mg  Mg6  1  0.00000000  0.00000000  0.01703443  1.0
  Mg  Mg7  1  0.00000000  0.00000000  0.51703443  1.0
  Al  Al8  1  0.33333333  0.66666667  0.14105186  1.0
  Al  Al9  1  0.66666667  0.33333333  0.64105186  1.0
  S  S10  1  0.41699946  0.89777081  -0.00614994  1.0
  S  S11  1  0.89777081  0.48077135  0.49385006  1.0
  S  S12  1  0.48077135  0.58300054  -0.00614994  1.0
  S  S13  1  0.10222919  0.51922865  -0.00614994  1.0
  S  S14  1  0.58300054  0.10222919  0.49385006  1.0
  S  S15  1  0.51922865  0.41699946  0.49385006  1.0
  S  S16  1  0.08952625  0.85501948  0.27437076  1.0
  S  S17  1  0.85501948  0.76549323  0.77437076  1.0
  S  S18  1  0.76549323  0.91047375  0.27437076  1.0
  S  S19  1  0.14498052  0.23450677  0.27437076  1.0
  S  S20  1  0.91047375  0.14498052  0.77437076  1.0
  S  S21  1  0.23450677  0.08952625  0.77437076  1.0
  S  S22  1  0.33333333  0.66666667  0.50498430  1.0
  S  S23  1  0.66666667  0.33333333  0.00498430  1.0
