# generated using pymatgen
data_Ba2LiN
_symmetry_space_group_name_H-M   'P 1'
_cell_length_a   8.16438296
_cell_length_b   8.16438296
_cell_length_c   15.98320293
_cell_angle_alpha   90.00000000
_cell_angle_beta   90.00000000
_cell_angle_gamma   90.00000000
_symmetry_Int_Tables_number   1
_chemical_formula_structural   Ba2LiN
_chemical_formula_sum   'Ba16 Li8 N8'
_cell_volume   1065.39474201
_cell_formula_units_Z   8
loop_
 _symmetry_equiv_pos_site_id
 _symmetry_equiv_pos_as_xyz
  1  'x, y, z'
loop_
 _atom_site_type_symbol
 _atom_site_label
 _atom_site_symmetry_multiplicity
 _atom_site_fract_x
 _atom_site_fract_y
 _atom_site_fract_z
 _atom_site_occupancy
  Ba  Ba0  1  0.26640123  0.50000000  0.91507770  1.0
  Ba  Ba1  1  0.73359877  0.50000000  0.91507770  1.0
  Ba  Ba2  1  0.00000000  0.76640123  0.41507770  1.0
  Ba  Ba3  1  0.00000000  0.23359877  0.41507770  1.0
  Ba  Ba4  1  0.23359877  0.00000000  0.58492230  1.0
  Ba  Ba5  1  0.76640123  0.00000000  0.58492230  1.0
  Ba  Ba6  1  0.50000000  0.73359877  0.08492230  1.0
  Ba  Ba7  1  0.50000000  0.26640123  0.08492230  1.0
  Ba  Ba8  1  0.77917833  0.50000000  0.61133613  1.0
  Ba  Ba9  1  0.22082167  0.50000000  0.61133613  1.0
  Ba  Ba10  1  0.00000000  0.27917833  0.11133613  1.0
  Ba  Ba11  1  0.00000000  0.72082167  0.11133613  1.0
  Ba  Ba12  1  0.72082167  0.00000000  0.88866387  1.0
  Ba  Ba13  1  0.27917833  0.00000000  0.88866387  1.0
  Ba  Ba14  1  0.50000000  0.22082167  0.38866387  1.0
  Ba  Ba15  1  0.50000000  0.77917833  0.38866387  1.0
  Li  Li16  1  0.27273348  0.50000000  0.21267514  1.0
  Li  Li17  1  0.72726652  0.50000000  0.21267514  1.0
  Li  Li18  1  0.00000000  0.77273348  0.71267514  1.0
  Li  Li19  1  0.00000000  0.22726652  0.71267514  1.0
  Li  Li20  1  0.22726652  0.00000000  0.28732486  1.0
  Li  Li21  1  0.77273348  0.00000000  0.28732486  1.0
  Li  Li22  1  0.50000000  0.72726652  0.78732486  1.0
  Li  Li23  1  0.50000000  0.27273348  0.78732486  1.0
  N  N24  1  0.75324185  0.50000000  0.08839124  1.0
  N  N25  1  0.24675815  0.50000000  0.08839124  1.0
  N  N26  1  0.00000000  0.25324185  0.58839124  1.0
  N  N27  1  0.00000000  0.74675815  0.58839124  1.0
  N  N28  1  0.74675815  0.00000000  0.41160876  1.0
  N  N29  1  0.25324185  0.00000000  0.41160876  1.0
  N  N30  1  0.50000000  0.24675815  0.91160876  1.0
  N  N31  1  0.50000000  0.75324185  0.91160876  1.0
