# generated using pymatgen
data_Zr4Co4Ge7
_symmetry_space_group_name_H-M   'P 1'
_cell_length_a   9.73087218
_cell_length_b   9.73087218
_cell_length_c   9.73087218
_cell_angle_alpha   94.14985654
_cell_angle_beta   94.14985654
_cell_angle_gamma   148.78949840
_symmetry_Int_Tables_number   1
_chemical_formula_structural   Zr4Co4Ge7
_chemical_formula_sum   'Zr8 Co8 Ge14'
_cell_volume   459.86207857
_cell_formula_units_Z   2
loop_
 _symmetry_equiv_pos_site_id
 _symmetry_equiv_pos_as_xyz
  1  'x, y, z'
loop_
 _atom_site_type_symbol
 _atom_site_label
 _atom_site_symmetry_multiplicity
 _atom_site_fract_x
 _atom_site_fract_y
 _atom_site_fract_z
 _atom_site_occupancy
  Zr  Zr0  1  -0.00000000  0.80429863  0.80429863  1.0
  Zr  Zr1  1  0.80429863  1.00000000  0.80429863  1.0
  Zr  Zr2  1  1.19570137  1.00000000  1.19570137  1.0
  Zr  Zr3  1  -0.00000000  0.19570137  0.19570137  1.0
  Zr  Zr4  1  0.63892345  0.63892345  0.27784691  1.0
  Zr  Zr5  1  1.36107655  0.63892345  1.00000000  1.0
  Zr  Zr6  1  0.63892345  0.36107655  1.00000000  1.0
  Zr  Zr7  1  0.36107655  0.36107655  0.72215309  1.0
  Co  Co8  1  1.10160315  0.60160315  1.20320629  1.0
  Co  Co9  1  1.60160315  1.10160315  1.20320629  1.0
  Co  Co10  1  0.39839685  0.60160315  0.50000000  1.0
  Co  Co11  1  0.89839685  1.10160315  0.50000000  1.0
  Co  Co12  1  1.10160315  0.89839685  1.50000000  1.0
  Co  Co13  1  1.60160315  1.39839685  1.50000000  1.0
  Co  Co14  1  0.39839685  0.89839685  0.79679371  1.0
  Co  Co15  1  0.89839685  1.39839685  0.79679371  1.0
  Ge  Ge16  1  0.50000000  0.79290878  0.29290878  1.0
  Ge  Ge17  1  0.79290878  0.50000000  1.29290878  1.0
  Ge  Ge18  1  0.20709122  0.50000000  0.70709122  1.0
  Ge  Ge19  1  0.50000000  1.20709122  0.70709122  1.0
  Ge  Ge20  1  -0.00000000  0.59400141  0.59400141  1.0
  Ge  Ge21  1  0.59400141  1.00000000  0.59400141  1.0
  Ge  Ge22  1  1.40599859  1.00000000  1.40599859  1.0
  Ge  Ge23  1  -0.00000000  0.40599859  0.40599859  1.0
  Ge  Ge24  1  0.79225423  0.79225423  0.58450845  1.0
  Ge  Ge25  1  1.20774577  0.79225423  1.00000000  1.0
  Ge  Ge26  1  0.79225423  0.20774577  1.00000000  1.0
  Ge  Ge27  1  0.20774577  0.20774577  0.41549155  1.0
  Ge  Ge28  1  0.74906687  0.74906687  0.00000000  1.0
  Ge  Ge29  1  0.25093313  0.25093313  0.00000000  1.0
