# generated using pymatgen
data_CsInHgS3
_symmetry_space_group_name_H-M   'P 1'
_cell_length_a   8.19970879
_cell_length_b   8.19970879
_cell_length_c   22.38762634
_cell_angle_alpha   84.74440163
_cell_angle_beta   95.25559837
_cell_angle_gamma   90.00020833
_symmetry_Int_Tables_number   1
_chemical_formula_structural   CsInHgS3
_chemical_formula_sum   'Cs8 In8 Hg8 S24'
_cell_volume   1492.55420711
_cell_formula_units_Z   8
loop_
 _symmetry_equiv_pos_site_id
 _symmetry_equiv_pos_as_xyz
  1  'x, y, z'
loop_
 _atom_site_type_symbol
 _atom_site_label
 _atom_site_symmetry_multiplicity
 _atom_site_fract_x
 _atom_site_fract_y
 _atom_site_fract_z
 _atom_site_occupancy
  Cs  Cs0  1  0.23059666  -0.10436241  0.42192034  1.0
  Cs  Cs1  1  1.10436241  0.76940334  0.92192034  1.0
  Cs  Cs2  1  0.89563759  -0.76940334  0.07807966  1.0
  Cs  Cs3  1  1.76940334  0.10436241  0.57807966  1.0
  Cs  Cs4  1  1.39340730  0.23044004  0.07805338  1.0
  Cs  Cs5  1  0.76955996  -0.39340730  0.57805338  1.0
  Cs  Cs6  1  1.23044004  0.39340730  0.42194662  1.0
  Cs  Cs7  1  0.60659270  -0.23044004  0.92194662  1.0
  In  In8  1  0.65499628  -0.28002579  0.12026590  1.0
  In  In9  1  1.28002579  0.34500372  0.62026590  1.0
  In  In10  1  0.71997421  -0.34500372  0.37973410  1.0
  In  In11  1  1.34500372  0.28002579  0.87973410  1.0
  In  In12  1  1.71971211  0.15552074  0.37839863  1.0
  In  In13  1  0.84447926  -0.71971211  0.87839863  1.0
  In  In14  1  1.15552074  0.71971211  0.12160137  1.0
  In  In15  1  0.28028789  -0.15552074  0.62160137  1.0
  Hg  Hg16  1  0.44071916  -0.06557401  0.25003277  1.0
  Hg  Hg17  1  1.06557401  0.55928084  0.75003277  1.0
  Hg  Hg18  1  0.93442599  -0.55928084  0.24996723  1.0
  Hg  Hg19  1  1.55928084  0.06557401  0.74996723  1.0
  Hg  Hg20  1  0.93442237  -0.06557763  0.25000000  1.0
  Hg  Hg21  1  1.06557763  0.06557763  0.75000000  1.0
  Hg  Hg22  1  1.44060167  0.44060167  0.25000000  1.0
  Hg  Hg23  1  0.55939833  -0.44060167  0.75000000  1.0
  S  S24  1  0.73639809  -0.11056710  0.44528091  1.0
  S  S25  1  1.11056710  0.26360191  0.94528091  1.0
  S  S26  1  0.88943290  -0.26360191  0.05471909  1.0
  S  S27  1  1.26360191  0.11056710  0.55471909  1.0
  S  S28  1  0.44472259  -0.33045606  0.32173126  1.0
  S  S29  1  1.33045606  0.55527741  0.82173126  1.0
  S  S30  1  0.66954394  -0.55527741  0.17826874  1.0
  S  S31  1  1.55527741  0.33045606  0.67826874  1.0
  S  S32  1  0.66958620  -0.03377276  0.17826938  1.0
  S  S33  1  1.03377276  0.33041380  0.67826938  1.0
  S  S34  1  0.96622724  -0.33041380  0.32173062  1.0
  S  S35  1  1.33041380  0.03377276  0.82173062  1.0
  S  S36  1  1.61206287  0.26351953  0.94539117  1.0
  S  S37  1  0.73648047  -0.61206287  0.44539117  1.0
  S  S38  1  1.26351953  0.61206287  0.55460883  1.0
  S  S39  1  0.38793713  -0.26351953  0.05460883  1.0
  S  S40  1  1.44497485  0.16997356  0.32034794  1.0
  S  S41  1  0.83002644  -0.44497485  0.82034794  1.0
  S  S42  1  1.16997356  0.44497485  0.17965206  1.0
  S  S43  1  0.55502515  -0.16997356  0.67965206  1.0
  S  S44  1  0.17001476  -0.03465195  0.17968743  1.0
  S  S45  1  1.03465195  0.82998524  0.67968743  1.0
  S  S46  1  0.96534805  -0.82998524  0.32031257  1.0
  S  S47  1  1.82998524  0.03465195  0.82031257  1.0
