# generated using pymatgen
data_SrIn4Ir
_symmetry_space_group_name_H-M   'P 1'
_cell_length_a   8.78411389
_cell_length_b   4.36763499
_cell_length_c   7.77406655
_cell_angle_alpha   90.00000000
_cell_angle_beta   90.00000000
_cell_angle_gamma   90.00000000
_symmetry_Int_Tables_number   1
_chemical_formula_structural   SrIn4Ir
_chemical_formula_sum   'Sr2 In8 Ir2'
_cell_volume   298.25830707
_cell_formula_units_Z   2
loop_
 _symmetry_equiv_pos_site_id
 _symmetry_equiv_pos_as_xyz
  1  'x, y, z'
loop_
 _atom_site_type_symbol
 _atom_site_label
 _atom_site_symmetry_multiplicity
 _atom_site_fract_x
 _atom_site_fract_y
 _atom_site_fract_z
 _atom_site_occupancy
  Sr  Sr0  1  0.25000000  0.00000000  0.39580737  1.0
  Sr  Sr1  1  0.75000000  0.00000000  0.60419263  1.0
  In  In2  1  0.93364692  0.50000000  0.30946522  1.0
  In  In3  1  0.43364692  0.50000000  0.69053478  1.0
  In  In4  1  0.06635308  0.50000000  0.69053478  1.0
  In  In5  1  0.56635308  0.50000000  0.30946522  1.0
  In  In6  1  0.25000000  0.50000000  0.06026305  1.0
  In  In7  1  0.75000000  0.50000000  0.93973695  1.0
  In  In8  1  0.50000000  0.00000000  0.00000000  1.0
  In  In9  1  0.00000000  0.00000000  0.00000000  1.0
  Ir  Ir10  1  0.25000000  0.00000000  0.80998023  1.0
  Ir  Ir11  1  0.75000000  0.00000000  0.19001977  1.0
