# generated using pymatgen
data_Sr7(H6Br)2
_symmetry_space_group_name_H-M   'P 1'
_cell_length_a   10.06736346
_cell_length_b   10.06736346
_cell_length_c   4.02136703
_cell_angle_alpha   90.00000000
_cell_angle_beta   90.00000000
_cell_angle_gamma   120.00000000
_symmetry_Int_Tables_number   1
_chemical_formula_structural   Sr7(H6Br)2
_chemical_formula_sum   'Sr7 H12 Br2'
_cell_volume   352.96841201
_cell_formula_units_Z   1
loop_
 _symmetry_equiv_pos_site_id
 _symmetry_equiv_pos_as_xyz
  1  'x, y, z'
loop_
 _atom_site_type_symbol
 _atom_site_label
 _atom_site_symmetry_multiplicity
 _atom_site_fract_x
 _atom_site_fract_y
 _atom_site_fract_z
 _atom_site_occupancy
  Sr  Sr0  1  0.44266166  0.38469398  0.50000000  1.0
  Sr  Sr1  1  0.94203232  0.55733834  0.50000000  1.0
  Sr  Sr2  1  0.61530602  0.05796768  0.50000000  1.0
  Sr  Sr3  1  0.02407860  0.25848219  0.00000000  1.0
  Sr  Sr4  1  0.23440359  0.97592140  0.00000000  1.0
  Sr  Sr5  1  0.74151781  0.76559641  0.00000000  1.0
  Sr  Sr6  1  0.33333333  0.66666667  0.00000000  1.0
  H  H7  1  0.72353450  0.61669870  0.50000000  1.0
  H  H8  1  0.89316421  0.27646550  0.50000000  1.0
  H  H9  1  0.38330130  0.10683579  0.50000000  1.0
  H  H10  1  0.22797200  0.45388580  0.50000000  1.0
  H  H11  1  0.22591380  0.77202800  0.50000000  1.0
  H  H12  1  0.54611420  0.77408620  0.50000000  1.0
  H  H13  1  0.48722262  0.54598488  0.00000000  1.0
  H  H14  1  0.05876227  0.51277738  0.00000000  1.0
  H  H15  1  0.45401512  0.94123773  0.00000000  1.0
  H  H16  1  0.27138760  0.24432632  0.00000000  1.0
  H  H17  1  0.97293872  0.72861240  0.00000000  1.0
  H  H18  1  0.75567368  0.02706128  0.00000000  1.0
  Br  Br19  1  0.00000000  0.00000000  0.50000000  1.0
  Br  Br20  1  0.66666667  0.33333333  0.00000000  1.0
