# generated using pymatgen
data_CrAs
_symmetry_space_group_name_H-M   'P 1'
_cell_length_a   5.68240175
_cell_length_b   3.58805416
_cell_length_c   6.28976357
_cell_angle_alpha   90.00000000
_cell_angle_beta   90.00000000
_cell_angle_gamma   90.00000000
_symmetry_Int_Tables_number   1
_chemical_formula_structural   CrAs
_chemical_formula_sum   'Cr4 As4'
_cell_volume   128.24051296
_cell_formula_units_Z   4
loop_
 _symmetry_equiv_pos_site_id
 _symmetry_equiv_pos_as_xyz
  1  'x, y, z'
loop_
 _atom_site_type_symbol
 _atom_site_label
 _atom_site_symmetry_multiplicity
 _atom_site_fract_x
 _atom_site_fract_y
 _atom_site_fract_z
 _atom_site_occupancy
  Cr  Cr0  1  0.99836364  0.75000000  0.21777701  1.0
  Cr  Cr1  1  0.49836364  0.75000000  0.28222299  1.0
  Cr  Cr2  1  0.00163636  0.25000000  0.78222299  1.0
  Cr  Cr3  1  0.50163636  0.25000000  0.71777701  1.0
  As  As4  1  0.78380223  0.75000000  0.58064735  1.0
  As  As5  1  0.28380223  0.75000000  0.91935265  1.0
  As  As6  1  0.21619777  0.25000000  0.41935265  1.0
  As  As7  1  0.71619777  0.25000000  0.08064735  1.0
