# generated using pymatgen
data_YCu3Se2ClO8
_symmetry_space_group_name_H-M   'P 1'
_cell_length_a   6.36478636
_cell_length_b   9.56203382
_cell_length_c   7.07074271
_cell_angle_alpha   90.00000000
_cell_angle_beta   90.00000000
_cell_angle_gamma   90.00000000
_symmetry_Int_Tables_number   1
_chemical_formula_structural   YCu3Se2ClO8
_chemical_formula_sum   'Y2 Cu6 Se4 Cl2 O16'
_cell_volume   430.32754031
_cell_formula_units_Z   2
loop_
 _symmetry_equiv_pos_site_id
 _symmetry_equiv_pos_as_xyz
  1  'x, y, z'
loop_
 _atom_site_type_symbol
 _atom_site_label
 _atom_site_symmetry_multiplicity
 _atom_site_fract_x
 _atom_site_fract_y
 _atom_site_fract_z
 _atom_site_occupancy
  O  O0  1  0.78778963  0.33901006  0.26072275  1.0
  O  O1  1  0.21221037  0.33901006  0.26072275  1.0
  O  O2  1  0.78778963  0.66098994  0.26072275  1.0
  O  O3  1  0.21221037  0.66098994  0.26072275  1.0
  O  O4  1  0.71221037  0.16098994  0.73927725  1.0
  O  O5  1  0.28778963  0.16098994  0.73927725  1.0
  O  O6  1  0.71221037  0.83901006  0.73927725  1.0
  O  O7  1  0.28778963  0.83901006  0.73927725  1.0
  O  O8  1  0.00000000  0.87018945  0.42452450  1.0
  O  O9  1  0.00000000  0.12981055  0.42452450  1.0
  O  O10  1  0.50000000  0.62981055  0.57547550  1.0
  O  O11  1  0.50000000  0.37018945  0.57547550  1.0
  O  O12  1  0.00000000  0.86192196  0.00125435  1.0
  O  O13  1  0.00000000  0.13807804  0.00125435  1.0
  O  O14  1  0.50000000  0.63807804  0.99874565  1.0
  O  O15  1  0.50000000  0.36192196  0.99874565  1.0
  Cu  Cu16  1  0.75000000  0.75000000  0.00000000  1.0
  Cu  Cu17  1  0.25000000  0.75000000  0.00000000  1.0
  Cu  Cu18  1  0.75000000  0.25000000  0.00000000  1.0
  Cu  Cu19  1  0.25000000  0.25000000  0.00000000  1.0
  Cu  Cu20  1  0.00000000  0.00000000  0.20360251  1.0
  Cu  Cu21  1  0.50000000  0.50000000  0.79639749  1.0
  Se  Se22  1  0.00000000  0.31031586  0.40928536  1.0
  Se  Se23  1  0.00000000  0.68968414  0.40928536  1.0
  Se  Se24  1  0.50000000  0.18968414  0.59071464  1.0
  Se  Se25  1  0.50000000  0.81031586  0.59071464  1.0
  Y  Y26  1  0.00000000  0.00000000  0.73362542  1.0
  Y  Y27  1  0.50000000  0.50000000  0.26637458  1.0
  Cl  Cl28  1  0.00000000  0.50000000  0.84607150  1.0
  Cl  Cl29  1  0.50000000  0.00000000  0.15392850  1.0
