# generated using pymatgen
data_Ba13Si6(Sn4As11)2
_symmetry_space_group_name_H-M   'P 1'
_cell_length_a   12.45196130
_cell_length_b   12.45196130
_cell_length_c   12.45196130
_cell_angle_alpha   107.98070155
_cell_angle_beta   107.98070155
_cell_angle_gamma   112.49524258
_symmetry_Int_Tables_number   1
_chemical_formula_structural   Ba13Si6(Sn4As11)2
_chemical_formula_sum   'Ba13 Si6 Sn8 As22'
_cell_volume   1483.12549781
_cell_formula_units_Z   1
loop_
 _symmetry_equiv_pos_site_id
 _symmetry_equiv_pos_as_xyz
  1  'x, y, z'
loop_
 _atom_site_type_symbol
 _atom_site_label
 _atom_site_symmetry_multiplicity
 _atom_site_fract_x
 _atom_site_fract_y
 _atom_site_fract_z
 _atom_site_occupancy
  Ba  Ba0  1  1.04705342  1.28979715  0.50639653  1.0
  Ba  Ba1  1  0.95294658  1.45934311  1.24274372  1.0
  Ba  Ba2  1  1.28979715  1.04705342  0.50639653  1.0
  Ba  Ba3  1  0.71020285  0.21659938  0.75725628  1.0
  Ba  Ba4  1  0.21659938  0.71020285  0.75725628  1.0
  Ba  Ba5  1  0.78340062  0.54065689  0.49360347  1.0
  Ba  Ba6  1  1.45934311  0.95294658  1.24274372  1.0
  Ba  Ba7  1  0.54065689  0.78340062  0.49360347  1.0
  Ba  Ba8  1  0.83789691  0.83789691  0.33417721  1.0
  Ba  Ba9  1  1.16210309  0.49628029  1.00000000  1.0
  Ba  Ba10  1  0.49628029  1.16210309  1.00000000  1.0
  Ba  Ba11  1  0.50371971  0.50371971  0.66582279  1.0
  Ba  Ba12  1  0.00000000  0.00000000  0.00000000  1.0
  Si  Si13  1  1.31624506  1.31624506  0.83129785  1.0
  Si  Si14  1  0.68375494  1.51505279  1.00000000  1.0
  Si  Si15  1  1.51505279  0.68375494  1.00000000  1.0
  Si  Si16  1  0.48494721  0.48494721  0.16870215  1.0
  Si  Si17  1  0.75000000  1.25000000  0.50000000  1.0
  Si  Si18  1  1.25000000  0.75000000  0.50000000  1.0
  Sn  Sn19  1  0.94067166  1.11790353  0.72359183  1.0
  Sn  Sn20  1  1.05932834  1.78292018  1.17723188  1.0
  Sn  Sn21  1  1.11790353  0.94067166  0.72359183  1.0
  Sn  Sn22  1  0.88209647  1.60568830  0.82276812  1.0
  Sn  Sn23  1  1.60568830  0.88209647  0.82276812  1.0
  Sn  Sn24  1  1.39431170  1.21707982  1.27640817  1.0
  Sn  Sn25  1  1.78292018  1.05932834  1.17723188  1.0
  Sn  Sn26  1  1.21707982  1.39431170  1.27640817  1.0
  As  As27  1  0.74785420  1.05354715  0.49013119  1.0
  As  As28  1  1.25214580  1.74227699  1.30569295  1.0
  As  As29  1  1.05354715  0.74785420  0.49013119  1.0
  As  As30  1  0.94645285  1.43658404  0.69430705  1.0
  As  As31  1  1.43658404  0.94645285  0.69430705  1.0
  As  As32  1  1.56341596  1.25772301  1.50986881  1.0
  As  As33  1  1.74227699  1.25214580  1.30569295  1.0
  As  As34  1  1.25772301  1.56341596  1.50986881  1.0
  As  As35  1  0.85723145  0.85723145  0.66239305  1.0
  As  As36  1  1.14276855  0.80516160  1.00000000  1.0
  As  As37  1  0.80516160  1.14276855  1.00000000  1.0
  As  As38  1  0.19483840  0.19483840  0.33760695  1.0
  As  As39  1  1.12401694  1.12401694  0.64124152  1.0
  As  As40  1  0.87598306  1.51722458  1.00000000  1.0
  As  As41  1  1.51722458  0.87598306  1.00000000  1.0
  As  As42  1  0.48277542  0.48277542  0.35875848  1.0
  As  As43  1  0.50000000  0.31317055  0.81317055  1.0
  As  As44  1  0.31317055  0.50000000  0.81317055  1.0
  As  As45  1  0.68682945  0.50000000  0.18682945  1.0
  As  As46  1  0.50000000  0.68682945  0.18682945  1.0
  As  As47  1  0.28417355  0.28417355  0.00000000  1.0
  As  As48  1  0.71582645  0.71582645  0.00000000  1.0
