# generated using pymatgen
data_RbSc(WO4)2
_symmetry_space_group_name_H-M   'P 1'
_cell_length_a   7.48964759
_cell_length_b   7.48964759
_cell_length_c   7.46510677
_cell_angle_alpha   61.32731772
_cell_angle_beta   118.67268228
_cell_angle_gamma   94.04097539
_symmetry_Int_Tables_number   1
_chemical_formula_structural   RbSc(WO4)2
_chemical_formula_sum   'Rb2 Sc2 W4 O16'
_cell_volume   315.33415643
_cell_formula_units_Z   2
loop_
 _symmetry_equiv_pos_site_id
 _symmetry_equiv_pos_as_xyz
  1  'x, y, z'
loop_
 _atom_site_type_symbol
 _atom_site_label
 _atom_site_symmetry_multiplicity
 _atom_site_fract_x
 _atom_site_fract_y
 _atom_site_fract_z
 _atom_site_occupancy
  Rb  Rb0  1  0.19873462  0.19873462  0.25000000  1.0
  Rb  Rb1  1  0.80126538  0.80126538  0.75000000  1.0
  Sc  Sc2  1  0.77776704  0.77776704  0.25000000  1.0
  Sc  Sc3  1  0.22223296  0.22223296  0.75000000  1.0
  W  W4  1  0.69673981  0.30358886  0.22050459  1.0
  W  W5  1  0.69641114  0.30326019  0.72050459  1.0
  W  W6  1  1.30358886  -0.30326019  0.27949541  1.0
  W  W7  1  1.30326019  -0.30358886  0.77949541  1.0
  O  O8  1  1.60705256  -0.37815220  0.05351964  1.0
  O  O9  1  1.37815220  -0.60705256  0.55351964  1.0
  O  O10  1  0.62184780  0.60705256  0.44648036  1.0
  O  O11  1  0.39294744  0.37815220  0.94648036  1.0
  O  O12  1  0.74435395  0.03992916  0.28008821  1.0
  O  O13  1  0.96007084  0.25564605  0.78008821  1.0
  O  O14  1  1.03992916  -0.25564605  0.21991179  1.0
  O  O15  1  1.25564605  -0.03992916  0.71991179  1.0
  O  O16  1  1.32906216  -0.04257746  0.10341057  1.0
  O  O17  1  1.04257746  -0.32906216  0.60341057  1.0
  O  O18  1  0.95742254  0.32906216  0.39658943  1.0
  O  O19  1  0.67093784  0.04257746  0.89658943  1.0
  O  O20  1  0.61876419  0.24268755  0.43794810  1.0
  O  O21  1  0.75731245  0.38123581  0.93794810  1.0
  O  O22  1  1.24268755  -0.38123581  0.06205190  1.0
  O  O23  1  1.38123581  -0.24268755  0.56205190  1.0
