# generated using pymatgen
data_Gd(MnAl2)4
_symmetry_space_group_name_H-M   'P 1'
_cell_length_a   6.74956472
_cell_length_b   6.74956472
_cell_length_c   6.74956472
_cell_angle_alpha   98.43459940
_cell_angle_beta   98.43459940
_cell_angle_gamma   134.96212560
_symmetry_Int_Tables_number   1
_chemical_formula_structural   Gd(MnAl2)4
_chemical_formula_sum   'Gd1 Mn4 Al8'
_cell_volume   200.98102437
_cell_formula_units_Z   1
loop_
 _symmetry_equiv_pos_site_id
 _symmetry_equiv_pos_as_xyz
  1  'x, y, z'
loop_
 _atom_site_type_symbol
 _atom_site_label
 _atom_site_symmetry_multiplicity
 _atom_site_fract_x
 _atom_site_fract_y
 _atom_site_fract_z
 _atom_site_occupancy
  Gd  Gd0  1  0.00000000  0.00000000  0.00000000  1.0
  Mn  Mn1  1  0.50000000  0.50000000  0.50000000  1.0
  Mn  Mn2  1  1.00000000  1.00000000  0.50000000  1.0
  Mn  Mn3  1  1.00000000  0.50000000  1.00000000  1.0
  Mn  Mn4  1  1.50000000  1.00000000  1.00000000  1.0
  Al  Al5  1  0.50000000  0.72575502  0.22575502  1.0
  Al  Al6  1  0.72575502  0.50000000  1.22575502  1.0
  Al  Al7  1  0.27424498  0.50000000  0.77424498  1.0
  Al  Al8  1  0.50000000  1.27424498  0.77424498  1.0
  Al  Al9  1  0.00000000  0.66243302  0.66243302  1.0
  Al  Al10  1  0.66243302  1.00000000  0.66243302  1.0
  Al  Al11  1  1.33756698  1.00000000  1.33756698  1.0
  Al  Al12  1  0.00000000  0.33756698  0.33756698  1.0
