# generated using pymatgen
data_YMg2Ni9
_symmetry_space_group_name_H-M   'P 1'
_cell_length_a   8.37041651
_cell_length_b   8.37041651
_cell_length_c   8.37041651
_cell_angle_alpha   33.71627537
_cell_angle_beta   33.71627537
_cell_angle_gamma   33.71627537
_symmetry_Int_Tables_number   1
_chemical_formula_structural   YMg2Ni9
_chemical_formula_sum   'Y1 Mg2 Ni9'
_cell_volume   160.99419475
_cell_formula_units_Z   1
loop_
 _symmetry_equiv_pos_site_id
 _symmetry_equiv_pos_as_xyz
  1  'x, y, z'
loop_
 _atom_site_type_symbol
 _atom_site_label
 _atom_site_symmetry_multiplicity
 _atom_site_fract_x
 _atom_site_fract_y
 _atom_site_fract_z
 _atom_site_occupancy
  Ni  Ni0  1  1.66640811  0.66640811  0.66640811  1.0
  Ni  Ni1  1  1.33359189  0.33359189  0.33359189  1.0
  Ni  Ni2  1  1.50000000  0.50000000  0.50000000  1.0
  Ni  Ni3  1  1.41448534  1.41448534  -0.08195141  1.0
  Ni  Ni4  1  1.41448534  0.91804859  0.41448534  1.0
  Ni  Ni5  1  1.08195141  0.58551466  0.58551466  1.0
  Ni  Ni6  1  1.58551466  0.08195141  0.58551466  1.0
  Ni  Ni7  1  1.58551466  0.58551466  0.08195141  1.0
  Ni  Ni8  1  0.91804859  1.41448534  0.41448534  1.0
  Mg  Mg9  1  0.85615389  0.85615389  0.85615389  1.0
  Mg  Mg10  1  1.14384611  1.14384611  0.14384611  1.0
  Y  Y11  1  0.00000000  0.00000000  0.00000000  1.0
