# generated using pymatgen
data_RbAgF3
_symmetry_space_group_name_H-M   'P 1'
_cell_length_a   6.26090897
_cell_length_b   6.26090897
_cell_length_c   6.26090897
_cell_angle_alpha   119.96849690
_cell_angle_beta   119.96849690
_cell_angle_gamma   90.05457364
_symmetry_Int_Tables_number   1
_chemical_formula_structural   RbAgF3
_chemical_formula_sum   'Rb2 Ag2 F6'
_cell_volume   173.62158019
_cell_formula_units_Z   2
loop_
 _symmetry_equiv_pos_site_id
 _symmetry_equiv_pos_as_xyz
  1  'x, y, z'
loop_
 _atom_site_type_symbol
 _atom_site_label
 _atom_site_symmetry_multiplicity
 _atom_site_fract_x
 _atom_site_fract_y
 _atom_site_fract_z
 _atom_site_occupancy
  Rb  Rb0  1  0.75000000  0.25000000  0.50000000  1.0
  Rb  Rb1  1  0.25000000  0.75000000  0.50000000  1.0
  Ag  Ag2  1  0.50000000  0.50000000  0.00000000  1.0
  Ag  Ag3  1  0.00000000  0.00000000  0.00000000  1.0
  F  F4  1  0.74982498  0.24982498  0.99964997  1.0
  F  F5  1  0.75017502  0.74982498  0.50000000  1.0
  F  F6  1  0.24982498  0.25017502  0.50000000  1.0
  F  F7  1  1.25017502  0.75017502  1.00035003  1.0
  F  F8  1  0.25000000  0.25000000  0.00000000  1.0
  F  F9  1  0.75000000  0.75000000  0.00000000  1.0
