# generated using pymatgen
data_PH18C6N3O
_symmetry_space_group_name_H-M   'P 1'
_cell_length_a   6.66115904
_cell_length_b   13.55209222
_cell_length_c   6.65729293
_cell_angle_alpha   90.00000000
_cell_angle_beta   105.14076287
_cell_angle_gamma   90.00000000
_symmetry_Int_Tables_number   1
_chemical_formula_structural   PH18C6N3O
_chemical_formula_sum   'P2 H36 C12 N6 O2'
_cell_volume   580.10992850
_cell_formula_units_Z   2
loop_
 _symmetry_equiv_pos_site_id
 _symmetry_equiv_pos_as_xyz
  1  'x, y, z'
loop_
 _atom_site_type_symbol
 _atom_site_label
 _atom_site_symmetry_multiplicity
 _atom_site_fract_x
 _atom_site_fract_y
 _atom_site_fract_z
 _atom_site_occupancy
  P  P0  1  0.11882552  0.75000000  0.47024864  1.0
  P  P1  1  0.88117448  0.25000000  0.52975136  1.0
  H  H2  1  0.64342231  0.83741584  0.67588782  1.0
  H  H3  1  0.35657769  0.33741584  0.32411218  1.0
  H  H4  1  0.35657769  0.16258416  0.32411218  1.0
  H  H5  1  0.64342231  0.66258416  0.67588782  1.0
  H  H6  1  0.47078383  0.84442349  0.84073941  1.0
  H  H7  1  0.52921617  0.34442349  0.15926059  1.0
  H  H8  1  0.52921617  0.15557651  0.15926059  1.0
  H  H9  1  0.47078383  0.65557651  0.84073941  1.0
  H  H10  1  0.40435979  0.90512106  0.59463158  1.0
  H  H11  1  0.59564021  0.40512106  0.40536842  1.0
  H  H12  1  0.59564021  0.09487894  0.40536842  1.0
  H  H13  1  0.40435979  0.59487894  0.59463158  1.0
  H  H14  1  0.12197062  0.84988530  0.01707012  1.0
  H  H15  1  0.87802938  0.34988530  0.98292988  1.0
  H  H16  1  0.87802938  0.15011470  0.98292988  1.0
  H  H17  1  0.12197062  0.65011470  0.01707012  1.0
  H  H18  1  0.35607422  0.83846593  0.22127936  1.0
  H  H19  1  0.64392578  0.33846593  0.77872064  1.0
  H  H20  1  0.64392578  0.16153407  0.77872064  1.0
  H  H21  1  0.35607422  0.66153407  0.22127936  1.0
  H  H22  1  0.22972072  0.95486523  0.16950213  1.0
  H  H23  1  0.77027928  0.45486523  0.83049787  1.0
  H  H24  1  0.77027928  0.04513477  0.83049787  1.0
  H  H25  1  0.22972072  0.54513477  0.16950213  1.0
  H  H26  1  0.81041876  0.88803994  0.40760510  1.0
  H  H27  1  0.18958124  0.38803994  0.59239490  1.0
  H  H28  1  0.18958124  0.11196006  0.59239490  1.0
  H  H29  1  0.81041876  0.61196006  0.40760510  1.0
  H  H30  1  0.78433018  0.88665253  0.13322153  1.0
  H  H31  1  0.21566982  0.38665253  0.86677847  1.0
  H  H32  1  0.21566982  0.11334747  0.86677847  1.0
  H  H33  1  0.78433018  0.61334747  0.13322153  1.0
  H  H34  1  0.91563823  0.98642594  0.28813567  1.0
  H  H35  1  0.08436177  0.48642594  0.71186433  1.0
  H  H36  1  0.08436177  0.01357406  0.71186433  1.0
  H  H37  1  0.91563823  0.51357406  0.28813567  1.0
  C  C38  1  0.47862051  0.83936862  0.67715358  1.0
  C  C39  1  0.52137949  0.33936862  0.32284642  1.0
  C  C40  1  0.52137949  0.16063138  0.32284642  1.0
  C  C41  1  0.47862051  0.66063138  0.67715358  1.0
  C  C42  1  0.20379901  0.87467060  0.17536565  1.0
  C  C43  1  0.79620099  0.37467060  0.82463435  1.0
  C  C44  1  0.79620099  0.12532940  0.82463435  1.0
  C  C45  1  0.20379901  0.62532940  0.17536565  1.0
  C  C46  1  0.88834592  0.90620496  0.28656629  1.0
  C  C47  1  0.11165408  0.40620496  0.71343371  1.0
  C  C48  1  0.11165408  0.09379504  0.71343371  1.0
  C  C49  1  0.88834592  0.59379504  0.28656629  1.0
  N  N50  1  0.37674221  0.75000000  0.57622212  1.0
  N  N51  1  0.62325779  0.25000000  0.42377788  1.0
  N  N52  1  0.08620955  0.85402227  0.32730295  1.0
  N  N53  1  0.91379045  0.35402227  0.67269705  1.0
  N  N54  1  0.91379045  0.14597773  0.67269705  1.0
  N  N55  1  0.08620955  0.64597773  0.32730295  1.0
  O  O56  1  0.97394666  0.75000000  0.60914284  1.0
  O  O57  1  0.02605334  0.25000000  0.39085716  1.0
