# generated using pymatgen
data_Mg2Cu3Si
_symmetry_space_group_name_H-M   'P 1'
_cell_length_a   5.02872826
_cell_length_b   5.02872826
_cell_length_c   7.88131168
_cell_angle_alpha   90.00000000
_cell_angle_beta   90.00000000
_cell_angle_gamma   120.00000000
_symmetry_Int_Tables_number   1
_chemical_formula_structural   Mg2Cu3Si
_chemical_formula_sum   'Mg4 Cu6 Si2'
_cell_volume   172.60185989
_cell_formula_units_Z   2
loop_
 _symmetry_equiv_pos_site_id
 _symmetry_equiv_pos_as_xyz
  1  'x, y, z'
loop_
 _atom_site_type_symbol
 _atom_site_label
 _atom_site_symmetry_multiplicity
 _atom_site_fract_x
 _atom_site_fract_y
 _atom_site_fract_z
 _atom_site_occupancy
  Mg  Mg0  1  0.33333333  0.66666667  0.93928052  1.0
  Mg  Mg1  1  0.33333333  0.66666667  0.56071948  1.0
  Mg  Mg2  1  0.66666667  0.33333333  0.43928052  1.0
  Mg  Mg3  1  0.66666667  0.33333333  0.06071948  1.0
  Cu  Cu4  1  0.16861428  0.83138572  0.25000000  1.0
  Cu  Cu5  1  0.16861428  0.33722856  0.25000000  1.0
  Cu  Cu6  1  0.83138572  0.16861428  0.75000000  1.0
  Cu  Cu7  1  0.83138572  0.66277144  0.75000000  1.0
  Cu  Cu8  1  0.66277144  0.83138572  0.25000000  1.0
  Cu  Cu9  1  0.33722856  0.16861428  0.75000000  1.0
  Si  Si10  1  0.00000000  0.00000000  0.50000000  1.0
  Si  Si11  1  0.00000000  0.00000000  0.00000000  1.0
