# generated using pymatgen
data_HfGeRh
_symmetry_space_group_name_H-M   'P 1'
_cell_length_a   6.56738061
_cell_length_b   3.99507095
_cell_length_c   7.60199224
_cell_angle_alpha   90.00000000
_cell_angle_beta   90.00000000
_cell_angle_gamma   90.00000000
_symmetry_Int_Tables_number   1
_chemical_formula_structural   HfGeRh
_chemical_formula_sum   'Hf4 Ge4 Rh4'
_cell_volume   199.45462216
_cell_formula_units_Z   4
loop_
 _symmetry_equiv_pos_site_id
 _symmetry_equiv_pos_as_xyz
  1  'x, y, z'
loop_
 _atom_site_type_symbol
 _atom_site_label
 _atom_site_symmetry_multiplicity
 _atom_site_fract_x
 _atom_site_fract_y
 _atom_site_fract_z
 _atom_site_occupancy
  Hf  Hf0  1  0.97596018  0.75000000  0.69124270  1.0
  Hf  Hf1  1  0.47596018  0.75000000  0.80875730  1.0
  Hf  Hf2  1  0.02403982  0.25000000  0.30875730  1.0
  Hf  Hf3  1  0.52403982  0.25000000  0.19124270  1.0
  Ge  Ge4  1  0.73653352  0.75000000  0.38426294  1.0
  Ge  Ge5  1  0.23653352  0.75000000  0.11573706  1.0
  Ge  Ge6  1  0.26346648  0.25000000  0.61573706  1.0
  Ge  Ge7  1  0.76346648  0.25000000  0.88426294  1.0
  Rh  Rh8  1  0.85251096  0.75000000  0.06681626  1.0
  Rh  Rh9  1  0.35251096  0.75000000  0.43318374  1.0
  Rh  Rh10  1  0.14748904  0.25000000  0.93318374  1.0
  Rh  Rh11  1  0.64748904  0.25000000  0.56681626  1.0
