# generated using pymatgen
data_SO2
_symmetry_space_group_name_H-M   'P 1'
_cell_length_a   4.54012905
_cell_length_b   4.54012905
_cell_length_c   6.43403209
_cell_angle_alpha   90.00000000
_cell_angle_beta   90.00000000
_cell_angle_gamma   94.05932799
_symmetry_Int_Tables_number   1
_chemical_formula_structural   SO2
_chemical_formula_sum   'S2 O4'
_cell_volume   132.29052101
_cell_formula_units_Z   2
loop_
 _symmetry_equiv_pos_site_id
 _symmetry_equiv_pos_as_xyz
  1  'x, y, z'
loop_
 _atom_site_type_symbol
 _atom_site_label
 _atom_site_symmetry_multiplicity
 _atom_site_fract_x
 _atom_site_fract_y
 _atom_site_fract_z
 _atom_site_occupancy
  S  S0  1  0.50280677  0.49719323  0.50000000  1.0
  S  S1  1  0.00280677  -0.00280677  0.00000000  1.0
  O  O2  1  -0.53103195  1.23577482  0.36832969  1.0
  O  O3  1  -0.73577482  1.03103195  0.86832969  1.0
  O  O4  1  -0.23577482  1.53103195  0.63167031  1.0
  O  O5  1  -0.03103195  1.73577482  0.13167031  1.0
