# generated using pymatgen
data_Zr(SeCl6)2
_symmetry_space_group_name_H-M   'P 1'
_cell_length_a   13.10109957
_cell_length_b   12.93603863
_cell_length_c   9.34703865
_cell_angle_alpha   69.90930460
_cell_angle_beta   68.02047822
_cell_angle_gamma   42.07021718
_symmetry_Int_Tables_number   1
_chemical_formula_structural   Zr(SeCl6)2
_chemical_formula_sum   'Zr2 Se4 Cl24'
_cell_volume   978.75351029
_cell_formula_units_Z   2
loop_
 _symmetry_equiv_pos_site_id
 _symmetry_equiv_pos_as_xyz
  1  'x, y, z'
loop_
 _atom_site_type_symbol
 _atom_site_label
 _atom_site_symmetry_multiplicity
 _atom_site_fract_x
 _atom_site_fract_y
 _atom_site_fract_z
 _atom_site_occupancy
  Zr  Zr0  1  0.99804234  -0.00195766  0.00195766  1.0
  Zr  Zr1  1  0.24804234  0.24804234  0.25195766  1.0
  Se  Se2  1  0.06446081  0.59543591  0.90389445  1.0
  Se  Se3  1  -0.65389445  0.81379116  1.18553919  1.0
  Se  Se4  1  0.59543591  0.06446081  0.43620884  1.0
  Se  Se5  1  0.81379116  -0.65389445  0.65456409  1.0
  Cl  Cl6  1  0.73456749  0.11158493  0.11964635  1.0
  Cl  Cl7  1  0.13035365  0.21579877  0.51543251  1.0
  Cl  Cl8  1  0.11158493  0.73456749  0.03420123  1.0
  Cl  Cl9  1  0.21579877  0.13035365  0.13841507  1.0
  Cl  Cl10  1  0.35279938  -0.20251733  0.42592276  1.0
  Cl  Cl11  1  0.82407724  -0.17379519  0.89720062  1.0
  Cl  Cl12  1  -0.20251733  0.35279938  1.42379519  1.0
  Cl  Cl13  1  0.82620481  -0.17592276  0.45251733  1.0
  Cl  Cl14  1  0.34625770  0.31183553  0.98330226  1.0
  Cl  Cl15  1  0.26669774  -0.10860451  0.90374230  1.0
  Cl  Cl16  1  0.31183553  0.34625770  0.35860451  1.0
  Cl  Cl17  1  0.89139549  -0.73330226  0.93816447  1.0
  Cl  Cl18  1  0.17749319  0.62681598  0.67355101  1.0
  Cl  Cl19  1  -0.42355101  0.72786018  1.07250681  1.0
  Cl  Cl20  1  0.62681598  0.17749319  0.52213982  1.0
  Cl  Cl21  1  0.72786018  -0.42355101  0.62318402  1.0
  Cl  Cl22  1  0.51519492  -0.01054595  0.28117695  1.0
  Cl  Cl23  1  0.96882305  0.03582592  0.73480508  1.0
  Cl  Cl24  1  -0.01054595  0.51519492  1.21417408  1.0
  Cl  Cl25  1  0.03582592  0.96882305  0.26054595  1.0
  Cl  Cl26  1  0.03791638  0.47305873  0.83185709  1.0
  Cl  Cl27  1  -0.58185709  0.59283220  1.21208362  1.0
  Cl  Cl28  1  0.47305873  0.03791638  0.65716780  1.0
  Cl  Cl29  1  0.59283220  -0.58185709  0.77694127  1.0
