# generated using pymatgen
data_Na10Co4O9
_symmetry_space_group_name_H-M   'P 1'
_cell_length_a   11.61521291
_cell_length_b   8.55347967
_cell_length_c   8.43487339
_cell_angle_alpha   59.62837484
_cell_angle_beta   68.45736525
_cell_angle_gamma   73.43410608
_symmetry_Int_Tables_number   1
_chemical_formula_structural   Na10Co4O9
_chemical_formula_sum   'Na20 Co8 O18'
_cell_volume   667.31293976
_cell_formula_units_Z   2
loop_
 _symmetry_equiv_pos_site_id
 _symmetry_equiv_pos_as_xyz
  1  'x, y, z'
loop_
 _atom_site_type_symbol
 _atom_site_label
 _atom_site_symmetry_multiplicity
 _atom_site_fract_x
 _atom_site_fract_y
 _atom_site_fract_z
 _atom_site_occupancy
  Na  Na0  1  0.61019447  -0.38098958  1.38099794  1.0
  Na  Na1  1  0.38980553  -0.61901042  0.61900206  1.0
  Na  Na2  1  0.87884655  -0.92370044  1.89896280  1.0
  Na  Na3  1  0.12115345  -0.07629956  0.10103720  1.0
  Na  Na4  1  0.36323635  -0.34431667  1.19944549  1.0
  Na  Na5  1  0.63676365  -0.65568333  0.80055451  1.0
  Na  Na6  1  0.62827640  -0.07797248  0.93403428  1.0
  Na  Na7  1  0.37172360  -0.92202752  1.06596572  1.0
  Na  Na8  1  0.62965799  -0.83592640  1.50989099  1.0
  Na  Na9  1  0.37034201  -0.16407360  0.49010901  1.0
  Na  Na10  1  0.88251828  -0.38808335  1.04755994  1.0
  Na  Na11  1  0.11748172  -0.61191665  0.95244006  1.0
  Na  Na12  1  0.40231996  -0.74847716  1.30489160  1.0
  Na  Na13  1  0.59768004  -0.25152284  0.69510840  1.0
  Na  Na14  1  0.14253353  -0.87113695  1.36760003  1.0
  Na  Na15  1  0.85746647  -0.12886305  0.63239997  1.0
  Na  Na16  1  0.87801743  -0.81859644  1.18233319  1.0
  Na  Na17  1  0.12198257  -0.18140356  0.81766681  1.0
  Na  Na18  1  0.88945761  -0.52098387  0.74778331  1.0
  Na  Na19  1  0.11054239  -0.47901613  1.25221669  1.0
  Co  Co20  1  0.15925704  -0.76305483  1.68124985  1.0
  Co  Co21  1  0.84074296  -0.23694517  0.31875015  1.0
  Co  Co22  1  0.85671656  -0.68887101  1.47762790  1.0
  Co  Co23  1  0.14328344  -0.31112899  0.52237210  1.0
  Co  Co24  1  0.64532344  -0.53067290  1.09753821  1.0
  Co  Co25  1  0.35467656  -0.46932710  0.90246179  1.0
  Co  Co26  1  0.66163944  -0.98556769  1.23459065  1.0
  Co  Co27  1  0.33836056  -0.01443231  0.76540935  1.0
  O  O28  1  0.20676129  -0.53336550  1.49133912  1.0
  O  O29  1  0.79323871  -0.46663450  0.50866088  1.0
  O  O30  1  0.96690779  -0.21015660  1.10845815  1.0
  O  O31  1  0.03309221  -0.78984340  0.89154185  1.0
  O  O32  1  0.46832144  -0.95496184  1.78316483  1.0
  O  O33  1  0.53167856  -0.04503816  0.21683517  1.0
  O  O34  1  0.77113595  -0.86795344  1.68151891  1.0
  O  O35  1  0.22886405  -0.13204656  0.31848109  1.0
  O  O36  1  0.52490601  -0.56445768  1.31630029  1.0
  O  O37  1  0.47509399  -0.43554232  0.68369971  1.0
  O  O38  1  0.24846569  -0.93636232  1.58379359  1.0
  O  O39  1  0.75153431  -0.06363768  0.41620641  1.0
  O  O40  1  0.97302415  -0.67101483  1.26174326  1.0
  O  O41  1  0.02697585  -0.32898517  0.73825674  1.0
  O  O42  1  0.72799944  -0.34437354  0.90154964  1.0
  O  O43  1  0.27200056  -0.65562646  1.09845036  1.0
  O  O44  1  0.71617280  -0.75000548  1.05101475  1.0
  O  O45  1  0.28382720  -0.24999452  0.94898525  1.0
