# generated using pymatgen
data_SrTiCu4P4O17
_symmetry_space_group_name_H-M   'P 1'
_cell_length_a   9.65412416
_cell_length_b   9.65412416
_cell_length_c   7.14864176
_cell_angle_alpha   90.00000000
_cell_angle_beta   90.00000000
_cell_angle_gamma   90.00000000
_symmetry_Int_Tables_number   1
_chemical_formula_structural   SrTiCu4P4O17
_chemical_formula_sum   'Sr2 Ti2 Cu8 P8 O34'
_cell_volume   666.26851863
_cell_formula_units_Z   2
loop_
 _symmetry_equiv_pos_site_id
 _symmetry_equiv_pos_as_xyz
  1  'x, y, z'
loop_
 _atom_site_type_symbol
 _atom_site_label
 _atom_site_symmetry_multiplicity
 _atom_site_fract_x
 _atom_site_fract_y
 _atom_site_fract_z
 _atom_site_occupancy
  Ti  Ti0  1  0.50000000  0.00000000  0.98173234  1.0
  Ti  Ti1  1  0.00000000  0.50000000  0.01826766  1.0
  Sr  Sr2  1  0.50000000  0.50000000  0.00000000  1.0
  Sr  Sr3  1  0.00000000  0.00000000  0.00000000  1.0
  P  P4  1  0.31443133  0.77470838  0.74248059  1.0
  P  P5  1  0.68556867  0.22529162  0.74248059  1.0
  P  P6  1  0.81443133  0.72529162  0.25751941  1.0
  P  P7  1  0.18556867  0.27470838  0.25751941  1.0
  P  P8  1  0.77470838  0.31443133  0.25751941  1.0
  P  P9  1  0.22529162  0.68556867  0.25751941  1.0
  P  P10  1  0.72529162  0.81443133  0.74248059  1.0
  P  P11  1  0.27470838  0.18556867  0.74248059  1.0
  O  O12  1  0.34464909  0.61611179  0.73895647  1.0
  O  O13  1  0.65535091  0.38388821  0.73895647  1.0
  O  O14  1  0.84464909  0.88388821  0.26104353  1.0
  O  O15  1  0.15535091  0.11611179  0.26104353  1.0
  O  O16  1  0.61611179  0.34464909  0.26104353  1.0
  O  O17  1  0.38388821  0.65535091  0.26104353  1.0
  O  O18  1  0.88388821  0.84464909  0.73895647  1.0
  O  O19  1  0.11611179  0.15535091  0.73895647  1.0
  O  O20  1  0.40048786  0.83063993  0.90819521  1.0
  O  O21  1  0.59951214  0.16936007  0.90819521  1.0
  O  O22  1  0.90048786  0.66936007  0.09180479  1.0
  O  O23  1  0.09951214  0.33063993  0.09180479  1.0
  O  O24  1  0.83063993  0.40048786  0.09180479  1.0
  O  O25  1  0.16936007  0.59951214  0.09180479  1.0
  O  O26  1  0.66936007  0.90048786  0.90819521  1.0
  O  O27  1  0.33063993  0.09951214  0.90819521  1.0
  O  O28  1  0.50000000  0.00000000  0.22014858  1.0
  O  O29  1  0.00000000  0.50000000  0.77985142  1.0
  O  O30  1  0.15959782  0.81503474  0.76415185  1.0
  O  O31  1  0.84040218  0.18496526  0.76415185  1.0
  O  O32  1  0.65959782  0.68496526  0.23584815  1.0
  O  O33  1  0.34040218  0.31503474  0.23584815  1.0
  O  O34  1  0.81503474  0.15959782  0.23584815  1.0
  O  O35  1  0.18496526  0.84040218  0.23584815  1.0
  O  O36  1  0.68496526  0.65959782  0.76415185  1.0
  O  O37  1  0.31503474  0.34040218  0.76415185  1.0
  O  O38  1  0.36749246  0.84249858  0.55317244  1.0
  O  O39  1  0.63250754  0.15750142  0.55317244  1.0
  O  O40  1  0.86749246  0.65750142  0.44682756  1.0
  O  O41  1  0.13250754  0.34249858  0.44682756  1.0
  O  O42  1  0.84249858  0.36749246  0.44682756  1.0
  O  O43  1  0.15750142  0.63250754  0.44682756  1.0
  O  O44  1  0.65750142  0.86749246  0.55317244  1.0
  O  O45  1  0.34249858  0.13250754  0.55317244  1.0
  Cu  Cu46  1  0.51819833  0.76757802  0.39818837  1.0
  Cu  Cu47  1  0.48180167  0.23242198  0.39818837  1.0
  Cu  Cu48  1  0.01819833  0.73242198  0.60181163  1.0
  Cu  Cu49  1  0.98180167  0.26757802  0.60181163  1.0
  Cu  Cu50  1  0.76757802  0.51819833  0.60181163  1.0
  Cu  Cu51  1  0.23242198  0.48180167  0.60181163  1.0
  Cu  Cu52  1  0.73242198  0.01819833  0.39818837  1.0
  Cu  Cu53  1  0.26757802  0.98180167  0.39818837  1.0
