# generated using pymatgen
data_SrI2O
_symmetry_space_group_name_H-M   'P 1'
_cell_length_a   14.06759804
_cell_length_b   4.39276270
_cell_length_c   8.83472046
_cell_angle_alpha   90.00000000
_cell_angle_beta   90.00000000
_cell_angle_gamma   90.00000000
_symmetry_Int_Tables_number   1
_chemical_formula_structural   SrI2O
_chemical_formula_sum   'Sr4 I8 O4'
_cell_volume   545.94702808
_cell_formula_units_Z   4
loop_
 _symmetry_equiv_pos_site_id
 _symmetry_equiv_pos_as_xyz
  1  'x, y, z'
loop_
 _atom_site_type_symbol
 _atom_site_label
 _atom_site_symmetry_multiplicity
 _atom_site_fract_x
 _atom_site_fract_y
 _atom_site_fract_z
 _atom_site_occupancy
  Sr  Sr0  1  0.14556599  0.75000000  0.13833742  1.0
  Sr  Sr1  1  0.64556599  0.75000000  0.36166258  1.0
  Sr  Sr2  1  0.85443401  0.25000000  0.86166258  1.0
  Sr  Sr3  1  0.35443401  0.25000000  0.63833742  1.0
  I  I4  1  0.36738830  0.75000000  0.97728114  1.0
  I  I5  1  0.86738830  0.75000000  0.52271886  1.0
  I  I6  1  0.63261170  0.25000000  0.02271886  1.0
  I  I7  1  0.13261170  0.25000000  0.47728114  1.0
  I  I8  1  0.89932156  0.75000000  0.15759499  1.0
  I  I9  1  0.39932156  0.75000000  0.34240501  1.0
  I  I10  1  0.10067844  0.25000000  0.84240501  1.0
  I  I11  1  0.60067844  0.25000000  0.65759499  1.0
  O  O12  1  0.34759499  0.75000000  0.74746376  1.0
  O  O13  1  0.84759499  0.75000000  0.75253624  1.0
  O  O14  1  0.65240501  0.25000000  0.25253624  1.0
  O  O15  1  0.15240501  0.25000000  0.24746376  1.0
