# generated using pymatgen
data_ZrAlPt
_symmetry_space_group_name_H-M   'P 1'
_cell_length_a   7.15759265
_cell_length_b   7.15759265
_cell_length_c   3.64186422
_cell_angle_alpha   90.00000000
_cell_angle_beta   90.00000000
_cell_angle_gamma   120.00000000
_symmetry_Int_Tables_number   1
_chemical_formula_structural   ZrAlPt
_chemical_formula_sum   'Zr3 Al3 Pt3'
_cell_volume   161.58027308
_cell_formula_units_Z   3
loop_
 _symmetry_equiv_pos_site_id
 _symmetry_equiv_pos_as_xyz
  1  'x, y, z'
loop_
 _atom_site_type_symbol
 _atom_site_label
 _atom_site_symmetry_multiplicity
 _atom_site_fract_x
 _atom_site_fract_y
 _atom_site_fract_z
 _atom_site_occupancy
  Zr  Zr0  1  0.40100310  0.40100310  0.50000000  1.0
  Zr  Zr1  1  0.59899690  0.00000000  0.50000000  1.0
  Zr  Zr2  1  0.00000000  0.59899690  0.50000000  1.0
  Al  Al3  1  0.74191629  0.74191629  0.00000000  1.0
  Al  Al4  1  0.25808371  0.00000000  0.00000000  1.0
  Al  Al5  1  -0.00000000  0.25808371  0.00000000  1.0
  Pt  Pt6  1  0.66666667  0.33333333  0.00000000  1.0
  Pt  Pt7  1  0.33333333  0.66666667  0.00000000  1.0
  Pt  Pt8  1  0.00000000  0.00000000  0.50000000  1.0
