# generated using pymatgen
data_MoP2
_symmetry_space_group_name_H-M   'P 1'
_cell_length_a   5.83138022
_cell_length_b   5.83138022
_cell_length_c   5.00588602
_cell_angle_alpha   90.00000000
_cell_angle_beta   90.00000000
_cell_angle_gamma   148.56338791
_symmetry_Int_Tables_number   1
_chemical_formula_structural   MoP2
_chemical_formula_sum   'Mo2 P4'
_cell_volume   88.78175863
_cell_formula_units_Z   2
loop_
 _symmetry_equiv_pos_site_id
 _symmetry_equiv_pos_as_xyz
  1  'x, y, z'
loop_
 _atom_site_type_symbol
 _atom_site_label
 _atom_site_symmetry_multiplicity
 _atom_site_fract_x
 _atom_site_fract_y
 _atom_site_fract_z
 _atom_site_occupancy
  Mo  Mo0  1  -0.59338055  0.59338055  0.38128443  1.0
  Mo  Mo1  1  -0.40661945  1.40661945  0.88128443  1.0
  P  P2  1  -0.93058552  0.93058552  0.49967144  1.0
  P  P3  1  -0.06941448  1.06941448  -0.00032856  1.0
  P  P4  1  -0.79804508  0.79804508  0.18294414  1.0
  P  P5  1  -0.20195492  1.20195492  0.68294414  1.0
