# generated using pymatgen
data_H6C(NO)4
_symmetry_space_group_name_H-M   'P 1'
_cell_length_a   3.72217313
_cell_length_b   13.93252671
_cell_length_c   11.16359233
_cell_angle_alpha   90.00000000
_cell_angle_beta   96.06126673
_cell_angle_gamma   90.00000000
_symmetry_Int_Tables_number   1
_chemical_formula_structural   H6C(NO)4
_chemical_formula_sum   'H24 C4 N16 O16'
_cell_volume   575.69931192
_cell_formula_units_Z   4
loop_
 _symmetry_equiv_pos_site_id
 _symmetry_equiv_pos_as_xyz
  1  'x, y, z'
loop_
 _atom_site_type_symbol
 _atom_site_label
 _atom_site_symmetry_multiplicity
 _atom_site_fract_x
 _atom_site_fract_y
 _atom_site_fract_z
 _atom_site_occupancy
  H  H0  1  0.38586210  0.27673602  0.40211179  1.0
  H  H1  1  0.38586210  0.22326398  0.90211179  1.0
  H  H2  1  0.61413790  0.72326398  0.59788821  1.0
  H  H3  1  0.61413790  0.77673602  0.09788821  1.0
  H  H4  1  0.42371018  0.39461128  0.43183618  1.0
  H  H5  1  0.42371018  0.10538872  0.93183618  1.0
  H  H6  1  0.57628982  0.60538872  0.56816382  1.0
  H  H7  1  0.57628982  0.89461128  0.06816382  1.0
  H  H8  1  0.12082082  0.32483644  0.50238601  1.0
  H  H9  1  0.12082082  0.17516356  0.00238601  1.0
  H  H10  1  0.87917918  0.67516356  0.49761399  1.0
  H  H11  1  0.87917918  0.82483644  0.99761399  1.0
  H  H12  1  0.64277979  0.23721038  0.58524807  1.0
  H  H13  1  0.64277979  0.26278962  0.08524807  1.0
  H  H14  1  0.35722021  0.76278962  0.41475193  1.0
  H  H15  1  0.35722021  0.73721038  0.91475193  1.0
  H  H16  1  0.62196016  0.34821571  0.63546241  1.0
  H  H17  1  0.62196016  0.15178429  0.13546241  1.0
  H  H18  1  0.37803984  0.65178429  0.36453759  1.0
  H  H19  1  0.37803984  0.84821571  0.86453759  1.0
  H  H20  1  0.08188008  0.53684213  0.90751128  1.0
  H  H21  1  0.08188008  0.96315787  0.40751128  1.0
  H  H22  1  0.91811992  0.46315787  0.09248872  1.0
  H  H23  1  0.91811992  0.03684213  0.59248872  1.0
  C  C24  1  0.20776093  0.49331197  0.84316802  1.0
  C  C25  1  0.20776093  0.00668803  0.34316802  1.0
  C  C26  1  0.79223907  0.50668803  0.15683198  1.0
  C  C27  1  0.79223907  0.99331197  0.65683198  1.0
  N  N28  1  0.37811396  0.32798472  0.46975690  1.0
  N  N29  1  0.37811396  0.17201528  0.96975690  1.0
  N  N30  1  0.62188604  0.67201528  0.53024310  1.0
  N  N31  1  0.62188604  0.82798472  0.03024310  1.0
  N  N32  1  0.67181696  0.30782850  0.56172735  1.0
  N  N33  1  0.67181696  0.19217150  0.06172735  1.0
  N  N34  1  0.32818304  0.69217150  0.43827265  1.0
  N  N35  1  0.32818304  0.80782850  0.93827265  1.0
  N  N36  1  0.28767846  0.40010724  0.87479817  1.0
  N  N37  1  0.28767846  0.09989276  0.37479817  1.0
  N  N38  1  0.71232154  0.59989276  0.12520183  1.0
  N  N39  1  0.71232154  0.90010724  0.62520183  1.0
  N  N40  1  0.27575825  0.53762540  0.73845789  1.0
  N  N41  1  0.27575825  0.96237460  0.23845789  1.0
  N  N42  1  0.72424175  0.46237460  0.26154211  1.0
  N  N43  1  0.72424175  0.03762540  0.76154211  1.0
  O  O44  1  0.21595886  0.37575190  0.97924033  1.0
  O  O45  1  0.21595886  0.12424810  0.47924033  1.0
  O  O46  1  0.78404114  0.62424810  0.02075967  1.0
  O  O47  1  0.78404114  0.87575190  0.52075967  1.0
  O  O48  1  0.42205152  0.34008554  0.80735102  1.0
  O  O49  1  0.42205152  0.15991446  0.30735102  1.0
  O  O50  1  0.57794848  0.65991446  0.19264898  1.0
  O  O51  1  0.57794848  0.84008554  0.69264898  1.0
  O  O52  1  0.42718321  0.49672222  0.65551415  1.0
  O  O53  1  0.42718321  0.00327778  0.15551415  1.0
  O  O54  1  0.57281679  0.50327778  0.34448585  1.0
  O  O55  1  0.57281679  0.99672222  0.84448585  1.0
  O  O56  1  0.18043793  0.62469346  0.72881987  1.0
  O  O57  1  0.18043793  0.87530654  0.22881987  1.0
  O  O58  1  0.81956207  0.37530654  0.27118013  1.0
  O  O59  1  0.81956207  0.12469346  0.77118013  1.0
