# generated using pymatgen
data_Ni(CN)6
_symmetry_space_group_name_H-M   'P 1'
_cell_length_a   9.07330454
_cell_length_b   9.07330454
_cell_length_c   7.29618412
_cell_angle_alpha   90.00000000
_cell_angle_beta   90.00000000
_cell_angle_gamma   35.48496408
_symmetry_Int_Tables_number   1
_chemical_formula_structural   Ni(CN)6
_chemical_formula_sum   'Ni2 C12 N12'
_cell_volume   348.67513106
_cell_formula_units_Z   2
loop_
 _symmetry_equiv_pos_site_id
 _symmetry_equiv_pos_as_xyz
  1  'x, y, z'
loop_
 _atom_site_type_symbol
 _atom_site_label
 _atom_site_symmetry_multiplicity
 _atom_site_fract_x
 _atom_site_fract_y
 _atom_site_fract_z
 _atom_site_occupancy
  C  C0  1  0.07071066  1.81236858  0.25000000  1.0
  C  C1  1  0.18763142  0.92928934  0.75000000  1.0
  C  C2  1  0.31844304  1.66879268  0.25000000  1.0
  C  C3  1  0.33120732  0.68155696  0.75000000  1.0
  C  C4  1  -0.06500385  1.90229682  0.41361905  1.0
  C  C5  1  0.09770318  1.06500385  0.91361905  1.0
  C  C6  1  0.09770318  1.06500385  0.58638095  1.0
  C  C7  1  -0.06500385  1.90229682  0.08638095  1.0
  C  C8  1  0.24233768  1.32766387  0.40472486  1.0
  C  C9  1  0.67233613  0.75766232  0.90472486  1.0
  C  C10  1  0.67233613  0.75766232  0.59527514  1.0
  C  C11  1  0.24233768  1.32766387  0.09527514  1.0
  N  N12  1  0.52379461  0.55072830  0.25000000  1.0
  N  N13  1  0.44927170  1.47620539  0.75000000  1.0
  N  N14  1  0.01628018  1.18583678  0.45389719  1.0
  N  N15  1  0.81416322  0.98371982  0.95389719  1.0
  N  N16  1  0.81416322  0.98371982  0.54610281  1.0
  N  N17  1  0.01628018  1.18583678  0.04610281  1.0
  N  N18  1  0.15622085  1.34536478  0.25000000  1.0
  N  N19  1  0.65463522  0.84377915  0.75000000  1.0
  N  N20  1  0.68116814  0.69272705  0.45179271  1.0
  N  N21  1  0.30727295  1.31883186  0.95179271  1.0
  N  N22  1  0.30727295  1.31883186  0.54820729  1.0
  N  N23  1  0.68116814  0.69272705  0.04820729  1.0
  Ni  Ni24  1  -0.16860249  1.44462762  0.25000000  1.0
  Ni  Ni25  1  0.55537238  1.16860249  0.75000000  1.0
