# generated using pymatgen
data_KBaVO4
_symmetry_space_group_name_H-M   'P 1'
_cell_length_a   7.84402985
_cell_length_b   5.97777033
_cell_length_c   10.49470573
_cell_angle_alpha   90.00000000
_cell_angle_beta   90.00000000
_cell_angle_gamma   90.00000000
_symmetry_Int_Tables_number   1
_chemical_formula_structural   KBaVO4
_chemical_formula_sum   'K4 Ba4 V4 O16'
_cell_volume   492.09474656
_cell_formula_units_Z   4
loop_
 _symmetry_equiv_pos_site_id
 _symmetry_equiv_pos_as_xyz
  1  'x, y, z'
loop_
 _atom_site_type_symbol
 _atom_site_label
 _atom_site_symmetry_multiplicity
 _atom_site_fract_x
 _atom_site_fract_y
 _atom_site_fract_z
 _atom_site_occupancy
  K  K0  1  0.83706298  0.75000000  0.42612863  1.0
  K  K1  1  0.33706298  0.75000000  0.07387137  1.0
  K  K2  1  0.16293702  0.25000000  0.57387137  1.0
  K  K3  1  0.66293702  0.25000000  0.92612863  1.0
  Ba  Ba4  1  0.50171449  0.75000000  0.69560892  1.0
  Ba  Ba5  1  0.00171449  0.75000000  0.80439108  1.0
  Ba  Ba6  1  0.49828551  0.25000000  0.30439108  1.0
  Ba  Ba7  1  0.99828551  0.25000000  0.19560892  1.0
  V  V8  1  0.77242543  0.75000000  0.08390653  1.0
  V  V9  1  0.27242543  0.75000000  0.41609347  1.0
  V  V10  1  0.22757457  0.25000000  0.91609347  1.0
  V  V11  1  0.72757457  0.25000000  0.58390653  1.0
  O  O12  1  0.70854481  0.98802052  0.16368497  1.0
  O  O13  1  0.70854481  0.51197948  0.16368497  1.0
  O  O14  1  0.20854481  0.98802052  0.33631503  1.0
  O  O15  1  0.20854481  0.51197948  0.33631503  1.0
  O  O16  1  0.29145519  0.48802052  0.83631503  1.0
  O  O17  1  0.29145519  0.01197948  0.83631503  1.0
  O  O18  1  0.79145519  0.48802052  0.66368497  1.0
  O  O19  1  0.79145519  0.01197948  0.66368497  1.0
  O  O20  1  0.99004735  0.75000000  0.07168569  1.0
  O  O21  1  0.49004735  0.75000000  0.42831431  1.0
  O  O22  1  0.00995265  0.25000000  0.92831431  1.0
  O  O23  1  0.50995265  0.25000000  0.57168569  1.0
  O  O24  1  0.18834978  0.75000000  0.56874759  1.0
  O  O25  1  0.68834978  0.75000000  0.93125241  1.0
  O  O26  1  0.81165022  0.25000000  0.43125241  1.0
  O  O27  1  0.31165022  0.25000000  0.06874759  1.0
