# generated using pymatgen
data_BaCdBi2
_symmetry_space_group_name_H-M   'P 1'
_cell_length_a   12.67693099
_cell_length_b   12.67693099
_cell_length_c   12.67693099
_cell_angle_alpha   158.35596147
_cell_angle_beta   158.35596147
_cell_angle_gamma   30.79701987
_symmetry_Int_Tables_number   1
_chemical_formula_structural   BaCdBi2
_chemical_formula_sum   'Ba2 Cd2 Bi4'
_cell_volume   276.96577465
_cell_formula_units_Z   2
loop_
 _symmetry_equiv_pos_site_id
 _symmetry_equiv_pos_as_xyz
  1  'x, y, z'
loop_
 _atom_site_type_symbol
 _atom_site_label
 _atom_site_symmetry_multiplicity
 _atom_site_fract_x
 _atom_site_fract_y
 _atom_site_fract_z
 _atom_site_occupancy
  Ba  Ba0  1  0.88435968  0.88435968  1.00000000  1.0
  Ba  Ba1  1  0.11564032  0.11564032  -0.00000000  1.0
  Cd  Cd2  1  0.25000000  0.75000000  0.50000000  1.0
  Cd  Cd3  1  0.75000000  0.25000000  0.50000000  1.0
  Bi  Bi4  1  0.67071242  0.67071242  1.00000000  1.0
  Bi  Bi5  1  0.32928758  0.32928758  -0.00000000  1.0
  Bi  Bi6  1  0.50000000  0.00000000  0.50000000  1.0
  Bi  Bi7  1  0.00000000  0.50000000  0.50000000  1.0
