# generated using pymatgen
data_ZrCr2
_symmetry_space_group_name_H-M   'P 1'
_cell_length_a   5.06207173
_cell_length_b   5.06207173
_cell_length_c   16.37420789
_cell_angle_alpha   90.00000000
_cell_angle_beta   90.00000000
_cell_angle_gamma   120.00000000
_symmetry_Int_Tables_number   1
_chemical_formula_structural   ZrCr2
_chemical_formula_sum   'Zr8 Cr16'
_cell_volume   363.36870505
_cell_formula_units_Z   8
loop_
 _symmetry_equiv_pos_site_id
 _symmetry_equiv_pos_as_xyz
  1  'x, y, z'
loop_
 _atom_site_type_symbol
 _atom_site_label
 _atom_site_symmetry_multiplicity
 _atom_site_fract_x
 _atom_site_fract_y
 _atom_site_fract_z
 _atom_site_occupancy
  Zr  Zr0  1  0.33333333  0.66666667  0.84393710  1.0
  Zr  Zr1  1  0.33333333  0.66666667  0.65606290  1.0
  Zr  Zr2  1  0.66666667  0.33333333  0.34393710  1.0
  Zr  Zr3  1  0.66666667  0.33333333  0.15606290  1.0
  Zr  Zr4  1  0.00000000  0.00000000  0.40540337  1.0
  Zr  Zr5  1  0.00000000  0.00000000  0.09459663  1.0
  Zr  Zr6  1  0.00000000  0.00000000  0.90540337  1.0
  Zr  Zr7  1  0.00000000  0.00000000  0.59459663  1.0
  Cr  Cr8  1  0.16567494  0.83432506  0.25000000  1.0
  Cr  Cr9  1  0.16567494  0.33134988  0.25000000  1.0
  Cr  Cr10  1  0.83432506  0.16567494  0.75000000  1.0
  Cr  Cr11  1  0.83432506  0.66865012  0.75000000  1.0
  Cr  Cr12  1  0.66865012  0.83432506  0.25000000  1.0
  Cr  Cr13  1  0.33134988  0.16567494  0.75000000  1.0
  Cr  Cr14  1  0.50000000  0.50000000  0.50000000  1.0
  Cr  Cr15  1  0.50000000  0.50000000  0.00000000  1.0
  Cr  Cr16  1  0.50000000  0.00000000  0.50000000  1.0
  Cr  Cr17  1  0.50000000  0.00000000  0.00000000  1.0
  Cr  Cr18  1  -0.00000000  0.50000000  0.50000000  1.0
  Cr  Cr19  1  -0.00000000  0.50000000  0.00000000  1.0
  Cr  Cr20  1  0.33333333  0.66666667  0.37692728  1.0
  Cr  Cr21  1  0.33333333  0.66666667  0.12307272  1.0
  Cr  Cr22  1  0.66666667  0.33333333  0.87692728  1.0
  Cr  Cr23  1  0.66666667  0.33333333  0.62307272  1.0
