# generated using pymatgen
data_K2NaAlAs2
_symmetry_space_group_name_H-M   'P 1'
_cell_length_a   8.90473355
_cell_length_b   8.90473355
_cell_length_c   8.90473355
_cell_angle_alpha   135.00137468
_cell_angle_beta   64.00451642
_cell_angle_gamma   136.98511932
_symmetry_Int_Tables_number   1
_chemical_formula_structural   K2NaAlAs2
_chemical_formula_sum   'K4 Na2 Al2 As4'
_cell_volume   336.03013352
_cell_formula_units_Z   2
loop_
 _symmetry_equiv_pos_site_id
 _symmetry_equiv_pos_as_xyz
  1  'x, y, z'
loop_
 _atom_site_type_symbol
 _atom_site_label
 _atom_site_symmetry_multiplicity
 _atom_site_fract_x
 _atom_site_fract_y
 _atom_site_fract_z
 _atom_site_occupancy
  K  K0  1  0.17471775  0.25840952  0.43312727  1.0
  K  K1  1  0.32528225  0.75840952  1.08369176  1.0
  K  K2  1  0.67471775  1.24159048  0.91630824  1.0
  K  K3  1  0.82528225  0.74159048  0.56687273  1.0
  Na  Na4  1  0.25000000  0.75000000  0.50000000  1.0
  Na  Na5  1  0.75000000  1.25000000  0.50000000  1.0
  Al  Al6  1  0.25000000  0.25000000  0.00000000  1.0
  Al  Al7  1  0.75000000  0.75000000  -0.00000000  1.0
  As  As8  1  0.40602559  0.29957935  0.70560494  1.0
  As  As9  1  0.09397441  0.79957935  0.89355375  1.0
  As  As10  1  0.90602559  1.20042065  1.10644625  1.0
  As  As11  1  0.59397441  0.70042065  0.29439506  1.0
