# generated using pymatgen
data_Sr2Sb2Se3O2
_symmetry_space_group_name_H-M   'P 1'
_cell_length_a   9.64190969
_cell_length_b   4.06489653
_cell_length_c   13.55930695
_cell_angle_alpha   90.00000000
_cell_angle_beta   123.83250351
_cell_angle_gamma   90.00000000
_symmetry_Int_Tables_number   1
_chemical_formula_structural   Sr2Sb2Se3O2
_chemical_formula_sum   'Sr4 Sb4 Se6 O4'
_cell_volume   441.44633994
_cell_formula_units_Z   2
loop_
 _symmetry_equiv_pos_site_id
 _symmetry_equiv_pos_as_xyz
  1  'x, y, z'
loop_
 _atom_site_type_symbol
 _atom_site_label
 _atom_site_symmetry_multiplicity
 _atom_site_fract_x
 _atom_site_fract_y
 _atom_site_fract_z
 _atom_site_occupancy
  Sr  Sr0  1  0.60622446  0.49994069  0.39686397  1.0
  Sr  Sr1  1  0.60622446  0.00005931  0.89686397  1.0
  Sr  Sr2  1  0.39377554  0.99994069  0.10313603  1.0
  Sr  Sr3  1  0.39377554  0.50005931  0.60313603  1.0
  Sb  Sb4  1  0.85589311  -0.00003363  0.30913892  1.0
  Sb  Sb5  1  0.85589311  0.50003363  0.80913892  1.0
  Sb  Sb6  1  0.14410689  0.49996637  0.19086108  1.0
  Sb  Sb7  1  0.14410689  1.00003363  0.69086108  1.0
  Se  Se8  1  0.29398055  0.99992615  0.36855100  1.0
  Se  Se9  1  0.29398055  0.50007385  0.86855100  1.0
  Se  Se10  1  0.70601945  0.49992615  0.13144900  1.0
  Se  Se11  1  0.70601945  0.00007385  0.63144900  1.0
  Se  Se12  1  0.00000000  0.50000000  0.50000000  1.0
  Se  Se13  1  0.00000000  0.00000000  0.00000000  1.0
  O  O14  1  0.65270784  0.99999508  0.31354153  1.0
  O  O15  1  0.65270784  0.50000492  0.81354153  1.0
  O  O16  1  0.34729216  0.49999508  0.18645847  1.0
  O  O17  1  0.34729216  0.00000492  0.68645847  1.0
