# generated using pymatgen
data_Eu2MgIrO6
_symmetry_space_group_name_H-M   'P 1'
_cell_length_a   5.49220638
_cell_length_b   5.68051622
_cell_length_c   9.56007482
_cell_angle_alpha   90.00000000
_cell_angle_beta   125.02597246
_cell_angle_gamma   90.00000000
_symmetry_Int_Tables_number   1
_chemical_formula_structural   Eu2MgIrO6
_chemical_formula_sum   'Eu4 Mg2 Ir2 O12'
_cell_volume   244.24323777
_cell_formula_units_Z   2
loop_
 _symmetry_equiv_pos_site_id
 _symmetry_equiv_pos_as_xyz
  1  'x, y, z'
loop_
 _atom_site_type_symbol
 _atom_site_label
 _atom_site_symmetry_multiplicity
 _atom_site_fract_x
 _atom_site_fract_y
 _atom_site_fract_z
 _atom_site_occupancy
  Eu  Eu0  1  0.73545381  0.05606617  0.24846763  1.0
  Eu  Eu1  1  0.73545381  0.44393383  0.74846763  1.0
  Eu  Eu2  1  0.26454619  0.55606617  0.25153237  1.0
  Eu  Eu3  1  0.26454619  0.94393383  0.75153237  1.0
  Mg  Mg4  1  0.50000000  0.50000000  -0.00000000  1.0
  Mg  Mg5  1  0.50000000  0.00000000  0.50000000  1.0
  Ir  Ir6  1  -0.00000000  0.50000000  0.50000000  1.0
  Ir  Ir7  1  0.00000000  0.00000000  0.00000000  1.0
  O  O8  1  0.84637816  0.47194293  0.25371432  1.0
  O  O9  1  0.84637816  0.02805707  0.75371432  1.0
  O  O10  1  0.15362184  0.97194293  0.24628568  1.0
  O  O11  1  0.15362184  0.52805707  0.74628568  1.0
  O  O12  1  0.75642483  0.79219236  0.44996484  1.0
  O  O13  1  0.75642483  0.70780764  0.94996484  1.0
  O  O14  1  0.24357517  0.29219236  0.05003516  1.0
  O  O15  1  0.24357517  0.20780764  0.55003516  1.0
  O  O16  1  0.65734195  0.30298843  0.45366677  1.0
  O  O17  1  0.65734195  0.19701157  0.95366677  1.0
  O  O18  1  0.34265805  0.80298843  0.04633323  1.0
  O  O19  1  0.34265805  0.69701157  0.54633323  1.0
