# generated using pymatgen
data_CaAgAsO4
_symmetry_space_group_name_H-M   'P 1'
_cell_length_a   5.62972048
_cell_length_b   5.62972048
_cell_length_c   7.15688157
_cell_angle_alpha   90.00000000
_cell_angle_beta   90.00000000
_cell_angle_gamma   116.25132206
_symmetry_Int_Tables_number   1
_chemical_formula_structural   CaAgAsO4
_chemical_formula_sum   'Ca2 Ag2 As2 O8'
_cell_volume   203.43392523
_cell_formula_units_Z   2
loop_
 _symmetry_equiv_pos_site_id
 _symmetry_equiv_pos_as_xyz
  1  'x, y, z'
loop_
 _atom_site_type_symbol
 _atom_site_label
 _atom_site_symmetry_multiplicity
 _atom_site_fract_x
 _atom_site_fract_y
 _atom_site_fract_z
 _atom_site_occupancy
  Ca  Ca0  1  0.00000000  0.00000000  0.50000000  1.0
  Ca  Ca1  1  0.00000000  0.00000000  0.00000000  1.0
  Ag  Ag2  1  -0.31497996  1.31497996  0.25000000  1.0
  Ag  Ag3  1  0.31497996  0.68502004  0.75000000  1.0
  As  As4  1  0.34694643  0.65305357  0.25000000  1.0
  As  As5  1  -0.34694643  1.34694643  0.75000000  1.0
  O  O6  1  0.24003726  0.75996274  0.44485013  1.0
  O  O7  1  0.24003726  0.75996274  0.05514987  1.0
  O  O8  1  -0.24003726  1.24003726  0.94485013  1.0
  O  O9  1  -0.24003726  1.24003726  0.55514987  1.0
  O  O10  1  0.22264666  0.30626564  0.25000000  1.0
  O  O11  1  -0.69373436  1.22264666  0.75000000  1.0
  O  O12  1  0.69373436  0.77735334  0.25000000  1.0
  O  O13  1  -0.22264666  1.69373436  0.75000000  1.0
