# generated using pymatgen
data_Cs2Ti(CuSe2)2
_symmetry_space_group_name_H-M   'P 1'
_cell_length_a   5.91348410
_cell_length_b   5.91348410
_cell_length_c   14.53110045
_cell_angle_alpha   90.00000000
_cell_angle_beta   90.00000000
_cell_angle_gamma   90.00000000
_symmetry_Int_Tables_number   1
_chemical_formula_structural   Cs2Ti(CuSe2)2
_chemical_formula_sum   'Cs4 Ti2 Cu4 Se8'
_cell_volume   508.14232589
_cell_formula_units_Z   2
loop_
 _symmetry_equiv_pos_site_id
 _symmetry_equiv_pos_as_xyz
  1  'x, y, z'
loop_
 _atom_site_type_symbol
 _atom_site_label
 _atom_site_symmetry_multiplicity
 _atom_site_fract_x
 _atom_site_fract_y
 _atom_site_fract_z
 _atom_site_occupancy
  Cs  Cs0  1  0.74220737  0.74220737  0.00000000  1.0
  Cs  Cs1  1  0.74220737  0.25779263  0.50000000  1.0
  Cs  Cs2  1  0.25779263  0.74220737  0.50000000  1.0
  Cs  Cs3  1  0.25779263  0.25779263  0.00000000  1.0
  Ti  Ti4  1  0.00000000  0.00000000  0.75000000  1.0
  Ti  Ti5  1  0.00000000  0.00000000  0.25000000  1.0
  Cu  Cu6  1  0.00000000  0.50000000  0.75000000  1.0
  Cu  Cu7  1  0.00000000  0.50000000  0.25000000  1.0
  Cu  Cu8  1  0.50000000  0.00000000  0.75000000  1.0
  Cu  Cu9  1  0.50000000  0.00000000  0.25000000  1.0
  Se  Se10  1  0.76042482  0.76042482  0.65678319  1.0
  Se  Se11  1  0.76042482  0.76042482  0.34321681  1.0
  Se  Se12  1  0.76042482  0.23957518  0.15678319  1.0
  Se  Se13  1  0.76042482  0.23957518  0.84321681  1.0
  Se  Se14  1  0.23957518  0.76042482  0.15678319  1.0
  Se  Se15  1  0.23957518  0.76042482  0.84321681  1.0
  Se  Se16  1  0.23957518  0.23957518  0.65678319  1.0
  Se  Se17  1  0.23957518  0.23957518  0.34321681  1.0
