# generated using pymatgen
data_BN
_symmetry_space_group_name_H-M   'P 1'
_cell_length_a   4.30056028
_cell_length_b   4.30056028
_cell_length_c   4.30056028
_cell_angle_alpha   143.95405122
_cell_angle_beta   71.13461600
_cell_angle_gamma   120.98411529
_symmetry_Int_Tables_number   1
_chemical_formula_structural   BN
_chemical_formula_sum   'B3 N3'
_cell_volume   39.43845995
_cell_formula_units_Z   3
loop_
 _symmetry_equiv_pos_site_id
 _symmetry_equiv_pos_as_xyz
  1  'x, y, z'
loop_
 _atom_site_type_symbol
 _atom_site_label
 _atom_site_symmetry_multiplicity
 _atom_site_fract_x
 _atom_site_fract_y
 _atom_site_fract_z
 _atom_site_occupancy
  B  B0  1  0.94955832  0.94955832  -0.00000000  1.0
  B  B1  1  0.61681337  0.42409483  0.19271853  1.0
  B  B2  1  1.23137630  1.42409483  0.80728147  1.0
  N  N3  1  0.60114874  0.79257962  0.80856912  1.0
  N  N4  1  0.98401049  0.79257962  0.19143088  1.0
  N  N5  1  0.27709278  0.27709278  -0.00000000  1.0
