# generated using pymatgen
data_Zr2Co
_symmetry_space_group_name_H-M   'P 1'
_cell_length_a   5.25628652
_cell_length_b   5.25628652
_cell_length_c   5.25628652
_cell_angle_alpha   106.02896230
_cell_angle_beta   106.02896230
_cell_angle_gamma   116.59964498
_symmetry_Int_Tables_number   1
_chemical_formula_structural   Zr2Co
_chemical_formula_sum   'Zr4 Co2'
_cell_volume   110.47988162
_cell_formula_units_Z   2
loop_
 _symmetry_equiv_pos_site_id
 _symmetry_equiv_pos_as_xyz
  1  'x, y, z'
loop_
 _atom_site_type_symbol
 _atom_site_label
 _atom_site_symmetry_multiplicity
 _atom_site_fract_x
 _atom_site_fract_y
 _atom_site_fract_z
 _atom_site_occupancy
  Zr  Zr0  1  0.82717967  0.32717967  1.15435933  1.0
  Zr  Zr1  1  0.67282033  0.82717967  0.50000000  1.0
  Zr  Zr2  1  0.32717967  0.17282033  0.50000000  1.0
  Zr  Zr3  1  1.17282033  0.67282033  0.84564067  1.0
  Co  Co4  1  0.25000000  0.25000000  0.00000000  1.0
  Co  Co5  1  0.75000000  0.75000000  0.00000000  1.0
