# generated using pymatgen
data_ReN2
_symmetry_space_group_name_H-M   'P 1'
_cell_length_a   3.68769149
_cell_length_b   3.68769149
_cell_length_c   5.74462019
_cell_angle_alpha   84.45388594
_cell_angle_beta   95.54611406
_cell_angle_gamma   134.89720175
_symmetry_Int_Tables_number   1
_chemical_formula_structural   ReN2
_chemical_formula_sum   'Re2 N4'
_cell_volume   55.03539805
_cell_formula_units_Z   2
loop_
 _symmetry_equiv_pos_site_id
 _symmetry_equiv_pos_as_xyz
  1  'x, y, z'
loop_
 _atom_site_type_symbol
 _atom_site_label
 _atom_site_symmetry_multiplicity
 _atom_site_fract_x
 _atom_site_fract_y
 _atom_site_fract_z
 _atom_site_occupancy
  Re  Re0  1  1.32520753  -0.32520753  0.76925449  1.0
  Re  Re1  1  0.67479247  -0.67479247  0.23074551  1.0
  N  N2  1  0.62734939  -0.62734939  0.86440215  1.0
  N  N3  1  1.37265061  -0.37265061  0.13559785  1.0
  N  N4  1  1.09720306  -0.09720306  0.47050577  1.0
  N  N5  1  0.90279694  -0.90279694  0.52949423  1.0
