# generated using pymatgen
data_Na3CaMg3AlF14
_symmetry_space_group_name_H-M   'P 1'
_cell_length_a   7.29354106
_cell_length_b   7.29354106
_cell_length_c   7.29354106
_cell_angle_alpha   59.76165513
_cell_angle_beta   59.76165513
_cell_angle_gamma   59.76165513
_symmetry_Int_Tables_number   1
_chemical_formula_structural   Na3CaMg3AlF14
_chemical_formula_sum   'Na3 Ca1 Mg3 Al1 F14'
_cell_volume   272.86230894
_cell_formula_units_Z   1
loop_
 _symmetry_equiv_pos_site_id
 _symmetry_equiv_pos_as_xyz
  1  'x, y, z'
loop_
 _atom_site_type_symbol
 _atom_site_label
 _atom_site_symmetry_multiplicity
 _atom_site_fract_x
 _atom_site_fract_y
 _atom_site_fract_z
 _atom_site_occupancy
  Na  Na0  1  1.00000000  1.50000000  0.00000000  1.0
  Na  Na1  1  1.00000000  1.00000000  0.50000000  1.0
  Na  Na2  1  1.50000000  1.00000000  0.00000000  1.0
  Ca  Ca3  1  0.00000000  0.00000000  0.00000000  1.0
  Mg  Mg4  1  0.50000000  0.00000000  -0.50000000  1.0
  Mg  Mg5  1  0.50000000  -0.50000000  0.00000000  1.0
  Mg  Mg6  1  0.00000000  0.50000000  -0.50000000  1.0
  Al  Al7  1  1.50000000  0.50000000  0.50000000  1.0
  F  F8  1  0.87679560  0.87679560  0.87679560  1.0
  F  F9  1  1.12320440  1.12320440  0.12320440  1.0
  F  F10  1  1.43804774  0.43804774  0.79819594  1.0
  F  F11  1  1.43804774  0.79819594  0.43804774  1.0
  F  F12  1  1.20180406  0.56195226  0.56195226  1.0
  F  F13  1  1.56195226  0.20180406  0.56195226  1.0
  F  F14  1  1.56195226  0.56195226  0.20180406  1.0
  F  F15  1  1.79819594  0.43804774  0.43804774  1.0
  F  F16  1  1.17040045  1.17040045  0.57853675  1.0
  F  F17  1  1.17040045  1.57853675  0.17040045  1.0
  F  F18  1  1.42146325  0.82959955  -0.17040045  1.0
  F  F19  1  0.82959955  1.42146325  -0.17040045  1.0
  F  F20  1  0.82959955  0.82959955  0.42146325  1.0
  F  F21  1  1.57853675  1.17040045  0.17040045  1.0
