# generated using pymatgen
data_Sc(AsO)2
_symmetry_space_group_name_H-M   'P 1'
_cell_length_a   8.17895454
_cell_length_b   8.17895454
_cell_length_c   8.17895454
_cell_angle_alpha   103.88391658
_cell_angle_beta   103.88391658
_cell_angle_gamma   121.33821567
_symmetry_Int_Tables_number   1
_chemical_formula_structural   Sc(AsO)2
_chemical_formula_sum   'Sc4 As8 O8'
_cell_volume   407.40632660
_cell_formula_units_Z   4
loop_
 _symmetry_equiv_pos_site_id
 _symmetry_equiv_pos_as_xyz
  1  'x, y, z'
loop_
 _atom_site_type_symbol
 _atom_site_label
 _atom_site_symmetry_multiplicity
 _atom_site_fract_x
 _atom_site_fract_y
 _atom_site_fract_z
 _atom_site_occupancy
  Sc  Sc0  1  1.37500000  1.12500000  1.25000000  1.0
  Sc  Sc1  1  0.87500000  1.12500000  0.75000000  1.0
  Sc  Sc2  1  0.87500000  1.12500000  0.25000000  1.0
  Sc  Sc3  1  0.87500000  1.62500000  0.75000000  1.0
  As  As4  1  1.30370263  1.48759145  0.81611118  1.0
  As  As5  1  1.07851973  0.76240855  0.31611118  1.0
  As  As6  1  0.67148027  0.48759145  0.18388882  1.0
  As  As7  1  1.44629737  0.76240855  0.68388882  1.0
  As  As8  1  0.51240855  0.32851973  0.81611118  1.0
  As  As9  1  1.23759145  1.55370263  1.31611118  1.0
  As  As10  1  0.51240855  0.69629737  0.18388882  1.0
  As  As11  1  1.23759145  0.92148027  0.68388882  1.0
  O  O12  1  1.09110271  1.15710968  0.93399303  1.0
  O  O13  1  1.52688335  1.09289032  1.43399303  1.0
  O  O14  1  0.22311665  0.15710968  0.06600697  1.0
  O  O15  1  0.65889729  1.09289032  0.56600697  1.0
  O  O16  1  0.84289032  0.77688335  0.93399303  1.0
  O  O17  1  0.90710968  1.34110271  0.43399303  1.0
  O  O18  1  0.84289032  0.90889729  0.06600697  1.0
  O  O19  1  0.90710968  1.47311665  0.56600697  1.0
