# generated using pymatgen
data_Al(FeO2)2
_symmetry_space_group_name_H-M   'P 1'
_cell_length_a   5.90781057
_cell_length_b   5.90781057
_cell_length_c   5.90781057
_cell_angle_alpha   60.00000000
_cell_angle_beta   60.00000000
_cell_angle_gamma   60.00000000
_symmetry_Int_Tables_number   1
_chemical_formula_structural   Al(FeO2)2
_chemical_formula_sum   'Al2 Fe4 O8'
_cell_volume   145.80240483
_cell_formula_units_Z   2
loop_
 _symmetry_equiv_pos_site_id
 _symmetry_equiv_pos_as_xyz
  1  'x, y, z'
loop_
 _atom_site_type_symbol
 _atom_site_label
 _atom_site_symmetry_multiplicity
 _atom_site_fract_x
 _atom_site_fract_y
 _atom_site_fract_z
 _atom_site_occupancy
  Al  Al0  1  0.75000000  -0.25000000  0.75000000  1.0
  Al  Al1  1  0.50000000  0.50000000  -0.50000000  1.0
  Fe  Fe2  1  0.12500000  0.12500000  1.62500000  1.0
  Fe  Fe3  1  0.12500000  0.62500000  0.12500000  1.0
  Fe  Fe4  1  0.62500000  0.12500000  1.12500000  1.0
  Fe  Fe5  1  0.12500000  0.12500000  0.12500000  1.0
  O  O6  1  0.37532141  0.37532141  -0.12596422  1.0
  O  O7  1  0.37532141  -0.12596422  0.37532141  1.0
  O  O8  1  -0.12596422  0.37532141  0.37532141  1.0
  O  O9  1  0.37532141  0.37532141  0.37532141  1.0
  O  O10  1  -0.12532141  0.87467859  0.37596422  1.0
  O  O11  1  0.87467859  -0.62403578  0.87467859  1.0
  O  O12  1  -0.62403578  0.87467859  0.87467859  1.0
  O  O13  1  0.87467859  -0.12532141  0.87467859  1.0
