# generated using pymatgen
data_ZnH16Au2C8(NO)8
_symmetry_space_group_name_H-M   'P 1'
_cell_length_a   10.36733416
_cell_length_b   8.56117491
_cell_length_c   6.78286808
_cell_angle_alpha   101.08821054
_cell_angle_beta   106.81353036
_cell_angle_gamma   94.09662394
_symmetry_Int_Tables_number   1
_chemical_formula_structural   ZnH16Au2C8(NO)8
_chemical_formula_sum   'Zn1 H16 Au2 C8 N8 O8'
_cell_volume   560.33244597
_cell_formula_units_Z   1
loop_
 _symmetry_equiv_pos_site_id
 _symmetry_equiv_pos_as_xyz
  1  'x, y, z'
loop_
 _atom_site_type_symbol
 _atom_site_label
 _atom_site_symmetry_multiplicity
 _atom_site_fract_x
 _atom_site_fract_y
 _atom_site_fract_z
 _atom_site_occupancy
  Zn  Zn0  1  -0.50000000  -0.00000000  -0.00000000  1.0
  H  H1  1  -0.56797251  -0.70776996  -0.99842704  1.0
  H  H2  1  -0.43202749  -0.29223004  -0.00157296  1.0
  H  H3  1  -0.41511518  -0.67822933  -0.86027617  1.0
  H  H4  1  -0.58488482  -0.32177067  -0.13972383  1.0
  H  H5  1  -0.67523827  -1.01158797  -0.77070035  1.0
  H  H6  1  -0.32476173  0.01158797  -0.22929965  1.0
  H  H7  1  -0.52801574  -0.26975591  -0.72593706  1.0
  H  H8  1  -0.47198426  -0.73024409  -0.27406294  1.0
  H  H9  1  -0.55487687  -0.87186299  -0.62427098  1.0
  H  H10  1  -0.44512313  -0.12813701  -0.37572902  1.0
  H  H11  1  -0.62010118  -0.39479739  -0.48948059  1.0
  H  H12  1  -0.37989882  -0.60520261  -0.51051941  1.0
  H  H13  1  -0.74374261  -0.50347460  -0.45994745  1.0
  H  H14  1  -0.25625739  -0.49652540  -0.54005255  1.0
  H  H15  1  -0.55669146  -0.61797275  -0.40324369  1.0
  H  H16  1  -0.44330854  -0.38202725  -0.59675631  1.0
  Au  Au17  1  -0.00000000  -0.00000000  -0.50000000  1.0
  Au  Au18  1  -0.00000000  -0.50000000  -0.00000000  1.0
  C  C19  1  -0.82405259  -0.58254981  -0.99720127  1.0
  C  C20  1  -0.17594741  -0.41745019  -0.00279873  1.0
  C  C21  1  -0.90023843  -0.27671277  -0.89519835  1.0
  C  C22  1  -0.09976157  -0.72328723  -0.10480165  1.0
  C  C23  1  -0.18812927  -0.98598869  -0.67884899  1.0
  C  C24  1  -0.81187073  -0.01401131  -0.32115101  1.0
  C  C25  1  -0.93696450  -0.78517442  -0.54092978  1.0
  C  C26  1  -0.06303550  -0.21482558  -0.45907022  1.0
  N  N27  1  -0.72122423  -0.62920454  -0.99506621  1.0
  N  N28  1  -0.27877577  -0.37079546  -0.00493379  1.0
  N  N29  1  -0.84020376  -0.14767556  -0.83323250  1.0
  N  N30  1  -0.15979624  -0.85232444  -0.16676750  1.0
  N  N31  1  -0.29710740  -0.97696544  -0.78197154  1.0
  N  N32  1  -0.70289260  -0.02303456  -0.21802846  1.0
  N  N33  1  -0.89996012  -0.65948539  -0.56168290  1.0
  N  N34  1  -0.10003988  -0.34051461  -0.43831710  1.0
  O  O35  1  -0.47894049  -0.74699244  -0.99357707  1.0
  O  O36  1  -0.52105951  -0.25300756  -0.00642293  1.0
  O  O37  1  -0.58023936  -0.96673467  -0.74538929  1.0
  O  O38  1  -0.41976064  -0.03326533  -0.25461071  1.0
  O  O39  1  -0.49665813  -0.70315039  -0.41375834  1.0
  O  O40  1  -0.50334187  -0.29684961  -0.58624166  1.0
  O  O41  1  -0.64873005  -0.45249086  -0.39170032  1.0
  O  O42  1  -0.35126995  -0.54750914  -0.60829968  1.0
