# generated using pymatgen
data_K2La2Ti3O10
_symmetry_space_group_name_H-M   'P 1'
_cell_length_a   15.24937817
_cell_length_b   15.24937817
_cell_length_c   15.24937817
_cell_angle_alpha   165.28279005
_cell_angle_beta   165.28279005
_cell_angle_gamma   20.87131205
_symmetry_Int_Tables_number   1
_chemical_formula_structural   K2La2Ti3O10
_chemical_formula_sum   'K2 La2 Ti3 O10'
_cell_volume   228.83854012
_cell_formula_units_Z   1
loop_
 _symmetry_equiv_pos_site_id
 _symmetry_equiv_pos_as_xyz
  1  'x, y, z'
loop_
 _atom_site_type_symbol
 _atom_site_label
 _atom_site_symmetry_multiplicity
 _atom_site_fract_x
 _atom_site_fract_y
 _atom_site_fract_z
 _atom_site_occupancy
  K  K0  1  0.70773072  0.70773072  1.00000000  1.0
  K  K1  1  0.29226928  0.29226928  0.00000000  1.0
  La  La2  1  0.57158807  0.57158807  1.00000000  1.0
  La  La3  1  0.42841193  0.42841193  0.00000000  1.0
  Ti  Ti4  1  0.85982920  0.85982920  1.00000000  1.0
  Ti  Ti5  1  0.14017080  0.14017080  0.00000000  1.0
  Ti  Ti6  1  0.00000000  0.00000000  0.00000000  1.0
  O  O7  1  0.37315833  0.87315833  0.50000000  1.0
  O  O8  1  0.62684167  0.12684167  0.50000000  1.0
  O  O9  1  0.87315833  0.37315833  0.50000000  1.0
  O  O10  1  0.12684167  0.62684167  0.50000000  1.0
  O  O11  1  0.93579546  0.93579546  1.00000000  1.0
  O  O12  1  0.06420454  0.06420454  0.00000000  1.0
  O  O13  1  0.80133763  0.80133763  1.00000000  1.0
  O  O14  1  0.19866237  0.19866237  0.00000000  1.0
  O  O15  1  0.50000000  0.00000000  0.50000000  1.0
  O  O16  1  0.00000000  0.50000000  0.50000000  1.0
