# generated using pymatgen
data_ZrCoGe
_symmetry_space_group_name_H-M   'P 1'
_cell_length_a   6.55676428
_cell_length_b   3.93978157
_cell_length_c   7.22425083
_cell_angle_alpha   90.00000000
_cell_angle_beta   90.00000000
_cell_angle_gamma   90.00000000
_symmetry_Int_Tables_number   1
_chemical_formula_structural   ZrCoGe
_chemical_formula_sum   'Zr4 Co4 Ge4'
_cell_volume   186.61843018
_cell_formula_units_Z   4
loop_
 _symmetry_equiv_pos_site_id
 _symmetry_equiv_pos_as_xyz
  1  'x, y, z'
loop_
 _atom_site_type_symbol
 _atom_site_label
 _atom_site_symmetry_multiplicity
 _atom_site_fract_x
 _atom_site_fract_y
 _atom_site_fract_z
 _atom_site_occupancy
  Zr  Zr0  1  0.99262505  0.75000000  0.69962780  1.0
  Zr  Zr1  1  0.49262505  0.75000000  0.80037220  1.0
  Zr  Zr2  1  0.00737495  0.25000000  0.30037220  1.0
  Zr  Zr3  1  0.50737495  0.25000000  0.19962780  1.0
  Co  Co4  1  0.85824626  0.75000000  0.06990303  1.0
  Co  Co5  1  0.35824626  0.75000000  0.43009697  1.0
  Co  Co6  1  0.14175374  0.25000000  0.93009697  1.0
  Co  Co7  1  0.64175374  0.25000000  0.56990303  1.0
  Ge  Ge8  1  0.72520627  0.75000000  0.39555331  1.0
  Ge  Ge9  1  0.22520627  0.75000000  0.10444669  1.0
  Ge  Ge10  1  0.27479373  0.25000000  0.60444669  1.0
  Ge  Ge11  1  0.77479373  0.25000000  0.89555331  1.0
