# generated using pymatgen
data_SiRu2
_symmetry_space_group_name_H-M   'P 1'
_cell_length_a   5.30034753
_cell_length_b   4.02927278
_cell_length_c   7.44260069
_cell_angle_alpha   90.00000000
_cell_angle_beta   90.00000000
_cell_angle_gamma   90.00000000
_symmetry_Int_Tables_number   1
_chemical_formula_structural   SiRu2
_chemical_formula_sum   'Si4 Ru8'
_cell_volume   158.94824410
_cell_formula_units_Z   4
loop_
 _symmetry_equiv_pos_site_id
 _symmetry_equiv_pos_as_xyz
  1  'x, y, z'
loop_
 _atom_site_type_symbol
 _atom_site_label
 _atom_site_symmetry_multiplicity
 _atom_site_fract_x
 _atom_site_fract_y
 _atom_site_fract_z
 _atom_site_occupancy
  Si  Si0  1  0.79898859  0.75000000  0.40165238  1.0
  Si  Si1  1  0.29898859  0.75000000  0.09834762  1.0
  Si  Si2  1  0.20101141  0.25000000  0.59834762  1.0
  Si  Si3  1  0.70101141  0.25000000  0.90165238  1.0
  Ru  Ru4  1  0.98599895  0.75000000  0.71196704  1.0
  Ru  Ru5  1  0.48599895  0.75000000  0.78803296  1.0
  Ru  Ru6  1  0.01400105  0.25000000  0.28803296  1.0
  Ru  Ru7  1  0.51400105  0.25000000  0.21196704  1.0
  Ru  Ru8  1  0.83317525  0.75000000  0.06497730  1.0
  Ru  Ru9  1  0.33317525  0.75000000  0.43502270  1.0
  Ru  Ru10  1  0.16682475  0.25000000  0.93502270  1.0
  Ru  Ru11  1  0.66682475  0.25000000  0.56497730  1.0
