# generated using pymatgen
data_Li8SbO3
_symmetry_space_group_name_H-M   'P 1'
_cell_length_a   5.24031947
_cell_length_b   5.24031947
_cell_length_c   5.24031947
_cell_angle_alpha   90.00000000
_cell_angle_beta   90.00000000
_cell_angle_gamma   90.00000000
_symmetry_Int_Tables_number   1
_chemical_formula_structural   Li8SbO3
_chemical_formula_sum   'Li8 Sb1 O3'
_cell_volume   143.90414165
_cell_formula_units_Z   1
loop_
 _symmetry_equiv_pos_site_id
 _symmetry_equiv_pos_as_xyz
  1  'x, y, z'
loop_
 _atom_site_type_symbol
 _atom_site_label
 _atom_site_symmetry_multiplicity
 _atom_site_fract_x
 _atom_site_fract_y
 _atom_site_fract_z
 _atom_site_occupancy
  Li  Li0  1  0.27358111  0.27358111  0.27358111  1.0
  Li  Li1  1  0.72641889  0.72641889  0.27358111  1.0
  Li  Li2  1  0.72641889  0.27358111  0.72641889  1.0
  Li  Li3  1  0.27358111  0.72641889  0.72641889  1.0
  Li  Li4  1  0.27358111  0.27358111  0.72641889  1.0
  Li  Li5  1  0.72641889  0.72641889  0.72641889  1.0
  Li  Li6  1  0.72641889  0.27358111  0.27358111  1.0
  Li  Li7  1  0.27358111  0.72641889  0.27358111  1.0
  Sb  Sb8  1  0.00000000  0.00000000  0.00000000  1.0
  O  O9  1  0.00000000  0.50000000  0.50000000  1.0
  O  O10  1  0.50000000  0.50000000  0.00000000  1.0
  O  O11  1  0.50000000  0.00000000  0.50000000  1.0
