# generated using pymatgen
data_Na6MnSe4
_symmetry_space_group_name_H-M   'P 1'
_cell_length_a   9.42170191
_cell_length_b   9.42170191
_cell_length_c   7.27482055
_cell_angle_alpha   90.00000000
_cell_angle_beta   90.00000000
_cell_angle_gamma   120.00000000
_symmetry_Int_Tables_number   1
_chemical_formula_structural   Na6MnSe4
_chemical_formula_sum   'Na12 Mn2 Se8'
_cell_volume   559.25726615
_cell_formula_units_Z   2
loop_
 _symmetry_equiv_pos_site_id
 _symmetry_equiv_pos_as_xyz
  1  'x, y, z'
loop_
 _atom_site_type_symbol
 _atom_site_label
 _atom_site_symmetry_multiplicity
 _atom_site_fract_x
 _atom_site_fract_y
 _atom_site_fract_z
 _atom_site_occupancy
  Na  Na0  1  0.70405706  0.85202853  0.28967555  1.0
  Na  Na1  1  0.85202853  0.70405706  0.78967555  1.0
  Na  Na2  1  0.85202853  0.14797147  0.78967555  1.0
  Na  Na3  1  0.14797147  0.85202853  0.28967555  1.0
  Na  Na4  1  0.14797147  0.29594294  0.28967555  1.0
  Na  Na5  1  0.29594294  0.14797147  0.78967555  1.0
  Na  Na6  1  0.93796194  0.46898097  0.12052498  1.0
  Na  Na7  1  0.46898097  0.93796194  0.62052498  1.0
  Na  Na8  1  0.46898097  0.53101903  0.62052498  1.0
  Na  Na9  1  0.53101903  0.46898097  0.12052498  1.0
  Na  Na10  1  0.53101903  0.06203806  0.12052498  1.0
  Na  Na11  1  0.06203806  0.53101903  0.62052498  1.0
  Mn  Mn12  1  0.33333333  0.66666667  0.00184368  1.0
  Mn  Mn13  1  0.66666667  0.33333333  0.50184368  1.0
  Se  Se14  1  0.37197812  0.18598906  0.39313736  1.0
  Se  Se15  1  0.18598906  0.37197812  0.89313736  1.0
  Se  Se16  1  0.18598906  0.81401094  0.89313736  1.0
  Se  Se17  1  0.81401094  0.18598906  0.39313736  1.0
  Se  Se18  1  0.81401094  0.62802188  0.39313736  1.0
  Se  Se19  1  0.62802188  0.81401094  0.89313736  1.0
  Se  Se20  1  0.33333333  0.66666667  0.35044268  1.0
  Se  Se21  1  0.66666667  0.33333333  0.85044268  1.0
