# generated using pymatgen
data_Li2Ta2(OF2)3
_symmetry_space_group_name_H-M   'P 1'
_cell_length_a   5.66801214
_cell_length_b   5.66801214
_cell_length_c   21.29704442
_cell_angle_alpha   90.00000000
_cell_angle_beta   90.00000000
_cell_angle_gamma   120.00000000
_symmetry_Int_Tables_number   1
_chemical_formula_structural   Li2Ta2(OF2)3
_chemical_formula_sum   'Li6 Ta6 O9 F18'
_cell_volume   592.53159457
_cell_formula_units_Z   3
loop_
 _symmetry_equiv_pos_site_id
 _symmetry_equiv_pos_as_xyz
  1  'x, y, z'
loop_
 _atom_site_type_symbol
 _atom_site_label
 _atom_site_symmetry_multiplicity
 _atom_site_fract_x
 _atom_site_fract_y
 _atom_site_fract_z
 _atom_site_occupancy
  Li  Li0  1  0.44588889  0.44217454  0.85852033  1.0
  Li  Li1  1  0.44217454  0.44588889  0.14147967  1.0
  Li  Li2  1  0.99628566  0.55411111  0.52518699  1.0
  Li  Li3  1  0.55782546  0.00371434  0.19185366  1.0
  Li  Li4  1  0.55411111  0.99628566  0.47481301  1.0
  Li  Li5  1  0.00371434  0.55782546  0.80814634  1.0
  Ta  Ta6  1  0.11100102  0.77899828  0.95410369  1.0
  Ta  Ta7  1  0.77899828  0.11100102  0.04589631  1.0
  Ta  Ta8  1  0.66799726  0.88899898  0.62077035  1.0
  Ta  Ta9  1  0.22100172  0.33200274  0.28743702  1.0
  Ta  Ta10  1  0.88899898  0.66799726  0.37922965  1.0
  Ta  Ta11  1  0.33200274  0.22100172  0.71256298  1.0
  O  O12  1  0.42423304  0.92579170  0.00638331  1.0
  O  O13  1  0.92579170  0.42423304  0.99361669  1.0
  O  O14  1  0.50155866  0.57576696  0.67304997  1.0
  O  O15  1  0.07420830  0.49844134  0.33971664  1.0
  O  O16  1  0.57576696  0.50155866  0.32695003  1.0
  O  O17  1  0.49844134  0.07420830  0.66028336  1.0
  O  O18  1  0.91142527  0.91142527  0.00000000  1.0
  O  O19  1  -0.00000000  0.08857473  0.66666667  1.0
  O  O20  1  0.08857473  0.00000000  0.33333333  1.0
  F  F21  1  0.16452329  0.88454909  0.76367525  1.0
  F  F22  1  0.88454909  0.16452329  0.23632475  1.0
  F  F23  1  0.72002580  0.83547671  0.43034192  1.0
  F  F24  1  0.11545091  0.27997420  0.09700859  1.0
  F  F25  1  0.83547671  0.72002580  0.56965808  1.0
  F  F26  1  0.27997420  0.11545091  0.90299141  1.0
  F  F27  1  0.82451596  0.63345932  0.88479265  1.0
  F  F28  1  0.63345932  0.82451596  0.11520735  1.0
  F  F29  1  0.80894335  0.17548404  0.55145932  1.0
  F  F30  1  0.36654068  0.19105665  0.21812598  1.0
  F  F31  1  0.17548404  0.80894335  0.44854068  1.0
  F  F32  1  0.19105665  0.36654068  0.78187402  1.0
  F  F33  1  0.63704755  0.35612371  0.77580145  1.0
  F  F34  1  0.35612371  0.63704755  0.22419855  1.0
  F  F35  1  0.71907616  0.36295245  0.44246812  1.0
  F  F36  1  0.64387629  0.28092384  0.10913478  1.0
  F  F37  1  0.36295245  0.71907616  0.55753188  1.0
  F  F38  1  0.28092384  0.64387629  0.89086522  1.0
