# generated using pymatgen
data_Al7(TlS4)3
_symmetry_space_group_name_H-M   'P 1'
_cell_length_a   9.23551147
_cell_length_b   12.63485407
_cell_length_c   9.75013137
_cell_angle_alpha   90.00000000
_cell_angle_beta   95.93188933
_cell_angle_gamma   90.00000000
_symmetry_Int_Tables_number   1
_chemical_formula_structural   Al7(TlS4)3
_chemical_formula_sum   'Al14 Tl6 S24'
_cell_volume   1131.64432666
_cell_formula_units_Z   2
loop_
 _symmetry_equiv_pos_site_id
 _symmetry_equiv_pos_as_xyz
  1  'x, y, z'
loop_
 _atom_site_type_symbol
 _atom_site_label
 _atom_site_symmetry_multiplicity
 _atom_site_fract_x
 _atom_site_fract_y
 _atom_site_fract_z
 _atom_site_occupancy
  Al  Al0  1  0.97812947  0.29177575  0.69679829  1.0
  Al  Al1  1  0.02187053  0.79177575  0.30320171  1.0
  Al  Al2  1  0.97117302  0.54440864  0.52764297  1.0
  Al  Al3  1  0.02882698  0.04440864  0.47235703  1.0
  Al  Al4  1  0.70808946  0.06517783  0.69016912  1.0
  Al  Al5  1  0.29191054  0.56517783  0.30983088  1.0
  Al  Al6  1  0.62753712  0.31441118  0.85763463  1.0
  Al  Al7  1  0.37246288  0.81441118  0.14236537  1.0
  Al  Al8  1  0.52031951  0.06297611  0.97849672  1.0
  Al  Al9  1  0.47968049  0.56297611  0.02150328  1.0
  Al  Al10  1  0.32933494  0.15754875  0.67696226  1.0
  Al  Al11  1  0.67066506  0.65754875  0.32303774  1.0
  Al  Al12  1  0.30288468  0.45618321  0.67939107  1.0
  Al  Al13  1  0.69711532  0.95618321  0.32060893  1.0
  Tl  Tl14  1  0.97054312  0.57443731  0.97953020  1.0
  Tl  Tl15  1  0.02945688  0.07443731  0.02046980  1.0
  Tl  Tl16  1  0.86764987  0.79994142  0.72464877  1.0
  Tl  Tl17  1  0.13235013  0.29994142  0.27535123  1.0
  Tl  Tl18  1  0.62383074  0.31109880  0.33208781  1.0
  Tl  Tl19  1  0.37616926  0.81109880  0.66791219  1.0
  S  S20  1  0.94667274  0.11077740  0.67247804  1.0
  S  S21  1  0.05332726  0.61077740  0.32752196  1.0
  S  S22  1  0.93148123  0.36937697  0.49040026  1.0
  S  S23  1  0.06851877  0.86937697  0.50959974  1.0
  S  S24  1  0.87157831  0.33660541  0.88543986  1.0
  S  S25  1  0.12842169  0.83660541  0.11456014  1.0
  S  S26  1  0.86167839  0.08346044  0.29387831  1.0
  S  S27  1  0.13832161  0.58346044  0.70612169  1.0
  S  S28  1  0.75447200  0.62178298  0.54240958  1.0
  S  S29  1  0.24552800  0.12178298  0.45759042  1.0
  S  S30  1  0.72426017  -0.00335443  0.90260465  1.0
  S  S31  1  0.27573983  0.49664557  0.09739535  1.0
  S  S32  1  0.56706844  0.21601550  0.65661901  1.0
  S  S33  1  0.43293156  0.71601550  0.34338099  1.0
  S  S34  1  0.52300615  0.48192956  0.81338883  1.0
  S  S35  1  0.47699385  0.98192956  0.18661117  1.0
  S  S36  1  0.46878415  0.73617816  0.96824689  1.0
  S  S37  1  0.53121585  0.23617816  0.03175311  1.0
  S  S38  1  0.35741912  0.43451097  0.45962727  1.0
  S  S39  1  0.64258088  0.93451097  0.54037273  1.0
  S  S40  1  0.32437866  0.02294929  0.82659869  1.0
  S  S41  1  0.67562134  0.52294929  0.17340131  1.0
  S  S42  1  0.22225370  0.30160875  0.77212351  1.0
  S  S43  1  0.77774630  0.80160875  0.22787649  1.0
