# generated using pymatgen
data_Ni10SnP3
_symmetry_space_group_name_H-M   'P 1'
_cell_length_a   7.69379645
_cell_length_b   7.69379645
_cell_length_c   9.63686177
_cell_angle_alpha   90.00000000
_cell_angle_beta   90.00000000
_cell_angle_gamma   120.00000000
_symmetry_Int_Tables_number   1
_chemical_formula_structural   Ni10SnP3
_chemical_formula_sum   'Ni30 Sn3 P9'
_cell_volume   494.02354334
_cell_formula_units_Z   3
loop_
 _symmetry_equiv_pos_site_id
 _symmetry_equiv_pos_as_xyz
  1  'x, y, z'
loop_
 _atom_site_type_symbol
 _atom_site_label
 _atom_site_symmetry_multiplicity
 _atom_site_fract_x
 _atom_site_fract_y
 _atom_site_fract_z
 _atom_site_occupancy
  Ni  Ni0  1  0.72532590  0.86266295  0.19955440  1.0
  Ni  Ni1  1  0.86266295  0.72532590  0.80044560  1.0
  Ni  Ni2  1  0.86266295  0.13733705  0.80044560  1.0
  Ni  Ni3  1  0.13733705  0.86266295  0.19955440  1.0
  Ni  Ni4  1  0.13733705  0.27467410  0.19955440  1.0
  Ni  Ni5  1  0.27467410  0.13733705  0.80044560  1.0
  Ni  Ni6  1  0.98131320  0.49065660  0.24028672  1.0
  Ni  Ni7  1  0.49065660  0.98131320  0.75971328  1.0
  Ni  Ni8  1  0.49065660  0.50934340  0.75971328  1.0
  Ni  Ni9  1  0.50934340  0.49065660  0.24028672  1.0
  Ni  Ni10  1  0.50934340  0.01868680  0.24028672  1.0
  Ni  Ni11  1  0.01868680  0.50934340  0.75971328  1.0
  Ni  Ni12  1  0.37839272  0.18919636  0.07260873  1.0
  Ni  Ni13  1  0.18919636  0.37839272  0.92739127  1.0
  Ni  Ni14  1  0.18919636  0.81080364  0.92739127  1.0
  Ni  Ni15  1  0.81080364  0.18919636  0.07260873  1.0
  Ni  Ni16  1  0.81080364  0.62160728  0.07260873  1.0
  Ni  Ni17  1  0.62160728  0.81080364  0.92739127  1.0
  Ni  Ni18  1  0.66210867  0.66210867  0.50000000  1.0
  Ni  Ni19  1  0.66210867  0.00000000  0.50000000  1.0
  Ni  Ni20  1  0.00000000  0.66210867  0.50000000  1.0
  Ni  Ni21  1  0.00000000  0.33789133  0.50000000  1.0
  Ni  Ni22  1  0.33789133  0.33789133  0.50000000  1.0
  Ni  Ni23  1  0.33789133  0.00000000  0.50000000  1.0
  Ni  Ni24  1  0.33333333  0.66666667  0.09607206  1.0
  Ni  Ni25  1  0.66666667  0.33333333  0.90392794  1.0
  Ni  Ni26  1  0.33333333  0.66666667  0.61600421  1.0
  Ni  Ni27  1  0.66666667  0.33333333  0.38399579  1.0
  Ni  Ni28  1  0.00000000  0.00000000  0.38032283  1.0
  Ni  Ni29  1  0.00000000  0.00000000  0.61967717  1.0
  Sn  Sn30  1  0.33333333  0.66666667  0.36059517  1.0
  Sn  Sn31  1  0.66666667  0.33333333  0.63940483  1.0
  Sn  Sn32  1  0.00000000  0.00000000  0.00000000  1.0
  P  P33  1  0.32872746  0.16436373  0.30924696  1.0
  P  P34  1  0.16436373  0.32872746  0.69075304  1.0
  P  P35  1  0.16436373  0.83563627  0.69075304  1.0
  P  P36  1  0.83563627  0.16436373  0.30924696  1.0
  P  P37  1  0.83563627  0.67127254  0.30924696  1.0
  P  P38  1  0.67127254  0.83563627  0.69075304  1.0
  P  P39  1  0.50000000  0.50000000  0.00000000  1.0
  P  P40  1  0.50000000  0.00000000  0.00000000  1.0
  P  P41  1  -0.00000000  0.50000000  0.00000000  1.0
