# generated using pymatgen
data_Zn(GaO2)2
_symmetry_space_group_name_H-M   'P 1'
_cell_length_a   2.91960570
_cell_length_b   9.65996655
_cell_length_c   9.79820758
_cell_angle_alpha   90.00000000
_cell_angle_beta   90.00000000
_cell_angle_gamma   90.00000000
_symmetry_Int_Tables_number   1
_chemical_formula_structural   Zn(GaO2)2
_chemical_formula_sum   'Zn4 Ga8 O16'
_cell_volume   276.34172345
_cell_formula_units_Z   4
loop_
 _symmetry_equiv_pos_site_id
 _symmetry_equiv_pos_as_xyz
  1  'x, y, z'
loop_
 _atom_site_type_symbol
 _atom_site_label
 _atom_site_symmetry_multiplicity
 _atom_site_fract_x
 _atom_site_fract_y
 _atom_site_fract_z
 _atom_site_occupancy
  Zn  Zn0  1  0.24998970  0.35916768  0.25000000  1.0
  Zn  Zn1  1  0.24998970  0.14083232  0.75000000  1.0
  Zn  Zn2  1  0.75001030  0.85916768  0.25000000  1.0
  Zn  Zn3  1  0.75001030  0.64083232  0.75000000  1.0
  Ga  Ga4  1  0.74998677  0.11605835  0.42656095  1.0
  Ga  Ga5  1  0.74998677  0.11605835  0.07343905  1.0
  Ga  Ga6  1  0.74998677  0.38394165  0.92656095  1.0
  Ga  Ga7  1  0.74998677  0.38394165  0.57343905  1.0
  Ga  Ga8  1  0.25001323  0.61605835  0.42656095  1.0
  Ga  Ga9  1  0.25001323  0.61605835  0.07343905  1.0
  Ga  Ga10  1  0.25001323  0.88394165  0.92656095  1.0
  Ga  Ga11  1  0.25001323  0.88394165  0.57343905  1.0
  O  O12  1  0.74999607  0.47875094  0.38825656  1.0
  O  O13  1  0.74999607  0.47875094  0.11174344  1.0
  O  O14  1  0.74999607  0.02124906  0.88825656  1.0
  O  O15  1  0.74999607  0.02124906  0.61174344  1.0
  O  O16  1  0.25000393  0.97875094  0.38825656  1.0
  O  O17  1  0.25000393  0.97875094  0.11174344  1.0
  O  O18  1  0.25000393  0.52124906  0.88825656  1.0
  O  O19  1  0.25000393  0.52124906  0.61174344  1.0
  O  O20  1  0.74998122  0.20980906  0.25000000  1.0
  O  O21  1  0.74998122  0.29019094  0.75000000  1.0
  O  O22  1  0.25001878  0.70980906  0.25000000  1.0
  O  O23  1  0.25001878  0.79019094  0.75000000  1.0
  O  O24  1  0.24994163  0.25000000  0.50000000  1.0
  O  O25  1  0.24994163  0.25000000  -0.00000000  1.0
  O  O26  1  0.75005837  0.75000000  0.50000000  1.0
  O  O27  1  0.75005837  0.75000000  -0.00000000  1.0
