# generated using pymatgen
data_RbNaC2
_symmetry_space_group_name_H-M   'P 1'
_cell_length_a   4.49134655
_cell_length_b   5.50275085
_cell_length_c   7.16702286
_cell_angle_alpha   90.00000000
_cell_angle_beta   90.00000000
_cell_angle_gamma   90.00000000
_symmetry_Int_Tables_number   1
_chemical_formula_structural   RbNaC2
_chemical_formula_sum   'Rb2 Na2 C4'
_cell_volume   177.13125759
_cell_formula_units_Z   2
loop_
 _symmetry_equiv_pos_site_id
 _symmetry_equiv_pos_as_xyz
  1  'x, y, z'
loop_
 _atom_site_type_symbol
 _atom_site_label
 _atom_site_symmetry_multiplicity
 _atom_site_fract_x
 _atom_site_fract_y
 _atom_site_fract_z
 _atom_site_occupancy
  Rb  Rb0  1  0.00000000  0.00000000  0.14599281  1.0
  Rb  Rb1  1  0.50000000  0.50000000  0.85400719  1.0
  Na  Na2  1  0.00000000  0.50000000  0.48513497  1.0
  Na  Na3  1  0.50000000  0.00000000  0.51486503  1.0
  C  C4  1  0.00000000  0.11498595  0.70191054  1.0
  C  C5  1  0.00000000  0.88501405  0.70191054  1.0
  C  C6  1  0.50000000  0.61498595  0.29808946  1.0
  C  C7  1  0.50000000  0.38501405  0.29808946  1.0
