# generated using pymatgen
data_Sc4Fe
_symmetry_space_group_name_H-M   'P 1'
_cell_length_a   6.88673227
_cell_length_b   6.88673227
_cell_length_c   6.88673227
_cell_angle_alpha   60.00000000
_cell_angle_beta   60.00000000
_cell_angle_gamma   60.00000000
_symmetry_Int_Tables_number   1
_chemical_formula_structural   Sc4Fe
_chemical_formula_sum   'Sc8 Fe2'
_cell_volume   230.95352819
_cell_formula_units_Z   2
loop_
 _symmetry_equiv_pos_site_id
 _symmetry_equiv_pos_as_xyz
  1  'x, y, z'
loop_
 _atom_site_type_symbol
 _atom_site_label
 _atom_site_symmetry_multiplicity
 _atom_site_fract_x
 _atom_site_fract_y
 _atom_site_fract_z
 _atom_site_occupancy
  Sc  Sc0  1  -0.11333085  0.88666915  0.33999254  1.0
  Sc  Sc1  1  0.88666915  -0.66000746  0.88666915  1.0
  Sc  Sc2  1  0.36333085  0.36333085  0.36333085  1.0
  Sc  Sc3  1  -0.08999254  0.36333085  0.36333085  1.0
  Sc  Sc4  1  -0.66000746  0.88666915  0.88666915  1.0
  Sc  Sc5  1  0.88666915  -0.11333085  0.88666915  1.0
  Sc  Sc6  1  0.36333085  -0.08999254  0.36333085  1.0
  Sc  Sc7  1  0.36333085  0.36333085  -0.08999254  1.0
  Fe  Fe8  1  0.50000000  0.50000000  -0.50000000  1.0
  Fe  Fe9  1  0.75000000  -0.25000000  0.75000000  1.0
