# generated using pymatgen
data_InGaCl4
_symmetry_space_group_name_H-M   'P 1'
_cell_length_a   10.78556205
_cell_length_b   7.33230335
_cell_length_c   9.93655293
_cell_angle_alpha   90.00000000
_cell_angle_beta   90.00000000
_cell_angle_gamma   90.00000000
_symmetry_Int_Tables_number   1
_chemical_formula_structural   InGaCl4
_chemical_formula_sum   'In4 Ga4 Cl16'
_cell_volume   785.81254113
_cell_formula_units_Z   4
loop_
 _symmetry_equiv_pos_site_id
 _symmetry_equiv_pos_as_xyz
  1  'x, y, z'
loop_
 _atom_site_type_symbol
 _atom_site_label
 _atom_site_symmetry_multiplicity
 _atom_site_fract_x
 _atom_site_fract_y
 _atom_site_fract_z
 _atom_site_occupancy
  In  In0  1  0.28288497  0.75000000  0.23489457  1.0
  In  In1  1  0.78288497  0.75000000  0.26510543  1.0
  In  In2  1  0.71711503  0.25000000  0.76510543  1.0
  In  In3  1  0.21711503  0.25000000  0.73489457  1.0
  Ga  Ga4  1  0.44684253  0.75000000  0.68002522  1.0
  Ga  Ga5  1  0.94684253  0.75000000  0.81997478  1.0
  Ga  Ga6  1  0.55315747  0.25000000  0.31997478  1.0
  Ga  Ga7  1  0.05315747  0.25000000  0.18002522  1.0
  Cl  Cl8  1  0.44579501  0.99534701  0.81116821  1.0
  Cl  Cl9  1  0.44579501  0.50465299  0.81116821  1.0
  Cl  Cl10  1  0.94579501  0.99534701  0.68883179  1.0
  Cl  Cl11  1  0.94579501  0.50465299  0.68883179  1.0
  Cl  Cl12  1  0.55420499  0.49534701  0.18883179  1.0
  Cl  Cl13  1  0.55420499  0.00465299  0.18883179  1.0
  Cl  Cl14  1  0.05420499  0.49534701  0.31116821  1.0
  Cl  Cl15  1  0.05420499  0.00465299  0.31116821  1.0
  Cl  Cl16  1  0.27555000  0.75000000  0.55824810  1.0
  Cl  Cl17  1  0.77555000  0.75000000  0.94175190  1.0
  Cl  Cl18  1  0.72445000  0.25000000  0.44175190  1.0
  Cl  Cl19  1  0.22445000  0.25000000  0.05824810  1.0
  Cl  Cl20  1  0.11664376  0.75000000  0.94127771  1.0
  Cl  Cl21  1  0.61664376  0.75000000  0.55872229  1.0
  Cl  Cl22  1  0.88335624  0.25000000  0.05872229  1.0
  Cl  Cl23  1  0.38335624  0.25000000  0.44127771  1.0
