# generated using pymatgen
data_NiAgTe2
_symmetry_space_group_name_H-M   'P 1'
_cell_length_a   7.47985605
_cell_length_b   7.47985605
_cell_length_c   7.47985605
_cell_angle_alpha   30.91763871
_cell_angle_beta   30.91763871
_cell_angle_gamma   30.91763871
_symmetry_Int_Tables_number   1
_chemical_formula_structural   NiAgTe2
_chemical_formula_sum   'Ni1 Ag1 Te2'
_cell_volume   97.99481174
_cell_formula_units_Z   1
loop_
 _symmetry_equiv_pos_site_id
 _symmetry_equiv_pos_as_xyz
  1  'x, y, z'
loop_
 _atom_site_type_symbol
 _atom_site_label
 _atom_site_symmetry_multiplicity
 _atom_site_fract_x
 _atom_site_fract_y
 _atom_site_fract_z
 _atom_site_occupancy
  Ni  Ni0  1  0.73616433  -0.26383567  -0.26383567  1.0
  Ag  Ag1  1  0.88241182  -0.11758818  -0.11758818  1.0
  Te  Te2  1  0.46683303  0.46683303  -0.53316697  1.0
  Te  Te3  1  0.00999082  0.00999082  0.00999082  1.0
