# generated using pymatgen
data_Na2LaSiO5
_symmetry_space_group_name_H-M   'P 1'
_cell_length_a   9.64486338
_cell_length_b   7.57156085
_cell_length_c   6.69280739
_cell_angle_alpha   90.00000000
_cell_angle_beta   90.00000000
_cell_angle_gamma   90.00000000
_symmetry_Int_Tables_number   1
_chemical_formula_structural   Na2LaSiO5
_chemical_formula_sum   'Na8 La4 Si4 O20'
_cell_volume   488.75343634
_cell_formula_units_Z   4
loop_
 _symmetry_equiv_pos_site_id
 _symmetry_equiv_pos_as_xyz
  1  'x, y, z'
loop_
 _atom_site_type_symbol
 _atom_site_label
 _atom_site_symmetry_multiplicity
 _atom_site_fract_x
 _atom_site_fract_y
 _atom_site_fract_z
 _atom_site_occupancy
  O  O0  1  0.93578218  0.92403241  0.32524631  1.0
  O  O1  1  0.93578218  0.57596759  0.32524631  1.0
  O  O2  1  0.43578218  0.92403241  0.17475369  1.0
  O  O3  1  0.43578218  0.57596759  0.17475369  1.0
  O  O4  1  0.06421782  0.42403241  0.67475369  1.0
  O  O5  1  0.06421782  0.07596759  0.67475369  1.0
  O  O6  1  0.56421782  0.42403241  0.82524631  1.0
  O  O7  1  0.56421782  0.07596759  0.82524631  1.0
  O  O8  1  0.97714825  0.25000000  0.00558936  1.0
  O  O9  1  0.47714825  0.25000000  0.49441064  1.0
  O  O10  1  0.02285175  0.75000000  0.99441064  1.0
  O  O11  1  0.52285175  0.75000000  0.50558936  1.0
  O  O12  1  0.74962256  0.25000000  0.59590457  1.0
  O  O13  1  0.24962256  0.25000000  0.90409543  1.0
  O  O14  1  0.25037744  0.75000000  0.40409543  1.0
  O  O15  1  0.75037744  0.75000000  0.09590457  1.0
  O  O16  1  0.71574552  0.25000000  0.22512200  1.0
  O  O17  1  0.21574552  0.25000000  0.27487800  1.0
  O  O18  1  0.28425448  0.75000000  0.77487800  1.0
  O  O19  1  0.78425448  0.75000000  0.72512200  1.0
  Si  Si20  1  0.58764647  0.25000000  0.67993519  1.0
  Si  Si21  1  0.08764647  0.25000000  0.82006481  1.0
  Si  Si22  1  0.41235353  0.75000000  0.32006481  1.0
  Si  Si23  1  0.91235353  0.75000000  0.17993519  1.0
  Na  Na24  1  0.68331963  0.96304084  0.39032894  1.0
  Na  Na25  1  0.68331963  0.53695916  0.39032894  1.0
  Na  Na26  1  0.18331963  0.96304084  0.10967106  1.0
  Na  Na27  1  0.18331963  0.53695916  0.10967106  1.0
  Na  Na28  1  0.31668037  0.46304084  0.60967106  1.0
  Na  Na29  1  0.31668037  0.03695916  0.60967106  1.0
  Na  Na30  1  0.81668037  0.46304084  0.89032894  1.0
  Na  Na31  1  0.81668037  0.03695916  0.89032894  1.0
  La  La32  1  0.95874833  0.25000000  0.37091599  1.0
  La  La33  1  0.45874833  0.25000000  0.12908401  1.0
  La  La34  1  0.04125167  0.75000000  0.62908401  1.0
  La  La35  1  0.54125167  0.75000000  0.87091599  1.0
