# generated using pymatgen
data_Li4Zn(H2N)6
_symmetry_space_group_name_H-M   'P 1'
_cell_length_a   8.21986306
_cell_length_b   8.21986306
_cell_length_c   10.11695384
_cell_angle_alpha   90.00000000
_cell_angle_beta   90.00000000
_cell_angle_gamma   144.51030556
_symmetry_Int_Tables_number   1
_chemical_formula_structural   Li4Zn(H2N)6
_chemical_formula_sum   'Li8 Zn2 H24 N12'
_cell_volume   396.84730594
_cell_formula_units_Z   2
loop_
 _symmetry_equiv_pos_site_id
 _symmetry_equiv_pos_as_xyz
  1  'x, y, z'
loop_
 _atom_site_type_symbol
 _atom_site_label
 _atom_site_symmetry_multiplicity
 _atom_site_fract_x
 _atom_site_fract_y
 _atom_site_fract_z
 _atom_site_occupancy
  Li  Li0  1  0.00146967  0.99853033  0.75000000  1.0
  Li  Li1  1  -0.00146967  0.00146967  0.25000000  1.0
  Li  Li2  1  0.15769383  0.84230617  0.75000000  1.0
  Li  Li3  1  -0.15769383  0.15769383  0.25000000  1.0
  Li  Li4  1  -0.34266832  0.34266832  0.75000000  1.0
  Li  Li5  1  0.34266832  0.65733168  0.25000000  1.0
  Li  Li6  1  0.99487530  0.99487530  0.50000000  1.0
  Li  Li7  1  0.00512470  0.00512470  -0.00000000  1.0
  Zn  Zn8  1  -0.17067209  0.17067209  0.75000000  1.0
  Zn  Zn9  1  0.17067209  0.82932791  0.25000000  1.0
  H  H10  1  0.20100587  0.64076743  0.86076085  1.0
  H  H11  1  0.64076743  1.20100587  0.13923915  1.0
  H  H12  1  0.35923257  0.79899413  0.63923915  1.0
  H  H13  1  -0.20100587  0.35923257  0.36076085  1.0
  H  H14  1  0.31045894  0.47000864  0.65223971  1.0
  H  H15  1  0.47000864  1.31045894  0.34776029  1.0
  H  H16  1  0.52999136  0.68954106  0.84776029  1.0
  H  H17  1  -0.31045894  0.52999136  0.15223971  1.0
  H  H18  1  -0.11386269  0.64847856  0.55185929  1.0
  H  H19  1  0.64847856  0.88613731  0.44814071  1.0
  H  H20  1  0.35152144  1.11386269  0.94814071  1.0
  H  H21  1  0.11386269  0.35152144  0.05185929  1.0
  H  H22  1  0.08905047  0.32827527  0.53773192  1.0
  H  H23  1  0.32827527  1.08905047  0.46226808  1.0
  H  H24  1  0.67172473  0.91094953  0.96226808  1.0
  H  H25  1  -0.08905047  0.67172473  0.03773192  1.0
  H  H26  1  -0.08201343  0.43787393  0.94385442  1.0
  H  H27  1  0.43787393  0.91798657  0.05614558  1.0
  H  H28  1  0.56212607  1.08201343  0.55614558  1.0
  H  H29  1  0.08201343  0.56212607  0.44385442  1.0
  H  H30  1  -0.36246665  0.54698444  0.61969043  1.0
  H  H31  1  0.54698444  0.63753335  0.38030957  1.0
  H  H32  1  0.45301556  1.36246665  0.88030957  1.0
  H  H33  1  0.36246665  0.45301556  0.11969043  1.0
  N  N34  1  -0.15631357  0.68327745  0.63403855  1.0
  N  N35  1  0.68327745  0.84368643  0.36596145  1.0
  N  N36  1  0.31672255  1.15631357  0.86596145  1.0
  N  N37  1  0.15631357  0.31672255  0.13403855  1.0
  N  N38  1  -0.00622969  0.50210791  0.84905375  1.0
  N  N39  1  0.50210791  0.99377031  0.15094625  1.0
  N  N40  1  0.49789209  1.00622969  0.65094625  1.0
  N  N41  1  0.00622969  0.49789209  0.34905375  1.0
  N  N42  1  0.10709204  0.28142573  0.62561636  1.0
  N  N43  1  0.28142573  1.10709204  0.37438364  1.0
  N  N44  1  0.71857427  0.89290796  0.87438364  1.0
  N  N45  1  -0.10709204  0.71857427  0.12561636  1.0
