# generated using pymatgen
data_PH8N4Cl
_symmetry_space_group_name_H-M   'P 1'
_cell_length_a   5.09184141
_cell_length_b   16.47006138
_cell_length_c   7.38509389
_cell_angle_alpha   90.00000000
_cell_angle_beta   90.00000000
_cell_angle_gamma   90.00000000
_symmetry_Int_Tables_number   1
_chemical_formula_structural   PH8N4Cl
_chemical_formula_sum   'P4 H32 N16 Cl4'
_cell_volume   619.33569022
_cell_formula_units_Z   4
loop_
 _symmetry_equiv_pos_site_id
 _symmetry_equiv_pos_as_xyz
  1  'x, y, z'
loop_
 _atom_site_type_symbol
 _atom_site_label
 _atom_site_symmetry_multiplicity
 _atom_site_fract_x
 _atom_site_fract_y
 _atom_site_fract_z
 _atom_site_occupancy
  P  P0  1  0.50000000  0.37381401  0.25000000  1.0
  P  P1  1  0.50000000  0.62618599  0.75000000  1.0
  P  P2  1  0.00000000  0.87381401  0.25000000  1.0
  P  P3  1  0.00000000  0.12618599  0.75000000  1.0
  H  H4  1  0.31403670  0.25581005  0.13900196  1.0
  H  H5  1  0.31403670  0.74418995  0.63900196  1.0
  H  H6  1  0.81403670  0.75581005  0.36099804  1.0
  H  H7  1  0.81403670  0.24418995  0.86099804  1.0
  H  H8  1  0.68596330  0.25581005  0.36099804  1.0
  H  H9  1  0.68596330  0.74418995  0.86099804  1.0
  H  H10  1  0.18596330  0.75581005  0.13900196  1.0
  H  H11  1  0.18596330  0.24418995  0.63900196  1.0
  H  H12  1  0.27882745  0.33502689  -0.00971180  1.0
  H  H13  1  0.27882745  0.66497311  0.49028820  1.0
  H  H14  1  0.77882745  0.83502689  0.50971180  1.0
  H  H15  1  0.77882745  0.16497311  1.00971180  1.0
  H  H16  1  0.72117255  0.33502689  0.50971180  1.0
  H  H17  1  0.72117255  0.66497311  1.00971180  1.0
  H  H18  1  0.22117255  0.83502689  -0.00971180  1.0
  H  H19  1  0.22117255  0.16497311  0.49028820  1.0
  H  H20  1  0.25152142  0.48840384  0.31895594  1.0
  H  H21  1  0.25152142  0.51159616  0.81895594  1.0
  H  H22  1  0.75152142  0.98840384  0.18104406  1.0
  H  H23  1  0.75152142  0.01159616  0.68104406  1.0
  H  H24  1  0.74847858  0.48840384  0.18104406  1.0
  H  H25  1  0.74847858  0.51159616  0.68104406  1.0
  H  H26  1  0.24847858  0.98840384  0.31895594  1.0
  H  H27  1  0.24847858  0.01159616  0.81895594  1.0
  H  H28  1  0.22785132  0.41500169  0.48543042  1.0
  H  H29  1  0.22785132  0.58499831  0.98543042  1.0
  H  H30  1  0.72785132  0.91500169  0.01456958  1.0
  H  H31  1  0.72785132  0.08499831  0.51456958  1.0
  H  H32  1  0.77214868  0.41500169  0.01456958  1.0
  H  H33  1  0.77214868  0.58499831  0.51456958  1.0
  H  H34  1  0.27214868  0.91500169  0.48543042  1.0
  H  H35  1  0.27214868  0.08499831  0.98543042  1.0
  N  N36  1  0.38150047  0.31097367  0.09702586  1.0
  N  N37  1  0.38150047  0.68902633  0.59702586  1.0
  N  N38  1  0.88150047  0.81097367  0.40297414  1.0
  N  N39  1  0.88150047  0.18902633  0.90297414  1.0
  N  N40  1  0.61849953  0.31097367  0.40297414  1.0
  N  N41  1  0.61849953  0.68902633  0.90297414  1.0
  N  N42  1  0.11849953  0.81097367  0.09702586  1.0
  N  N43  1  0.11849953  0.18902633  0.59702586  1.0
  N  N44  1  0.32223065  0.43535647  0.37158410  1.0
  N  N45  1  0.32223065  0.56464353  0.87158410  1.0
  N  N46  1  0.82223065  0.93535647  0.12841590  1.0
  N  N47  1  0.82223065  0.06464353  0.62841590  1.0
  N  N48  1  0.67776935  0.43535647  0.12841590  1.0
  N  N49  1  0.67776935  0.56464353  0.62841590  1.0
  N  N50  1  0.17776935  0.93535647  0.37158410  1.0
  N  N51  1  0.17776935  0.06464353  0.87158410  1.0
  Cl  Cl52  1  0.50000000  0.11283301  0.25000000  1.0
  Cl  Cl53  1  0.50000000  0.88716699  0.75000000  1.0
  Cl  Cl54  1  0.00000000  0.61283301  0.25000000  1.0
  Cl  Cl55  1  0.00000000  0.38716699  0.75000000  1.0
