# generated using pymatgen
data_Sn4OF6
_symmetry_space_group_name_H-M   'P 1'
_cell_length_a   5.11542788
_cell_length_b   11.27866708
_cell_length_c   16.89936767
_cell_angle_alpha   90.00000000
_cell_angle_beta   90.00000000
_cell_angle_gamma   90.00000000
_symmetry_Int_Tables_number   1
_chemical_formula_structural   Sn4OF6
_chemical_formula_sum   'Sn16 O4 F24'
_cell_volume   975.01253373
_cell_formula_units_Z   4
loop_
 _symmetry_equiv_pos_site_id
 _symmetry_equiv_pos_as_xyz
  1  'x, y, z'
loop_
 _atom_site_type_symbol
 _atom_site_label
 _atom_site_symmetry_multiplicity
 _atom_site_fract_x
 _atom_site_fract_y
 _atom_site_fract_z
 _atom_site_occupancy
  Sn  Sn0  1  0.48964335  0.90160052  0.51732927  1.0
  Sn  Sn1  1  0.98964335  0.59839948  0.48267073  1.0
  Sn  Sn2  1  0.51035665  0.40160052  0.98267073  1.0
  Sn  Sn3  1  0.01035665  0.09839948  0.01732927  1.0
  Sn  Sn4  1  0.48585896  0.71364926  0.68936500  1.0
  Sn  Sn5  1  0.98585896  0.78635074  0.31063500  1.0
  Sn  Sn6  1  0.51414104  0.21364926  0.81063500  1.0
  Sn  Sn7  1  0.01414104  0.28635074  0.18936500  1.0
  Sn  Sn8  1  0.35103205  0.30378470  0.58683387  1.0
  Sn  Sn9  1  0.85103205  0.19621530  0.41316613  1.0
  Sn  Sn10  1  0.64896795  0.80378470  0.91316613  1.0
  Sn  Sn11  1  0.14896795  0.69621530  0.08683387  1.0
  Sn  Sn12  1  0.05790714  0.97271919  0.68525260  1.0
  Sn  Sn13  1  0.55790714  0.52728081  0.31474740  1.0
  Sn  Sn14  1  0.94209286  0.47271919  0.81474740  1.0
  Sn  Sn15  1  0.44209286  0.02728081  0.18525260  1.0
  O  O16  1  0.35578693  0.87030392  0.63355486  1.0
  O  O17  1  0.85578693  0.62969608  0.36644514  1.0
  O  O18  1  0.64421307  0.37030392  0.86644514  1.0
  O  O19  1  0.14421307  0.12969608  0.13355486  1.0
  F  F20  1  0.40197237  0.80923660  0.79688228  1.0
  F  F21  1  0.90197237  0.69076340  0.20311772  1.0
  F  F22  1  0.59802763  0.30923660  0.70311772  1.0
  F  F23  1  0.09802763  0.19076340  0.29688228  1.0
  F  F24  1  0.27792072  0.77028128  0.96414693  1.0
  F  F25  1  0.77792072  0.72971872  0.03585307  1.0
  F  F26  1  0.72207928  0.27028128  0.53585307  1.0
  F  F27  1  0.22207928  0.22971872  0.46414693  1.0
  F  F28  1  0.19025551  0.87551989  0.12043851  1.0
  F  F29  1  0.69025551  0.62448011  0.87956149  1.0
  F  F30  1  0.80974449  0.37551989  0.37956149  1.0
  F  F31  1  0.30974449  0.12448011  0.62043851  1.0
  F  F32  1  0.87093606  0.97034325  0.57267042  1.0
  F  F33  1  0.37093606  0.52965675  0.42732958  1.0
  F  F34  1  0.12906394  0.47034325  0.92732958  1.0
  F  F35  1  0.62906394  0.02965675  0.07267042  1.0
  F  F36  1  0.86955176  0.78576029  0.70297753  1.0
  F  F37  1  0.36955176  0.71423971  0.29702247  1.0
  F  F38  1  0.13044824  0.28576029  0.79702247  1.0
  F  F39  1  0.63044824  0.21423971  0.20297753  1.0
  F  F40  1  0.65619359  0.72972744  0.53857680  1.0
  F  F41  1  0.15619359  0.77027256  0.46142320  1.0
  F  F42  1  0.34380641  0.22972744  0.96142320  1.0
  F  F43  1  0.84380641  0.27027256  0.03857680  1.0
