# generated using pymatgen
data_K2V8O21
_symmetry_space_group_name_H-M   'P 1'
_cell_length_a   7.89732443
_cell_length_b   7.89732443
_cell_length_c   15.01177095
_cell_angle_alpha   88.50095650
_cell_angle_beta   91.49904350
_cell_angle_gamma   153.84667350
_symmetry_Int_Tables_number   1
_chemical_formula_structural   K2V8O21
_chemical_formula_sum   'K2 V8 O21'
_cell_volume   412.52660172
_cell_formula_units_Z   1
loop_
 _symmetry_equiv_pos_site_id
 _symmetry_equiv_pos_as_xyz
  1  'x, y, z'
loop_
 _atom_site_type_symbol
 _atom_site_label
 _atom_site_symmetry_multiplicity
 _atom_site_fract_x
 _atom_site_fract_y
 _atom_site_fract_z
 _atom_site_occupancy
  K  K0  1  0.52823912  0.47176088  0.81134593  1.0
  K  K1  1  0.47176088  -0.47176088  0.18865407  1.0
  V  V2  1  0.91084142  0.08915858  0.57384790  1.0
  V  V3  1  0.08915858  -0.08915858  0.42615210  1.0
  V  V4  1  0.83090331  0.16909669  0.97925414  1.0
  V  V5  1  0.16909669  -0.16909669  0.02074586  1.0
  V  V6  1  0.81075891  0.18924109  0.77045889  1.0
  V  V7  1  0.18924109  -0.18924109  0.22954111  1.0
  V  V8  1  0.69014148  0.30985852  0.57330680  1.0
  V  V9  1  0.30985852  -0.30985852  0.42669320  1.0
  O  O10  1  0.95624144  0.04375856  0.67224216  1.0
  O  O11  1  0.04375856  -0.04375856  0.32775784  1.0
  O  O12  1  0.88473320  0.11526680  0.87859226  1.0
  O  O13  1  0.11526680  -0.11526680  0.12140774  1.0
  O  O14  1  0.80551196  0.19448804  0.46545795  1.0
  O  O15  1  0.19448804  -0.19448804  0.53454205  1.0
  O  O16  1  0.78762730  0.21237270  0.64116528  1.0
  O  O17  1  0.21237270  -0.21237270  0.35883472  1.0
  O  O18  1  0.71547608  0.28452392  0.81001494  1.0
  O  O19  1  0.28452392  -0.28452392  0.18998506  1.0
  O  O20  1  0.61670685  0.38329315  0.45206383  1.0
  O  O21  1  0.38329315  -0.38329315  0.54793617  1.0
  O  O22  1  0.61570673  0.38429327  0.64495696  1.0
  O  O23  1  0.38429327  -0.38429327  0.35504304  1.0
  O  O24  1  0.33879344  -0.33879344  0.76126387  1.0
  O  O25  1  0.66120656  0.33879344  0.23873613  1.0
  O  O26  1  0.29066106  -0.29066106  0.97355422  1.0
  O  O27  1  0.70933894  0.29066106  0.02644578  1.0
  O  O28  1  0.09531590  -0.09531590  0.94236593  1.0
  O  O29  1  0.90468410  0.09531590  0.05763407  1.0
  O  O30  1  0.00000000  -0.00000000  0.50000000  1.0
