# generated using pymatgen
data_Rb2HgF4
_symmetry_space_group_name_H-M   'P 1'
_cell_length_a   7.70279756
_cell_length_b   7.70279756
_cell_length_c   7.70279756
_cell_angle_alpha   144.59363936
_cell_angle_beta   144.59363936
_cell_angle_gamma   50.94050962
_symmetry_Int_Tables_number   1
_chemical_formula_structural   Rb2HgF4
_chemical_formula_sum   'Rb2 Hg1 F4'
_cell_volume   152.61381222
_cell_formula_units_Z   1
loop_
 _symmetry_equiv_pos_site_id
 _symmetry_equiv_pos_as_xyz
  1  'x, y, z'
loop_
 _atom_site_type_symbol
 _atom_site_label
 _atom_site_symmetry_multiplicity
 _atom_site_fract_x
 _atom_site_fract_y
 _atom_site_fract_z
 _atom_site_occupancy
  Rb  Rb0  1  0.64088570  0.64088570  1.00000000  1.0
  Rb  Rb1  1  0.35911430  0.35911430  -0.00000000  1.0
  Hg  Hg2  1  0.00000000  0.00000000  0.00000000  1.0
  F  F3  1  0.83749027  0.83749027  1.00000000  1.0
  F  F4  1  0.16250973  0.16250973  -0.00000000  1.0
  F  F5  1  0.50000000  0.00000000  0.50000000  1.0
  F  F6  1  0.00000000  0.50000000  0.50000000  1.0
