# generated using pymatgen
data_ZnN6
_symmetry_space_group_name_H-M   'P 1'
_cell_length_a   3.50649301
_cell_length_b   16.85011051
_cell_length_c   7.67169153
_cell_angle_alpha   90.00000000
_cell_angle_beta   112.20868635
_cell_angle_gamma   90.00000000
_symmetry_Int_Tables_number   1
_chemical_formula_structural   ZnN6
_chemical_formula_sum   'Zn4 N24'
_cell_volume   419.65294398
_cell_formula_units_Z   4
loop_
 _symmetry_equiv_pos_site_id
 _symmetry_equiv_pos_as_xyz
  1  'x, y, z'
loop_
 _atom_site_type_symbol
 _atom_site_label
 _atom_site_symmetry_multiplicity
 _atom_site_fract_x
 _atom_site_fract_y
 _atom_site_fract_z
 _atom_site_occupancy
  Zn  Zn0  1  0.92812290  0.91826747  0.40100491  1.0
  Zn  Zn1  1  0.92812290  0.58173253  0.90100491  1.0
  Zn  Zn2  1  0.07187710  0.08173253  0.59899509  1.0
  Zn  Zn3  1  0.07187710  0.41826747  0.09899509  1.0
  N  N4  1  0.37609145  0.86626258  0.33828915  1.0
  N  N5  1  0.37609145  0.63373742  0.83828915  1.0
  N  N6  1  0.62390855  0.13373742  0.66171085  1.0
  N  N7  1  0.62390855  0.36626258  0.16171085  1.0
  N  N8  1  0.29091332  0.80527295  0.24408404  1.0
  N  N9  1  0.29091332  0.69472705  0.74408404  1.0
  N  N10  1  0.70908668  0.19472705  0.75591596  1.0
  N  N11  1  0.70908668  0.30527295  0.25591596  1.0
  N  N12  1  0.20888815  0.74843051  0.15631370  1.0
  N  N13  1  0.20888815  0.75156949  0.65631370  1.0
  N  N14  1  0.79111185  0.25156949  0.84368630  1.0
  N  N15  1  0.79111185  0.24843051  0.34368630  1.0
  N  N16  1  0.15396504  0.96348192  0.66787490  1.0
  N  N17  1  0.15396504  0.53651808  0.16787490  1.0
  N  N18  1  0.84603496  0.03651808  0.33212510  1.0
  N  N19  1  0.84603496  0.46348192  0.83212510  1.0
  N  N20  1  0.37696195  0.93343203  0.81499405  1.0
  N  N21  1  0.37696195  0.56656797  0.31499405  1.0
  N  N22  1  0.62303805  0.06656797  0.18500595  1.0
  N  N23  1  0.62303805  0.43343203  0.68500595  1.0
  N  N24  1  0.58584396  0.90525478  0.95466899  1.0
  N  N25  1  0.58584396  0.59474522  0.45466899  1.0
  N  N26  1  0.41415604  0.09474522  0.04533101  1.0
  N  N27  1  0.41415605  0.40525478  0.54533101  1.0
