# generated using pymatgen
data_Cs5Na(W2N5)2
_symmetry_space_group_name_H-M   'P 1'
_cell_length_a   11.02520060
_cell_length_b   11.02520060
_cell_length_c   11.02520060
_cell_angle_alpha   99.94987777
_cell_angle_beta   99.94987777
_cell_angle_gamma   130.87620064
_symmetry_Int_Tables_number   1
_chemical_formula_structural   Cs5Na(W2N5)2
_chemical_formula_sum   'Cs10 Na2 W8 N20'
_cell_volume   921.64164281
_cell_formula_units_Z   2
loop_
 _symmetry_equiv_pos_site_id
 _symmetry_equiv_pos_as_xyz
  1  'x, y, z'
loop_
 _atom_site_type_symbol
 _atom_site_label
 _atom_site_symmetry_multiplicity
 _atom_site_fract_x
 _atom_site_fract_y
 _atom_site_fract_z
 _atom_site_occupancy
  Cs  Cs0  1  0.83101674  0.60554070  0.55017781  1.0
  Cs  Cs1  1  0.35554070  0.30536290  0.27452396  1.0
  Cs  Cs2  1  1.05536290  1.28083893  1.44982219  1.0
  Cs  Cs3  1  1.03083893  1.08101674  1.72547604  1.0
  Cs  Cs4  1  0.42493774  0.97467187  1.22550969  1.0
  Cs  Cs5  1  0.72467187  0.99916217  1.04973413  1.0
  Cs  Cs6  1  0.74916217  0.19942804  0.77449031  1.0
  Cs  Cs7  1  0.94942804  0.67493774  0.95026587  1.0
  Cs  Cs8  1  0.51492896  0.51492896  -0.00000000  1.0
  Cs  Cs9  1  1.26492896  0.76492896  0.50000000  1.0
  Na  Na10  1  0.01515618  0.01515618  0.00000000  1.0
  Na  Na11  1  0.76515618  0.26515618  0.50000000  1.0
  W  W12  1  1.54240075  1.64106823  1.68900027  1.0
  W  W13  1  0.39106823  0.20206796  0.59866748  1.0
  W  W14  1  0.95206796  0.85340047  0.31099973  1.0
  W  W15  1  0.60340047  0.79240075  1.40133252  1.0
  W  W16  1  1.17688464  1.48784932  1.09855050  1.0
  W  W17  1  1.23784932  0.63929882  0.81096468  1.0
  W  W18  1  1.38929882  1.07833414  0.90144950  1.0
  W  W19  1  0.82833414  1.42688464  1.18903532  1.0
  N  N20  1  0.80867252  1.34702538  1.31940108  1.0
  N  N21  1  1.09702538  1.27762430  1.03835286  1.0
  N  N22  1  1.02762430  0.48927144  0.68059892  1.0
  N  N23  1  1.23927144  1.05867252  0.96164714  1.0
  N  N24  1  1.75256213  1.79123629  1.81948517  1.0
  N  N25  1  0.54123629  0.22175112  0.53867415  1.0
  N  N26  1  0.97175112  0.93307696  0.18051483  1.0
  N  N27  1  0.68307696  1.00256213  1.46132585  1.0
  N  N28  1  1.38999531  1.64007157  1.74985357  1.0
  N  N29  1  1.39007157  1.14021800  0.75007625  1.0
  N  N30  1  0.89021800  0.64014175  0.25014643  1.0
  N  N31  1  1.39014175  1.63999531  1.24992375  1.0
  N  N32  1  0.61572183  1.25765993  1.03965345  1.0
  N  N33  1  1.00765993  1.46800648  1.14193810  1.0
  N  N34  1  1.21800648  0.57606838  0.96034655  1.0
  N  N35  1  1.32606838  0.86572183  0.85806190  1.0
  N  N36  1  1.56241075  1.70437147  1.53965076  1.0
  N  N37  1  0.45437147  0.41472071  0.64196071  1.0
  N  N38  1  1.16472071  1.02276000  0.46034924  1.0
  N  N39  1  0.77276000  0.81241076  1.35803929  1.0
