# generated using pymatgen
data_CaAs2F12
_symmetry_space_group_name_H-M   'P 1'
_cell_length_a   5.60634532
_cell_length_b   5.60634532
_cell_length_c   7.98279855
_cell_angle_alpha   90.00000000
_cell_angle_beta   90.00000000
_cell_angle_gamma   90.00000000
_symmetry_Int_Tables_number   1
_chemical_formula_structural   CaAs2F12
_chemical_formula_sum   'Ca1 As2 F12'
_cell_volume   250.90820208
_cell_formula_units_Z   1
loop_
 _symmetry_equiv_pos_site_id
 _symmetry_equiv_pos_as_xyz
  1  'x, y, z'
loop_
 _atom_site_type_symbol
 _atom_site_label
 _atom_site_symmetry_multiplicity
 _atom_site_fract_x
 _atom_site_fract_y
 _atom_site_fract_z
 _atom_site_occupancy
  Ca  Ca0  1  0.00000000  0.00000000  0.00000000  1.0
  As  As1  1  0.50000000  0.00000000  0.23244633  1.0
  As  As2  1  0.00000000  0.50000000  0.76755367  1.0
  F  F3  1  0.21941877  0.73421129  0.78369954  1.0
  F  F4  1  0.73421129  0.78058123  0.21630046  1.0
  F  F5  1  0.78058123  0.26578871  0.78369954  1.0
  F  F6  1  0.26578871  0.21941877  0.21630046  1.0
  F  F7  1  0.26578871  0.78058123  0.21630046  1.0
  F  F8  1  0.78058123  0.73421129  0.78369954  1.0
  F  F9  1  0.73421129  0.21941877  0.21630046  1.0
  F  F10  1  0.21941877  0.26578871  0.78369954  1.0
  F  F11  1  0.50000000  0.00000000  0.00305175  1.0
  F  F12  1  0.00000000  0.50000000  0.99694825  1.0
  F  F13  1  0.50000000  0.00000000  0.45114893  1.0
  F  F14  1  0.00000000  0.50000000  0.54885107  1.0
