# generated using pymatgen
data_KS2O3
_symmetry_space_group_name_H-M   'P 1'
_cell_length_a   11.96742471
_cell_length_b   11.96742471
_cell_length_c   10.32110852
_cell_angle_alpha   79.11364653
_cell_angle_beta   100.88635347
_cell_angle_gamma   139.09063342
_symmetry_Int_Tables_number   1
_chemical_formula_structural   KS2O3
_chemical_formula_sum   'K8 S16 O24'
_cell_volume   948.13897746
_cell_formula_units_Z   8
loop_
 _symmetry_equiv_pos_site_id
 _symmetry_equiv_pos_as_xyz
  1  'x, y, z'
loop_
 _atom_site_type_symbol
 _atom_site_label
 _atom_site_symmetry_multiplicity
 _atom_site_fract_x
 _atom_site_fract_y
 _atom_site_fract_z
 _atom_site_occupancy
  K  K0  1  0.44359882  -0.27336786  0.09394392  1.0
  K  K1  1  1.27336786  0.55640118  0.59394392  1.0
  K  K2  1  0.70017445  0.07793430  0.46866065  1.0
  K  K3  1  0.92206570  0.29982555  0.96866065  1.0
  K  K4  1  1.04721426  0.61128941  0.25767206  1.0
  K  K5  1  0.38871059  -0.04721426  0.75767206  1.0
  K  K6  1  0.94768971  0.92287421  0.14800081  1.0
  K  K7  1  0.07712579  0.05231029  0.64800081  1.0
  S  S8  1  0.64267909  -0.27341039  0.41529282  1.0
  S  S9  1  1.27341039  0.35732091  0.91529282  1.0
  S  S10  1  0.58148162  0.10165476  0.13890155  1.0
  S  S11  1  0.89834524  0.41851838  0.63890155  1.0
  S  S12  1  0.27534193  -0.02319771  0.43036182  1.0
  S  S13  1  1.02319771  0.72465807  0.93036182  1.0
  S  S14  1  0.43657167  0.14646900  0.13221558  1.0
  S  S15  1  0.85353100  0.56342833  0.63221558  1.0
  S  S16  1  0.48569880  0.21343159  0.31738044  1.0
  S  S17  1  0.78656841  0.51430120  0.81738044  1.0
  S  S18  1  0.46241697  0.45224345  0.46605081  1.0
  S  S19  1  0.54775655  0.53758303  0.96605081  1.0
  S  S20  1  1.30428573  0.34251119  0.30117757  1.0
  S  S21  1  0.65748881  -0.30428573  0.80117757  1.0
  S  S22  1  1.10306048  0.31348775  0.30794436  1.0
  S  S23  1  0.68651225  -0.10306048  0.80794436  1.0
  O  O24  1  0.79573621  0.79905300  0.50000780  1.0
  O  O25  1  0.20094700  0.20426379  0.00000780  1.0
  O  O26  1  0.66156786  -0.24829143  0.27249879  1.0
  O  O27  1  1.24829143  0.33843214  0.77249879  1.0
  O  O28  1  0.56160212  -0.23392973  0.44976824  1.0
  O  O29  1  1.23392973  0.43839788  0.94976824  1.0
  O  O30  1  0.81991245  0.02444008  0.71370571  1.0
  O  O31  1  0.97555992  0.18008755  0.21370571  1.0
  O  O32  1  0.74015919  -0.05406265  0.94594061  1.0
  O  O33  1  1.05406265  0.25984081  0.44594061  1.0
  O  O34  1  0.49755985  -0.05273608  0.22862762  1.0
  O  O35  1  1.05273608  0.50244015  0.72862762  1.0
  O  O36  1  0.75836056  0.25595278  0.18717853  1.0
  O  O37  1  0.74404722  0.24163944  0.68717853  1.0
  O  O38  1  0.56592000  0.07511594  -0.00064001  1.0
  O  O39  1  0.92488406  0.43408000  0.49935999  1.0
  O  O40  1  0.32152168  -0.10981548  0.47863172  1.0
  O  O41  1  1.10981548  0.67847832  0.97863172  1.0
  O  O42  1  0.12040398  -0.12355589  0.33920813  1.0
  O  O43  1  1.12355589  0.87959602  0.83920813  1.0
  O  O44  1  0.95255541  0.71898511  0.03743055  1.0
  O  O45  1  0.28101489  0.04744459  0.53743055  1.0
  O  O46  1  1.16973221  0.47936966  0.26163992  1.0
  O  O47  1  0.52063034  -0.16973221  0.76163992  1.0
