# generated using pymatgen
data_MgCN2
_symmetry_space_group_name_H-M   'P 1'
_cell_length_a   4.40554872
_cell_length_b   6.44767219
_cell_length_c   4.42367290
_cell_angle_alpha   90.00000000
_cell_angle_beta   90.00000000
_cell_angle_gamma   90.00000000
_symmetry_Int_Tables_number   1
_chemical_formula_structural   MgCN2
_chemical_formula_sum   'Mg4 C4 N8'
_cell_volume   125.65679076
_cell_formula_units_Z   4
loop_
 _symmetry_equiv_pos_site_id
 _symmetry_equiv_pos_as_xyz
  1  'x, y, z'
loop_
 _atom_site_type_symbol
 _atom_site_label
 _atom_site_symmetry_multiplicity
 _atom_site_fract_x
 _atom_site_fract_y
 _atom_site_fract_z
 _atom_site_occupancy
  Mg  Mg0  1  0.53277847  0.87676781  -0.02283166  1.0
  Mg  Mg1  1  0.46722153  0.12323219  0.47716834  1.0
  Mg  Mg2  1  0.96722153  0.37676781  0.47716834  1.0
  Mg  Mg3  1  0.03277847  0.62323219  -0.02283166  1.0
  C  C4  1  0.54733254  0.37559503  0.00990341  1.0
  C  C5  1  0.45266746  0.62440497  0.50990341  1.0
  C  C6  1  0.95266746  0.87559503  0.50990341  1.0
  C  C7  1  0.04733254  0.12440497  0.00990341  1.0
  N  N8  1  0.50863505  0.42488179  0.34749577  1.0
  N  N9  1  0.49136495  0.57511821  0.84749577  1.0
  N  N10  1  0.99136495  0.92488179  0.84749577  1.0
  N  N11  1  0.00863505  0.07511821  0.34749577  1.0
  N  N12  1  0.61871766  0.82151232  0.44143248  1.0
  N  N13  1  0.38128234  0.17848768  0.94143248  1.0
  N  N14  1  0.88128234  0.32151232  0.94143248  1.0
  N  N15  1  0.11871766  0.67848768  0.44143248  1.0
