# generated using pymatgen
data_H6C2SBr2
_symmetry_space_group_name_H-M   'P 1'
_cell_length_a   7.85901212
_cell_length_b   7.69180754
_cell_length_c   12.16599547
_cell_angle_alpha   90.00000000
_cell_angle_beta   91.71396615
_cell_angle_gamma   90.00000000
_symmetry_Int_Tables_number   1
_chemical_formula_structural   H6C2SBr2
_chemical_formula_sum   'H24 C8 S4 Br8'
_cell_volume   735.10549804
_cell_formula_units_Z   4
loop_
 _symmetry_equiv_pos_site_id
 _symmetry_equiv_pos_as_xyz
  1  'x, y, z'
loop_
 _atom_site_type_symbol
 _atom_site_label
 _atom_site_symmetry_multiplicity
 _atom_site_fract_x
 _atom_site_fract_y
 _atom_site_fract_z
 _atom_site_occupancy
  H  H0  1  0.15751069  0.41775520  0.40229721  1.0
  H  H1  1  0.84248931  0.91775520  0.09770279  1.0
  H  H2  1  0.84248931  0.58224480  0.59770279  1.0
  H  H3  1  0.15751069  0.08224480  0.90229721  1.0
  H  H4  1  0.14714986  0.18543671  0.38642659  1.0
  H  H5  1  0.85285014  0.68543671  0.11357341  1.0
  H  H6  1  0.85285014  0.81456329  0.61357341  1.0
  H  H7  1  0.14714986  0.31456329  0.88642659  1.0
  H  H8  1  0.03365860  0.28953426  0.49538641  1.0
  H  H9  1  0.96634140  0.78953426  0.00461359  1.0
  H  H10  1  0.96634140  0.71046574  0.50461359  1.0
  H  H11  1  0.03365860  0.21046574  0.99538641  1.0
  H  H12  1  0.28265077  0.96783440  0.54498069  1.0
  H  H13  1  0.71734923  0.46783440  0.95501931  1.0
  H  H14  1  0.71734923  0.03216560  0.45501931  1.0
  H  H15  1  0.28265077  0.53216560  0.04498069  1.0
  H  H16  1  0.38998909  0.05225919  0.66654586  1.0
  H  H17  1  0.61001091  0.55225919  0.83345414  1.0
  H  H18  1  0.61001091  0.94774081  0.33345414  1.0
  H  H19  1  0.38998909  0.44774081  0.16654586  1.0
  H  H20  1  0.16397613  0.08764874  0.64508152  1.0
  H  H21  1  0.83602387  0.58764874  0.85491848  1.0
  H  H22  1  0.83602387  0.91235126  0.35491848  1.0
  H  H23  1  0.16397613  0.41235126  0.14508152  1.0
  C  C24  1  0.14767862  0.29328853  0.44562987  1.0
  C  C25  1  0.85232138  0.79328853  0.05437013  1.0
  C  C26  1  0.85232138  0.70671147  0.55437013  1.0
  C  C27  1  0.14767862  0.20671147  0.94562987  1.0
  C  C28  1  0.28683754  0.07393436  0.60553541  1.0
  C  C29  1  0.71316246  0.57393436  0.89446459  1.0
  C  C30  1  0.71316246  0.92606564  0.39446459  1.0
  C  C31  1  0.28683754  0.42606564  0.10553541  1.0
  S  S32  1  0.33605294  0.27095640  0.53278989  1.0
  S  S33  1  0.66394706  0.77095640  0.96721011  1.0
  S  S34  1  0.66394706  0.72904360  0.46721011  1.0
  S  S35  1  0.33605294  0.22904360  0.03278989  1.0
  Br  Br36  1  0.28480658  0.48681060  0.67350406  1.0
  Br  Br37  1  0.71519342  0.98681060  0.82649594  1.0
  Br  Br38  1  0.71519342  0.51318940  0.32649594  1.0
  Br  Br39  1  0.28480658  0.01318940  0.17350406  1.0
  Br  Br40  1  0.22273883  0.71139265  0.83105388  1.0
  Br  Br41  1  0.77726117  0.21139265  0.66894612  1.0
  Br  Br42  1  0.77726117  0.28860735  0.16894612  1.0
  Br  Br43  1  0.22273883  0.78860735  0.33105388  1.0
