# generated using pymatgen
data_LiAlSi2HO7
_symmetry_space_group_name_H-M   'P 1'
_cell_length_a   5.02752095
_cell_length_b   8.65554025
_cell_length_c   7.74505557
_cell_angle_alpha   65.81340751
_cell_angle_beta   89.79310134
_cell_angle_gamma   89.96313390
_symmetry_Int_Tables_number   1
_chemical_formula_structural   LiAlSi2HO7
_chemical_formula_sum   'Li2 Al2 Si4 H2 O14'
_cell_volume   307.44489512
_cell_formula_units_Z   2
loop_
 _symmetry_equiv_pos_site_id
 _symmetry_equiv_pos_as_xyz
  1  'x, y, z'
loop_
 _atom_site_type_symbol
 _atom_site_label
 _atom_site_symmetry_multiplicity
 _atom_site_fract_x
 _atom_site_fract_y
 _atom_site_fract_z
 _atom_site_occupancy
  Al  Al0  1  -0.37361386  -0.80298388  -0.13561554  1.0
  Al  Al1  1  -0.86867484  -0.28746971  -0.10995674  1.0
  O  O2  1  -0.03036422  -0.82926634  -0.07703059  1.0
  O  O3  1  -0.49832174  -0.63993342  -0.07492640  1.0
  O  O4  1  -0.42085429  -0.74209514  -0.37597790  1.0
  O  O5  1  -0.55525294  -0.99079104  -1.00058988  1.0
  O  O6  1  -0.54322243  -0.35070410  -1.02397187  1.0
  O  O7  1  -0.92222988  -0.06191429  -0.72764322  1.0
  O  O8  1  -0.36329162  -0.62562716  -0.74428642  1.0
  O  O9  1  -0.06367319  -0.47169089  -0.04901568  1.0
  O  O10  1  -0.24225263  -0.95094685  -0.53071931  1.0
  O  O11  1  -0.00156984  -0.15997006  -1.00136826  1.0
  O  O12  1  -0.74084901  -0.85280669  -0.57581712  1.0
  O  O13  1  -0.83871581  -0.42417119  -0.42484950  1.0
  O  O14  1  -0.37085072  -0.34181581  -0.62361288  1.0
  O  O15  1  -0.86493480  -0.17877850  -0.35940655  1.0
  Li  Li16  1  -0.86671687  -0.60331132  -0.16200079  1.0
  Li  Li17  1  -0.37149046  -0.21141833  -0.90662301  1.0
  Si  Si18  1  -0.36924006  -0.52364905  -0.97560623  1.0
  Si  Si19  1  -0.87461401  -0.00692629  -0.95459666  1.0
  Si  Si20  1  -0.43886020  -0.79250733  -0.55284245  1.0
  Si  Si21  1  -0.93918254  -0.00984330  -0.54841868  1.0
  H  H22  1  -0.54386531  -0.37662085  -0.54927713  1.0
  H  H23  1  -0.00525870  -0.38300846  -0.49724719  1.0
