# generated using pymatgen
data_Ba2Y(CuO2)4
_symmetry_space_group_name_H-M   'P 1'
_cell_length_a   14.49626107
_cell_length_b   14.49626107
_cell_length_c   3.97431361
_cell_angle_alpha   90.00000000
_cell_angle_beta   90.00000000
_cell_angle_gamma   164.99167110
_symmetry_Int_Tables_number   1
_chemical_formula_structural   Ba2Y(CuO2)4
_chemical_formula_sum   'Ba2 Y1 Cu4 O8'
_cell_volume   216.27479637
_cell_formula_units_Z   1
loop_
 _symmetry_equiv_pos_site_id
 _symmetry_equiv_pos_as_xyz
  1  'x, y, z'
loop_
 _atom_site_type_symbol
 _atom_site_label
 _atom_site_symmetry_multiplicity
 _atom_site_fract_x
 _atom_site_fract_y
 _atom_site_fract_z
 _atom_site_occupancy
  Ba  Ba0  1  0.35928476  0.64071524  0.50000000  1.0
  Ba  Ba1  1  -0.35928476  0.35928476  0.50000000  1.0
  Y  Y2  1  0.00000000  0.00000000  0.50000000  1.0
  Cu  Cu3  1  -0.07430155  0.07430155  0.00000000  1.0
  Cu  Cu4  1  0.07430155  0.92569845  0.00000000  1.0
  Cu  Cu5  1  -0.21349797  0.21349797  0.00000000  1.0
  Cu  Cu6  1  0.21349797  0.78650203  0.00000000  1.0
  O  O7  1  0.45424641  0.54575359  0.00000000  1.0
  O  O8  1  -0.45424641  0.45424641  0.00000000  1.0
  O  O9  1  -0.14884825  0.14884825  0.00000000  1.0
  O  O10  1  0.14884825  0.85115175  0.00000000  1.0
  O  O11  1  -0.07487837  0.07487837  0.50000000  1.0
  O  O12  1  0.07487837  0.92512163  0.50000000  1.0
  O  O13  1  0.27968758  0.72031242  0.00000000  1.0
  O  O14  1  -0.27968758  0.27968758  0.00000000  1.0
