# generated using pymatgen
data_TaP2N3Cl10
_symmetry_space_group_name_H-M   'P 1'
_cell_length_a   8.28970871
_cell_length_b   8.28970871
_cell_length_c   16.03588529
_cell_angle_alpha   84.75646697
_cell_angle_beta   95.24353303
_cell_angle_gamma   114.87940106
_symmetry_Int_Tables_number   1
_chemical_formula_structural   TaP2N3Cl10
_chemical_formula_sum   'Ta2 P4 N6 Cl20'
_cell_volume   993.81157728
_cell_formula_units_Z   2
loop_
 _symmetry_equiv_pos_site_id
 _symmetry_equiv_pos_as_xyz
  1  'x, y, z'
loop_
 _atom_site_type_symbol
 _atom_site_label
 _atom_site_symmetry_multiplicity
 _atom_site_fract_x
 _atom_site_fract_y
 _atom_site_fract_z
 _atom_site_occupancy
  N  N0  1  0.59437449  -0.08793556  0.15808224  1.0
  N  N1  1  1.08793556  0.40562551  0.65808224  1.0
  N  N2  1  0.91206444  -0.40562551  0.34191776  1.0
  N  N3  1  1.40562551  0.08793556  0.84191776  1.0
  N  N4  1  0.65122216  -0.34877784  0.25000000  1.0
  N  N5  1  1.34877784  0.34877784  0.75000000  1.0
  P  P6  1  0.50459932  -0.28381983  0.21486359  1.0
  P  P7  1  1.28381983  0.49540068  0.71486359  1.0
  P  P8  1  0.71618017  -0.49540068  0.28513641  1.0
  P  P9  1  1.49540068  0.28381983  0.78513641  1.0
  Ta  Ta10  1  -0.00000000  0.00000000  0.50000000  1.0
  Ta  Ta11  1  0.00000000  0.00000000  0.00000000  1.0
  Cl  Cl12  1  1.54329113  0.30599135  0.35558744  1.0
  Cl  Cl13  1  0.69400865  -0.54329113  0.85558744  1.0
  Cl  Cl14  1  1.30599135  0.54329113  0.14441256  1.0
  Cl  Cl15  1  0.45670887  -0.30599135  0.64441256  1.0
  Cl  Cl16  1  0.69728985  -0.19586230  0.02883605  1.0
  Cl  Cl17  1  1.19586230  0.30271015  0.52883605  1.0
  Cl  Cl18  1  0.80413770  -0.30271015  0.47116395  1.0
  Cl  Cl19  1  1.30271015  0.19586230  0.97116395  1.0
  Cl  Cl20  1  0.38608944  -0.23539606  0.30716239  1.0
  Cl  Cl21  1  1.23539606  0.61391056  0.80716239  1.0
  Cl  Cl22  1  0.76460394  -0.61391056  0.19283761  1.0
  Cl  Cl23  1  1.61391056  0.23539606  0.69283761  1.0
  Cl  Cl24  1  0.24848967  -0.05241967  0.47355561  1.0
  Cl  Cl25  1  1.05241967  0.75151033  0.97355561  1.0
  Cl  Cl26  1  0.94758033  -0.75151033  0.02644439  1.0
  Cl  Cl27  1  1.75151033  0.05241967  0.52644439  1.0
  Cl  Cl28  1  1.97512347  0.09126766  0.35807086  1.0
  Cl  Cl29  1  0.90873234  -0.97512347  0.85807086  1.0
  Cl  Cl30  1  1.09126766  0.97512347  0.14192914  1.0
  Cl  Cl31  1  0.02487653  -0.09126766  0.64192914  1.0
