# generated using pymatgen
data_Ti3(BiO3)4
_symmetry_space_group_name_H-M   'P 1'
_cell_length_a   17.03008395
_cell_length_b   5.45858386
_cell_length_c   5.53430093
_cell_angle_alpha   90.00000000
_cell_angle_beta   99.14443590
_cell_angle_gamma   90.00000000
_symmetry_Int_Tables_number   1
_chemical_formula_structural   Ti3(BiO3)4
_chemical_formula_sum   'Ti6 Bi8 O24'
_cell_volume   507.93092800
_cell_formula_units_Z   2
loop_
 _symmetry_equiv_pos_site_id
 _symmetry_equiv_pos_as_xyz
  1  'x, y, z'
loop_
 _atom_site_type_symbol
 _atom_site_label
 _atom_site_symmetry_multiplicity
 _atom_site_fract_x
 _atom_site_fract_y
 _atom_site_fract_z
 _atom_site_occupancy
  Ti  Ti0  1  0.98602925  0.24507468  0.79104185  1.0
  Ti  Ti1  1  0.98602925  0.75492532  0.29104185  1.0
  Ti  Ti2  1  0.73687927  0.24434414  0.66277894  1.0
  Ti  Ti3  1  0.73687927  0.75565586  0.16277894  1.0
  Ti  Ti4  1  0.24541397  0.24847669  0.92020516  1.0
  Ti  Ti5  1  0.24541397  0.75152331  0.42020516  1.0
  Bi  Bi6  1  0.85880089  0.74521672  0.76659058  1.0
  Bi  Bi7  1  0.85880089  0.25478328  0.26659058  1.0
  Bi  Bi8  1  0.57117248  0.27557033  0.16963999  1.0
  Bi  Bi9  1  0.57117248  0.72442967  0.66963999  1.0
  Bi  Bi10  1  0.41739008  0.22750826  0.58769563  1.0
  Bi  Bi11  1  0.41739008  0.77249174  0.08769563  1.0
  Bi  Bi12  1  0.12292518  0.74473763  0.90743889  1.0
  Bi  Bi13  1  0.12292518  0.25526237  0.40743889  1.0
  O  O14  1  0.00212357  0.03947868  0.47479240  1.0
  O  O15  1  0.00212357  0.96052132  -0.02520760  1.0
  O  O16  1  0.96533825  0.53162298  0.52196240  1.0
  O  O17  1  0.96533825  0.46837702  0.02196240  1.0
  O  O18  1  0.87053126  0.17312721  0.67855893  1.0
  O  O19  1  0.87053126  0.82687279  0.17855893  1.0
  O  O20  1  0.77151524  0.53158782  0.42985862  1.0
  O  O21  1  0.77151524  0.46841218  0.92985862  1.0
  O  O22  1  0.74048172  0.04903308  0.34507855  1.0
  O  O23  1  0.74048172  0.95096692  0.84507855  1.0
  O  O24  1  0.63283323  0.31651051  0.59924666  1.0
  O  O25  1  0.63283323  0.68348949  0.09924666  1.0
  O  O26  1  0.49149026  0.51031496  0.34851056  1.0
  O  O27  1  0.49149026  0.48968504  0.84851056  1.0
  O  O28  1  0.49272550  0.01095710  0.34923045  1.0
  O  O29  1  0.49272550  0.98904290  0.84923045  1.0
  O  O30  1  0.34819939  0.19303885  0.96456115  1.0
  O  O31  1  0.34819939  0.80696115  0.46456115  1.0
  O  O32  1  0.23294827  0.53232326  0.11510821  1.0
  O  O33  1  0.23294827  0.46767674  0.61510821  1.0
  O  O34  1  0.20896961  0.01622678  0.14942773  1.0
  O  O35  1  0.20896961  0.98377322  0.64942773  1.0
  O  O36  1  0.10003261  0.31865525  0.79857329  1.0
  O  O37  1  0.10003261  0.68134475  0.29857329  1.0
