# generated using pymatgen
data_YAl
_symmetry_space_group_name_H-M   'P 1'
_cell_length_a   9.94422410
_cell_length_b   9.94422410
_cell_length_c   9.94422410
_cell_angle_alpha   153.94576358
_cell_angle_beta   153.94576358
_cell_angle_gamma   37.17844082
_symmetry_Int_Tables_number   1
_chemical_formula_structural   YAl
_chemical_formula_sum   'Y4 Al4'
_cell_volume   189.43370608
_cell_formula_units_Z   4
loop_
 _symmetry_equiv_pos_site_id
 _symmetry_equiv_pos_as_xyz
  1  'x, y, z'
loop_
 _atom_site_type_symbol
 _atom_site_label
 _atom_site_symmetry_multiplicity
 _atom_site_fract_x
 _atom_site_fract_y
 _atom_site_fract_z
 _atom_site_occupancy
  Y  Y0  1  0.60658446  0.60658446  1.00000000  1.0
  Y  Y1  1  0.39341554  0.39341554  0.00000000  1.0
  Y  Y2  1  0.25000000  0.75000000  0.50000000  1.0
  Y  Y3  1  0.75000000  0.25000000  0.50000000  1.0
  Al  Al4  1  0.11744685  0.11744685  -0.00000000  1.0
  Al  Al5  1  0.88255315  0.88255315  1.00000000  1.0
  Al  Al6  1  0.50000000  0.00000000  0.50000000  1.0
  Al  Al7  1  0.00000000  0.50000000  0.50000000  1.0
