# generated using pymatgen
data_Be2AsO9
_symmetry_space_group_name_H-M   'P 1'
_cell_length_a   6.92828061
_cell_length_b   13.22214300
_cell_length_c   7.20013478
_cell_angle_alpha   90.00000000
_cell_angle_beta   98.64205051
_cell_angle_gamma   90.00000000
_symmetry_Int_Tables_number   1
_chemical_formula_structural   Be2AsO9
_chemical_formula_sum   'Be8 As4 O36'
_cell_volume   652.09207240
_cell_formula_units_Z   4
loop_
 _symmetry_equiv_pos_site_id
 _symmetry_equiv_pos_as_xyz
  1  'x, y, z'
loop_
 _atom_site_type_symbol
 _atom_site_label
 _atom_site_symmetry_multiplicity
 _atom_site_fract_x
 _atom_site_fract_y
 _atom_site_fract_z
 _atom_site_occupancy
  Be  Be0  1  0.59800048  0.86800882  0.86295807  1.0
  Be  Be1  1  0.59800048  0.63199118  0.36295807  1.0
  Be  Be2  1  0.40199952  0.36800882  0.63704193  1.0
  Be  Be3  1  0.40199952  0.13199118  0.13704193  1.0
  Be  Be4  1  0.90353929  0.86741216  0.64490628  1.0
  Be  Be5  1  0.90353929  0.63258784  0.14490628  1.0
  Be  Be6  1  0.09646071  0.36741216  0.85509372  1.0
  Be  Be7  1  0.09646071  0.13258784  0.35509372  1.0
  O  O8  1  0.78112421  0.17870871  0.93859506  1.0
  O  O9  1  0.78112421  0.32129129  0.43859506  1.0
  O  O10  1  0.21887579  0.67870871  0.56140494  1.0
  O  O11  1  0.21887579  0.82129129  0.06140494  1.0
  O  O12  1  0.28362869  0.67955872  0.94481544  1.0
  O  O13  1  0.28362869  0.82044128  0.44481544  1.0
  O  O14  1  0.71637131  0.17955872  0.55518456  1.0
  O  O15  1  0.71637131  0.32044128  0.05518456  1.0
  O  O16  1  0.88529056  0.37526181  0.70476547  1.0
  O  O17  1  0.88529056  0.12473819  0.20476547  1.0
  O  O18  1  0.11470944  0.87526181  0.79523453  1.0
  O  O19  1  0.11470944  0.62473819  0.29523453  1.0
  O  O20  1  0.38839209  0.87561428  0.71048405  1.0
  O  O21  1  0.38839209  0.62438572  0.21048405  1.0
  O  O22  1  0.61160791  0.37561428  0.78951595  1.0
  O  O23  1  0.61160791  0.12438572  0.28951595  1.0
  O  O24  1  0.75164169  0.92304292  0.75455776  1.0
  O  O25  1  0.75164169  0.57695708  0.25455776  1.0
  O  O26  1  0.24835831  0.42304292  0.74544224  1.0
  O  O27  1  0.24835831  0.07695708  0.24544224  1.0
  O  O28  1  0.86975695  0.59263475  0.93134082  1.0
  O  O29  1  0.86975695  0.90736525  0.43134082  1.0
  O  O30  1  0.13024305  0.09263475  0.56865918  1.0
  O  O31  1  0.13024305  0.40736525  0.06865918  1.0
  O  O32  1  0.62960151  0.59253720  0.57684993  1.0
  O  O33  1  0.62960151  0.90746280  0.07684993  1.0
  O  O34  1  0.37039849  0.09253720  0.92315007  1.0
  O  O35  1  0.37039849  0.40746280  0.42315007  1.0
  O  O36  1  0.58529877  0.74368267  0.85505729  1.0
  O  O37  1  0.58529877  0.75631733  0.35505729  1.0
  O  O38  1  0.41470123  0.24368267  0.64494271  1.0
  O  O39  1  0.41470123  0.25631733  0.14494271  1.0
  O  O40  1  0.91518834  0.74315189  0.65236398  1.0
  O  O41  1  0.91518834  0.75684811  0.15236398  1.0
  O  O42  1  0.08481166  0.24315189  0.84763602  1.0
  O  O43  1  0.08481166  0.25684811  0.34763602  1.0
  As  As44  1  0.75007295  0.66718191  0.75386517  1.0
  As  As45  1  0.75007295  0.83281809  0.25386517  1.0
  As  As46  1  0.24992705  0.16718191  0.74613483  1.0
  As  As47  1  0.24992705  0.33281809  0.24613483  1.0
