# generated using pymatgen
data_Sr3NbFe3(SiO7)2
_symmetry_space_group_name_H-M   'P 1'
_cell_length_a   8.43020942
_cell_length_b   8.43020942
_cell_length_c   5.17378128
_cell_angle_alpha   90.00000000
_cell_angle_beta   90.00000000
_cell_angle_gamma   120.00000000
_symmetry_Int_Tables_number   1
_chemical_formula_structural   Sr3NbFe3(SiO7)2
_chemical_formula_sum   'Sr3 Nb1 Fe3 Si2 O14'
_cell_volume   318.43106118
_cell_formula_units_Z   1
loop_
 _symmetry_equiv_pos_site_id
 _symmetry_equiv_pos_as_xyz
  1  'x, y, z'
loop_
 _atom_site_type_symbol
 _atom_site_label
 _atom_site_symmetry_multiplicity
 _atom_site_fract_x
 _atom_site_fract_y
 _atom_site_fract_z
 _atom_site_occupancy
  Si  Si0  1  0.33333333  0.66666667  0.53804740  1.0
  Si  Si1  1  0.66666667  0.33333333  0.46195260  1.0
  O  O2  1  0.33333333  0.66666667  0.22625674  1.0
  O  O3  1  0.66666667  0.33333333  0.77374326  1.0
  O  O4  1  0.09133017  0.87094060  0.22797606  1.0
  O  O5  1  0.87094060  0.09133017  0.77202394  1.0
  O  O6  1  0.77961043  0.90866983  0.22797606  1.0
  O  O7  1  0.12905940  0.22038957  0.22797606  1.0
  O  O8  1  0.90866983  0.77961043  0.77202394  1.0
  O  O9  1  0.22038957  0.12905940  0.77202394  1.0
  O  O10  1  0.68923922  0.52342647  0.32808934  1.0
  O  O11  1  0.52342647  0.68923922  0.67191066  1.0
  O  O12  1  0.83418725  0.31076078  0.32808934  1.0
  O  O13  1  0.47657353  0.16581275  0.32808934  1.0
  O  O14  1  0.31076078  0.83418725  0.67191066  1.0
  O  O15  1  0.16581275  0.47657353  0.67191066  1.0
  Fe  Fe16  1  0.74830754  0.74830754  0.50000000  1.0
  Fe  Fe17  1  0.00000000  0.25169246  0.50000000  1.0
  Fe  Fe18  1  0.25169246  0.00000000  0.50000000  1.0
  Sr  Sr19  1  0.42732986  0.42732986  0.00000000  1.0
  Sr  Sr20  1  0.00000000  0.57267014  0.00000000  1.0
  Sr  Sr21  1  0.57267014  0.00000000  0.00000000  1.0
  Nb  Nb22  1  0.00000000  0.00000000  0.00000000  1.0
