# generated using pymatgen
data_CoH2Cl2O
_symmetry_space_group_name_H-M   'P 1'
_cell_length_a   8.78514947
_cell_length_b   3.56360488
_cell_length_c   11.43796717
_cell_angle_alpha   90.00000000
_cell_angle_beta   90.00000000
_cell_angle_gamma   90.00000000
_symmetry_Int_Tables_number   1
_chemical_formula_structural   CoH2Cl2O
_chemical_formula_sum   'Co4 H8 Cl8 O4'
_cell_volume   358.08616773
_cell_formula_units_Z   4
loop_
 _symmetry_equiv_pos_site_id
 _symmetry_equiv_pos_as_xyz
  1  'x, y, z'
loop_
 _atom_site_type_symbol
 _atom_site_label
 _atom_site_symmetry_multiplicity
 _atom_site_fract_x
 _atom_site_fract_y
 _atom_site_fract_z
 _atom_site_occupancy
  Co  Co0  1  0.67834510  0.75000000  0.01510324  1.0
  Co  Co1  1  0.17834510  0.75000000  0.48489676  1.0
  Co  Co2  1  0.32165490  0.25000000  0.98489676  1.0
  Co  Co3  1  0.82165490  0.25000000  0.51510324  1.0
  H  H4  1  0.95024756  0.75000000  0.12983010  1.0
  H  H5  1  0.45024756  0.75000000  0.37016990  1.0
  H  H6  1  0.04975244  0.25000000  0.87016990  1.0
  H  H7  1  0.54975244  0.25000000  0.62983010  1.0
  H  H8  1  0.81420906  0.75000000  0.22424189  1.0
  H  H9  1  0.31420906  0.75000000  0.27575811  1.0
  H  H10  1  0.18579094  0.25000000  0.77575811  1.0
  H  H11  1  0.68579094  0.25000000  0.72424189  1.0
  Cl  Cl12  1  0.96274423  0.75000000  0.62090744  1.0
  Cl  Cl13  1  0.46274423  0.75000000  0.87909256  1.0
  Cl  Cl14  1  0.03725577  0.25000000  0.37909256  1.0
  Cl  Cl15  1  0.53725577  0.25000000  0.12090744  1.0
  Cl  Cl16  1  0.69972894  0.75000000  0.40437100  1.0
  Cl  Cl17  1  0.19972894  0.75000000  0.09562900  1.0
  Cl  Cl18  1  0.30027106  0.25000000  0.59562900  1.0
  Cl  Cl19  1  0.80027106  0.25000000  0.90437100  1.0
  O  O20  1  0.83899493  0.75000000  0.14039263  1.0
  O  O21  1  0.33899493  0.75000000  0.35960737  1.0
  O  O22  1  0.16100507  0.25000000  0.85960737  1.0
  O  O23  1  0.66100507  0.25000000  0.64039263  1.0
