# generated using pymatgen
data_ZrCuGe
_symmetry_space_group_name_H-M   'P 1'
_cell_length_a   6.58385019
_cell_length_b   4.01485391
_cell_length_c   7.43483613
_cell_angle_alpha   90.00000000
_cell_angle_beta   90.00000000
_cell_angle_gamma   90.00000000
_symmetry_Int_Tables_number   1
_chemical_formula_structural   ZrCuGe
_chemical_formula_sum   'Zr4 Cu4 Ge4'
_cell_volume   196.52648585
_cell_formula_units_Z   4
loop_
 _symmetry_equiv_pos_site_id
 _symmetry_equiv_pos_as_xyz
  1  'x, y, z'
loop_
 _atom_site_type_symbol
 _atom_site_label
 _atom_site_symmetry_multiplicity
 _atom_site_fract_x
 _atom_site_fract_y
 _atom_site_fract_z
 _atom_site_occupancy
  Zr  Zr0  1  0.99000133  0.75000000  0.69537414  1.0
  Zr  Zr1  1  0.49000133  0.75000000  0.80462586  1.0
  Zr  Zr2  1  0.00999867  0.25000000  0.30462586  1.0
  Zr  Zr3  1  0.50999867  0.25000000  0.19537414  1.0
  Cu  Cu4  1  0.82815914  0.75000000  0.07752682  1.0
  Cu  Cu5  1  0.32815914  0.75000000  0.42247318  1.0
  Cu  Cu6  1  0.17184086  0.25000000  0.92247318  1.0
  Cu  Cu7  1  0.67184086  0.25000000  0.57752682  1.0
  Ge  Ge8  1  0.72256801  0.75000000  0.39941047  1.0
  Ge  Ge9  1  0.22256801  0.75000000  0.10058953  1.0
  Ge  Ge10  1  0.27743199  0.25000000  0.60058953  1.0
  Ge  Ge11  1  0.77743199  0.25000000  0.89941047  1.0
