# generated using pymatgen
data_Zn(C2N3)2
_symmetry_space_group_name_H-M   'P 1'
_cell_length_a   7.79985724
_cell_length_b   7.78039740
_cell_length_c   13.05427826
_cell_angle_alpha   90.00000000
_cell_angle_beta   90.00000000
_cell_angle_gamma   90.00000000
_symmetry_Int_Tables_number   1
_chemical_formula_structural   Zn(C2N3)2
_chemical_formula_sum   'Zn4 C16 N24'
_cell_volume   792.21178613
_cell_formula_units_Z   4
loop_
 _symmetry_equiv_pos_site_id
 _symmetry_equiv_pos_as_xyz
  1  'x, y, z'
loop_
 _atom_site_type_symbol
 _atom_site_label
 _atom_site_symmetry_multiplicity
 _atom_site_fract_x
 _atom_site_fract_y
 _atom_site_fract_z
 _atom_site_occupancy
  Zn  Zn0  1  0.76656526  0.75000000  0.14622961  1.0
  Zn  Zn1  1  0.26656526  0.75000000  0.35377039  1.0
  Zn  Zn2  1  0.23343474  0.25000000  0.85377039  1.0
  Zn  Zn3  1  0.73343474  0.25000000  0.64622961  1.0
  C  C4  1  0.72887619  0.39879027  0.25375291  1.0
  C  C5  1  0.72887619  0.10120973  0.25375291  1.0
  C  C6  1  0.22887619  0.39879027  0.24624709  1.0
  C  C7  1  0.22887619  0.10120973  0.24624709  1.0
  C  C8  1  0.27112381  0.89879027  0.74624709  1.0
  C  C9  1  0.27112381  0.60120973  0.74624709  1.0
  C  C10  1  0.77112381  0.89879027  0.75375291  1.0
  C  C11  1  0.77112381  0.60120973  0.75375291  1.0
  C  C12  1  0.91628143  0.75000000  0.46679811  1.0
  C  C13  1  0.41628143  0.75000000  0.03320189  1.0
  C  C14  1  0.08371857  0.25000000  0.53320189  1.0
  C  C15  1  0.58371857  0.25000000  0.96679811  1.0
  C  C16  1  0.61958915  0.75000000  0.46430032  1.0
  C  C17  1  0.11958915  0.75000000  0.03569968  1.0
  C  C18  1  0.38041085  0.25000000  0.53569968  1.0
  C  C19  1  0.88041085  0.25000000  0.96430032  1.0
  N  N20  1  0.75983351  0.95794552  0.23189172  1.0
  N  N21  1  0.75983351  0.54205448  0.23189172  1.0
  N  N22  1  0.25983351  0.95794552  0.26810828  1.0
  N  N23  1  0.25983351  0.54205448  0.26810828  1.0
  N  N24  1  0.24016649  0.45794552  0.76810828  1.0
  N  N25  1  0.24016649  0.04205448  0.76810828  1.0
  N  N26  1  0.74016649  0.45794552  0.73189172  1.0
  N  N27  1  0.74016649  0.04205448  0.73189172  1.0
  N  N28  1  0.97787236  0.75000000  0.06591378  1.0
  N  N29  1  0.47787236  0.75000000  0.43408622  1.0
  N  N30  1  0.02212764  0.25000000  0.93408622  1.0
  N  N31  1  0.52212764  0.25000000  0.56591378  1.0
  N  N32  1  0.81454214  0.75000000  0.78711031  1.0
  N  N33  1  0.31454214  0.75000000  0.71288969  1.0
  N  N34  1  0.18545786  0.25000000  0.21288969  1.0
  N  N35  1  0.68545786  0.25000000  0.28711031  1.0
  N  N36  1  0.76693300  0.75000000  0.50810533  1.0
  N  N37  1  0.26693300  0.75000000  0.99189467  1.0
  N  N38  1  0.23306700  0.25000000  0.49189467  1.0
  N  N39  1  0.73306700  0.25000000  0.00810533  1.0
  N  N40  1  0.55990291  0.75000000  0.06028379  1.0
  N  N41  1  0.05990291  0.75000000  0.43971621  1.0
  N  N42  1  0.44009709  0.25000000  0.93971621  1.0
  N  N43  1  0.94009709  0.25000000  0.56028379  1.0
