# generated using pymatgen
data_K2Cr3O9
_symmetry_space_group_name_H-M   'P 1'
_cell_length_a   8.79395383
_cell_length_b   5.80731408
_cell_length_c   9.59161986
_cell_angle_alpha   90.00000000
_cell_angle_beta   116.16602791
_cell_angle_gamma   90.00000000
_symmetry_Int_Tables_number   1
_chemical_formula_structural   K2Cr3O9
_chemical_formula_sum   'K4 Cr6 O18'
_cell_volume   439.63836598
_cell_formula_units_Z   2
loop_
 _symmetry_equiv_pos_site_id
 _symmetry_equiv_pos_as_xyz
  1  'x, y, z'
loop_
 _atom_site_type_symbol
 _atom_site_label
 _atom_site_symmetry_multiplicity
 _atom_site_fract_x
 _atom_site_fract_y
 _atom_site_fract_z
 _atom_site_occupancy
  O  O0  1  0.94568921  0.98530021  0.17875278  1.0
  O  O1  1  0.94568921  0.51469979  0.17875278  1.0
  O  O2  1  0.05431079  0.48530021  0.82124722  1.0
  O  O3  1  0.05431079  0.01469979  0.82124722  1.0
  O  O4  1  0.53527364  0.47712386  0.69715812  1.0
  O  O5  1  0.53527364  0.02287614  0.69715812  1.0
  O  O6  1  0.46472636  0.97712386  0.30284188  1.0
  O  O7  1  0.46472636  0.52287614  0.30284188  1.0
  O  O8  1  0.82931551  0.25000000  0.90516607  1.0
  O  O9  1  0.17068449  0.75000000  0.09483393  1.0
  O  O10  1  0.82210971  0.25000000  0.57172065  1.0
  O  O11  1  0.17789029  0.75000000  0.42827935  1.0
  O  O12  1  0.52493794  0.25000000  0.93094060  1.0
  O  O13  1  0.47506206  0.75000000  0.06905940  1.0
  O  O14  1  0.14444775  0.25000000  0.62512076  1.0
  O  O15  1  0.85555225  0.75000000  0.37487924  1.0
  O  O16  1  0.13289212  0.25000000  0.08445649  1.0
  O  O17  1  0.86710788  0.75000000  0.91554351  1.0
  K  K18  1  0.68967805  0.25000000  0.24142158  1.0
  K  K19  1  0.31032195  0.75000000  0.75857842  1.0
  K  K20  1  0.28975845  0.25000000  0.41715602  1.0
  K  K21  1  0.71024155  0.75000000  0.58284398  1.0
  Cr  Cr22  1  1.01699532  0.25000000  0.70553058  1.0
  Cr  Cr23  1  -0.01699532  0.75000000  0.29446942  1.0
  Cr  Cr24  1  0.60181390  0.25000000  0.80636971  1.0
  Cr  Cr25  1  0.39818610  0.75000000  0.19363029  1.0
  Cr  Cr26  1  -0.00000000  0.50000000  -0.00000000  1.0
  Cr  Cr27  1  0.00000000  0.00000000  0.00000000  1.0
