# generated using pymatgen
data_Cs5SiAs3
_symmetry_space_group_name_H-M   'P 1'
_cell_length_a   14.74963019
_cell_length_b   6.08822147
_cell_length_c   16.41099037
_cell_angle_alpha   90.00000000
_cell_angle_beta   90.00000000
_cell_angle_gamma   90.00000000
_symmetry_Int_Tables_number   1
_chemical_formula_structural   Cs5SiAs3
_chemical_formula_sum   'Cs20 Si4 As12'
_cell_volume   1473.69077398
_cell_formula_units_Z   4
loop_
 _symmetry_equiv_pos_site_id
 _symmetry_equiv_pos_as_xyz
  1  'x, y, z'
loop_
 _atom_site_type_symbol
 _atom_site_label
 _atom_site_symmetry_multiplicity
 _atom_site_fract_x
 _atom_site_fract_y
 _atom_site_fract_z
 _atom_site_occupancy
  Cs  Cs0  1  0.95631156  0.75000000  0.85763167  1.0
  Cs  Cs1  1  0.45631156  0.75000000  0.64236833  1.0
  Cs  Cs2  1  0.04368844  0.25000000  0.14236833  1.0
  Cs  Cs3  1  0.54368844  0.25000000  0.35763167  1.0
  Cs  Cs4  1  0.93725792  0.75000000  0.54820349  1.0
  Cs  Cs5  1  0.43725792  0.75000000  0.95179651  1.0
  Cs  Cs6  1  0.06274208  0.25000000  0.45179651  1.0
  Cs  Cs7  1  0.56274208  0.25000000  0.04820349  1.0
  Cs  Cs8  1  0.88520010  0.75000000  0.31263546  1.0
  Cs  Cs9  1  0.38520010  0.75000000  0.18736454  1.0
  Cs  Cs10  1  0.11479990  0.25000000  0.68736454  1.0
  Cs  Cs11  1  0.61479990  0.25000000  0.81263546  1.0
  Cs  Cs12  1  0.73001008  0.75000000  0.70809475  1.0
  Cs  Cs13  1  0.23001008  0.75000000  0.79190525  1.0
  Cs  Cs14  1  0.26998992  0.25000000  0.29190525  1.0
  Cs  Cs15  1  0.76998992  0.25000000  0.20809475  1.0
  Cs  Cs16  1  0.65094083  0.75000000  0.45494397  1.0
  Cs  Cs17  1  0.15094083  0.75000000  0.04505603  1.0
  Cs  Cs18  1  0.34905917  0.25000000  0.54505603  1.0
  Cs  Cs19  1  0.84905917  0.25000000  0.95494397  1.0
  Si  Si20  1  0.73952617  0.75000000  0.06469937  1.0
  Si  Si21  1  0.23952617  0.75000000  0.43530063  1.0
  Si  Si22  1  0.26047383  0.25000000  0.93530063  1.0
  Si  Si23  1  0.76047383  0.25000000  0.56469937  1.0
  As  As24  1  0.89499222  0.75000000  0.08938456  1.0
  As  As25  1  0.39499222  0.75000000  0.41061544  1.0
  As  As26  1  0.10500778  0.25000000  0.91061544  1.0
  As  As27  1  0.60500778  0.25000000  0.58938456  1.0
  As  As28  1  0.69457637  0.75000000  0.92893083  1.0
  As  As29  1  0.19457637  0.75000000  0.57106917  1.0
  As  As30  1  0.30542363  0.25000000  0.07106917  1.0
  As  As31  1  0.80542363  0.25000000  0.42893083  1.0
  As  As32  1  0.63391358  0.75000000  0.16981056  1.0
  As  As33  1  0.13391358  0.75000000  0.33018944  1.0
  As  As34  1  0.36608642  0.25000000  0.83018944  1.0
  As  As35  1  0.86608642  0.25000000  0.66981056  1.0
