# generated using pymatgen
data_RbNbV2O8
_symmetry_space_group_name_H-M   'P 1'
_cell_length_a   15.68018290
_cell_length_b   5.65410543
_cell_length_c   9.26512279
_cell_angle_alpha   90.00000000
_cell_angle_beta   90.00000000
_cell_angle_gamma   90.00000000
_symmetry_Int_Tables_number   1
_chemical_formula_structural   RbNbV2O8
_chemical_formula_sum   'Rb4 Nb4 V8 O32'
_cell_volume   821.42176571
_cell_formula_units_Z   4
loop_
 _symmetry_equiv_pos_site_id
 _symmetry_equiv_pos_as_xyz
  1  'x, y, z'
loop_
 _atom_site_type_symbol
 _atom_site_label
 _atom_site_symmetry_multiplicity
 _atom_site_fract_x
 _atom_site_fract_y
 _atom_site_fract_z
 _atom_site_occupancy
  Rb  Rb0  1  0.09981933  0.75000000  0.56083602  1.0
  Rb  Rb1  1  0.59981933  0.75000000  0.93916398  1.0
  Rb  Rb2  1  0.90018067  0.25000000  0.43916398  1.0
  Rb  Rb3  1  0.40018067  0.25000000  0.06083602  1.0
  Nb  Nb4  1  0.15602797  0.75000000  0.00186099  1.0
  Nb  Nb5  1  0.65602797  0.75000000  0.49813901  1.0
  Nb  Nb6  1  0.84397203  0.25000000  0.99813901  1.0
  Nb  Nb7  1  0.34397203  0.25000000  0.50186099  1.0
  V  V8  1  0.44358359  0.75000000  0.31868158  1.0
  V  V9  1  0.94358359  0.75000000  0.18131842  1.0
  V  V10  1  0.55641641  0.25000000  0.68131842  1.0
  V  V11  1  0.05641641  0.25000000  0.81868158  1.0
  V  V12  1  0.32974771  0.75000000  0.74461568  1.0
  V  V13  1  0.82974771  0.75000000  0.75538432  1.0
  V  V14  1  0.67025229  0.25000000  0.25538432  1.0
  V  V15  1  0.17025229  0.25000000  0.24461568  1.0
  O  O16  1  0.30643500  0.00171013  0.64088234  1.0
  O  O17  1  0.30643500  0.49828987  0.64088234  1.0
  O  O18  1  0.80643500  0.00171013  0.85911766  1.0
  O  O19  1  0.80643500  0.49828987  0.85911766  1.0
  O  O20  1  0.69356500  0.50171013  0.35911766  1.0
  O  O21  1  0.69356500  0.99828987  0.35911766  1.0
  O  O22  1  0.19356500  0.50171013  0.14088234  1.0
  O  O23  1  0.19356500  0.99828987  0.14088234  1.0
  O  O24  1  0.11506193  0.99669366  0.86553212  1.0
  O  O25  1  0.11506193  0.50330634  0.86553212  1.0
  O  O26  1  0.61506193  0.99669366  0.63446788  1.0
  O  O27  1  0.61506193  0.50330634  0.63446788  1.0
  O  O28  1  0.88493807  0.49669366  0.13446788  1.0
  O  O29  1  0.88493807  0.00330634  0.13446788  1.0
  O  O30  1  0.38493807  0.49669366  0.36553212  1.0
  O  O31  1  0.38493807  0.00330634  0.36553212  1.0
  O  O32  1  0.45713856  0.75000000  0.14350498  1.0
  O  O33  1  0.95713856  0.75000000  0.35649502  1.0
  O  O34  1  0.54286144  0.25000000  0.85649502  1.0
  O  O35  1  0.04286144  0.25000000  0.64350498  1.0
  O  O36  1  0.42948155  0.75000000  0.78986294  1.0
  O  O37  1  0.92948155  0.75000000  0.71013706  1.0
  O  O38  1  0.57051845  0.25000000  0.21013706  1.0
  O  O39  1  0.07051845  0.25000000  0.28986294  1.0
  O  O40  1  0.26779233  0.75000000  0.90431577  1.0
  O  O41  1  0.76779233  0.75000000  0.59568423  1.0
  O  O42  1  0.73220767  0.25000000  0.09568423  1.0
  O  O43  1  0.23220767  0.25000000  0.40431577  1.0
  O  O44  1  0.04183782  0.75000000  0.09448514  1.0
  O  O45  1  0.54183782  0.75000000  0.40551486  1.0
  O  O46  1  0.95816218  0.25000000  0.90551486  1.0
  O  O47  1  0.45816218  0.25000000  0.59448514  1.0
