# generated using pymatgen
data_TlIn5S6
_symmetry_space_group_name_H-M   'P 1'
_cell_length_a   8.93728986
_cell_length_b   3.98892432
_cell_length_c   18.02701722
_cell_angle_alpha   90.00000000
_cell_angle_beta   94.83183211
_cell_angle_gamma   90.00000000
_symmetry_Int_Tables_number   1
_chemical_formula_structural   TlIn5S6
_chemical_formula_sum   'Tl2 In10 S12'
_cell_volume   640.38238284
_cell_formula_units_Z   2
loop_
 _symmetry_equiv_pos_site_id
 _symmetry_equiv_pos_as_xyz
  1  'x, y, z'
loop_
 _atom_site_type_symbol
 _atom_site_label
 _atom_site_symmetry_multiplicity
 _atom_site_fract_x
 _atom_site_fract_y
 _atom_site_fract_z
 _atom_site_occupancy
  Tl  Tl0  1  0.63629929  0.25000000  0.71238867  1.0
  Tl  Tl1  1  0.36370071  0.75000000  0.28761133  1.0
  In  In2  1  0.96477940  0.25000000  0.88314864  1.0
  In  In3  1  0.03522060  0.75000000  0.11685136  1.0
  In  In4  1  0.88578690  0.25000000  0.38445047  1.0
  In  In5  1  0.11421310  0.75000000  0.61554953  1.0
  In  In6  1  0.69134703  0.25000000  0.50031798  1.0
  In  In7  1  0.30865297  0.75000000  0.49968202  1.0
  In  In8  1  0.34254430  0.25000000  0.04446589  1.0
  In  In9  1  0.65745570  0.75000000  0.95553411  1.0
  In  In10  1  0.23513437  0.25000000  0.81641106  1.0
  In  In11  1  0.76486563  0.75000000  0.18358894  1.0
  S  S12  1  0.94608560  0.25000000  0.62716552  1.0
  S  S13  1  0.05391440  0.75000000  0.37283448  1.0
  S  S14  1  0.83654196  0.25000000  0.00391362  1.0
  S  S15  1  0.16345804  0.75000000  0.99608638  1.0
  S  S16  1  0.69693225  0.25000000  0.26373682  1.0
  S  S17  1  0.30306775  0.75000000  0.73626318  1.0
  S  S18  1  0.46571407  0.25000000  0.91457807  1.0
  S  S19  1  0.53428593  0.75000000  0.08542193  1.0
  S  S20  1  0.40240337  0.25000000  0.42757988  1.0
  S  S21  1  0.59759663  0.75000000  0.57242012  1.0
  S  S22  1  0.20360133  0.25000000  0.16731654  1.0
  S  S23  1  0.79639867  0.75000000  0.83268346  1.0
