# generated using pymatgen
data_Te7RuI6
_symmetry_space_group_name_H-M   'P 1'
_cell_length_a   11.81375529
_cell_length_b   10.86756893
_cell_length_c   10.60925695
_cell_angle_alpha   112.53829902
_cell_angle_beta   102.77842246
_cell_angle_gamma   101.50534903
_symmetry_Int_Tables_number   1
_chemical_formula_structural   Te7RuI6
_chemical_formula_sum   'Te14 Ru2 I12'
_cell_volume   1164.21150098
_cell_formula_units_Z   2
loop_
 _symmetry_equiv_pos_site_id
 _symmetry_equiv_pos_as_xyz
  1  'x, y, z'
loop_
 _atom_site_type_symbol
 _atom_site_label
 _atom_site_symmetry_multiplicity
 _atom_site_fract_x
 _atom_site_fract_y
 _atom_site_fract_z
 _atom_site_occupancy
  Te  Te0  1  -0.99061472  -0.68424028  -0.98263752  1.0
  Te  Te1  1  -0.00938528  -0.31575972  -0.01736248  1.0
  Te  Te2  1  -0.70707042  0.00227434  -0.91846282  1.0
  Te  Te3  1  -0.29292958  -1.00227434  -0.08153718  1.0
  Te  Te4  1  -0.14522193  -0.74878316  -0.82931875  1.0
  Te  Te5  1  -0.85477807  -0.25121684  -0.17068125  1.0
  Te  Te6  1  -0.98588385  -0.93157144  -0.80812687  1.0
  Te  Te7  1  -0.01411615  -0.06842856  -0.19187313  1.0
  Te  Te8  1  -0.82558373  -0.10351043  -0.75689974  1.0
  Te  Te9  1  -0.17441627  -0.89648957  -0.24310026  1.0
  Te  Te10  1  -0.68884898  -0.62203600  -0.71837802  1.0
  Te  Te11  1  -0.31115102  -0.37796400  -0.28162198  1.0
  Te  Te12  1  -0.71918075  -0.75120754  -0.09000087  1.0
  Te  Te13  1  -0.28081925  -0.24879246  -0.90999913  1.0
  Ru  Ru14  1  -0.84623878  -0.83773637  -0.95019935  1.0
  Ru  Ru15  1  -0.15376122  -0.16226363  -0.04980065  1.0
  I  I16  1  -0.68815071  -0.43227352  -0.88026077  1.0
  I  I17  1  -0.31184929  -0.56772648  -0.11973923  1.0
  I  I18  1  -0.47375957  -0.67741335  -0.84344190  1.0
  I  I19  1  -0.52624043  -0.32258665  -0.15655810  1.0
  I  I20  1  -0.31029066  -0.98443006  -0.72303622  1.0
  I  I21  1  -0.68970934  -0.01556994  -0.27696378  1.0
  I  I22  1  -0.85951742  -0.50113162  -0.58079701  1.0
  I  I23  1  -0.14048258  -0.49886838  -0.41920299  1.0
  I  I24  1  -0.62631185  -0.76559760  -0.53565294  1.0
  I  I25  1  -0.37368815  -0.23440240  -0.46434706  1.0
  I  I26  1  -0.92192087  -0.75208196  -0.31405577  1.0
  I  I27  1  -0.07807913  -0.24791804  -0.68594423  1.0
