# generated using pymatgen
data_CaTiF6
_symmetry_space_group_name_H-M   'P 1'
_cell_length_a   5.88209178
_cell_length_b   5.88209178
_cell_length_c   5.88209178
_cell_angle_alpha   60.00995095
_cell_angle_beta   60.00995095
_cell_angle_gamma   60.00995095
_symmetry_Int_Tables_number   1
_chemical_formula_structural   CaTiF6
_chemical_formula_sum   'Ca1 Ti1 F6'
_cell_volume   143.93895924
_cell_formula_units_Z   1
loop_
 _symmetry_equiv_pos_site_id
 _symmetry_equiv_pos_as_xyz
  1  'x, y, z'
loop_
 _atom_site_type_symbol
 _atom_site_label
 _atom_site_symmetry_multiplicity
 _atom_site_fract_x
 _atom_site_fract_y
 _atom_site_fract_z
 _atom_site_occupancy
  Ca  Ca0  1  0.00000000  0.00000000  0.00000000  1.0
  Ti  Ti1  1  0.50000000  0.50000000  -0.50000000  1.0
  F  F2  1  0.27327302  0.27327302  -0.27327843  1.0
  F  F3  1  0.27327302  0.72672157  -0.72672698  1.0
  F  F4  1  1.27327843  -0.27327302  -0.27327302  1.0
  F  F5  1  0.72672698  0.27327843  -0.27327302  1.0
  F  F6  1  0.72672698  -0.27327302  0.27327843  1.0
  F  F7  1  0.72672157  0.27327302  -0.72672698  1.0
