# generated using pymatgen
data_NaHCO3
_symmetry_space_group_name_H-M   'P 1'
_cell_length_a   3.56034202
_cell_length_b   9.78723749
_cell_length_c   8.18643472
_cell_angle_alpha   90.00000000
_cell_angle_beta   113.17542643
_cell_angle_gamma   90.00000000
_symmetry_Int_Tables_number   1
_chemical_formula_structural   NaHCO3
_chemical_formula_sum   'Na4 H4 C4 O12'
_cell_volume   262.24420472
_cell_formula_units_Z   4
loop_
 _symmetry_equiv_pos_site_id
 _symmetry_equiv_pos_as_xyz
  1  'x, y, z'
loop_
 _atom_site_type_symbol
 _atom_site_label
 _atom_site_symmetry_multiplicity
 _atom_site_fract_x
 _atom_site_fract_y
 _atom_site_fract_z
 _atom_site_occupancy
  Na  Na0  1  0.92524161  0.49499173  0.21366967  1.0
  Na  Na1  1  0.92524161  0.00500827  0.71366967  1.0
  Na  Na2  1  0.07475839  -0.00500827  0.28633033  1.0
  Na  Na3  1  0.07475839  0.50500827  0.78633033  1.0
  H  H4  1  0.80975149  0.74129861  0.35052826  1.0
  H  H5  1  0.80975149  0.75870139  0.85052826  1.0
  H  H6  1  0.19024851  0.24129861  0.14947174  1.0
  H  H7  1  0.19024851  0.25870139  0.64947174  1.0
  C  C8  1  0.71434559  0.26025812  0.42311837  1.0
  C  C9  1  0.71434559  0.23974188  0.92311837  1.0
  C  C10  1  0.28565441  0.76025812  0.07688163  1.0
  C  C11  1  0.28565441  0.73974188  0.57688163  1.0
  O  O12  1  -0.00261340  0.17206245  0.06006755  1.0
  O  O13  1  -0.00261340  0.32793755  0.56006755  1.0
  O  O14  1  1.00261340  0.67206245  0.43993245  1.0
  O  O15  1  1.00261340  0.82793755  0.93993245  1.0
  O  O16  1  0.69472093  0.13127642  0.42879419  1.0
  O  O17  1  0.69472093  0.36872358  0.92879419  1.0
  O  O18  1  0.30527907  0.63127642  0.07120581  1.0
  O  O19  1  0.30527907  0.86872358  0.57120581  1.0
  O  O20  1  0.48760939  0.33538194  0.29387736  1.0
  O  O21  1  0.48760939  0.16461806  0.79387736  1.0
  O  O22  1  0.51239061  0.83538194  0.20612264  1.0
  O  O23  1  0.51239061  0.66461806  0.70612264  1.0
