# generated using pymatgen
data_KNa2BN2
_symmetry_space_group_name_H-M   'P 1'
_cell_length_a   6.01359281
_cell_length_b   6.01359281
_cell_length_c   6.01359281
_cell_angle_alpha   138.60216978
_cell_angle_beta   138.60216978
_cell_angle_gamma   59.98198806
_symmetry_Int_Tables_number   1
_chemical_formula_structural   KNa2BN2
_chemical_formula_sum   'K1 Na2 B1 N2'
_cell_volume   94.12512781
_cell_formula_units_Z   1
loop_
 _symmetry_equiv_pos_site_id
 _symmetry_equiv_pos_as_xyz
  1  'x, y, z'
loop_
 _atom_site_type_symbol
 _atom_site_label
 _atom_site_symmetry_multiplicity
 _atom_site_fract_x
 _atom_site_fract_y
 _atom_site_fract_z
 _atom_site_occupancy
  K  K0  1  0.50000000  0.50000000  1.00000000  1.0
  Na  Na1  1  0.25000000  0.75000000  0.50000000  1.0
  Na  Na2  1  0.75000000  0.25000000  0.50000000  1.0
  B  B3  1  0.00000000  0.00000000  0.00000000  1.0
  N  N4  1  0.87012932  0.87012932  1.00000000  1.0
  N  N5  1  0.12987068  0.12987068  0.00000000  1.0
