# generated using pymatgen
data_Al8C3N4
_symmetry_space_group_name_H-M   'P 1'
_cell_length_a   18.68036259
_cell_length_b   18.68036259
_cell_length_c   18.68036259
_cell_angle_alpha   9.93392534
_cell_angle_beta   9.93392534
_cell_angle_gamma   9.93392534
_symmetry_Int_Tables_number   1
_chemical_formula_structural   Al8C3N4
_chemical_formula_sum   'Al8 C3 N4'
_cell_volume   168.42770406
_cell_formula_units_Z   1
loop_
 _symmetry_equiv_pos_site_id
 _symmetry_equiv_pos_as_xyz
  1  'x, y, z'
loop_
 _atom_site_type_symbol
 _atom_site_label
 _atom_site_symmetry_multiplicity
 _atom_site_fract_x
 _atom_site_fract_y
 _atom_site_fract_z
 _atom_site_occupancy
  Al  Al0  1  0.93733386  0.93733386  0.93733386  1.0
  Al  Al1  1  1.06266614  1.06266614  0.06266614  1.0
  Al  Al2  1  0.84997245  0.84997245  0.84997245  1.0
  Al  Al3  1  1.15002755  1.15002755  0.15002755  1.0
  Al  Al4  1  0.77476586  0.77476586  0.77476586  1.0
  Al  Al5  1  1.22523414  1.22523414  0.22523414  1.0
  Al  Al6  1  0.68426719  0.68426719  0.68426719  1.0
  Al  Al7  1  1.31573281  1.31573281  0.31573281  1.0
  C  C8  1  0.80992368  0.80992368  0.80992368  1.0
  C  C9  1  1.19007632  1.19007632  0.19007632  1.0
  C  C10  1  -0.00000000  0.00000000  -0.00000000  1.0
  N  N11  1  0.90411468  0.90411468  0.90411468  1.0
  N  N12  1  1.09588532  1.09588532  0.09588532  1.0
  N  N13  1  0.71747194  0.71747194  0.71747194  1.0
  N  N14  1  1.28252806  1.28252806  0.28252806  1.0
