# generated using pymatgen
data_NbCr2
_symmetry_space_group_name_H-M   'P 1'
_cell_length_a   4.89689897
_cell_length_b   4.89689897
_cell_length_c   8.07327337
_cell_angle_alpha   90.00000000
_cell_angle_beta   90.00000000
_cell_angle_gamma   120.00000000
_symmetry_Int_Tables_number   1
_chemical_formula_structural   NbCr2
_chemical_formula_sum   'Nb4 Cr8'
_cell_volume   167.65734273
_cell_formula_units_Z   4
loop_
 _symmetry_equiv_pos_site_id
 _symmetry_equiv_pos_as_xyz
  1  'x, y, z'
loop_
 _atom_site_type_symbol
 _atom_site_label
 _atom_site_symmetry_multiplicity
 _atom_site_fract_x
 _atom_site_fract_y
 _atom_site_fract_z
 _atom_site_occupancy
  Nb  Nb0  1  0.33333333  0.66666667  0.44044672  1.0
  Nb  Nb1  1  0.66666667  0.33333333  0.55955328  1.0
  Nb  Nb2  1  0.66666667  0.33333333  0.94044672  1.0
  Nb  Nb3  1  0.33333333  0.66666667  0.05955328  1.0
  Cr  Cr4  1  -0.00000000  0.00000000  0.50000000  1.0
  Cr  Cr5  1  -0.00000000  0.00000000  -0.00000000  1.0
  Cr  Cr6  1  0.83030052  0.16969948  0.25000000  1.0
  Cr  Cr7  1  0.83030052  0.66060103  0.25000000  1.0
  Cr  Cr8  1  0.33939897  0.16969948  0.25000000  1.0
  Cr  Cr9  1  0.16969948  0.83030052  0.75000000  1.0
  Cr  Cr10  1  0.16969948  0.33939897  0.75000000  1.0
  Cr  Cr11  1  0.66060103  0.83030052  0.75000000  1.0
