# generated using pymatgen
data_TiO2
_symmetry_space_group_name_H-M   'P 1'
_cell_length_a   5.53651596
_cell_length_b   5.53651596
_cell_length_c   5.53651596
_cell_angle_alpha   139.85727143
_cell_angle_beta   139.85727143
_cell_angle_gamma   58.07007575
_symmetry_Int_Tables_number   1
_chemical_formula_structural   TiO2
_chemical_formula_sum   'Ti2 O4'
_cell_volume   69.90554361
_cell_formula_units_Z   2
loop_
 _symmetry_equiv_pos_site_id
 _symmetry_equiv_pos_as_xyz
  1  'x, y, z'
loop_
 _atom_site_type_symbol
 _atom_site_label
 _atom_site_symmetry_multiplicity
 _atom_site_fract_x
 _atom_site_fract_y
 _atom_site_fract_z
 _atom_site_occupancy
  Ti  Ti0  1  0.75000000  0.25000000  0.50000000  1.0
  Ti  Ti1  1  0.00000000  0.00000000  0.00000000  1.0
  O  O2  1  0.95680188  0.45680188  0.50000000  1.0
  O  O3  1  0.79319812  0.79319812  1.00000000  1.0
  O  O4  1  0.54319812  0.04319812  0.50000000  1.0
  O  O5  1  0.20680188  0.20680188  -0.00000000  1.0
