# generated using pymatgen
data_Na3VO4
_symmetry_space_group_name_H-M   'P 1'
_cell_length_a   12.36562697
_cell_length_b   7.11975265
_cell_length_c   5.68804127
_cell_angle_alpha   90.00000000
_cell_angle_beta   90.00000000
_cell_angle_gamma   90.00000000
_symmetry_Int_Tables_number   1
_chemical_formula_structural   Na3VO4
_chemical_formula_sum   'Na12 V4 O16'
_cell_volume   500.77632208
_cell_formula_units_Z   4
loop_
 _symmetry_equiv_pos_site_id
 _symmetry_equiv_pos_as_xyz
  1  'x, y, z'
loop_
 _atom_site_type_symbol
 _atom_site_label
 _atom_site_symmetry_multiplicity
 _atom_site_fract_x
 _atom_site_fract_y
 _atom_site_fract_z
 _atom_site_occupancy
  Na  Na0  1  0.66379748  1.00163626  0.28838343  1.0
  Na  Na1  1  0.66379748  0.49836374  0.28838343  1.0
  Na  Na2  1  0.16379748  1.00163626  0.21161657  1.0
  Na  Na3  1  0.16379748  0.49836374  0.21161657  1.0
  Na  Na4  1  0.33620252  0.50163626  0.71161657  1.0
  Na  Na5  1  0.33620252  -0.00163626  0.71161657  1.0
  Na  Na6  1  0.83620252  0.50163626  0.78838343  1.0
  Na  Na7  1  0.83620252  -0.00163626  0.78838343  1.0
  Na  Na8  1  0.57241028  0.25000000  0.71737365  1.0
  Na  Na9  1  0.07241028  0.25000000  0.78262635  1.0
  Na  Na10  1  0.42758972  0.75000000  0.28262635  1.0
  Na  Na11  1  0.92758972  0.75000000  0.21737365  1.0
  V  V12  1  0.91014123  0.25000000  0.29718938  1.0
  V  V13  1  0.41014123  0.25000000  0.20281062  1.0
  V  V14  1  0.08985877  0.75000000  0.70281062  1.0
  V  V15  1  0.58985877  0.75000000  0.79718938  1.0
  O  O16  1  0.84453360  0.45009270  0.19842869  1.0
  O  O17  1  0.84453360  0.04990730  0.19842869  1.0
  O  O18  1  0.34453360  0.45009270  0.30157131  1.0
  O  O19  1  0.34453360  0.04990730  0.30157131  1.0
  O  O20  1  0.15546640  0.95009270  0.80157131  1.0
  O  O21  1  0.15546640  0.54990730  0.80157131  1.0
  O  O22  1  0.65546640  0.95009270  0.69842869  1.0
  O  O23  1  0.65546640  0.54990730  0.69842869  1.0
  O  O24  1  0.90815985  0.25000000  0.59986446  1.0
  O  O25  1  0.40815985  0.25000000  0.90013554  1.0
  O  O26  1  0.09184015  0.75000000  0.40013554  1.0
  O  O27  1  0.59184015  0.75000000  0.09986446  1.0
  O  O28  1  0.54282438  0.25000000  0.30038291  1.0
  O  O29  1  0.04282438  0.25000000  0.19961709  1.0
  O  O30  1  0.45717562  0.75000000  0.69961709  1.0
  O  O31  1  0.95717562  0.75000000  0.80038291  1.0
