# generated using pymatgen
data_Na2SnTeO6
_symmetry_space_group_name_H-M   'P 1'
_cell_length_a   5.54335329
_cell_length_b   5.61735392
_cell_length_c   9.63999943
_cell_angle_alpha   90.00000000
_cell_angle_beta   125.06583235
_cell_angle_gamma   90.00000000
_symmetry_Int_Tables_number   1
_chemical_formula_structural   Na2SnTeO6
_chemical_formula_sum   'Na4 Sn2 Te2 O12'
_cell_volume   245.69484318
_cell_formula_units_Z   2
loop_
 _symmetry_equiv_pos_site_id
 _symmetry_equiv_pos_as_xyz
  1  'x, y, z'
loop_
 _atom_site_type_symbol
 _atom_site_label
 _atom_site_symmetry_multiplicity
 _atom_site_fract_x
 _atom_site_fract_y
 _atom_site_fract_z
 _atom_site_occupancy
  Na  Na0  1  0.73935363  0.04375309  0.24901485  1.0
  Na  Na1  1  0.73935363  0.45624691  0.74901485  1.0
  Na  Na2  1  0.26064637  0.54375309  0.25098515  1.0
  Na  Na3  1  0.26064637  0.95624691  0.75098515  1.0
  Sn  Sn4  1  0.50000000  0.50000000  -0.00000000  1.0
  Sn  Sn5  1  0.50000000  0.00000000  0.50000000  1.0
  Te  Te6  1  0.00000000  0.50000000  0.50000000  1.0
  Te  Te7  1  0.00000000  0.00000000  0.00000000  1.0
  O  O8  1  0.85314533  0.46867737  0.25569453  1.0
  O  O9  1  0.85314533  0.03132263  0.75569453  1.0
  O  O10  1  0.14685467  0.96867737  0.24430547  1.0
  O  O11  1  0.14685467  0.53132263  0.74430547  1.0
  O  O12  1  0.75548507  0.79229445  0.44821048  1.0
  O  O13  1  0.75548507  0.70770555  0.94821048  1.0
  O  O14  1  0.24451493  0.29229445  0.05178952  1.0
  O  O15  1  0.24451493  0.20770555  0.55178952  1.0
  O  O16  1  0.65605009  0.30277489  0.45074259  1.0
  O  O17  1  0.65605009  0.19722511  0.95074259  1.0
  O  O18  1  0.34394991  0.80277489  0.04925741  1.0
  O  O19  1  0.34394991  0.69722511  0.54925741  1.0
