# generated using pymatgen
data_Ca2CdSb2
_symmetry_space_group_name_H-M   'P 1'
_cell_length_a   7.39041649
_cell_length_b   4.63606245
_cell_length_c   17.61756375
_cell_angle_alpha   90.00000000
_cell_angle_beta   90.00000000
_cell_angle_gamma   90.00000000
_symmetry_Int_Tables_number   1
_chemical_formula_structural   Ca2CdSb2
_chemical_formula_sum   'Ca8 Cd4 Sb8'
_cell_volume   603.62058696
_cell_formula_units_Z   4
loop_
 _symmetry_equiv_pos_site_id
 _symmetry_equiv_pos_as_xyz
  1  'x, y, z'
loop_
 _atom_site_type_symbol
 _atom_site_label
 _atom_site_symmetry_multiplicity
 _atom_site_fract_x
 _atom_site_fract_y
 _atom_site_fract_z
 _atom_site_occupancy
  Ca  Ca0  1  0.78974568  0.75000000  0.44556445  1.0
  Ca  Ca1  1  0.28974568  0.75000000  0.05443555  1.0
  Ca  Ca2  1  0.21025432  0.25000000  0.55443555  1.0
  Ca  Ca3  1  0.71025432  0.25000000  0.94556445  1.0
  Ca  Ca4  1  0.96209485  0.75000000  0.22573521  1.0
  Ca  Ca5  1  0.46209485  0.75000000  0.27426479  1.0
  Ca  Ca6  1  0.03790515  0.25000000  0.77426479  1.0
  Ca  Ca7  1  0.53790515  0.25000000  0.72573521  1.0
  Cd  Cd8  1  0.86606090  0.75000000  0.65096013  1.0
  Cd  Cd9  1  0.36606090  0.75000000  0.84903987  1.0
  Cd  Cd10  1  0.13393910  0.25000000  0.34903987  1.0
  Cd  Cd11  1  0.63393910  0.25000000  0.15096013  1.0
  Sb  Sb12  1  0.75701401  0.75000000  0.81652224  1.0
  Sb  Sb13  1  0.25701401  0.75000000  0.68347776  1.0
  Sb  Sb14  1  0.24298599  0.25000000  0.18347776  1.0
  Sb  Sb15  1  0.74298599  0.25000000  0.31652224  1.0
  Sb  Sb16  1  0.75504597  0.75000000  0.06971571  1.0
  Sb  Sb17  1  0.25504597  0.75000000  0.43028429  1.0
  Sb  Sb18  1  0.24495403  0.25000000  0.93028429  1.0
  Sb  Sb19  1  0.74495403  0.25000000  0.56971571  1.0
