# generated using pymatgen
data_NbPSe
_symmetry_space_group_name_H-M   'P 1'
_cell_length_a   6.93394601
_cell_length_b   6.93394601
_cell_length_c   6.93394601
_cell_angle_alpha   150.89167051
_cell_angle_beta   139.04518341
_cell_angle_gamma   51.02890689
_symmetry_Int_Tables_number   1
_chemical_formula_structural   NbPSe
_chemical_formula_sum   'Nb2 P2 Se2'
_cell_volume   105.80067186
_cell_formula_units_Z   2
loop_
 _symmetry_equiv_pos_site_id
 _symmetry_equiv_pos_as_xyz
  1  'x, y, z'
loop_
 _atom_site_type_symbol
 _atom_site_label
 _atom_site_symmetry_multiplicity
 _atom_site_fract_x
 _atom_site_fract_y
 _atom_site_fract_z
 _atom_site_occupancy
  Nb  Nb0  1  0.88416619  0.38416619  0.50000000  1.0
  Nb  Nb1  1  0.11583381  0.61583381  0.50000000  1.0
  P  P2  1  0.73655840  -0.00000000  0.73655840  1.0
  P  P3  1  0.26344160  -0.00000000  0.26344160  1.0
  Se  Se4  1  0.71278840  0.71278840  1.00000000  1.0
  Se  Se5  1  0.28721160  0.28721160  -0.00000000  1.0
