# generated using pymatgen
data_RbNaMgP2O7
_symmetry_space_group_name_H-M   'P 1'
_cell_length_a   7.87098039
_cell_length_b   7.87098039
_cell_length_c   9.91711491
_cell_angle_alpha   90.00000000
_cell_angle_beta   90.00000000
_cell_angle_gamma   140.53683194
_symmetry_Int_Tables_number   1
_chemical_formula_structural   RbNaMgP2O7
_chemical_formula_sum   'Rb2 Na2 Mg2 P4 O14'
_cell_volume   390.49424303
_cell_formula_units_Z   2
loop_
 _symmetry_equiv_pos_site_id
 _symmetry_equiv_pos_as_xyz
  1  'x, y, z'
loop_
 _atom_site_type_symbol
 _atom_site_label
 _atom_site_symmetry_multiplicity
 _atom_site_fract_x
 _atom_site_fract_y
 _atom_site_fract_z
 _atom_site_occupancy
  Rb  Rb0  1  -0.09717494  0.09717494  0.90066175  1.0
  Rb  Rb1  1  0.09717494  0.90282506  0.40066175  1.0
  Na  Na2  1  -0.36177123  0.36177123  0.70252347  1.0
  Na  Na3  1  0.36177123  0.63822877  0.20252347  1.0
  Mg  Mg4  1  -0.18855242  0.18855242  0.46648439  1.0
  Mg  Mg5  1  0.18855242  0.81144758  0.96648439  1.0
  P  P6  1  0.28265102  0.71734898  0.65853547  1.0
  P  P7  1  -0.28265102  0.28265102  0.15853547  1.0
  P  P8  1  0.44141445  0.55858555  0.49077643  1.0
  P  P9  1  -0.44141445  0.44141445  0.99077643  1.0
  O  O10  1  0.39287572  0.60712428  0.64175503  1.0
  O  O11  1  -0.39287572  0.39287572  0.14175503  1.0
  O  O12  1  0.48829431  0.99333580  0.59017167  1.0
  O  O13  1  -0.00666420  0.48829431  0.09017167  1.0
  O  O14  1  0.00666420  0.51170569  0.59017167  1.0
  O  O15  1  0.51170569  1.00666420  0.09017167  1.0
  O  O16  1  0.26952814  0.73047186  0.81093316  1.0
  O  O17  1  -0.26952814  0.26952814  0.31093316  1.0
  O  O18  1  -0.45836132  0.45836132  0.52164874  1.0
  O  O19  1  0.45836132  0.54163868  0.02164874  1.0
  O  O20  1  0.64483863  0.83015491  0.41651911  1.0
  O  O21  1  -0.16984509  0.64483863  0.91651911  1.0
  O  O22  1  0.16984509  0.35516137  0.41651911  1.0
  O  O23  1  0.35516137  1.16984509  0.91651911  1.0
