# generated using pymatgen
data_Rb3BP2
_symmetry_space_group_name_H-M   'P 1'
_cell_length_a   6.72633811
_cell_length_b   6.72633811
_cell_length_c   9.43725561
_cell_angle_alpha   75.48517856
_cell_angle_beta   104.51482144
_cell_angle_gamma   92.06321498
_symmetry_Int_Tables_number   1
_chemical_formula_structural   Rb3BP2
_chemical_formula_sum   'Rb6 B2 P4'
_cell_volume   399.99109750
_cell_formula_units_Z   2
loop_
 _symmetry_equiv_pos_site_id
 _symmetry_equiv_pos_as_xyz
  1  'x, y, z'
loop_
 _atom_site_type_symbol
 _atom_site_label
 _atom_site_symmetry_multiplicity
 _atom_site_fract_x
 _atom_site_fract_y
 _atom_site_fract_z
 _atom_site_occupancy
  Rb  Rb0  1  0.74423493  0.15430811  0.51937056  1.0
  Rb  Rb1  1  0.84569189  0.25576507  0.01937056  1.0
  Rb  Rb2  1  1.15430811  -0.25576507  0.98062944  1.0
  Rb  Rb3  1  1.25576507  -0.15430811  0.48062944  1.0
  Rb  Rb4  1  0.34508409  0.34508409  0.75000000  1.0
  Rb  Rb5  1  0.65491591  0.65491591  0.25000000  1.0
  B  B6  1  0.71643424  0.71643424  0.75000000  1.0
  B  B7  1  0.28356576  0.28356576  0.25000000  1.0
  P  P8  1  1.59681765  -0.15639727  0.85281247  1.0
  P  P9  1  1.15639727  -0.59681765  0.35281247  1.0
  P  P10  1  0.84360273  0.59681765  0.64718753  1.0
  P  P11  1  0.40318235  0.15639727  0.14718753  1.0
