# generated using pymatgen
data_Ti2NiP5
_symmetry_space_group_name_H-M   'P 1'
_cell_length_a   11.14737547
_cell_length_b   3.33722474
_cell_length_c   12.45046933
_cell_angle_alpha   90.00000000
_cell_angle_beta   90.00000000
_cell_angle_gamma   90.00000000
_symmetry_Int_Tables_number   1
_chemical_formula_structural   Ti2NiP5
_chemical_formula_sum   'Ti8 Ni4 P20'
_cell_volume   463.17361008
_cell_formula_units_Z   4
loop_
 _symmetry_equiv_pos_site_id
 _symmetry_equiv_pos_as_xyz
  1  'x, y, z'
loop_
 _atom_site_type_symbol
 _atom_site_label
 _atom_site_symmetry_multiplicity
 _atom_site_fract_x
 _atom_site_fract_y
 _atom_site_fract_z
 _atom_site_occupancy
  Ti  Ti0  1  0.90337896  0.75000000  0.23428307  1.0
  Ti  Ti1  1  0.40337896  0.75000000  0.26571693  1.0
  Ti  Ti2  1  0.09662104  0.25000000  0.76571693  1.0
  Ti  Ti3  1  0.59662104  0.25000000  0.73428307  1.0
  Ti  Ti4  1  0.65601806  0.75000000  0.40153797  1.0
  Ti  Ti5  1  0.15601806  0.75000000  0.09846203  1.0
  Ti  Ti6  1  0.34398194  0.25000000  0.59846203  1.0
  Ti  Ti7  1  0.84398194  0.25000000  0.90153797  1.0
  Ni  Ni8  1  0.65448436  0.75000000  0.17232101  1.0
  Ni  Ni9  1  0.15448436  0.75000000  0.32767899  1.0
  Ni  Ni10  1  0.34551564  0.25000000  0.82767899  1.0
  Ni  Ni11  1  0.84551564  0.25000000  0.67232101  1.0
  P  P12  1  0.93272827  0.75000000  0.03576246  1.0
  P  P13  1  0.43272827  0.75000000  0.46423754  1.0
  P  P14  1  0.06727173  0.25000000  0.96423754  1.0
  P  P15  1  0.56727173  0.25000000  0.53576246  1.0
  P  P16  1  0.92730956  0.75000000  0.77069841  1.0
  P  P17  1  0.42730956  0.75000000  0.72930159  1.0
  P  P18  1  0.07269044  0.25000000  0.22930159  1.0
  P  P19  1  0.57269044  0.25000000  0.27069841  1.0
  P  P20  1  0.71719418  0.75000000  0.61290256  1.0
  P  P21  1  0.21719418  0.75000000  0.88709744  1.0
  P  P22  1  0.28280582  0.25000000  0.38709744  1.0
  P  P23  1  0.78280582  0.25000000  0.11290256  1.0
  P  P24  1  0.67637189  0.75000000  0.87366676  1.0
  P  P25  1  0.17637189  0.75000000  0.62633324  1.0
  P  P26  1  0.32362811  0.25000000  0.12633324  1.0
  P  P27  1  0.82362811  0.25000000  0.37366676  1.0
  P  P28  1  0.56271459  0.75000000  0.01826046  1.0
  P  P29  1  0.06271459  0.75000000  0.48173954  1.0
  P  P30  1  0.43728541  0.25000000  0.98173954  1.0
  P  P31  1  0.93728541  0.25000000  0.51826046  1.0
