# generated using pymatgen
data_HfBe
_symmetry_space_group_name_H-M   'P 1'
_cell_length_a   5.26950721
_cell_length_b   5.26950721
_cell_length_c   3.74722605
_cell_angle_alpha   90.00000000
_cell_angle_beta   90.00000000
_cell_angle_gamma   143.16961447
_symmetry_Int_Tables_number   1
_chemical_formula_structural   HfBe
_chemical_formula_sum   'Hf2 Be2'
_cell_volume   62.37370380
_cell_formula_units_Z   2
loop_
 _symmetry_equiv_pos_site_id
 _symmetry_equiv_pos_as_xyz
  1  'x, y, z'
loop_
 _atom_site_type_symbol
 _atom_site_label
 _atom_site_symmetry_multiplicity
 _atom_site_fract_x
 _atom_site_fract_y
 _atom_site_fract_z
 _atom_site_occupancy
  Hf  Hf0  1  -0.65122563  0.65122563  0.25000000  1.0
  Hf  Hf1  1  -0.34877437  1.34877437  0.75000000  1.0
  Be  Be2  1  -0.93849482  0.93849482  0.25000000  1.0
  Be  Be3  1  -0.06150518  1.06150518  0.75000000  1.0
