# generated using pymatgen
data_Ca(BIr)2
_symmetry_space_group_name_H-M   'P 1'
_cell_length_a   8.37207216
_cell_length_b   8.37247781
_cell_length_c   6.40581056
_cell_angle_alpha   67.50424493
_cell_angle_beta   67.51094946
_cell_angle_gamma   44.98480561
_symmetry_Int_Tables_number   1
_chemical_formula_structural   Ca(BIr)2
_chemical_formula_sum   'Ca4 B8 Ir8'
_cell_volume   288.92939715
_cell_formula_units_Z   4
loop_
 _symmetry_equiv_pos_site_id
 _symmetry_equiv_pos_as_xyz
  1  'x, y, z'
loop_
 _atom_site_type_symbol
 _atom_site_label
 _atom_site_symmetry_multiplicity
 _atom_site_fract_x
 _atom_site_fract_y
 _atom_site_fract_z
 _atom_site_occupancy
  Ca  Ca0  1  0.12500000  0.12500000  1.62500000  1.0
  Ca  Ca1  1  0.12500000  0.62500000  1.12500000  1.0
  Ca  Ca2  1  0.12500000  0.12500000  1.12500000  1.0
  Ca  Ca3  1  0.62500000  0.12500000  1.12500000  1.0
  B  B4  1  -0.25224299  0.46283514  0.39464616  1.0
  B  B5  1  0.39476169  0.39464616  1.46283514  1.0
  B  B6  1  -0.21283514  0.50224299  0.85523831  1.0
  B  B7  1  -0.14464616  0.85523831  0.50224299  1.0
  B  B8  1  0.39464616  0.39476169  -0.25224299  1.0
  B  B9  1  0.46283514  -0.25224299  1.39476169  1.0
  B  B10  1  -0.14476169  0.85535384  0.78716486  1.0
  B  B11  1  -0.49775701  0.78716486  0.85535384  1.0
  Ir  Ir12  1  0.53073303  0.53077078  1.17964236  1.0
  Ir  Ir13  1  -0.24114617  0.17964236  0.53077078  1.0
  Ir  Ir14  1  -0.28077078  0.71926697  0.49114617  1.0
  Ir  Ir15  1  0.07035764  0.49114617  0.71926697  1.0
  Ir  Ir16  1  0.17964236  -0.24114617  1.53073303  1.0
  Ir  Ir17  1  0.53077078  0.53073303  -0.24114617  1.0
  Ir  Ir18  1  -0.50885383  1.07035764  0.71922922  1.0
  Ir  Ir19  1  -0.28073303  0.71922922  1.07035764  1.0
