# generated using pymatgen
data_LaPO4
_symmetry_space_group_name_H-M   'P 1'
_cell_length_a   6.06699095
_cell_length_b   6.06699095
_cell_length_c   6.06699095
_cell_angle_alpha   105.89906998
_cell_angle_beta   105.89906998
_cell_angle_gamma   116.87931902
_symmetry_Int_Tables_number   1
_chemical_formula_structural   LaPO4
_chemical_formula_sum   'La2 P2 O8'
_cell_volume   169.72701624
_cell_formula_units_Z   2
loop_
 _symmetry_equiv_pos_site_id
 _symmetry_equiv_pos_as_xyz
  1  'x, y, z'
loop_
 _atom_site_type_symbol
 _atom_site_label
 _atom_site_symmetry_multiplicity
 _atom_site_fract_x
 _atom_site_fract_y
 _atom_site_fract_z
 _atom_site_occupancy
  La  La0  1  0.25000000  0.75000000  0.50000000  1.0
  La  La1  1  0.50000000  0.50000000  -0.00000000  1.0
  P  P2  1  0.00000000  0.00000000  0.00000000  1.0
  P  P3  1  0.75000000  1.25000000  0.50000000  1.0
  O  O4  1  0.15136297  0.98266495  0.83130198  1.0
  O  O5  1  0.73266495  0.40136297  0.33130198  1.0
  O  O6  1  1.07006098  1.40136297  0.66869802  1.0
  O  O7  1  0.15136297  0.32006098  0.16869802  1.0
  O  O8  1  0.59863703  1.26733505  0.66869802  1.0
  O  O9  1  1.01733505  0.84863703  1.16869802  1.0
  O  O10  1  1.67993902  0.84863703  0.83130198  1.0
  O  O11  1  0.59863703  0.92993902  0.33130198  1.0
