# generated using pymatgen
data_PBr
_symmetry_space_group_name_H-M   'P 1'
_cell_length_a   6.14730323
_cell_length_b   6.14730323
_cell_length_c   2.55048531
_cell_angle_alpha   90.00000000
_cell_angle_beta   90.00000000
_cell_angle_gamma   90.00000000
_symmetry_Int_Tables_number   1
_chemical_formula_structural   PBr
_chemical_formula_sum   'P2 Br2'
_cell_volume   96.38114893
_cell_formula_units_Z   2
loop_
 _symmetry_equiv_pos_site_id
 _symmetry_equiv_pos_as_xyz
  1  'x, y, z'
loop_
 _atom_site_type_symbol
 _atom_site_label
 _atom_site_symmetry_multiplicity
 _atom_site_fract_x
 _atom_site_fract_y
 _atom_site_fract_z
 _atom_site_occupancy
  P  P0  1  0.00000000  0.00000000  0.50000000  1.0
  P  P1  1  0.50000000  0.50000000  0.50000000  1.0
  Br  Br2  1  0.50000000  0.00000000  0.49999566  1.0
  Br  Br3  1  0.00000000  0.50000000  0.50000434  1.0
