# generated using pymatgen
data_Si3Rh5
_symmetry_space_group_name_H-M   'P 1'
_cell_length_a   5.37875302
_cell_length_b   10.26289771
_cell_length_c   3.90440209
_cell_angle_alpha   90.00000000
_cell_angle_beta   90.00000000
_cell_angle_gamma   90.00000000
_symmetry_Int_Tables_number   1
_chemical_formula_structural   Si3Rh5
_chemical_formula_sum   'Si6 Rh10'
_cell_volume   215.52921112
_cell_formula_units_Z   2
loop_
 _symmetry_equiv_pos_site_id
 _symmetry_equiv_pos_as_xyz
  1  'x, y, z'
loop_
 _atom_site_type_symbol
 _atom_site_label
 _atom_site_symmetry_multiplicity
 _atom_site_fract_x
 _atom_site_fract_y
 _atom_site_fract_z
 _atom_site_occupancy
  Si  Si0  1  0.40332514  0.65409792  0.50000000  1.0
  Si  Si1  1  0.90332514  0.84590208  0.50000000  1.0
  Si  Si2  1  0.59667486  0.34590208  0.50000000  1.0
  Si  Si3  1  0.09667486  0.15409792  0.50000000  1.0
  Si  Si4  1  0.50000000  0.00000000  0.00000000  1.0
  Si  Si5  1  0.00000000  0.50000000  0.00000000  1.0
  Rh  Rh6  1  0.33290324  0.89273737  0.50000000  1.0
  Rh  Rh7  1  0.83290324  0.60726263  0.50000000  1.0
  Rh  Rh8  1  0.66709676  0.10726263  0.50000000  1.0
  Rh  Rh9  1  0.16709676  0.39273737  0.50000000  1.0
  Rh  Rh10  1  0.16015815  0.71310067  0.00000000  1.0
  Rh  Rh11  1  0.66015815  0.78689933  0.00000000  1.0
  Rh  Rh12  1  0.83984185  0.28689933  0.00000000  1.0
  Rh  Rh13  1  0.33984185  0.21310067  0.00000000  1.0
  Rh  Rh14  1  0.50000000  0.50000000  0.00000000  1.0
  Rh  Rh15  1  0.00000000  0.00000000  0.00000000  1.0
