# generated using pymatgen
data_Si12Ni31
_symmetry_space_group_name_H-M   'P 1'
_cell_length_a   6.67256995
_cell_length_b   6.67256995
_cell_length_c   12.29904999
_cell_angle_alpha   90.00000000
_cell_angle_beta   90.00000000
_cell_angle_gamma   120.00000000
_symmetry_Int_Tables_number   1
_chemical_formula_structural   Si12Ni31
_chemical_formula_sum   'Si12 Ni31'
_cell_volume   474.22939355
_cell_formula_units_Z   1
loop_
 _symmetry_equiv_pos_site_id
 _symmetry_equiv_pos_as_xyz
  1  'x, y, z'
loop_
 _atom_site_type_symbol
 _atom_site_label
 _atom_site_symmetry_multiplicity
 _atom_site_fract_x
 _atom_site_fract_y
 _atom_site_fract_z
 _atom_site_occupancy
  Si  Si0  1  0.31870758  0.31870758  0.50000000  1.0
  Si  Si1  1  0.00000000  0.68129242  0.50000000  1.0
  Si  Si2  1  0.68129242  0.00000000  0.50000000  1.0
  Si  Si3  1  0.64873317  0.64873317  0.00000000  1.0
  Si  Si4  1  -0.00000000  0.35126683  0.00000000  1.0
  Si  Si5  1  0.35126683  0.00000000  0.00000000  1.0
  Si  Si6  1  0.33333333  0.66666667  0.27361879  1.0
  Si  Si7  1  0.66666667  0.33333333  0.72638121  1.0
  Si  Si8  1  0.33333333  0.66666667  0.77543702  1.0
  Si  Si9  1  0.66666667  0.33333333  0.22456298  1.0
  Si  Si10  1  0.00000000  0.00000000  0.20733598  1.0
  Si  Si11  1  0.00000000  0.00000000  0.79266402  1.0
  Ni  Ni12  1  0.32336903  0.96578698  0.19491844  1.0
  Ni  Ni13  1  0.96578698  0.32336903  0.80508156  1.0
  Ni  Ni14  1  0.64241795  0.67663097  0.19491844  1.0
  Ni  Ni15  1  0.03421302  0.35758205  0.19491844  1.0
  Ni  Ni16  1  0.67663097  0.64241795  0.80508156  1.0
  Ni  Ni17  1  0.35758205  0.03421302  0.80508156  1.0
  Ni  Ni18  1  0.33306769  0.92042006  0.40469781  1.0
  Ni  Ni19  1  0.92042006  0.33306769  0.59530219  1.0
  Ni  Ni20  1  0.58735236  0.66693231  0.40469781  1.0
  Ni  Ni21  1  0.07957994  0.41264764  0.40469781  1.0
  Ni  Ni22  1  0.66693231  0.58735236  0.59530219  1.0
  Ni  Ni23  1  0.41264764  0.07957994  0.59530219  1.0
  Ni  Ni24  1  0.96272695  0.66516912  0.30220656  1.0
  Ni  Ni25  1  0.66516912  0.96272695  0.69779344  1.0
  Ni  Ni26  1  0.70244218  0.03727305  0.30220656  1.0
  Ni  Ni27  1  0.33483088  0.29755782  0.30220656  1.0
  Ni  Ni28  1  0.03727305  0.70244218  0.69779344  1.0
  Ni  Ni29  1  0.29755782  0.33483088  0.69779344  1.0
  Ni  Ni30  1  0.93797481  0.63020240  0.09630354  1.0
  Ni  Ni31  1  0.63020240  0.93797481  0.90369646  1.0
  Ni  Ni32  1  0.69222760  0.06202519  0.09630354  1.0
  Ni  Ni33  1  0.36979760  0.30777240  0.09630354  1.0
  Ni  Ni34  1  0.06202519  0.69222760  0.90369646  1.0
  Ni  Ni35  1  0.30777240  0.36979760  0.90369646  1.0
  Ni  Ni36  1  0.33333333  0.66666667  0.06677690  1.0
  Ni  Ni37  1  0.66666667  0.33333333  0.93322310  1.0
  Ni  Ni38  1  0.33333333  0.66666667  0.57320569  1.0
  Ni  Ni39  1  0.66666667  0.33333333  0.42679431  1.0
  Ni  Ni40  1  0.00000000  0.00000000  0.40290951  1.0
  Ni  Ni41  1  0.00000000  0.00000000  0.59709049  1.0
  Ni  Ni42  1  0.00000000  0.00000000  0.00000000  1.0
