# generated using pymatgen
data_La3AlCdS7
_symmetry_space_group_name_H-M   'P 1'
_cell_length_a   10.25895300
_cell_length_b   10.25895300
_cell_length_c   6.24311883
_cell_angle_alpha   90.00000000
_cell_angle_beta   90.00000000
_cell_angle_gamma   120.00000000
_symmetry_Int_Tables_number   1
_chemical_formula_structural   La3AlCdS7
_chemical_formula_sum   'La6 Al2 Cd2 S14'
_cell_volume   569.03412655
_cell_formula_units_Z   2
loop_
 _symmetry_equiv_pos_site_id
 _symmetry_equiv_pos_as_xyz
  1  'x, y, z'
loop_
 _atom_site_type_symbol
 _atom_site_label
 _atom_site_symmetry_multiplicity
 _atom_site_fract_x
 _atom_site_fract_y
 _atom_site_fract_z
 _atom_site_occupancy
  La  La0  1  0.76392179  0.62247980  0.22230435  1.0
  La  La1  1  0.62247980  0.85855802  0.72230435  1.0
  La  La2  1  0.85855802  0.23607821  0.22230435  1.0
  La  La3  1  0.37752020  0.14144198  0.22230435  1.0
  La  La4  1  0.23607821  0.37752020  0.72230435  1.0
  La  La5  1  0.14144198  0.76392179  0.72230435  1.0
  Al  Al6  1  0.33333333  0.66666667  0.14295984  1.0
  Al  Al7  1  0.66666667  0.33333333  0.64295984  1.0
  Cd  Cd8  1  0.00000000  0.00000000  0.00765333  1.0
  Cd  Cd9  1  0.00000000  0.00000000  0.50765333  1.0
  S  S10  1  0.41796441  0.89728722  -0.00593508  1.0
  S  S11  1  0.89728722  0.47932280  0.49406492  1.0
  S  S12  1  0.47932280  0.58203559  -0.00593508  1.0
  S  S13  1  0.10271278  0.52067720  -0.00593508  1.0
  S  S14  1  0.58203559  0.10271278  0.49406492  1.0
  S  S15  1  0.52067720  0.41796441  0.49406492  1.0
  S  S16  1  0.09696762  0.84686293  0.27577331  1.0
  S  S17  1  0.84686293  0.74989531  0.77577331  1.0
  S  S18  1  0.74989531  0.90303238  0.27577331  1.0
  S  S19  1  0.15313707  0.25010469  0.27577331  1.0
  S  S20  1  0.90303238  0.15313707  0.77577331  1.0
  S  S21  1  0.25010469  0.09696762  0.77577331  1.0
  S  S22  1  0.33333333  0.66666667  0.50395911  1.0
  S  S23  1  0.66666667  0.33333333  0.00395911  1.0
