# generated using pymatgen
data_Sr(Sb3Os)4
_symmetry_space_group_name_H-M   'P 1'
_cell_length_a   8.18471607
_cell_length_b   8.18471607
_cell_length_c   8.18471607
_cell_angle_alpha   109.47122063
_cell_angle_beta   109.47122063
_cell_angle_gamma   109.47122063
_symmetry_Int_Tables_number   1
_chemical_formula_structural   Sr(Sb3Os)4
_chemical_formula_sum   'Sr1 Sb12 Os4'
_cell_volume   422.07435271
_cell_formula_units_Z   1
loop_
 _symmetry_equiv_pos_site_id
 _symmetry_equiv_pos_as_xyz
  1  'x, y, z'
loop_
 _atom_site_type_symbol
 _atom_site_label
 _atom_site_symmetry_multiplicity
 _atom_site_fract_x
 _atom_site_fract_y
 _atom_site_fract_z
 _atom_site_occupancy
  Sr  Sr0  1  0.00000000  0.00000000  0.00000000  1.0
  Sb  Sb1  1  0.84215773  1.34119197  1.18334970  1.0
  Sb  Sb2  1  0.84215773  0.65880803  0.50096576  1.0
  Sb  Sb3  1  0.15784227  0.34119197  0.49903424  1.0
  Sb  Sb4  1  0.15784227  0.65880803  0.81665030  1.0
  Sb  Sb5  1  0.50096576  0.84215773  0.65880803  1.0
  Sb  Sb6  1  1.18334970  0.84215773  1.34119197  1.0
  Sb  Sb7  1  0.65880803  0.81665030  0.15784227  1.0
  Sb  Sb8  1  0.65880803  0.50096576  0.84215773  1.0
  Sb  Sb9  1  0.81665030  0.15784227  0.65880803  1.0
  Sb  Sb10  1  0.49903424  0.15784227  0.34119197  1.0
  Sb  Sb11  1  0.34119197  0.49903424  0.15784227  1.0
  Sb  Sb12  1  1.34119197  1.18334970  0.84215773  1.0
  Os  Os13  1  0.50000000  1.00000000  1.00000000  1.0
  Os  Os14  1  0.50000000  0.50000000  0.50000000  1.0
  Os  Os15  1  1.00000000  1.00000000  0.50000000  1.0
  Os  Os16  1  1.00000000  0.50000000  1.00000000  1.0
