# generated using pymatgen
data_Bi7Sb
_symmetry_space_group_name_H-M   'P 1'
_cell_length_a   6.61659480
_cell_length_b   6.61659480
_cell_length_c   7.87944762
_cell_angle_alpha   66.67891069
_cell_angle_beta   113.32108931
_cell_angle_gamma   92.95805691
_symmetry_Int_Tables_number   1
_chemical_formula_structural   Bi7Sb
_chemical_formula_sum   'Bi7 Sb1'
_cell_volume   288.62502095
_cell_formula_units_Z   1
loop_
 _symmetry_equiv_pos_site_id
 _symmetry_equiv_pos_as_xyz
  1  'x, y, z'
loop_
 _atom_site_type_symbol
 _atom_site_label
 _atom_site_symmetry_multiplicity
 _atom_site_fract_x
 _atom_site_fract_y
 _atom_site_fract_z
 _atom_site_occupancy
  Bi  Bi0  1  0.48519715  0.01658641  0.76337876  1.0
  Bi  Bi1  1  0.98341359  0.51480285  0.76337876  1.0
  Bi  Bi2  1  0.77818742  0.71379117  0.29323983  1.0
  Bi  Bi3  1  0.28620883  0.22181258  0.29323983  1.0
  Bi  Bi4  1  1.23307702  -0.23307702  0.26000847  1.0
  Bi  Bi5  1  1.02865246  -0.02865246  0.78989497  1.0
  Bi  Bi6  1  0.53422266  0.46577734  0.80560684  1.0
  Sb  Sb7  1  0.73014087  0.26985913  0.26325253  1.0
