# generated using pymatgen
data_LiGdSe2
_symmetry_space_group_name_H-M   'P 1'
_cell_length_a   6.91551266
_cell_length_b   6.91551266
_cell_length_c   6.91551266
_cell_angle_alpha   34.62072377
_cell_angle_beta   34.62072377
_cell_angle_gamma   34.62072377
_symmetry_Int_Tables_number   1
_chemical_formula_structural   LiGdSe2
_chemical_formula_sum   'Li1 Gd1 Se2'
_cell_volume   95.25755695
_cell_formula_units_Z   1
loop_
 _symmetry_equiv_pos_site_id
 _symmetry_equiv_pos_as_xyz
  1  'x, y, z'
loop_
 _atom_site_type_symbol
 _atom_site_label
 _atom_site_symmetry_multiplicity
 _atom_site_fract_x
 _atom_site_fract_y
 _atom_site_fract_z
 _atom_site_occupancy
  Li  Li0  1  0.00000000  0.00000000  0.00000000  1.0
  Gd  Gd1  1  1.50000000  0.50000000  0.50000000  1.0
  Se  Se2  1  0.74832896  0.74832896  0.74832896  1.0
  Se  Se3  1  1.25167104  1.25167104  0.25167104  1.0
