# generated using pymatgen
data_KFeS2O9
_symmetry_space_group_name_H-M   'P 1'
_cell_length_a   8.26642983
_cell_length_b   5.06370911
_cell_length_c   9.63882644
_cell_angle_alpha   90.00000000
_cell_angle_beta   105.82773801
_cell_angle_gamma   90.00000000
_symmetry_Int_Tables_number   1
_chemical_formula_structural   KFeS2O9
_chemical_formula_sum   'K2 Fe2 S4 O18'
_cell_volume   388.17254706
_cell_formula_units_Z   2
loop_
 _symmetry_equiv_pos_site_id
 _symmetry_equiv_pos_as_xyz
  1  'x, y, z'
loop_
 _atom_site_type_symbol
 _atom_site_label
 _atom_site_symmetry_multiplicity
 _atom_site_fract_x
 _atom_site_fract_y
 _atom_site_fract_z
 _atom_site_occupancy
  Fe  Fe0  1  0.91836836  0.25000000  0.26716349  1.0
  Fe  Fe1  1  0.08163164  0.75000000  0.73283651  1.0
  O  O2  1  0.89893715  0.49109428  0.69595442  1.0
  O  O3  1  0.89893715  0.00890572  0.69595442  1.0
  O  O4  1  0.10106285  0.99109428  0.30404558  1.0
  O  O5  1  0.10106285  0.50890572  0.30404558  1.0
  O  O6  1  0.24623770  0.48984911  0.73895392  1.0
  O  O7  1  0.24623770  0.01015089  0.73895392  1.0
  O  O8  1  0.75376230  0.98984911  0.26104608  1.0
  O  O9  1  0.75376230  0.51015089  0.26104608  1.0
  O  O10  1  0.94753327  0.25000000  0.48951773  1.0
  O  O11  1  0.05246673  0.75000000  0.51048227  1.0
  O  O12  1  0.66838900  0.25000000  0.54295237  1.0
  O  O13  1  0.33161100  0.75000000  0.45704763  1.0
  O  O14  1  0.49707170  0.25000000  0.84840598  1.0
  O  O15  1  0.50292830  0.75000000  0.15159402  1.0
  O  O16  1  0.26606074  0.25000000  0.96964831  1.0
  O  O17  1  0.73393926  0.75000000  0.03035169  1.0
  O  O18  1  0.90747388  0.25000000  0.09533399  1.0
  O  O19  1  0.09252612  0.75000000  0.90466601  1.0
  S  S20  1  0.85165510  0.25000000  0.59722424  1.0
  S  S21  1  0.14834490  0.75000000  0.40277576  1.0
  S  S22  1  0.31725228  0.25000000  0.83807487  1.0
  S  S23  1  0.68274772  0.75000000  0.16192513  1.0
  K  K24  1  0.40457120  0.25000000  0.26476891  1.0
  K  K25  1  0.59542880  0.75000000  0.73523109  1.0
