# generated using pymatgen
data_Sr2LiInGe2
_symmetry_space_group_name_H-M   'P 1'
_cell_length_a   7.54690790
_cell_length_b   4.64712866
_cell_length_c   17.57186178
_cell_angle_alpha   90.00000000
_cell_angle_beta   90.00000000
_cell_angle_gamma   90.00000000
_symmetry_Int_Tables_number   1
_chemical_formula_structural   Sr2LiInGe2
_chemical_formula_sum   'Sr8 Li4 In4 Ge8'
_cell_volume   616.27070727
_cell_formula_units_Z   4
loop_
 _symmetry_equiv_pos_site_id
 _symmetry_equiv_pos_as_xyz
  1  'x, y, z'
loop_
 _atom_site_type_symbol
 _atom_site_label
 _atom_site_symmetry_multiplicity
 _atom_site_fract_x
 _atom_site_fract_y
 _atom_site_fract_z
 _atom_site_occupancy
  Sr  Sr0  1  -0.00029699  0.75000000  0.27825541  1.0
  Sr  Sr1  1  0.49970301  0.75000000  0.22174459  1.0
  Sr  Sr2  1  1.00029699  0.25000000  0.72174459  1.0
  Sr  Sr3  1  0.50029699  0.25000000  0.77825541  1.0
  Sr  Sr4  1  0.84421649  0.75000000  0.06081763  1.0
  Sr  Sr5  1  0.34421649  0.75000000  0.43918237  1.0
  Sr  Sr6  1  0.15578351  0.25000000  0.93918237  1.0
  Sr  Sr7  1  0.65578351  0.25000000  0.56081763  1.0
  Li  Li8  1  0.98495053  0.75000000  0.56719201  1.0
  Li  Li9  1  0.48495053  0.75000000  0.93280799  1.0
  Li  Li10  1  0.01504947  0.25000000  0.43280799  1.0
  Li  Li11  1  0.51504947  0.25000000  0.06719201  1.0
  In  In12  1  0.83152319  0.75000000  0.84659295  1.0
  In  In13  1  0.33152319  0.75000000  0.65340705  1.0
  In  In14  1  0.16847681  0.25000000  0.15340705  1.0
  In  In15  1  0.66847681  0.25000000  0.34659295  1.0
  Ge  Ge16  1  0.77911539  0.75000000  0.43508419  1.0
  Ge  Ge17  1  0.27911539  0.75000000  0.06491581  1.0
  Ge  Ge18  1  0.22088461  0.25000000  0.56491581  1.0
  Ge  Ge19  1  0.72088461  0.25000000  0.93508419  1.0
  Ge  Ge20  1  0.71347818  0.75000000  0.68596916  1.0
  Ge  Ge21  1  0.21347818  0.75000000  0.81403084  1.0
  Ge  Ge22  1  0.28652182  0.25000000  0.31403084  1.0
  Ge  Ge23  1  0.78652182  0.25000000  0.18596916  1.0
