# generated using pymatgen
data_Hf6Be15Pd8
_symmetry_space_group_name_H-M   'P 1'
_cell_length_a   8.05845528
_cell_length_b   8.05845528
_cell_length_c   8.05845528
_cell_angle_alpha   60.00000000
_cell_angle_beta   60.00000000
_cell_angle_gamma   60.00000000
_symmetry_Int_Tables_number   1
_chemical_formula_structural   Hf6Be15Pd8
_chemical_formula_sum   'Hf6 Be15 Pd8'
_cell_volume   370.03295434
_cell_formula_units_Z   1
loop_
 _symmetry_equiv_pos_site_id
 _symmetry_equiv_pos_as_xyz
  1  'x, y, z'
loop_
 _atom_site_type_symbol
 _atom_site_label
 _atom_site_symmetry_multiplicity
 _atom_site_fract_x
 _atom_site_fract_y
 _atom_site_fract_z
 _atom_site_occupancy
  Hf  Hf0  1  -0.69814218  0.69814218  0.69814218  1.0
  Hf  Hf1  1  -0.30185782  0.30185782  0.69814218  1.0
  Hf  Hf2  1  0.69814218  0.69814218  -0.69814218  1.0
  Hf  Hf3  1  0.30185782  1.30185782  -0.30185782  1.0
  Hf  Hf4  1  0.30185782  -0.30185782  1.30185782  1.0
  Hf  Hf5  1  -0.30185782  0.30185782  0.30185782  1.0
  Be  Be6  1  0.67367468  0.67367468  -0.32632532  1.0
  Be  Be7  1  1.32632532  0.32632532  0.02102405  1.0
  Be  Be8  1  1.32632532  0.02102405  0.32632532  1.0
  Be  Be9  1  0.97897595  0.67367468  -0.32632532  1.0
  Be  Be10  1  1.02102405  0.32632532  0.32632532  1.0
  Be  Be11  1  0.67367468  0.97897595  -0.32632532  1.0
  Be  Be12  1  0.67367468  0.67367468  -0.02102405  1.0
  Be  Be13  1  1.32632532  0.32632532  0.32632532  1.0
  Be  Be14  1  1.50000000  0.00000000  -0.00000000  1.0
  Be  Be15  1  1.00000000  0.50000000  -0.50000000  1.0
  Be  Be16  1  0.00000000  1.50000000  -0.00000000  1.0
  Be  Be17  1  0.50000000  1.00000000  -0.50000000  1.0
  Be  Be18  1  -0.00000000  0.00000000  0.50000000  1.0
  Be  Be19  1  0.50000000  -0.50000000  1.00000000  1.0
  Be  Be20  1  -0.00000000  -0.00000000  0.00000000  1.0
  Pd  Pd21  1  0.87463548  0.87463548  -0.12536452  1.0
  Pd  Pd22  1  1.12536452  0.12536452  0.62390644  1.0
  Pd  Pd23  1  1.12536452  0.62390644  0.12536452  1.0
  Pd  Pd24  1  0.37609356  0.87463548  -0.12536452  1.0
  Pd  Pd25  1  1.62390644  0.12536452  0.12536452  1.0
  Pd  Pd26  1  0.87463548  0.37609356  -0.12536452  1.0
  Pd  Pd27  1  0.87463548  0.87463548  -0.62390644  1.0
  Pd  Pd28  1  1.12536452  0.12536452  0.12536452  1.0
