# generated using pymatgen
data_Sr3LiRuO6
_symmetry_space_group_name_H-M   'P 1'
_cell_length_a   6.73523810
_cell_length_b   6.73523810
_cell_length_c   6.73523810
_cell_angle_alpha   92.30287446
_cell_angle_beta   92.30287446
_cell_angle_gamma   92.30287446
_symmetry_Int_Tables_number   1
_chemical_formula_structural   Sr3LiRuO6
_chemical_formula_sum   'Sr6 Li2 Ru2 O12'
_cell_volume   304.77278271
_cell_formula_units_Z   2
loop_
 _symmetry_equiv_pos_site_id
 _symmetry_equiv_pos_as_xyz
  1  'x, y, z'
loop_
 _atom_site_type_symbol
 _atom_site_label
 _atom_site_symmetry_multiplicity
 _atom_site_fract_x
 _atom_site_fract_y
 _atom_site_fract_z
 _atom_site_occupancy
  Sr  Sr0  1  0.89232687  1.25000000  -0.39232687  1.0
  Sr  Sr1  1  1.39232687  0.10767313  -0.25000000  1.0
  Sr  Sr2  1  0.75000000  0.39232687  0.10767313  1.0
  Sr  Sr3  1  1.25000000  0.60767313  -0.10767313  1.0
  Sr  Sr4  1  1.10767313  -0.25000000  0.39232687  1.0
  Sr  Sr5  1  0.60767313  0.89232687  0.25000000  1.0
  Li  Li6  1  0.25000000  0.25000000  0.25000000  1.0
  Li  Li7  1  0.75000000  0.75000000  0.75000000  1.0
  Ru  Ru8  1  0.50000000  0.50000000  0.50000000  1.0
  Ru  Ru9  1  0.00000000  0.00000000  0.00000000  1.0
  O  O10  1  1.22036609  0.41745196  -0.45260652  1.0
  O  O11  1  0.72036609  1.04739348  -0.08254804  1.0
  O  O12  1  0.95260652  0.08254804  0.27963391  1.0
  O  O13  1  1.45260652  -0.22036609  0.58254804  1.0
  O  O14  1  1.58254804  0.45260652  -0.22036609  1.0
  O  O15  1  1.08254804  0.27963391  -0.04739348  1.0
  O  O16  1  0.77963391  0.58254804  0.45260652  1.0
  O  O17  1  1.27963391  -0.04739348  0.08254804  1.0
  O  O18  1  0.54739348  1.22036609  -0.58254804  1.0
  O  O19  1  1.04739348  0.91745196  -0.27963391  1.0
  O  O20  1  0.91745196  0.72036609  0.04739348  1.0
  O  O21  1  0.41745196  0.54739348  0.22036609  1.0
