# generated using pymatgen
data_Yb2Ga10Ru3
_symmetry_space_group_name_H-M   'P 1'
_cell_length_a   8.91173818
_cell_length_b   8.91173818
_cell_length_c   6.37780759
_cell_angle_alpha   90.00000000
_cell_angle_beta   90.00000000
_cell_angle_gamma   90.00000000
_symmetry_Int_Tables_number   1
_chemical_formula_structural   Yb2Ga10Ru3
_chemical_formula_sum   'Yb4 Ga20 Ru6'
_cell_volume   506.51959458
_cell_formula_units_Z   2
loop_
 _symmetry_equiv_pos_site_id
 _symmetry_equiv_pos_as_xyz
  1  'x, y, z'
loop_
 _atom_site_type_symbol
 _atom_site_label
 _atom_site_symmetry_multiplicity
 _atom_site_fract_x
 _atom_site_fract_y
 _atom_site_fract_z
 _atom_site_occupancy
  Yb  Yb0  1  0.31726539  0.18273461  0.00000000  1.0
  Yb  Yb1  1  0.81726539  0.31726539  0.00000000  1.0
  Yb  Yb2  1  0.68273461  0.81726539  0.00000000  1.0
  Yb  Yb3  1  0.18273461  0.68273461  0.00000000  1.0
  Ga  Ga4  1  0.43966684  0.70654133  0.70948717  1.0
  Ga  Ga5  1  0.43966684  0.70654133  0.29051283  1.0
  Ga  Ga6  1  0.93966684  0.79345867  0.70948717  1.0
  Ga  Ga7  1  0.93966684  0.79345867  0.29051283  1.0
  Ga  Ga8  1  0.29345867  0.43966684  0.70948717  1.0
  Ga  Ga9  1  0.29345867  0.43966684  0.29051283  1.0
  Ga  Ga10  1  0.79345867  0.06033316  0.70948717  1.0
  Ga  Ga11  1  0.79345867  0.06033316  0.29051283  1.0
  Ga  Ga12  1  0.56033316  0.29345867  0.70948717  1.0
  Ga  Ga13  1  0.56033316  0.29345867  0.29051283  1.0
  Ga  Ga14  1  0.06033316  0.20654133  0.70948717  1.0
  Ga  Ga15  1  0.06033316  0.20654133  0.29051283  1.0
  Ga  Ga16  1  0.70654133  0.56033316  0.70948717  1.0
  Ga  Ga17  1  0.70654133  0.56033316  0.29051283  1.0
  Ga  Ga18  1  0.20654133  0.93966684  0.70948717  1.0
  Ga  Ga19  1  0.20654133  0.93966684  0.29051283  1.0
  Ga  Ga20  1  0.50000000  0.00000000  0.71411390  1.0
  Ga  Ga21  1  0.50000000  0.00000000  0.28588610  1.0
  Ga  Ga22  1  0.00000000  0.50000000  0.71411390  1.0
  Ga  Ga23  1  0.00000000  0.50000000  0.28588610  1.0
  Ru  Ru24  1  0.31996503  0.18003497  0.50000000  1.0
  Ru  Ru25  1  0.81996503  0.31996503  0.50000000  1.0
  Ru  Ru26  1  0.68003497  0.81996503  0.50000000  1.0
  Ru  Ru27  1  0.18003497  0.68003497  0.50000000  1.0
  Ru  Ru28  1  0.50000000  0.50000000  0.00000000  1.0
  Ru  Ru29  1  0.00000000  0.00000000  0.00000000  1.0
