# generated using pymatgen
data_Cd2P3Cl
_symmetry_space_group_name_H-M   'P 1'
_cell_length_a   6.10573453
_cell_length_b   6.10573453
_cell_length_c   7.65512468
_cell_angle_alpha   83.08661055
_cell_angle_beta   96.91338945
_cell_angle_gamma   83.07986616
_symmetry_Int_Tables_number   1
_chemical_formula_structural   Cd2P3Cl
_chemical_formula_sum   'Cd4 P6 Cl2'
_cell_volume   278.59791783
_cell_formula_units_Z   2
loop_
 _symmetry_equiv_pos_site_id
 _symmetry_equiv_pos_as_xyz
  1  'x, y, z'
loop_
 _atom_site_type_symbol
 _atom_site_label
 _atom_site_symmetry_multiplicity
 _atom_site_fract_x
 _atom_site_fract_y
 _atom_site_fract_z
 _atom_site_occupancy
  Cd  Cd0  1  0.41068042  -0.10538337  0.21516457  1.0
  Cd  Cd1  1  1.10538337  0.58931958  0.71516457  1.0
  Cd  Cd2  1  0.89461663  -0.58931958  0.28483543  1.0
  Cd  Cd3  1  1.58931958  0.10538337  0.78483543  1.0
  P  P4  1  1.57026033  0.33879294  0.46485860  1.0
  P  P5  1  0.66120706  -0.57026033  0.96485860  1.0
  P  P6  1  1.33879294  0.57026033  0.03514140  1.0
  P  P7  1  0.42973967  -0.33879294  0.53514140  1.0
  P  P8  1  1.30436416  0.30436416  0.25000000  1.0
  P  P9  1  0.69563584  -0.30436416  0.75000000  1.0
  Cl  Cl10  1  0.86290548  -0.13709452  0.25000000  1.0
  Cl  Cl11  1  1.13709452  0.13709452  0.75000000  1.0
