# generated using pymatgen
data_LuAlB14
_symmetry_space_group_name_H-M   'P 1'
_cell_length_a   7.26105931
_cell_length_b   7.26105931
_cell_length_c   7.26105931
_cell_angle_alpha   132.04110676
_cell_angle_beta   88.08745661
_cell_angle_gamma   111.32823873
_symmetry_Int_Tables_number   1
_chemical_formula_structural   LuAlB14
_chemical_formula_sum   'Lu2 Al2 B28'
_cell_volume   252.31864595
_cell_formula_units_Z   2
loop_
 _symmetry_equiv_pos_site_id
 _symmetry_equiv_pos_as_xyz
  1  'x, y, z'
loop_
 _atom_site_type_symbol
 _atom_site_label
 _atom_site_symmetry_multiplicity
 _atom_site_fract_x
 _atom_site_fract_y
 _atom_site_fract_z
 _atom_site_occupancy
  Lu  Lu0  1  1.09781645  0.34781645  0.75000000  1.0
  Lu  Lu1  1  0.90218355  0.65218355  0.25000000  1.0
  Al  Al2  1  1.50000000  1.50000000  1.50000000  1.0
  Al  Al3  1  1.50000000  1.00000000  1.00000000  1.0
  B  B4  1  1.27551381  0.67487933  1.27551417  1.0
  B  B5  1  1.10063485  1.00000037  1.77551417  1.0
  B  B6  1  0.72448619  1.00000037  0.39936552  1.0
  B  B7  1  0.89936515  1.67487933  0.89936552  1.0
  B  B8  1  1.27551381  0.99999963  1.60063448  1.0
  B  B9  1  1.10063485  0.32512067  1.10063448  1.0
  B  B10  1  0.72448619  1.32512067  0.72448583  1.0
  B  B11  1  0.89936515  0.99999963  0.22448583  1.0
  B  B12  1  0.87199272  0.70481615  0.67281613  1.0
  B  B13  1  1.46799999  0.80082342  1.17281613  1.0
  B  B14  1  1.12800728  0.80082342  0.83282343  1.0
  B  B15  1  0.53200001  0.70481615  0.33282343  1.0
  B  B16  1  0.87199272  1.19917658  1.16717657  1.0
  B  B17  1  1.46799999  1.29518385  1.66717657  1.0
  B  B18  1  1.12800728  1.29518385  1.32718387  1.0
  B  B19  1  0.53200001  1.19917658  0.82718387  1.0
  B  B20  1  1.74232891  0.83192097  0.91040794  1.0
  B  B21  1  1.57848696  1.16807903  1.41040794  1.0
  B  B22  1  0.25767109  0.16807903  0.08959206  1.0
  B  B23  1  0.42151304  0.83192097  0.58959206  1.0
  B  B24  1  1.48038022  0.62407865  0.85630157  1.0
  B  B25  1  0.73222293  0.37592135  0.35630157  1.0
  B  B26  1  0.51961978  0.37592135  0.14369843  1.0
  B  B27  1  1.26777707  0.62407865  0.64369843  1.0
  B  B28  1  1.29933734  0.96669653  1.33264081  1.0
  B  B29  1  0.86594428  1.03330347  0.83264081  1.0
  B  B30  1  0.70066266  1.03330347  0.66735919  1.0
  B  B31  1  1.13405572  0.96669653  1.16735919  1.0
