# generated using pymatgen
data_BaVSi2O7
_symmetry_space_group_name_H-M   'P 1'
_cell_length_a   7.76314270
_cell_length_b   7.76314270
_cell_length_c   7.76314270
_cell_angle_alpha   125.49413894
_cell_angle_beta   125.49413894
_cell_angle_gamma   80.72116040
_symmetry_Int_Tables_number   1
_chemical_formula_structural   BaVSi2O7
_chemical_formula_sum   'Ba2 V2 Si4 O14'
_cell_volume   299.01751699
_cell_formula_units_Z   2
loop_
 _symmetry_equiv_pos_site_id
 _symmetry_equiv_pos_as_xyz
  1  'x, y, z'
loop_
 _atom_site_type_symbol
 _atom_site_label
 _atom_site_symmetry_multiplicity
 _atom_site_fract_x
 _atom_site_fract_y
 _atom_site_fract_z
 _atom_site_occupancy
  Ba  Ba0  1  0.25000000  0.75000000  0.50000000  1.0
  Ba  Ba1  1  0.75000000  0.25000000  0.50000000  1.0
  V  V2  1  0.65546932  0.65546932  1.00000000  1.0
  V  V3  1  0.34453068  0.34453068  -0.00000000  1.0
  Si  Si4  1  0.79721917  0.75207471  1.54929389  1.0
  Si  Si5  1  0.24792529  0.79721917  1.04514446  1.0
  Si  Si6  1  0.20278083  0.24792529  0.45070611  1.0
  Si  Si7  1  0.75207471  0.20278083  0.95485554  1.0
  O  O8  1  0.60665669  0.53662562  0.37446023  1.0
  O  O9  1  0.83783462  0.76780354  1.37446023  1.0
  O  O10  1  1.23219646  0.60665669  1.07003108  1.0
  O  O11  1  0.46337438  0.83783462  1.07003108  1.0
  O  O12  1  1.16216538  1.23219646  1.62553977  1.0
  O  O13  1  0.39334331  0.46337438  0.62553977  1.0
  O  O14  1  0.53662562  1.16216538  0.92996892  1.0
  O  O15  1  0.76780354  0.39334331  0.92996892  1.0
  O  O16  1  0.73024301  0.97283493  1.70307795  1.0
  O  O17  1  0.02716507  0.73024301  0.75740808  1.0
  O  O18  1  0.26975699  0.02716507  0.29692205  1.0
  O  O19  1  0.97283493  0.26975699  1.24259192  1.0
  O  O20  1  0.79175898  0.79175898  1.00000000  1.0
  O  O21  1  0.20824102  0.20824102  -0.00000000  1.0
