# generated using pymatgen
data_SeO2
_symmetry_space_group_name_H-M   'P 1'
_cell_length_a   8.75670002
_cell_length_b   8.75670002
_cell_length_c   5.20291866
_cell_angle_alpha   90.00000000
_cell_angle_beta   90.00000000
_cell_angle_gamma   90.00000000
_symmetry_Int_Tables_number   1
_chemical_formula_structural   SeO2
_chemical_formula_sum   'Se8 O16'
_cell_volume   398.95873712
_cell_formula_units_Z   8
loop_
 _symmetry_equiv_pos_site_id
 _symmetry_equiv_pos_as_xyz
  1  'x, y, z'
loop_
 _atom_site_type_symbol
 _atom_site_label
 _atom_site_symmetry_multiplicity
 _atom_site_fract_x
 _atom_site_fract_y
 _atom_site_fract_z
 _atom_site_occupancy
  Se  Se0  1  0.13312766  0.78689891  0.00000000  1.0
  Se  Se1  1  0.63312766  0.71310109  0.00000000  1.0
  Se  Se2  1  0.21310109  0.13312766  0.50000000  1.0
  Se  Se3  1  0.71310109  0.36687234  0.50000000  1.0
  Se  Se4  1  0.86687234  0.21310109  0.00000000  1.0
  Se  Se5  1  0.36687234  0.28689891  0.00000000  1.0
  Se  Se6  1  0.78689891  0.86687234  0.50000000  1.0
  Se  Se7  1  0.28689891  0.63312766  0.50000000  1.0
  O  O8  1  0.44835277  0.68050793  0.00000000  1.0
  O  O9  1  0.94835277  0.81949207  0.00000000  1.0
  O  O10  1  0.31949207  0.44835277  0.50000000  1.0
  O  O11  1  0.81949207  0.05164723  0.50000000  1.0
  O  O12  1  0.55164723  0.31949207  0.00000000  1.0
  O  O13  1  0.05164723  0.18050793  0.00000000  1.0
  O  O14  1  0.68050793  0.55164723  0.50000000  1.0
  O  O15  1  0.18050793  0.94835277  0.50000000  1.0
  O  O16  1  0.36079312  0.13920688  0.75000000  1.0
  O  O17  1  0.36079312  0.13920688  0.25000000  1.0
  O  O18  1  0.86079312  0.36079312  0.75000000  1.0
  O  O19  1  0.86079312  0.36079312  0.25000000  1.0
  O  O20  1  0.63920688  0.86079312  0.75000000  1.0
  O  O21  1  0.63920688  0.86079312  0.25000000  1.0
  O  O22  1  0.13920688  0.63920688  0.75000000  1.0
  O  O23  1  0.13920688  0.63920688  0.25000000  1.0
