# generated using pymatgen
data_TiS2
_symmetry_space_group_name_H-M   'P 1'
_cell_length_a   6.60556984
_cell_length_b   3.61295815
_cell_length_c   8.01260645
_cell_angle_alpha   90.00000000
_cell_angle_beta   90.00000000
_cell_angle_gamma   90.00000000
_symmetry_Int_Tables_number   1
_chemical_formula_structural   TiS2
_chemical_formula_sum   'Ti4 S8'
_cell_volume   191.22604012
_cell_formula_units_Z   4
loop_
 _symmetry_equiv_pos_site_id
 _symmetry_equiv_pos_as_xyz
  1  'x, y, z'
loop_
 _atom_site_type_symbol
 _atom_site_label
 _atom_site_symmetry_multiplicity
 _atom_site_fract_x
 _atom_site_fract_y
 _atom_site_fract_z
 _atom_site_occupancy
  Ti  Ti0  1  0.74774109  0.25000000  0.60968777  1.0
  Ti  Ti1  1  0.24774109  0.25000000  0.89031223  1.0
  Ti  Ti2  1  0.25225891  0.75000000  0.39031223  1.0
  Ti  Ti3  1  0.75225891  0.75000000  0.10968777  1.0
  S  S4  1  0.86511748  0.25000000  0.91310855  1.0
  S  S5  1  0.36511748  0.25000000  0.58689145  1.0
  S  S6  1  0.13488252  0.75000000  0.08689145  1.0
  S  S7  1  0.63488252  0.75000000  0.41310855  1.0
  S  S8  1  0.51958439  0.75000000  0.85062134  1.0
  S  S9  1  0.01958439  0.75000000  0.64937866  1.0
  S  S10  1  0.48041561  0.25000000  0.14937866  1.0
  S  S11  1  0.98041561  0.25000000  0.35062134  1.0
