# generated using pymatgen
data_Mg3V6(FeO6)4
_symmetry_space_group_name_H-M   'P 1'
_cell_length_a   9.83220086
_cell_length_b   8.14884609
_cell_length_c   6.71851002
_cell_angle_alpha   102.11353684
_cell_angle_beta   105.48452994
_cell_angle_gamma   105.05776864
_symmetry_Int_Tables_number   1
_chemical_formula_structural   Mg3V6(FeO6)4
_chemical_formula_sum   'Mg3 V6 Fe4 O24'
_cell_volume   477.86581908
_cell_formula_units_Z   1
loop_
 _symmetry_equiv_pos_site_id
 _symmetry_equiv_pos_as_xyz
  1  'x, y, z'
loop_
 _atom_site_type_symbol
 _atom_site_label
 _atom_site_symmetry_multiplicity
 _atom_site_fract_x
 _atom_site_fract_y
 _atom_site_fract_z
 _atom_site_occupancy
  Fe  Fe0  1  -0.60884539  -0.95050952  -0.38179589  1.0
  Fe  Fe1  1  -0.39115461  -0.04949048  -0.61820411  1.0
  Fe  Fe2  1  -0.98160734  -0.78654314  -0.95761113  1.0
  Fe  Fe3  1  -0.01839266  -0.21345686  -0.04238887  1.0
  Mg  Mg4  1  -0.20898178  -0.71097706  -0.72212131  1.0
  Mg  Mg5  1  -0.79101822  -0.28902294  -0.27787869  1.0
  Mg  Mg6  1  -0.50000000  -0.50000000  0.00000000  1.0
  O  O7  1  -0.83304115  -0.27861379  -0.98559620  1.0
  O  O8  1  -0.16695885  -0.72138621  -0.01440380  1.0
  O  O9  1  -0.58529894  -0.69572508  -0.87992730  1.0
  O  O10  1  -0.41470106  -0.30427492  -0.12007270  1.0
  O  O11  1  -0.00006552  -0.73495516  -0.64206042  1.0
  O  O12  1  -0.99993448  -0.26504484  -0.35793958  1.0
  O  O13  1  -0.74268691  -0.51448065  -0.26685587  1.0
  O  O14  1  -0.25731309  -0.48551935  -0.73314413  1.0
  O  O15  1  -0.57599398  -0.96059241  -0.66844285  1.0
  O  O16  1  -0.42400602  -0.03940759  -0.33155715  1.0
  O  O17  1  -0.96622229  -0.78327750  -0.23544214  1.0
  O  O18  1  -0.03377771  -0.21672250  -0.76455786  1.0
  O  O19  1  -0.85554210  -0.94356615  -0.92711385  1.0
  O  O20  1  -0.14445790  -0.05643385  -0.07288615  1.0
  O  O21  1  -0.81537426  -0.55906893  -0.82107874  1.0
  O  O22  1  -0.18462574  -0.44093107  -0.17892126  1.0
  O  O23  1  -0.76931868  -0.86526486  -0.44150871  1.0
  O  O24  1  -0.23068132  -0.13473514  -0.55849129  1.0
  O  O25  1  -0.34717610  -0.96981315  -0.86679667  1.0
  O  O26  1  -0.65282390  -0.03018685  -0.13320333  1.0
  O  O27  1  -0.27087247  -0.76954213  -0.47091411  1.0
  O  O28  1  -0.72912753  -0.23045787  -0.52908589  1.0
  O  O29  1  -0.54594240  -0.30316391  -0.78435982  1.0
  O  O30  1  -0.45405760  -0.69683609  -0.21564018  1.0
  V  V31  1  -0.66702862  -0.90539559  -0.89916213  1.0
  V  V32  1  -0.33297138  -0.09460441  -0.10083787  1.0
  V  V33  1  -0.72920924  -0.34219425  -0.77748619  1.0
  V  V34  1  -0.27079076  -0.65780575  -0.22251381  1.0
  V  V35  1  -0.86978738  -0.72470212  -0.39993318  1.0
  V  V36  1  -0.13021262  -0.27529788  -0.60006682  1.0
