# generated using pymatgen
data_Gd2InPt2
_symmetry_space_group_name_H-M   'P 1'
_cell_length_a   7.81486656
_cell_length_b   7.81486656
_cell_length_c   3.74474826
_cell_angle_alpha   90.00000000
_cell_angle_beta   90.00000000
_cell_angle_gamma   90.00000000
_symmetry_Int_Tables_number   1
_chemical_formula_structural   Gd2InPt2
_chemical_formula_sum   'Gd4 In2 Pt4'
_cell_volume   228.69978764
_cell_formula_units_Z   2
loop_
 _symmetry_equiv_pos_site_id
 _symmetry_equiv_pos_as_xyz
  1  'x, y, z'
loop_
 _atom_site_type_symbol
 _atom_site_label
 _atom_site_symmetry_multiplicity
 _atom_site_fract_x
 _atom_site_fract_y
 _atom_site_fract_z
 _atom_site_occupancy
  Gd  Gd0  1  0.32915358  0.17084642  0.50000000  1.0
  Gd  Gd1  1  0.82915358  0.32915358  0.50000000  1.0
  Gd  Gd2  1  0.67084642  0.82915358  0.50000000  1.0
  Gd  Gd3  1  0.17084642  0.67084642  0.50000000  1.0
  In  In4  1  0.50000000  0.50000000  0.00000000  1.0
  In  In5  1  0.00000000  0.00000000  0.00000000  1.0
  Pt  Pt6  1  0.86989631  0.63010369  0.00000000  1.0
  Pt  Pt7  1  0.36989631  0.86989631  0.00000000  1.0
  Pt  Pt8  1  0.13010369  0.36989631  0.00000000  1.0
  Pt  Pt9  1  0.63010369  0.13010369  0.00000000  1.0
