# generated using pymatgen
data_In2Ag3(PO4)3
_symmetry_space_group_name_H-M   'P 1'
_cell_length_a   9.19056760
_cell_length_b   9.19056760
_cell_length_c   6.74392785
_cell_angle_alpha   73.14596046
_cell_angle_beta   106.85403954
_cell_angle_gamma   88.78930664
_symmetry_Int_Tables_number   1
_chemical_formula_structural   In2Ag3(PO4)3
_chemical_formula_sum   'In4 Ag6 P6 O24'
_cell_volume   518.29918866
_cell_formula_units_Z   2
loop_
 _symmetry_equiv_pos_site_id
 _symmetry_equiv_pos_as_xyz
  1  'x, y, z'
loop_
 _atom_site_type_symbol
 _atom_site_label
 _atom_site_symmetry_multiplicity
 _atom_site_fract_x
 _atom_site_fract_y
 _atom_site_fract_z
 _atom_site_occupancy
  In  In0  1  0.42861376  -0.11567847  0.84939219  1.0
  In  In1  1  1.11567847  0.57138624  0.34939219  1.0
  In  In2  1  0.88432153  -0.57138624  0.65060781  1.0
  In  In3  1  1.57138624  0.11567847  0.15060781  1.0
  Ag  Ag4  1  0.77760196  -0.22239804  0.75000000  1.0
  Ag  Ag5  1  1.22239804  0.22239804  0.25000000  1.0
  Ag  Ag6  1  0.49986487  -0.50013513  0.75000000  1.0
  Ag  Ag7  1  1.50013513  0.50013513  0.25000000  1.0
  Ag  Ag8  1  0.00000000  -0.00000000  0.00000000  1.0
  Ag  Ag9  1  -0.00000000  0.00000000  0.50000000  1.0
  P  P10  1  1.63979608  0.15709240  0.63681715  1.0
  P  P11  1  0.84290760  -0.63979608  0.13681715  1.0
  P  P12  1  1.15709240  0.63979608  0.86318285  1.0
  P  P13  1  0.36020392  -0.15709240  0.36318285  1.0
  P  P14  1  1.22877780  0.22877780  0.75000000  1.0
  P  P15  1  0.77122220  -0.22877780  0.25000000  1.0
  O  O16  1  1.78916520  0.05982340  0.67766740  1.0
  O  O17  1  0.94017660  -0.78916520  0.17766740  1.0
  O  O18  1  1.05982340  0.78916520  0.82233260  1.0
  O  O19  1  0.21083480  -0.05982340  0.32233260  1.0
  O  O20  1  0.48183498  -0.16098049  0.58244469  1.0
  O  O21  1  1.16098049  0.51816502  0.08244469  1.0
  O  O22  1  0.83901951  -0.51816502  0.91755531  1.0
  O  O23  1  1.51816502  0.16098049  0.41755531  1.0
  O  O24  1  1.56575810  0.09249374  0.82458397  1.0
  O  O25  1  0.90750626  -0.56575810  0.32458397  1.0
  O  O26  1  1.09249374  0.56575810  0.67541603  1.0
  O  O27  1  0.43424190  -0.09249374  0.17541603  1.0
  O  O28  1  1.66845996  0.32883165  0.62241422  1.0
  O  O29  1  0.67116835  -0.66845996  0.12241422  1.0
  O  O30  1  1.32883165  0.66845996  0.87758578  1.0
  O  O31  1  0.33154004  -0.32883165  0.37758578  1.0
  O  O32  1  1.24709355  0.06658772  0.72302973  1.0
  O  O33  1  0.93341228  -0.24709355  0.22302973  1.0
  O  O34  1  1.06658772  0.24709355  0.77697027  1.0
  O  O35  1  0.75290645  -0.06658772  0.27697027  1.0
  O  O36  1  1.35091285  0.24621507  0.95622341  1.0
  O  O37  1  0.75378493  -0.35091285  0.45622341  1.0
  O  O38  1  1.24621507  0.35091285  0.54377659  1.0
  O  O39  1  0.64908715  -0.24621507  0.04377659  1.0
