# generated using pymatgen
data_Tb4Pt
_symmetry_space_group_name_H-M   'P 1'
_cell_length_a   7.81322342
_cell_length_b   7.81322342
_cell_length_c   7.81322342
_cell_angle_alpha   60.00000000
_cell_angle_beta   60.00000000
_cell_angle_gamma   60.00000000
_symmetry_Int_Tables_number   1
_chemical_formula_structural   Tb4Pt
_chemical_formula_sum   'Tb8 Pt2'
_cell_volume   337.26846177
_cell_formula_units_Z   2
loop_
 _symmetry_equiv_pos_site_id
 _symmetry_equiv_pos_as_xyz
  1  'x, y, z'
loop_
 _atom_site_type_symbol
 _atom_site_label
 _atom_site_symmetry_multiplicity
 _atom_site_fract_x
 _atom_site_fract_y
 _atom_site_fract_z
 _atom_site_occupancy
  Tb  Tb0  1  -0.11037628  0.88962372  0.33112885  1.0
  Tb  Tb1  1  0.88962372  -0.66887115  0.88962372  1.0
  Tb  Tb2  1  0.36037628  0.36037628  0.36037628  1.0
  Tb  Tb3  1  -0.08112885  0.36037628  0.36037628  1.0
  Tb  Tb4  1  -0.66887115  0.88962372  0.88962372  1.0
  Tb  Tb5  1  0.88962372  -0.11037628  0.88962372  1.0
  Tb  Tb6  1  0.36037628  -0.08112885  0.36037628  1.0
  Tb  Tb7  1  0.36037628  0.36037628  -0.08112885  1.0
  Pt  Pt8  1  0.50000000  0.50000000  -0.50000000  1.0
  Pt  Pt9  1  0.75000000  -0.25000000  0.75000000  1.0
