# generated using pymatgen
data_GdI3
_symmetry_space_group_name_H-M   'P 1'
_cell_length_a   8.90609064
_cell_length_b   8.90609064
_cell_length_c   8.90609064
_cell_angle_alpha   51.74362062
_cell_angle_beta   51.74362062
_cell_angle_gamma   51.74362062
_symmetry_Int_Tables_number   1
_chemical_formula_structural   GdI3
_chemical_formula_sum   'Gd2 I6'
_cell_volume   402.48040392
_cell_formula_units_Z   2
loop_
 _symmetry_equiv_pos_site_id
 _symmetry_equiv_pos_as_xyz
  1  'x, y, z'
loop_
 _atom_site_type_symbol
 _atom_site_label
 _atom_site_symmetry_multiplicity
 _atom_site_fract_x
 _atom_site_fract_y
 _atom_site_fract_z
 _atom_site_occupancy
  Gd  Gd0  1  0.16660594  0.16660594  0.16660594  1.0
  Gd  Gd1  1  0.83339406  -0.16660594  -0.16660594  1.0
  I  I2  1  0.42260561  0.06370534  -0.21899796  1.0
  I  I3  1  0.21899796  0.57739439  -0.06370534  1.0
  I  I4  1  0.93629466  0.21899796  -0.42260561  1.0
  I  I5  1  0.57739439  0.93629466  -0.78100204  1.0
  I  I6  1  0.78100204  -0.57739439  0.06370534  1.0
  I  I7  1  1.06370534  -0.21899796  -0.57739439  1.0
