# generated using pymatgen
data_TeAsOs
_symmetry_space_group_name_H-M   'P 1'
_cell_length_a   6.43248065
_cell_length_b   6.38620474
_cell_length_c   6.54985194
_cell_angle_alpha   90.00000000
_cell_angle_beta   113.32246167
_cell_angle_gamma   90.00000000
_symmetry_Int_Tables_number   1
_chemical_formula_structural   TeAsOs
_chemical_formula_sum   'Te4 As4 Os4'
_cell_volume   247.07753132
_cell_formula_units_Z   4
loop_
 _symmetry_equiv_pos_site_id
 _symmetry_equiv_pos_as_xyz
  1  'x, y, z'
loop_
 _atom_site_type_symbol
 _atom_site_label
 _atom_site_symmetry_multiplicity
 _atom_site_fract_x
 _atom_site_fract_y
 _atom_site_fract_z
 _atom_site_occupancy
  Te  Te0  1  0.83819031  0.12841724  0.19009779  1.0
  Te  Te1  1  0.83819031  0.37158276  0.69009779  1.0
  Te  Te2  1  0.16180969  0.62841724  0.30990221  1.0
  Te  Te3  1  0.16180969  0.87158276  0.80990221  1.0
  As  As4  1  0.63833714  0.86232076  0.38976646  1.0
  As  As5  1  0.63833714  0.63767924  0.88976646  1.0
  As  As6  1  0.36166286  0.36232076  0.11023354  1.0
  As  As7  1  0.36166286  0.13767924  0.61023354  1.0
  Os  Os8  1  0.76224417  0.51068071  0.29033551  1.0
  Os  Os9  1  0.76224417  -0.01068071  0.79033551  1.0
  Os  Os10  1  0.23775583  1.01068071  0.20966449  1.0
  Os  Os11  1  0.23775583  0.48931929  0.70966449  1.0
