# generated using pymatgen
data_ZrBr
_symmetry_space_group_name_H-M   'P 1'
_cell_length_a   10.52353287
_cell_length_b   10.52353287
_cell_length_c   10.52353287
_cell_angle_alpha   19.33622877
_cell_angle_beta   19.33622877
_cell_angle_gamma   19.33622877
_symmetry_Int_Tables_number   1
_chemical_formula_structural   ZrBr
_chemical_formula_sum   'Zr2 Br2'
_cell_volume   111.70286646
_cell_formula_units_Z   2
loop_
 _symmetry_equiv_pos_site_id
 _symmetry_equiv_pos_as_xyz
  1  'x, y, z'
loop_
 _atom_site_type_symbol
 _atom_site_label
 _atom_site_symmetry_multiplicity
 _atom_site_fract_x
 _atom_site_fract_y
 _atom_site_fract_z
 _atom_site_occupancy
  Zr  Zr0  1  1.62887729  0.62887729  0.62887729  1.0
  Zr  Zr1  1  1.37112271  0.37112271  0.37112271  1.0
  Br  Br2  1  0.90110852  0.90110852  0.90110852  1.0
  Br  Br3  1  1.09889148  1.09889148  0.09889148  1.0
