# generated using pymatgen
data_Na2BN
_symmetry_space_group_name_H-M   'P 1'
_cell_length_a   5.50598260
_cell_length_b   12.07341239
_cell_length_c   5.23338405
_cell_angle_alpha   90.00000000
_cell_angle_beta   90.00000000
_cell_angle_gamma   90.00000000
_symmetry_Int_Tables_number   1
_chemical_formula_structural   Na2BN
_chemical_formula_sum   'Na8 B4 N4'
_cell_volume   347.89442988
_cell_formula_units_Z   4
loop_
 _symmetry_equiv_pos_site_id
 _symmetry_equiv_pos_as_xyz
  1  'x, y, z'
loop_
 _atom_site_type_symbol
 _atom_site_label
 _atom_site_symmetry_multiplicity
 _atom_site_fract_x
 _atom_site_fract_y
 _atom_site_fract_z
 _atom_site_occupancy
  Na  Na0  1  0.20777414  1.04356044  0.25000000  1.0
  Na  Na1  1  0.20777414  0.45643956  0.75000000  1.0
  Na  Na2  1  0.79222586  0.54356044  0.25000000  1.0
  Na  Na3  1  0.79222586  -0.04356044  0.75000000  1.0
  Na  Na4  1  1.20305062  0.75000000  0.50000000  1.0
  Na  Na5  1  1.20305062  0.75000000  -0.00000000  1.0
  Na  Na6  1  -0.20305062  0.25000000  0.50000000  1.0
  Na  Na7  1  -0.20305062  0.25000000  0.00000000  1.0
  B  B8  1  0.69094616  0.75000000  0.50000000  1.0
  B  B9  1  0.69094616  0.75000000  0.00000000  1.0
  B  B10  1  0.30905384  0.25000000  0.50000000  1.0
  B  B11  1  0.30905384  0.25000000  0.00000000  1.0
  N  N12  1  0.59958332  0.74340652  0.25000000  1.0
  N  N13  1  0.59958332  0.75659348  0.75000000  1.0
  N  N14  1  0.40041668  0.24340652  0.25000000  1.0
  N  N15  1  0.40041668  0.25659348  0.75000000  1.0
