# generated using pymatgen
data_Sb
_symmetry_space_group_name_H-M   'P 1'
_cell_length_a   6.15142073
_cell_length_b   6.15142073
_cell_length_c   6.15142073
_cell_angle_alpha   96.27936513
_cell_angle_beta   96.27936513
_cell_angle_gamma   141.37492253
_symmetry_Int_Tables_number   1
_chemical_formula_structural   Sb
_chemical_formula_sum   Sb4
_cell_volume   137.12359832
_cell_formula_units_Z   4
loop_
 _symmetry_equiv_pos_site_id
 _symmetry_equiv_pos_as_xyz
  1  'x, y, z'
loop_
 _atom_site_type_symbol
 _atom_site_label
 _atom_site_symmetry_multiplicity
 _atom_site_fract_x
 _atom_site_fract_y
 _atom_site_fract_z
 _atom_site_occupancy
  Sb  Sb0  1  0.14961773  0.64961773  0.79923545  1.0
  Sb  Sb1  1  0.85038227  0.35038227  1.20076455  1.0
  Sb  Sb2  1  0.64961773  0.85038227  0.50000000  1.0
  Sb  Sb3  1  1.35038227  1.14961773  1.50000000  1.0
