# generated using pymatgen
data_Eu3BWO9
_symmetry_space_group_name_H-M   'P 1'
_cell_length_a   8.81948149
_cell_length_b   8.81948149
_cell_length_c   5.51566269
_cell_angle_alpha   90.00000000
_cell_angle_beta   90.00000000
_cell_angle_gamma   120.00000000
_symmetry_Int_Tables_number   1
_chemical_formula_structural   Eu3BWO9
_chemical_formula_sum   'Eu6 B2 W2 O18'
_cell_volume   371.54758011
_cell_formula_units_Z   2
loop_
 _symmetry_equiv_pos_site_id
 _symmetry_equiv_pos_as_xyz
  1  'x, y, z'
loop_
 _atom_site_type_symbol
 _atom_site_label
 _atom_site_symmetry_multiplicity
 _atom_site_fract_x
 _atom_site_fract_y
 _atom_site_fract_z
 _atom_site_occupancy
  Eu  Eu0  1  0.28545322  0.92433217  0.65921861  1.0
  Eu  Eu1  1  0.63887896  0.71454678  0.65921861  1.0
  Eu  Eu2  1  0.07566783  0.36112104  0.65921861  1.0
  Eu  Eu3  1  0.92434503  0.63884115  0.15930866  1.0
  Eu  Eu4  1  0.71449612  0.07565497  0.15930866  1.0
  Eu  Eu5  1  0.36115885  0.28550388  0.15930866  1.0
  B  B6  1  0.00000000  0.00000000  -0.03007283  1.0
  B  B7  1  0.00000000  0.00000000  0.46990707  1.0
  W  W8  1  0.66666667  0.33333333  0.62439831  1.0
  W  W9  1  0.33333333  0.66666667  0.12437193  1.0
  O  O10  1  0.10512827  0.92551383  -0.02460422  1.0
  O  O11  1  0.82038556  0.89487173  -0.02460422  1.0
  O  O12  1  0.07448617  0.17961444  -0.02460422  1.0
  O  O13  1  0.47357441  0.86345043  0.90280839  1.0
  O  O14  1  0.38987602  0.52642559  0.90280839  1.0
  O  O15  1  0.13654957  0.61012398  0.90280839  1.0
  O  O16  1  0.92553428  0.82039336  0.47538550  1.0
  O  O17  1  0.89485908  0.07446572  0.47538550  1.0
  O  O18  1  0.17960664  0.10514092  0.47538550  1.0
  O  O19  1  0.20264164  0.73405292  0.32932446  1.0
  O  O20  1  0.53141129  0.79735836  0.32932446  1.0
  O  O21  1  0.26594708  0.46858871  0.32932446  1.0
  O  O22  1  0.73428201  0.53150228  0.82917025  1.0
  O  O23  1  0.79722027  0.26571799  0.82917025  1.0
  O  O24  1  0.46849772  0.20277973  0.82917025  1.0
  O  O25  1  0.61018513  0.47362566  0.40275352  1.0
  O  O26  1  0.86344053  0.38981487  0.40275352  1.0
  O  O27  1  0.52637434  0.13655947  0.40275352  1.0
