# generated using pymatgen
data_Fe3H6S2NO14
_symmetry_space_group_name_H-M   'P 1'
_cell_length_a   7.27836224
_cell_length_b   7.27836224
_cell_length_c   7.27836224
_cell_angle_alpha   60.65310592
_cell_angle_beta   60.65310592
_cell_angle_gamma   60.65310592
_symmetry_Int_Tables_number   1
_chemical_formula_structural   Fe3H6S2NO14
_chemical_formula_sum   'Fe3 H6 S2 N1 O14'
_cell_volume   276.65788051
_cell_formula_units_Z   1
loop_
 _symmetry_equiv_pos_site_id
 _symmetry_equiv_pos_as_xyz
  1  'x, y, z'
loop_
 _atom_site_type_symbol
 _atom_site_label
 _atom_site_symmetry_multiplicity
 _atom_site_fract_x
 _atom_site_fract_y
 _atom_site_fract_z
 _atom_site_occupancy
  Fe  Fe0  1  1.00000000  0.50000000  -0.50000000  1.0
  Fe  Fe1  1  0.50000000  -0.50000000  0.00000000  1.0
  Fe  Fe2  1  0.50000000  -0.00000000  -0.50000000  1.0
  S  S3  1  1.19549185  1.19549185  0.19549185  1.0
  S  S4  1  0.80450815  0.80450815  -0.19549185  1.0
  O  O5  1  1.11218182  1.11218182  0.11218182  1.0
  O  O6  1  0.88781818  0.88781818  -0.11218182  1.0
  O  O7  1  0.77015459  0.77015459  -0.61598309  1.0
  O  O8  1  0.77015459  0.38401691  -0.22984541  1.0
  O  O9  1  0.38401691  0.77015459  -0.22984541  1.0
  O  O10  1  0.22984541  0.22984541  -0.38401691  1.0
  O  O11  1  0.22984541  0.61598309  -0.77015459  1.0
  O  O12  1  0.61598309  0.22984541  -0.77015459  1.0
  O  O13  1  1.00219314  1.33539031  0.33539031  1.0
  O  O14  1  1.33539031  1.33539031  0.00219314  1.0
  O  O15  1  1.33539031  1.00219314  0.33539031  1.0
  O  O16  1  0.99780686  0.66460969  -0.33539031  1.0
  O  O17  1  0.66460969  0.66460969  -0.00219314  1.0
  O  O18  1  0.66460969  0.99780686  -0.33539031  1.0
  N  N19  1  0.50000000  0.50000000  -0.50000000  1.0
  H  H20  1  0.79680611  -0.20319389  0.22774208  1.0
  H  H21  1  0.79680611  0.22774208  -0.20319389  1.0
  H  H22  1  1.22774208  -0.20319389  -0.20319389  1.0
  H  H23  1  0.20319389  0.20319389  -0.22774208  1.0
  H  H24  1  0.20319389  0.77225792  -0.79680611  1.0
  H  H25  1  0.77225792  0.20319389  -0.79680611  1.0
