# generated using pymatgen
data_Na24In5O15
_symmetry_space_group_name_H-M   'P 1'
_cell_length_a   9.76831744
_cell_length_b   9.76831744
_cell_length_c   9.76831744
_cell_angle_alpha   109.47122063
_cell_angle_beta   109.47122063
_cell_angle_gamma   109.47122063
_symmetry_Int_Tables_number   1
_chemical_formula_structural   Na24In5O15
_chemical_formula_sum   'Na24 In5 O15'
_cell_volume   717.52560312
_cell_formula_units_Z   1
loop_
 _symmetry_equiv_pos_site_id
 _symmetry_equiv_pos_as_xyz
  1  'x, y, z'
loop_
 _atom_site_type_symbol
 _atom_site_label
 _atom_site_symmetry_multiplicity
 _atom_site_fract_x
 _atom_site_fract_y
 _atom_site_fract_z
 _atom_site_occupancy
  Na  Na0  1  0.73549787  0.45310190  0.45310190  1.0
  Na  Na1  1  0.45310190  0.73549787  0.45310190  1.0
  Na  Na2  1  1.00000000  1.28239597  0.54689810  1.0
  Na  Na3  1  1.28239597  1.00000000  0.54689810  1.0
  Na  Na4  1  0.45310190  0.45310190  0.73549787  1.0
  Na  Na5  1  0.71760403  0.71760403  0.26450213  1.0
  Na  Na6  1  1.00000000  0.54689810  1.28239597  1.0
  Na  Na7  1  0.71760403  0.26450213  0.71760403  1.0
  Na  Na8  1  0.26450213  0.71760403  0.71760403  1.0
  Na  Na9  1  0.54689810  1.00000000  1.28239597  1.0
  Na  Na10  1  1.28239597  0.54689810  1.00000000  1.0
  Na  Na11  1  0.54689810  1.28239597  1.00000000  1.0
  Na  Na12  1  0.21825147  0.43361907  0.43361907  1.0
  Na  Na13  1  0.43361907  0.21825147  0.43361907  1.0
  Na  Na14  1  1.00000000  0.78463239  1.56638093  1.0
  Na  Na15  1  0.78463239  1.00000000  1.56638093  1.0
  Na  Na16  1  0.43361907  0.43361907  0.21825147  1.0
  Na  Na17  1  1.21536761  1.21536761  0.78174853  1.0
  Na  Na18  1  1.00000000  1.56638093  0.78463239  1.0
  Na  Na19  1  1.21536761  0.78174853  1.21536761  1.0
  Na  Na20  1  0.78174853  1.21536761  1.21536761  1.0
  Na  Na21  1  1.56638093  1.00000000  0.78463239  1.0
  Na  Na22  1  0.78463239  1.56638093  1.00000000  1.0
  Na  Na23  1  1.56638093  0.78463239  1.00000000  1.0
  In  In24  1  0.71271466  0.71271466  0.71271466  1.0
  In  In25  1  1.00000000  1.00000000  0.28728534  1.0
  In  In26  1  1.00000000  0.28728534  1.00000000  1.0
  In  In27  1  0.28728534  1.00000000  1.00000000  1.0
  In  In28  1  0.00000000  0.00000000  0.00000000  1.0
  O  O29  1  0.47842363  0.69194643  0.69194643  1.0
  O  O30  1  0.69194643  0.47842363  0.69194643  1.0
  O  O31  1  1.00000000  0.78647720  1.30805357  1.0
  O  O32  1  0.78647720  1.00000000  1.30805357  1.0
  O  O33  1  0.69194643  0.69194643  0.47842363  1.0
  O  O34  1  1.21352280  1.21352280  0.52157637  1.0
  O  O35  1  1.00000000  1.30805357  0.78647720  1.0
  O  O36  1  1.21352280  0.52157637  1.21352280  1.0
  O  O37  1  0.52157637  1.21352280  1.21352280  1.0
  O  O38  1  1.30805357  1.00000000  0.78647720  1.0
  O  O39  1  0.78647720  1.30805357  1.00000000  1.0
  O  O40  1  1.30805357  0.78647720  1.00000000  1.0
  O  O41  1  0.50000000  0.50000000  0.00000000  1.0
  O  O42  1  0.50000000  0.00000000  0.50000000  1.0
  O  O43  1  -0.00000000  0.50000000  0.50000000  1.0
