# generated using pymatgen
data_Li5ReO6
_symmetry_space_group_name_H-M   'P 1'
_cell_length_a   5.07995604
_cell_length_b   5.07995604
_cell_length_c   14.24705354
_cell_angle_alpha   90.00000000
_cell_angle_beta   90.00000000
_cell_angle_gamma   120.00000000
_symmetry_Int_Tables_number   1
_chemical_formula_structural   Li5ReO6
_chemical_formula_sum   'Li15 Re3 O18'
_cell_volume   318.40186049
_cell_formula_units_Z   3
loop_
 _symmetry_equiv_pos_site_id
 _symmetry_equiv_pos_as_xyz
  1  'x, y, z'
loop_
 _atom_site_type_symbol
 _atom_site_label
 _atom_site_symmetry_multiplicity
 _atom_site_fract_x
 _atom_site_fract_y
 _atom_site_fract_z
 _atom_site_occupancy
  Li  Li0  1  0.75960852  0.87980426  0.50000000  1.0
  Li  Li1  1  0.12019574  0.87980426  0.83333333  1.0
  Li  Li2  1  0.12019574  0.24039148  0.16666667  1.0
  Li  Li3  1  0.11399354  0.55699677  0.50000000  1.0
  Li  Li4  1  0.44300323  0.55699677  0.83333333  1.0
  Li  Li5  1  0.44300323  0.88600646  0.16666667  1.0
  Li  Li6  1  0.46463295  0.23231647  0.50000000  1.0
  Li  Li7  1  0.76768353  0.23231647  0.83333333  1.0
  Li  Li8  1  0.76768353  0.53536705  0.16666667  1.0
  Li  Li9  1  0.10974325  0.55487163  0.00000000  1.0
  Li  Li10  1  0.44512837  0.55487163  0.33333333  1.0
  Li  Li11  1  0.44512837  0.89025675  0.66666667  1.0
  Li  Li12  1  0.44241775  0.22120888  0.00000000  1.0
  Li  Li13  1  0.77879112  0.22120888  0.33333333  1.0
  Li  Li14  1  0.77879112  0.55758225  0.66666667  1.0
  Re  Re15  1  0.77691229  0.88845615  0.00000000  1.0
  Re  Re16  1  0.11154385  0.88845615  0.33333333  1.0
  Re  Re17  1  0.11154385  0.22308771  0.66666667  1.0
  O  O18  1  0.07831746  0.88536157  0.07569266  1.0
  O  O19  1  0.07831746  0.19295589  0.92430734  1.0
  O  O20  1  0.80704411  0.88536157  0.25764067  1.0
  O  O21  1  0.80704411  0.92168254  0.74235933  1.0
  O  O22  1  0.11463843  0.92168254  0.59097400  1.0
  O  O23  1  0.11463843  0.19295589  0.40902600  1.0
  O  O24  1  0.47038744  0.88789317  0.92255256  1.0
  O  O25  1  0.47038744  0.58249427  0.07744744  1.0
  O  O26  1  0.41750573  0.88789317  0.41078078  1.0
  O  O27  1  0.41750573  0.52961256  0.58921922  1.0
  O  O28  1  0.11210683  0.52961256  0.74411411  1.0
  O  O29  1  0.11210683  0.58249427  0.25588589  1.0
  O  O30  1  0.77359572  0.58294095  0.92204314  1.0
  O  O31  1  0.77359572  0.19065477  0.07795686  1.0
  O  O32  1  0.80934523  0.58294095  0.41129020  1.0
  O  O33  1  0.80934523  0.22640428  0.58870980  1.0
  O  O34  1  0.41705905  0.22640428  0.74462353  1.0
  O  O35  1  0.41705905  0.19065477  0.25537647  1.0
