# generated using pymatgen
data_RbIO3
_symmetry_space_group_name_H-M   'P 1'
_cell_length_a   4.63941775
_cell_length_b   4.63941775
_cell_length_c   4.63941775
_cell_angle_alpha   88.59787601
_cell_angle_beta   88.59787601
_cell_angle_gamma   88.59787601
_symmetry_Int_Tables_number   1
_chemical_formula_structural   RbIO3
_chemical_formula_sum   'Rb1 I1 O3'
_cell_volume   99.77148014
_cell_formula_units_Z   1
loop_
 _symmetry_equiv_pos_site_id
 _symmetry_equiv_pos_as_xyz
  1  'x, y, z'
loop_
 _atom_site_type_symbol
 _atom_site_label
 _atom_site_symmetry_multiplicity
 _atom_site_fract_x
 _atom_site_fract_y
 _atom_site_fract_z
 _atom_site_occupancy
  Rb  Rb0  1  0.00583266  0.00583266  0.00583266  1.0
  I  I1  1  0.49705667  0.49705667  -0.50294333  1.0
  O  O2  1  0.09358286  0.54411390  -0.45588610  1.0
  O  O3  1  0.54411390  0.09358286  -0.45588610  1.0
  O  O4  1  0.54411390  0.54411390  -0.90641714  1.0
