# generated using pymatgen
data_BaO6
_symmetry_space_group_name_H-M   'P 1'
_cell_length_a   5.82510764
_cell_length_b   5.82510764
_cell_length_c   8.00465250
_cell_angle_alpha   87.66213211
_cell_angle_beta   92.33786789
_cell_angle_gamma   114.42372862
_symmetry_Int_Tables_number   1
_chemical_formula_structural   BaO6
_chemical_formula_sum   'Ba2 O12'
_cell_volume   247.01563024
_cell_formula_units_Z   2
loop_
 _symmetry_equiv_pos_site_id
 _symmetry_equiv_pos_as_xyz
  1  'x, y, z'
loop_
 _atom_site_type_symbol
 _atom_site_label
 _atom_site_symmetry_multiplicity
 _atom_site_fract_x
 _atom_site_fract_y
 _atom_site_fract_z
 _atom_site_occupancy
  Ba  Ba0  1  0.77018830  -0.22981170  0.25000000  1.0
  Ba  Ba1  1  1.22981170  0.22981170  0.75000000  1.0
  O  O2  1  0.91166997  -0.78116191  0.45653913  1.0
  O  O3  1  1.78116191  0.08833003  0.95653913  1.0
  O  O4  1  0.21883809  -0.08833003  0.04346087  1.0
  O  O5  1  1.08833003  0.78116191  0.54346087  1.0
  O  O6  1  0.36477622  -0.06241434  0.17178565  1.0
  O  O7  1  1.06241434  0.63522378  0.67178565  1.0
  O  O8  1  0.93758566  -0.63522378  0.32821435  1.0
  O  O9  1  1.63522378  0.06241434  0.82821435  1.0
  O  O10  1  1.48350772  0.39585493  0.45943417  1.0
  O  O11  1  0.60414507  -0.48350772  0.95943417  1.0
  O  O12  1  1.39585493  0.48350772  0.04056583  1.0
  O  O13  1  0.51649228  -0.39585493  0.54056583  1.0
