# generated using pymatgen
data_Li4Ge2B
_symmetry_space_group_name_H-M   'P 1'
_cell_length_a   7.03201625
_cell_length_b   7.03201625
_cell_length_c   7.03201625
_cell_angle_alpha   33.42243190
_cell_angle_beta   33.42243190
_cell_angle_gamma   33.42243190
_symmetry_Int_Tables_number   1
_chemical_formula_structural   Li4Ge2B
_chemical_formula_sum   'Li4 Ge2 B1'
_cell_volume   93.94769831
_cell_formula_units_Z   1
loop_
 _symmetry_equiv_pos_site_id
 _symmetry_equiv_pos_as_xyz
  1  'x, y, z'
loop_
 _atom_site_type_symbol
 _atom_site_label
 _atom_site_symmetry_multiplicity
 _atom_site_fract_x
 _atom_site_fract_y
 _atom_site_fract_z
 _atom_site_occupancy
  Li  Li0  1  0.83531721  -0.16468279  -0.16468279  1.0
  Li  Li1  1  0.68710671  -0.31289329  -0.31289329  1.0
  Li  Li2  1  0.97833985  -0.02166015  -0.02166015  1.0
  Li  Li3  1  0.55082258  0.55082258  -0.44917742  1.0
  Ge  Ge4  1  0.42358314  0.42358314  -0.57641686  1.0
  Ge  Ge5  1  0.25548710  0.25548710  0.25548710  1.0
  B  B6  1  0.14144341  0.14144341  0.14144341  1.0
