# generated using pymatgen
data_TlHg5Br11
_symmetry_space_group_name_H-M   'P 1'
_cell_length_a   10.31298143
_cell_length_b   10.31298143
_cell_length_c   7.08670787
_cell_angle_alpha   73.10568641
_cell_angle_beta   106.89431359
_cell_angle_gamma   75.29282962
_symmetry_Int_Tables_number   1
_chemical_formula_structural   TlHg5Br11
_chemical_formula_sum   'Tl1 Hg5 Br11'
_cell_volume   641.22426845
_cell_formula_units_Z   1
loop_
 _symmetry_equiv_pos_site_id
 _symmetry_equiv_pos_as_xyz
  1  'x, y, z'
loop_
 _atom_site_type_symbol
 _atom_site_label
 _atom_site_symmetry_multiplicity
 _atom_site_fract_x
 _atom_site_fract_y
 _atom_site_fract_z
 _atom_site_occupancy
  Tl  Tl0  1  0.00000000  0.00000000  0.00000000  1.0
  Hg  Hg1  1  0.33598713  -0.03116933  0.66828856  1.0
  Hg  Hg2  1  1.03116933  0.66401287  0.66828856  1.0
  Hg  Hg3  1  0.96883067  -0.66401287  0.33171144  1.0
  Hg  Hg4  1  1.66401287  0.03116933  0.33171144  1.0
  Hg  Hg5  1  0.50000000  -0.50000000  -0.00000000  1.0
  Br  Br6  1  1.58110536  0.17485657  0.94559842  1.0
  Br  Br7  1  0.82514343  -0.58110536  0.94559842  1.0
  Br  Br8  1  1.17485657  0.58110536  0.05440158  1.0
  Br  Br9  1  0.41889464  -0.17485657  0.05440158  1.0
  Br  Br10  1  0.71727459  -0.12172830  0.70589508  1.0
  Br  Br11  1  1.12172830  0.28272541  0.70589508  1.0
  Br  Br12  1  0.87827170  -0.28272541  0.29410492  1.0
  Br  Br13  1  1.28272541  0.12172830  0.29410492  1.0
  Br  Br14  1  0.63775485  -0.63775485  0.39132274  1.0
  Br  Br15  1  0.36224515  -0.36224515  0.60867726  1.0
  Br  Br16  1  -0.00000000  0.00000000  0.50000000  1.0
