# generated using pymatgen
data_FeSO3
_symmetry_space_group_name_H-M   'P 1'
_cell_length_a   7.88637674
_cell_length_b   7.88637674
_cell_length_c   7.88637674
_cell_angle_alpha   109.58007056
_cell_angle_beta   109.58007056
_cell_angle_gamma   109.58007056
_symmetry_Int_Tables_number   1
_chemical_formula_structural   FeSO3
_chemical_formula_sum   'Fe6 S6 O18'
_cell_volume   376.05209337
_cell_formula_units_Z   6
loop_
 _symmetry_equiv_pos_site_id
 _symmetry_equiv_pos_as_xyz
  1  'x, y, z'
loop_
 _atom_site_type_symbol
 _atom_site_label
 _atom_site_symmetry_multiplicity
 _atom_site_fract_x
 _atom_site_fract_y
 _atom_site_fract_z
 _atom_site_occupancy
  Fe  Fe0  1  0.69186963  0.87231610  0.19596749  1.0
  Fe  Fe1  1  1.12768390  -0.19596749  0.30813037  1.0
  Fe  Fe2  1  0.80403251  0.30813037  0.12768390  1.0
  Fe  Fe3  1  1.30813037  0.12768390  -0.19596749  1.0
  Fe  Fe4  1  0.87231610  1.19596749  -0.30813037  1.0
  Fe  Fe5  1  1.19596749  0.69186963  -0.12768390  1.0
  S  S6  1  1.52727364  0.85245668  -0.29490619  1.0
  S  S7  1  1.14754332  0.29490619  -0.52727364  1.0
  S  S8  1  1.29490619  -0.52727364  0.14754332  1.0
  S  S9  1  0.47272636  0.14754332  0.29490619  1.0
  S  S10  1  0.85245668  0.70509381  0.52727364  1.0
  S  S11  1  0.70509381  1.52727364  -0.14754332  1.0
  O  O12  1  0.84125228  0.73732750  0.06700279  1.0
  O  O13  1  1.26267250  -0.06700279  0.15874772  1.0
  O  O14  1  0.93299721  0.15874772  0.26267250  1.0
  O  O15  1  1.15874772  0.26267250  -0.06700279  1.0
  O  O16  1  0.73732750  1.06700279  -0.15874772  1.0
  O  O17  1  1.06700279  0.84125228  -0.26267250  1.0
  O  O18  1  0.91234840  0.60951612  0.36291062  1.0
  O  O19  1  0.39048388  0.63708938  0.08765160  1.0
  O  O20  1  0.63708938  1.08765160  -0.60951612  1.0
  O  O21  1  1.08765160  0.39048388  -0.36291062  1.0
  O  O22  1  1.60951612  0.36291062  -0.08765160  1.0
  O  O23  1  1.36291062  -0.08765160  0.60951612  1.0
  O  O24  1  1.48570058  0.81329004  -0.12881386  1.0
  O  O25  1  1.18670996  0.12881386  -0.48570058  1.0
  O  O26  1  1.12881386  -0.48570058  0.18670996  1.0
  O  O27  1  0.51429942  0.18670996  0.12881386  1.0
  O  O28  1  0.81329004  0.87118614  0.48570058  1.0
  O  O29  1  0.87118614  1.48570058  -0.18670996  1.0
