# generated using pymatgen
data_CsInTe3O8
_symmetry_space_group_name_H-M   'P 1'
_cell_length_a   5.93548844
_cell_length_b   11.35729986
_cell_length_c   8.01518380
_cell_angle_alpha   101.33350747
_cell_angle_beta   107.97238620
_cell_angle_gamma   90.28948522
_symmetry_Int_Tables_number   1
_chemical_formula_structural   CsInTe3O8
_chemical_formula_sum   'Cs2 In2 Te6 O16'
_cell_volume   502.67461199
_cell_formula_units_Z   2
loop_
 _symmetry_equiv_pos_site_id
 _symmetry_equiv_pos_as_xyz
  1  'x, y, z'
loop_
 _atom_site_type_symbol
 _atom_site_label
 _atom_site_symmetry_multiplicity
 _atom_site_fract_x
 _atom_site_fract_y
 _atom_site_fract_z
 _atom_site_occupancy
  Cs  Cs0  1  0.83002357  0.16611904  -0.88986311  1.0
  Cs  Cs1  1  0.16997643  0.83388096  -0.11013689  1.0
  In  In2  1  -0.00000000  0.50000000  -0.50000000  1.0
  In  In3  1  0.50000000  -0.00000000  -0.50000000  1.0
  Te  Te4  1  0.94732523  0.85525206  -0.64995546  1.0
  Te  Te5  1  0.05267477  0.14474794  -0.35004454  1.0
  Te  Te6  1  0.78306443  0.58318604  -0.97708293  1.0
  Te  Te7  1  0.21693557  0.41681396  -0.02291707  1.0
  Te  Te8  1  0.48260406  0.65428030  -0.54510617  1.0
  Te  Te9  1  0.51739594  0.34571970  -0.45489383  1.0
  O  O10  1  0.79238687  0.56710479  -0.73795702  1.0
  O  O11  1  0.20761313  0.43289521  -0.26204298  1.0
  O  O12  1  0.76233834  0.77124639  -0.90261054  1.0
  O  O13  1  0.23766166  0.22875361  -0.09738946  1.0
  O  O14  1  0.73880742  0.58405726  -0.37761012  1.0
  O  O15  1  0.26119258  0.41594274  -0.62238988  1.0
  O  O16  1  0.75969317  0.99750016  -0.65070134  1.0
  O  O17  1  0.24030683  0.00249984  -0.34929866  1.0
  O  O18  1  0.75197572  0.33665286  -0.58224649  1.0
  O  O19  1  0.24802428  0.66334714  -0.41775351  1.0
  O  O20  1  0.62616706  0.82005411  -0.46170076  1.0
  O  O21  1  0.37383294  0.17994589  -0.53829924  1.0
  O  O22  1  0.19516917  0.92034985  -0.72650816  1.0
  O  O23  1  0.80483083  0.07965015  -0.27349184  1.0
  O  O24  1  0.12245649  0.60598035  -0.95255074  1.0
  O  O25  1  0.87754351  0.39401965  -0.04744926  1.0
