# generated using pymatgen
data_Na2Ni(SO6)2
_symmetry_space_group_name_H-M   'P 1'
_cell_length_a   5.51762957
_cell_length_b   8.18620071
_cell_length_c   11.51341193
_cell_angle_alpha   90.00000000
_cell_angle_beta   98.81722851
_cell_angle_gamma   90.00000000
_symmetry_Int_Tables_number   1
_chemical_formula_structural   Na2Ni(SO6)2
_chemical_formula_sum   'Na4 Ni2 S4 O24'
_cell_volume   513.89697125
_cell_formula_units_Z   2
loop_
 _symmetry_equiv_pos_site_id
 _symmetry_equiv_pos_as_xyz
  1  'x, y, z'
loop_
 _atom_site_type_symbol
 _atom_site_label
 _atom_site_symmetry_multiplicity
 _atom_site_fract_x
 _atom_site_fract_y
 _atom_site_fract_z
 _atom_site_occupancy
  Na  Na0  1  0.90772286  0.93960278  0.64188257  1.0
  Na  Na1  1  0.90772286  0.56039722  0.14188257  1.0
  Na  Na2  1  0.09227714  0.43960278  0.85811743  1.0
  Na  Na3  1  0.09227714  0.06039722  0.35811743  1.0
  S  S4  1  0.61948561  0.72124000  0.86702044  1.0
  S  S5  1  0.61948561  0.77876000  0.36702044  1.0
  S  S6  1  0.38051439  0.22124000  0.63297956  1.0
  S  S7  1  0.38051439  0.27876000  0.13297956  1.0
  Ni  Ni8  1  0.00000000  0.00000000  0.00000000  1.0
  Ni  Ni9  1  0.00000000  0.50000000  0.50000000  1.0
  O  O10  1  0.87853522  0.17964720  0.93256207  1.0
  O  O11  1  0.87853522  0.32035280  0.43256207  1.0
  O  O12  1  0.12146478  0.67964720  0.56743793  1.0
  O  O13  1  0.12146478  0.82035280  0.06743793  1.0
  O  O14  1  0.92296723  0.47943758  0.64162431  1.0
  O  O15  1  0.92296723  0.02056242  0.14162431  1.0
  O  O16  1  0.07703277  0.97943758  0.85837569  1.0
  O  O17  1  0.07703277  0.52056242  0.35837569  1.0
  O  O18  1  0.35946842  0.66822456  0.84830860  1.0
  O  O19  1  0.35946842  0.83177544  0.34830860  1.0
  O  O20  1  0.64053158  0.16822456  0.65169140  1.0
  O  O21  1  0.64053158  0.33177544  0.15169140  1.0
  O  O22  1  0.70269885  0.76067874  0.75372038  1.0
  O  O23  1  0.70269885  0.73932126  0.25372038  1.0
  O  O24  1  0.29730115  0.26067874  0.74627962  1.0
  O  O25  1  0.29730115  0.23932126  0.24627962  1.0
  O  O26  1  0.62764755  0.87537334  0.94100834  1.0
  O  O27  1  0.62764755  0.62462666  0.44100834  1.0
  O  O28  1  0.37235245  0.37537334  0.55899166  1.0
  O  O29  1  0.37235245  0.12462666  0.05899166  1.0
  O  O30  1  0.78024827  0.59458239  0.93170882  1.0
  O  O31  1  0.78024827  0.90541761  0.43170882  1.0
  O  O32  1  0.21975173  0.09458239  0.56829118  1.0
  O  O33  1  0.21975173  0.40541761  0.06829118  1.0
