# generated using pymatgen
data_BiBO3
_symmetry_space_group_name_H-M   'P 1'
_cell_length_a   4.37068291
_cell_length_b   4.98910607
_cell_length_c   6.49031871
_cell_angle_alpha   90.00000000
_cell_angle_beta   106.26624222
_cell_angle_gamma   90.00000000
_symmetry_Int_Tables_number   1
_chemical_formula_structural   BiBO3
_chemical_formula_sum   'Bi2 B2 O6'
_cell_volume   135.86135573
_cell_formula_units_Z   2
loop_
 _symmetry_equiv_pos_site_id
 _symmetry_equiv_pos_as_xyz
  1  'x, y, z'
loop_
 _atom_site_type_symbol
 _atom_site_label
 _atom_site_symmetry_multiplicity
 _atom_site_fract_x
 _atom_site_fract_y
 _atom_site_fract_z
 _atom_site_occupancy
  Bi  Bi0  1  0.24325655  0.79197434  0.91622027  1.0
  Bi  Bi1  1  0.24325655  0.20802566  0.41622027  1.0
  B  B2  1  0.74325533  0.70547184  0.41622104  1.0
  B  B3  1  0.74325533  0.29452816  0.91622104  1.0
  O  O4  1  0.00733848  0.84654038  0.53816546  1.0
  O  O5  1  0.00733848  0.15345962  0.03816546  1.0
  O  O6  1  0.74319937  0.43061849  0.41622549  1.0
  O  O7  1  0.74319937  0.56938151  0.91622549  1.0
  O  O8  1  0.47925027  0.84662867  0.29426774  1.0
  O  O9  1  0.47925027  0.15337133  0.79426774  1.0
