# generated using pymatgen
data_K2FeP2O7
_symmetry_space_group_name_H-M   'P 1'
_cell_length_a   8.19098980
_cell_length_b   8.19098980
_cell_length_c   5.63617389
_cell_angle_alpha   90.00000000
_cell_angle_beta   90.00000000
_cell_angle_gamma   90.00000000
_symmetry_Int_Tables_number   1
_chemical_formula_structural   K2FeP2O7
_chemical_formula_sum   'K4 Fe2 P4 O14'
_cell_volume   378.14394795
_cell_formula_units_Z   2
loop_
 _symmetry_equiv_pos_site_id
 _symmetry_equiv_pos_as_xyz
  1  'x, y, z'
loop_
 _atom_site_type_symbol
 _atom_site_label
 _atom_site_symmetry_multiplicity
 _atom_site_fract_x
 _atom_site_fract_y
 _atom_site_fract_z
 _atom_site_occupancy
  K  K0  1  0.83292035  0.33292035  0.48965023  1.0
  K  K1  1  0.66707965  0.83292035  0.51034977  1.0
  K  K2  1  0.16707965  0.66707965  0.48965023  1.0
  K  K3  1  0.33292035  0.16707965  0.51034977  1.0
  Fe  Fe4  1  0.50000000  0.50000000  0.00000000  1.0
  Fe  Fe5  1  0.00000000  0.00000000  0.00000000  1.0
  P  P6  1  0.36648590  0.86648590  0.03347055  1.0
  P  P7  1  0.13351410  0.36648590  0.96652945  1.0
  P  P8  1  0.63351410  0.13351410  0.03347055  1.0
  P  P9  1  0.86648590  0.63351410  0.96652945  1.0
  O  O10  1  0.29428921  0.42306610  0.84450216  1.0
  O  O11  1  0.20571079  0.92306610  0.15549784  1.0
  O  O12  1  0.57693390  0.29428921  0.15549784  1.0
  O  O13  1  0.92306610  0.79428921  0.84450216  1.0
  O  O14  1  0.70571079  0.57693390  0.84450216  1.0
  O  O15  1  0.79428921  0.07693390  0.15549784  1.0
  O  O16  1  0.42306610  0.70571079  0.15549784  1.0
  O  O17  1  0.07693390  0.20571079  0.84450216  1.0
  O  O18  1  0.36533350  0.86533350  0.76512385  1.0
  O  O19  1  0.13466650  0.36533350  0.23487615  1.0
  O  O20  1  0.63466650  0.13466650  0.76512385  1.0
  O  O21  1  0.86533350  0.63466650  0.23487615  1.0
  O  O22  1  0.00000000  0.50000000  0.86488130  1.0
  O  O23  1  0.50000000  0.00000000  0.13511870  1.0
