# generated using pymatgen
data_NaH2BrO5
_symmetry_space_group_name_H-M   'P 1'
_cell_length_a   8.76526391
_cell_length_b   8.76526391
_cell_length_c   11.33869083
_cell_angle_alpha   69.79769708
_cell_angle_beta   110.20230292
_cell_angle_gamma   141.19657649
_symmetry_Int_Tables_number   1
_chemical_formula_structural   NaH2BrO5
_chemical_formula_sum   'Na4 H8 Br4 O20'
_cell_volume   508.00129994
_cell_formula_units_Z   4
loop_
 _symmetry_equiv_pos_site_id
 _symmetry_equiv_pos_as_xyz
  1  'x, y, z'
loop_
 _atom_site_type_symbol
 _atom_site_label
 _atom_site_symmetry_multiplicity
 _atom_site_fract_x
 _atom_site_fract_y
 _atom_site_fract_z
 _atom_site_occupancy
  Na  Na0  1  0.41708416  0.41708416  0.25000000  1.0
  Na  Na1  1  0.58291584  0.58291584  0.75000000  1.0
  Na  Na2  1  0.50000000  0.00000000  0.50000000  1.0
  Na  Na3  1  1.00000000  0.50000000  -0.00000000  1.0
  H  H4  1  0.51478136  -0.21132326  0.06132072  1.0
  H  H5  1  1.21132326  0.48521864  0.56132072  1.0
  H  H6  1  0.78867674  0.51478136  0.43867928  1.0
  H  H7  1  0.48521864  0.21132326  0.93867928  1.0
  H  H8  1  1.41308483  0.62476625  0.47932957  1.0
  H  H9  1  0.37523375  -0.41308483  0.97932957  1.0
  H  H10  1  0.62476625  0.41308483  0.02067043  1.0
  H  H11  1  0.58691517  0.37523375  0.52067043  1.0
  Br  Br12  1  0.79921847  0.05718994  0.29400708  1.0
  Br  Br13  1  0.94281006  0.20078153  0.79400708  1.0
  Br  Br14  1  1.05718994  0.79921847  0.20599292  1.0
  Br  Br15  1  0.20078153  -0.05718994  0.70599292  1.0
  O  O16  1  0.60229748  -0.24171111  0.34391952  1.0
  O  O17  1  1.24171111  0.39770252  0.84391952  1.0
  O  O18  1  0.75828889  0.60229748  0.15608048  1.0
  O  O19  1  0.39770252  0.24171111  0.65608048  1.0
  O  O20  1  0.36759946  -0.38704892  0.05358326  1.0
  O  O21  1  1.38704892  0.63240054  0.55358326  1.0
  O  O22  1  0.61295108  0.36759946  0.44641674  1.0
  O  O23  1  0.63240054  0.38704892  0.94641674  1.0
  O  O24  1  0.77418914  0.09828125  0.13637165  1.0
  O  O25  1  0.90171875  0.22581086  0.63637165  1.0
  O  O26  1  1.09828125  0.77418914  0.36362835  1.0
  O  O27  1  0.22581086  -0.09828125  0.86362835  1.0
  O  O28  1  0.73539649  0.16218749  0.33819319  1.0
  O  O29  1  0.83781251  0.26460351  0.83819319  1.0
  O  O30  1  1.16218749  0.73539649  0.16180681  1.0
  O  O31  1  0.26460351  -0.16218749  0.66180681  1.0
  O  O32  1  0.20571291  0.08229610  0.14549763  1.0
  O  O33  1  0.91770390  0.79428709  0.64549763  1.0
  O  O34  1  1.08229610  0.20571291  0.35450237  1.0
  O  O35  1  0.79428709  -0.08229610  0.85450237  1.0
