# generated using pymatgen
data_C3NCl
_symmetry_space_group_name_H-M   'P 1'
_cell_length_a   5.15514055
_cell_length_b   6.83060829
_cell_length_c   6.67513323
_cell_angle_alpha   90.00000000
_cell_angle_beta   88.12759416
_cell_angle_gamma   90.00000000
_symmetry_Int_Tables_number   1
_chemical_formula_structural   C3NCl
_chemical_formula_sum   'C6 N2 Cl2'
_cell_volume   234.92426882
_cell_formula_units_Z   2
loop_
 _symmetry_equiv_pos_site_id
 _symmetry_equiv_pos_as_xyz
  1  'x, y, z'
loop_
 _atom_site_type_symbol
 _atom_site_label
 _atom_site_symmetry_multiplicity
 _atom_site_fract_x
 _atom_site_fract_y
 _atom_site_fract_z
 _atom_site_occupancy
  C  C0  1  0.77174939  0.75000000  0.45754129  1.0
  C  C1  1  0.22825061  0.25000000  0.54245871  1.0
  C  C2  1  0.60951469  0.75000000  0.62170690  1.0
  C  C3  1  0.39048531  0.25000000  0.37829310  1.0
  C  C4  1  0.46257617  0.75000000  0.76890374  1.0
  C  C5  1  0.53742383  0.25000000  0.23109626  1.0
  N  N6  1  0.91156389  0.75000000  0.31544477  1.0
  N  N7  1  0.08843611  0.25000000  0.68455523  1.0
  Cl  Cl8  1  0.26835025  0.75000000  0.96321394  1.0
  Cl  Cl9  1  0.73164975  0.25000000  0.03678606  1.0
