# generated using pymatgen
data_Fe4Cu2S7
_symmetry_space_group_name_H-M   'P 1'
_cell_length_a   5.11636768
_cell_length_b   8.31205099
_cell_length_c   12.14641007
_cell_angle_alpha   90.00000000
_cell_angle_beta   90.00000000
_cell_angle_gamma   90.00000000
_symmetry_Int_Tables_number   1
_chemical_formula_structural   Fe4Cu2S7
_chemical_formula_sum   'Fe8 Cu4 S14'
_cell_volume   516.55656461
_cell_formula_units_Z   2
loop_
 _symmetry_equiv_pos_site_id
 _symmetry_equiv_pos_as_xyz
  1  'x, y, z'
loop_
 _atom_site_type_symbol
 _atom_site_label
 _atom_site_symmetry_multiplicity
 _atom_site_fract_x
 _atom_site_fract_y
 _atom_site_fract_z
 _atom_site_occupancy
  Fe  Fe0  1  0.49986746  0.84712762  0.22935597  1.0
  Fe  Fe1  1  0.49986746  0.15287238  0.22935597  1.0
  Fe  Fe2  1  0.99986746  0.84712762  0.77064403  1.0
  Fe  Fe3  1  0.99986746  0.15287238  0.77064403  1.0
  Fe  Fe4  1  0.50013254  0.84712762  0.77064403  1.0
  Fe  Fe5  1  0.50013254  0.15287238  0.77064403  1.0
  Fe  Fe6  1  0.00013254  0.84712762  0.22935597  1.0
  Fe  Fe7  1  0.00013254  0.15287238  0.22935597  1.0
  S  S8  1  0.25000000  0.50000000  0.55331459  1.0
  S  S9  1  0.75000000  0.50000000  0.44668541  1.0
  S  S10  1  0.25000000  0.00000000  0.67020010  1.0
  S  S11  1  0.75000000  0.00000000  0.32979990  1.0
  S  S12  1  0.25000000  0.68892905  0.85793376  1.0
  S  S13  1  0.25000000  0.31107095  0.85793376  1.0
  S  S14  1  0.75000000  0.68892905  0.14206624  1.0
  S  S15  1  0.75000000  0.31107095  0.14206624  1.0
  S  S16  1  0.25000000  0.00000000  0.12708666  1.0
  S  S17  1  0.75000000  0.00000000  0.87291334  1.0
  S  S18  1  0.25000000  0.71799967  0.33733336  1.0
  S  S19  1  0.25000000  0.28200033  0.33733336  1.0
  S  S20  1  0.75000000  0.71799967  0.66266664  1.0
  S  S21  1  0.75000000  0.28200033  0.66266664  1.0
  Cu  Cu22  1  0.51076372  0.50000000  0.28296957  1.0
  Cu  Cu23  1  1.01076372  0.50000000  0.71703043  1.0
  Cu  Cu24  1  0.48923628  0.50000000  0.71703043  1.0
  Cu  Cu25  1  -0.01076372  0.50000000  0.28296957  1.0
