# generated using pymatgen
data_Nb3CrS6
_symmetry_space_group_name_H-M   'P 1'
_cell_length_a   5.76098651
_cell_length_b   5.76098651
_cell_length_c   11.82923397
_cell_angle_alpha   90.00000000
_cell_angle_beta   90.00000000
_cell_angle_gamma   120.00000000
_symmetry_Int_Tables_number   1
_chemical_formula_structural   Nb3CrS6
_chemical_formula_sum   'Nb6 Cr2 S12'
_cell_volume   340.00160738
_cell_formula_units_Z   2
loop_
 _symmetry_equiv_pos_site_id
 _symmetry_equiv_pos_as_xyz
  1  'x, y, z'
loop_
 _atom_site_type_symbol
 _atom_site_label
 _atom_site_symmetry_multiplicity
 _atom_site_fract_x
 _atom_site_fract_y
 _atom_site_fract_z
 _atom_site_occupancy
  Nb  Nb0  1  0.33333333  0.66666667  0.50430581  1.0
  Nb  Nb1  1  0.33333333  0.66666667  0.99569419  1.0
  Nb  Nb2  1  0.66666667  0.33333333  0.49569419  1.0
  Nb  Nb3  1  0.66666667  0.33333333  0.00430581  1.0
  Nb  Nb4  1  0.00000000  0.00000000  0.00000000  1.0
  Nb  Nb5  1  0.00000000  0.00000000  0.50000000  1.0
  Cr  Cr6  1  0.33333333  0.66666667  0.25000000  1.0
  Cr  Cr7  1  0.66666667  0.33333333  0.75000000  1.0
  S  S8  1  0.66150905  0.66894798  0.13375319  1.0
  S  S9  1  0.66150905  -0.00743893  0.36624681  1.0
  S  S10  1  0.66894798  0.66150905  0.86624681  1.0
  S  S11  1  0.66894798  1.00743893  0.63375319  1.0
  S  S12  1  1.00743893  0.66894798  0.36624681  1.0
  S  S13  1  1.00743893  0.33849095  0.13375319  1.0
  S  S14  1  0.33105202  0.33849095  0.36624681  1.0
  S  S15  1  0.33105202  -0.00743893  0.13375319  1.0
  S  S16  1  0.33849095  1.00743893  0.86624681  1.0
  S  S17  1  0.33849095  0.33105202  0.63375319  1.0
  S  S18  1  -0.00743893  0.66150905  0.63375319  1.0
  S  S19  1  -0.00743893  0.33105202  0.86624681  1.0
