# generated using pymatgen
data_HgAsF7
_symmetry_space_group_name_H-M   'P 1'
_cell_length_a   7.45510989
_cell_length_b   10.43932577
_cell_length_c   7.95977092
_cell_angle_alpha   90.00000000
_cell_angle_beta   91.39772058
_cell_angle_gamma   90.00000000
_symmetry_Int_Tables_number   1
_chemical_formula_structural   HgAsF7
_chemical_formula_sum   'Hg4 As4 F28'
_cell_volume   619.29536562
_cell_formula_units_Z   4
loop_
 _symmetry_equiv_pos_site_id
 _symmetry_equiv_pos_as_xyz
  1  'x, y, z'
loop_
 _atom_site_type_symbol
 _atom_site_label
 _atom_site_symmetry_multiplicity
 _atom_site_fract_x
 _atom_site_fract_y
 _atom_site_fract_z
 _atom_site_occupancy
  Hg  Hg0  1  0.75675125  0.23932585  0.12873139  1.0
  Hg  Hg1  1  0.75675125  0.26067415  0.62873139  1.0
  Hg  Hg2  1  0.24324875  0.73932585  0.37126861  1.0
  Hg  Hg3  1  0.24324875  0.76067415  0.87126861  1.0
  As  As4  1  0.25768657  0.05881799  0.20211730  1.0
  As  As5  1  0.25768657  0.44118201  0.70211730  1.0
  As  As6  1  0.74231343  0.55881799  0.29788270  1.0
  As  As7  1  0.74231343  0.94118201  0.79788270  1.0
  F  F8  1  0.91524358  0.45316908  0.22227310  1.0
  F  F9  1  0.91524358  0.04683092  0.72227310  1.0
  F  F10  1  0.08475642  0.95316908  0.27772690  1.0
  F  F11  1  0.08475642  0.54683092  0.77772690  1.0
  F  F12  1  0.90825490  0.67652214  0.35852456  1.0
  F  F13  1  0.90825490  0.82347786  0.85852456  1.0
  F  F14  1  0.09174510  0.17652214  0.14147544  1.0
  F  F15  1  0.09174510  0.32347786  0.64147544  1.0
  F  F16  1  0.75958649  0.18081830  0.38427629  1.0
  F  F17  1  0.75958649  0.31918170  0.88427629  1.0
  F  F18  1  0.24041351  0.68081830  0.11572371  1.0
  F  F19  1  0.24041351  0.81918170  0.61572371  1.0
  F  F20  1  0.77139426  0.48628778  0.50408868  1.0
  F  F21  1  0.77139426  0.01371222  1.00408868  1.0
  F  F22  1  0.22860574  0.98628778  -0.00408868  1.0
  F  F23  1  0.22860574  0.51371222  0.49591132  1.0
  F  F24  1  0.57986683  0.43510597  0.24519762  1.0
  F  F25  1  0.57986683  0.06489403  0.74519762  1.0
  F  F26  1  0.42013317  0.93510597  0.25480238  1.0
  F  F27  1  0.42013317  0.56489403  0.75480238  1.0
  F  F28  1  0.43175902  0.15768675  0.11782045  1.0
  F  F29  1  0.43175902  0.34231325  0.61782045  1.0
  F  F30  1  0.56824098  0.65768675  0.38217955  1.0
  F  F31  1  0.56824098  0.84231325  0.88217955  1.0
  F  F32  1  0.28635839  0.12919539  0.40214759  1.0
  F  F33  1  0.28635839  0.37080461  0.90214759  1.0
  F  F34  1  0.71364161  0.62919539  0.09785241  1.0
  F  F35  1  0.71364161  0.87080461  0.59785241  1.0
