# generated using pymatgen
data_RbSb2P(SO6)2
_symmetry_space_group_name_H-M   'P 1'
_cell_length_a   5.25920860
_cell_length_b   13.19785719
_cell_length_c   8.30090032
_cell_angle_alpha   83.20213213
_cell_angle_beta   87.55573082
_cell_angle_gamma   88.59647784
_symmetry_Int_Tables_number   1
_chemical_formula_structural   RbSb2P(SO6)2
_chemical_formula_sum   'Rb2 Sb4 P2 S4 O24'
_cell_volume   571.48699928
_cell_formula_units_Z   2
loop_
 _symmetry_equiv_pos_site_id
 _symmetry_equiv_pos_as_xyz
  1  'x, y, z'
loop_
 _atom_site_type_symbol
 _atom_site_label
 _atom_site_symmetry_multiplicity
 _atom_site_fract_x
 _atom_site_fract_y
 _atom_site_fract_z
 _atom_site_occupancy
  Rb  Rb0  1  -0.72652669  -0.64529463  -0.32580176  1.0
  Rb  Rb1  1  -0.27347331  -0.35470537  -0.67419824  1.0
  Sb  Sb2  1  -0.77409438  -0.95965263  -0.24323910  1.0
  Sb  Sb3  1  -0.22590562  -0.04034737  -0.75676090  1.0
  Sb  Sb4  1  -0.18587086  -0.68417204  -0.80080367  1.0
  Sb  Sb5  1  -0.81412914  -0.31582796  -0.19919633  1.0
  P  P6  1  -0.26080631  -0.86063924  -0.46711288  1.0
  P  P7  1  -0.73919369  -0.13936076  -0.53288712  1.0
  S  S8  1  -0.73581369  -0.53785481  -0.78597762  1.0
  S  S9  1  -0.26418631  -0.46214519  -0.21402238  1.0
  S  S10  1  -0.71123038  -0.85253744  -0.89531904  1.0
  S  S11  1  -0.28876962  -0.14746256  -0.10468096  1.0
  O  O12  1  -0.95252610  -0.59100606  -0.67306311  1.0
  O  O13  1  -0.04747390  -0.40899394  -0.32693689  1.0
  O  O14  1  -0.98369858  -0.14393935  -0.63184025  1.0
  O  O15  1  -0.01630142  -0.85606065  -0.36815975  1.0
  O  O16  1  -0.86649882  -0.79696816  -0.77285568  1.0
  O  O17  1  -0.13350118  -0.20303184  -0.22714432  1.0
  O  O18  1  -0.80840796  -0.82117032  -0.06125553  1.0
  O  O19  1  -0.19159204  -0.17882968  -0.93874447  1.0
  O  O20  1  -0.76958131  -0.42724932  -0.78617738  1.0
  O  O21  1  -0.23041869  -0.57275068  -0.21382262  1.0
  O  O22  1  -0.74959444  -0.57598427  -0.94504851  1.0
  O  O23  1  -0.25040556  -0.42401573  -0.05495149  1.0
  O  O24  1  -0.74054231  -0.96462266  -0.84987392  1.0
  O  O25  1  -0.25945769  -0.03537734  -0.15012608  1.0
  O  O26  1  -0.50179409  -0.86038752  -0.35115951  1.0
  O  O27  1  -0.49820591  -0.13961248  -0.64884049  1.0
  O  O28  1  -0.49029895  -0.57162859  -0.70377659  1.0
  O  O29  1  -0.50970105  -0.42837141  -0.29622341  1.0
  O  O30  1  -0.43825303  -0.82676789  -0.88747986  1.0
  O  O31  1  -0.56174697  -0.17323211  -0.11252014  1.0
  O  O32  1  -0.28247126  -0.75595217  -0.57566656  1.0
  O  O33  1  -0.71752874  -0.24404783  -0.42433344  1.0
  O  O34  1  -0.25236525  -0.95525649  -0.55826386  1.0
  O  O35  1  -0.74763475  -0.04474351  -0.44173614  1.0
