# generated using pymatgen
data_LuMoBrO4
_symmetry_space_group_name_H-M   'P 1'
_cell_length_a   7.25613740
_cell_length_b   7.00322488
_cell_length_c   10.91694076
_cell_angle_alpha   109.67831977
_cell_angle_beta   106.43369131
_cell_angle_gamma   84.23001098
_symmetry_Int_Tables_number   1
_chemical_formula_structural   LuMoBrO4
_chemical_formula_sum   'Lu4 Mo4 Br4 O16'
_cell_volume   501.01208282
_cell_formula_units_Z   4
loop_
 _symmetry_equiv_pos_site_id
 _symmetry_equiv_pos_as_xyz
  1  'x, y, z'
loop_
 _atom_site_type_symbol
 _atom_site_label
 _atom_site_symmetry_multiplicity
 _atom_site_fract_x
 _atom_site_fract_y
 _atom_site_fract_z
 _atom_site_occupancy
  Lu  Lu0  1  0.66568284  -0.10875764  0.76746627  1.0
  Lu  Lu1  1  0.33431716  0.10875764  0.23253373  1.0
  Lu  Lu2  1  0.91164860  -0.55732352  0.27145061  1.0
  Lu  Lu3  1  0.08835140  0.55732352  0.72854939  1.0
  Mo  Mo4  1  0.18126386  0.08826857  0.86394988  1.0
  Mo  Mo5  1  0.81873614  -0.08826857  0.13605012  1.0
  Mo  Mo6  1  0.57722053  0.35557216  0.62896261  1.0
  Mo  Mo7  1  0.42277947  -0.35557216  0.37103739  1.0
  Br  Br8  1  0.01718822  -0.24585048  0.52191200  1.0
  Br  Br9  1  0.98281178  0.24585048  0.47808800  1.0
  Br  Br10  1  0.72340882  0.29771106  0.99104367  1.0
  Br  Br11  1  0.27659118  -0.29771106  0.00895633  1.0
  O  O12  1  0.98861482  -0.09744287  0.80880556  1.0
  O  O13  1  0.01138518  0.09744287  0.19119444  1.0
  O  O14  1  0.37609946  -0.03895349  0.80180755  1.0
  O  O15  1  0.62390054  0.03895349  0.19819245  1.0
  O  O16  1  0.50182572  -0.27409428  0.54971786  1.0
  O  O17  1  0.49817428  0.27409428  0.45028214  1.0
  O  O18  1  0.61826952  -0.46793859  0.30542525  1.0
  O  O19  1  0.38173048  0.46793859  0.69457475  1.0
  O  O20  1  0.65009326  0.13746494  0.67608238  1.0
  O  O21  1  0.34990674  -0.13746494  0.32391762  1.0
  O  O22  1  0.89617562  -0.28777444  0.20314644  1.0
  O  O23  1  0.10382438  0.28777444  0.79685356  1.0
  O  O24  1  0.74152255  0.81045020  0.95903956  1.0
  O  O25  1  0.25847745  -0.81045020  0.04096044  1.0
  O  O26  1  0.76888988  0.54748819  0.70398548  1.0
  O  O27  1  0.23111012  -0.54748819  0.29601452  1.0
