# generated using pymatgen
data_CaSiF6
_symmetry_space_group_name_H-M   'P 1'
_cell_length_a   5.62866941
_cell_length_b   5.62866941
_cell_length_c   5.62866941
_cell_angle_alpha   59.99844107
_cell_angle_beta   59.99844107
_cell_angle_gamma   59.99844107
_symmetry_Int_Tables_number   1
_chemical_formula_structural   CaSiF6
_chemical_formula_sum   'Ca1 Si1 F6'
_cell_volume   126.09180969
_cell_formula_units_Z   1
loop_
 _symmetry_equiv_pos_site_id
 _symmetry_equiv_pos_as_xyz
  1  'x, y, z'
loop_
 _atom_site_type_symbol
 _atom_site_label
 _atom_site_symmetry_multiplicity
 _atom_site_fract_x
 _atom_site_fract_y
 _atom_site_fract_z
 _atom_site_occupancy
  Ca  Ca0  1  0.50000000  0.50000000  -0.50000000  1.0
  Si  Si1  1  -0.00000000  0.00000000  -0.00000000  1.0
  F  F2  1  0.21569298  0.78471506  -0.78509824  1.0
  F  F3  1  0.78509824  -0.21569298  0.21528494  1.0
  F  F4  1  1.21528494  -0.21490176  -0.21569298  1.0
  F  F5  1  0.78430702  0.21528494  -0.21490176  1.0
  F  F6  1  0.21490176  0.21569298  -0.21528494  1.0
  F  F7  1  0.78471506  0.21490176  -0.78430702  1.0
