# generated using pymatgen
data_LaTl(PSe3)2
_symmetry_space_group_name_H-M   'P 1'
_cell_length_a   12.68273299
_cell_length_b   7.93772236
_cell_length_c   11.99208492
_cell_angle_alpha   90.00000000
_cell_angle_beta   109.31949796
_cell_angle_gamma   90.00000000
_symmetry_Int_Tables_number   1
_chemical_formula_structural   LaTl(PSe3)2
_chemical_formula_sum   'La4 Tl4 P8 Se24'
_cell_volume   1139.28420267
_cell_formula_units_Z   4
loop_
 _symmetry_equiv_pos_site_id
 _symmetry_equiv_pos_as_xyz
  1  'x, y, z'
loop_
 _atom_site_type_symbol
 _atom_site_label
 _atom_site_symmetry_multiplicity
 _atom_site_fract_x
 _atom_site_fract_y
 _atom_site_fract_z
 _atom_site_occupancy
  La  La0  1  0.35143694  0.10315271  0.59566706  1.0
  La  La1  1  0.64856306  0.60315271  0.90433294  1.0
  La  La2  1  0.64856306  0.89684729  0.40433294  1.0
  La  La3  1  0.35143694  0.39684729  0.09566706  1.0
  Tl  Tl4  1  0.12998630  0.90418638  0.87125996  1.0
  Tl  Tl5  1  0.87001370  0.40418638  0.62874004  1.0
  Tl  Tl6  1  0.87001370  0.09581362  0.12874004  1.0
  Tl  Tl7  1  0.12998630  0.59581362  0.37125996  1.0
  P  P8  1  0.67338243  0.09483954  0.74707016  1.0
  P  P9  1  0.32661757  0.59483954  0.75292984  1.0
  P  P10  1  0.32661757  0.90516046  0.25292984  1.0
  P  P11  1  0.67338243  0.40516046  0.24707016  1.0
  P  P12  1  0.21259884  0.38224346  0.76675103  1.0
  P  P13  1  0.78740116  0.88224346  0.73324897  1.0
  P  P14  1  0.78740116  0.61775654  0.23324897  1.0
  P  P15  1  0.21259884  0.11775654  0.26675103  1.0
  Se  Se16  1  0.13177775  0.28928618  0.58469673  1.0
  Se  Se17  1  0.86822225  0.78928618  0.91530327  1.0
  Se  Se18  1  0.86822225  0.71071382  0.41530327  1.0
  Se  Se19  1  0.13177775  0.21071382  0.08469673  1.0
  Se  Se20  1  0.21743450  0.78458655  0.63669542  1.0
  Se  Se21  1  0.78256550  0.28458655  0.86330458  1.0
  Se  Se22  1  0.78256550  0.21541345  0.36330458  1.0
  Se  Se23  1  0.21743450  0.71541345  0.13669542  1.0
  Se  Se24  1  0.32986732  0.18599885  0.86540452  1.0
  Se  Se25  1  0.67013268  0.68599885  0.63459548  1.0
  Se  Se26  1  0.67013268  0.81400115  0.13459548  1.0
  Se  Se27  1  0.32986732  0.31400115  0.36540452  1.0
  Se  Se28  1  0.58861890  0.19063713  0.56543493  1.0
  Se  Se29  1  0.41138110  0.69063713  0.93456507  1.0
  Se  Se30  1  0.41138110  0.80936287  0.43456507  1.0
  Se  Se31  1  0.58861890  0.30936287  0.06543493  1.0
  Se  Se32  1  0.11542523  0.48061900  0.87336671  1.0
  Se  Se33  1  0.88457477  0.98061900  0.62663329  1.0
  Se  Se34  1  0.88457477  0.51938100  0.12663329  1.0
  Se  Se35  1  0.11542523  0.01938100  0.37336671  1.0
  Se  Se36  1  0.44989140  0.47005071  0.68325298  1.0
  Se  Se37  1  0.55010860  0.97005071  0.81674702  1.0
  Se  Se38  1  0.55010860  0.52994929  0.31674702  1.0
  Se  Se39  1  0.44989140  0.02994929  0.18325298  1.0
