# generated using pymatgen
data_Tl4Bi2S5
_symmetry_space_group_name_H-M   'P 1'
_cell_length_a   17.38353537
_cell_length_b   4.15313436
_cell_length_c   17.80903040
_cell_angle_alpha   90.00000000
_cell_angle_beta   90.00000000
_cell_angle_gamma   90.00000000
_symmetry_Int_Tables_number   1
_chemical_formula_structural   Tl4Bi2S5
_chemical_formula_sum   'Tl16 Bi8 S20'
_cell_volume   1285.74357378
_cell_formula_units_Z   4
loop_
 _symmetry_equiv_pos_site_id
 _symmetry_equiv_pos_as_xyz
  1  'x, y, z'
loop_
 _atom_site_type_symbol
 _atom_site_label
 _atom_site_symmetry_multiplicity
 _atom_site_fract_x
 _atom_site_fract_y
 _atom_site_fract_z
 _atom_site_occupancy
  Tl  Tl0  1  0.93126457  0.75000000  0.41600868  1.0
  Tl  Tl1  1  0.43126457  0.75000000  0.08399132  1.0
  Tl  Tl2  1  0.06873543  0.25000000  0.58399132  1.0
  Tl  Tl3  1  0.56873543  0.25000000  0.91600868  1.0
  Tl  Tl4  1  0.68924569  0.75000000  0.42008284  1.0
  Tl  Tl5  1  0.18924569  0.75000000  0.07991716  1.0
  Tl  Tl6  1  0.31075431  0.25000000  0.57991716  1.0
  Tl  Tl7  1  0.81075431  0.25000000  0.92008284  1.0
  Tl  Tl8  1  0.68314301  0.75000000  0.07377762  1.0
  Tl  Tl9  1  0.18314301  0.75000000  0.42622238  1.0
  Tl  Tl10  1  0.31685699  0.25000000  0.92622238  1.0
  Tl  Tl11  1  0.81685699  0.25000000  0.57377762  1.0
  Tl  Tl12  1  0.68521803  0.75000000  0.76051040  1.0
  Tl  Tl13  1  0.18521803  0.75000000  0.73948960  1.0
  Tl  Tl14  1  0.31478197  0.25000000  0.23948960  1.0
  Tl  Tl15  1  0.81478197  0.25000000  0.26051040  1.0
  Bi  Bi16  1  0.94204553  0.75000000  0.08848359  1.0
  Bi  Bi17  1  0.44204553  0.75000000  0.41151641  1.0
  Bi  Bi18  1  0.05795447  0.25000000  0.91151641  1.0
  Bi  Bi19  1  0.55795447  0.25000000  0.58848359  1.0
  Bi  Bi20  1  0.93101916  0.75000000  0.74426007  1.0
  Bi  Bi21  1  0.43101916  0.75000000  0.75573993  1.0
  Bi  Bi22  1  0.06898084  0.25000000  0.25573993  1.0
  Bi  Bi23  1  0.56898084  0.25000000  0.24426007  1.0
  S  S24  1  0.95014249  0.75000000  0.59437042  1.0
  S  S25  1  0.45014249  0.75000000  0.90562958  1.0
  S  S26  1  0.04985751  0.25000000  0.40562958  1.0
  S  S27  1  0.54985751  0.25000000  0.09437042  1.0
  S  S28  1  0.95491571  0.75000000  0.24116323  1.0
  S  S29  1  0.45491571  0.75000000  0.25883677  1.0
  S  S30  1  0.04508429  0.25000000  0.75883677  1.0
  S  S31  1  0.54508429  0.25000000  0.74116323  1.0
  S  S32  1  0.67885965  0.75000000  0.23792404  1.0
  S  S33  1  0.17885965  0.75000000  0.26207596  1.0
  S  S34  1  0.32114035  0.25000000  0.76207596  1.0
  S  S35  1  0.82114035  0.25000000  0.73792404  1.0
  S  S36  1  0.66356186  0.75000000  0.59575172  1.0
  S  S37  1  0.16356186  0.75000000  0.90424828  1.0
  S  S38  1  0.33643814  0.25000000  0.40424828  1.0
  S  S39  1  0.83643814  0.25000000  0.09575172  1.0
  S  S40  1  0.43577921  0.75000000  0.58144077  1.0
  S  S41  1  0.93577921  0.75000000  0.91855923  1.0
  S  S42  1  0.56422079  0.25000000  0.41855923  1.0
  S  S43  1  0.06422079  0.25000000  0.08144077  1.0
