# generated using pymatgen
data_V3Ga2N
_symmetry_space_group_name_H-M   'P 1'
_cell_length_a   6.60094486
_cell_length_b   6.60094486
_cell_length_c   6.60094486
_cell_angle_alpha   90.00000000
_cell_angle_beta   90.00000000
_cell_angle_gamma   90.00000000
_symmetry_Int_Tables_number   1
_chemical_formula_structural   V3Ga2N
_chemical_formula_sum   'V12 Ga8 N4'
_cell_volume   287.61949220
_cell_formula_units_Z   4
loop_
 _symmetry_equiv_pos_site_id
 _symmetry_equiv_pos_as_xyz
  1  'x, y, z'
loop_
 _atom_site_type_symbol
 _atom_site_label
 _atom_site_symmetry_multiplicity
 _atom_site_fract_x
 _atom_site_fract_y
 _atom_site_fract_z
 _atom_site_occupancy
  V  V0  1  0.37500000  0.79205279  0.95794721  1.0
  V  V1  1  0.12500000  0.20794721  0.45794721  1.0
  V  V2  1  0.62500000  0.29205279  0.54205279  1.0
  V  V3  1  0.87500000  0.70794721  0.04205279  1.0
  V  V4  1  0.29205279  0.54205279  0.62500000  1.0
  V  V5  1  0.04205279  0.87500000  0.70794721  1.0
  V  V6  1  0.54205279  0.62500000  0.29205279  1.0
  V  V7  1  0.79205279  0.95794721  0.37500000  1.0
  V  V8  1  0.70794721  0.04205279  0.87500000  1.0
  V  V9  1  0.45794721  0.12500000  0.20794721  1.0
  V  V10  1  0.95794721  0.37500000  0.79205279  1.0
  V  V11  1  0.20794721  0.45794721  0.12500000  1.0
  Ga  Ga12  1  0.43117125  0.93117125  0.56882875  1.0
  Ga  Ga13  1  0.18117125  0.81882875  0.31882875  1.0
  Ga  Ga14  1  0.68117125  0.68117125  0.68117125  1.0
  Ga  Ga15  1  0.93117125  0.56882875  0.43117125  1.0
  Ga  Ga16  1  0.56882875  0.43117125  0.93117125  1.0
  Ga  Ga17  1  0.31882875  0.18117125  0.81882875  1.0
  Ga  Ga18  1  0.81882875  0.31882875  0.18117125  1.0
  Ga  Ga19  1  0.06882875  0.06882875  0.06882875  1.0
  N  N20  1  0.12500000  0.62500000  0.87500000  1.0
  N  N21  1  0.87500000  0.12500000  0.62500000  1.0
  N  N22  1  0.37500000  0.37500000  0.37500000  1.0
  N  N23  1  0.62500000  0.87500000  0.12500000  1.0
