# generated using pymatgen
data_Li2SiF6
_symmetry_space_group_name_H-M   'P 1'
_cell_length_a   8.33828905
_cell_length_b   8.33828905
_cell_length_c   4.63784343
_cell_angle_alpha   90.00000000
_cell_angle_beta   90.00000000
_cell_angle_gamma   120.00000000
_symmetry_Int_Tables_number   1
_chemical_formula_structural   Li2SiF6
_chemical_formula_sum   'Li6 Si3 F18'
_cell_volume   279.25477440
_cell_formula_units_Z   3
loop_
 _symmetry_equiv_pos_site_id
 _symmetry_equiv_pos_as_xyz
  1  'x, y, z'
loop_
 _atom_site_type_symbol
 _atom_site_label
 _atom_site_symmetry_multiplicity
 _atom_site_fract_x
 _atom_site_fract_y
 _atom_site_fract_z
 _atom_site_occupancy
  Li  Li0  1  0.70602346  0.70602346  0.50000000  1.0
  Li  Li1  1  0.00000000  0.29397654  0.50000000  1.0
  Li  Li2  1  0.29397654  0.00000000  0.50000000  1.0
  Li  Li3  1  0.37085180  0.37085180  0.00000000  1.0
  Li  Li4  1  -0.00000000  0.62914820  0.00000000  1.0
  Li  Li5  1  0.62914820  0.00000000  0.00000000  1.0
  Si  Si6  1  0.33333333  0.66666667  0.48179548  1.0
  Si  Si7  1  0.66666667  0.33333333  0.51820452  1.0
  Si  Si8  1  0.00000000  0.00000000  0.00000000  1.0
  F  F9  1  0.09389088  0.89836774  0.21001498  1.0
  F  F10  1  0.89836774  0.09389088  0.78998502  1.0
  F  F11  1  0.80447686  0.90610912  0.21001498  1.0
  F  F12  1  0.10163226  0.19552314  0.21001498  1.0
  F  F13  1  0.90610912  0.80447686  0.78998502  1.0
  F  F14  1  0.19552314  0.10163226  0.78998502  1.0
  F  F15  1  0.41851254  0.86162891  0.27031334  1.0
  F  F16  1  0.86162891  0.41851254  0.72968666  1.0
  F  F17  1  0.44311637  0.58148746  0.27031334  1.0
  F  F18  1  0.13837109  0.55688363  0.27031334  1.0
  F  F19  1  0.58148746  0.44311637  0.72968666  1.0
  F  F20  1  0.55688363  0.13837109  0.72968666  1.0
  F  F21  1  0.77181260  0.52902902  0.30740922  1.0
  F  F22  1  0.52902902  0.77181260  0.69259078  1.0
  F  F23  1  0.75721642  0.22818740  0.30740922  1.0
  F  F24  1  0.47097098  0.24278358  0.30740922  1.0
  F  F25  1  0.22818740  0.75721642  0.69259078  1.0
  F  F26  1  0.24278358  0.47097098  0.69259078  1.0
