# generated using pymatgen
data_LaGaSe2O
_symmetry_space_group_name_H-M   'P 1'
_cell_length_a   6.01338160
_cell_length_b   12.44605160
_cell_length_c   5.99515510
_cell_angle_alpha   90.00000000
_cell_angle_beta   90.00000000
_cell_angle_gamma   90.00000000
_symmetry_Int_Tables_number   1
_chemical_formula_structural   LaGaSe2O
_chemical_formula_sum   'La4 Ga4 Se8 O4'
_cell_volume   448.69454011
_cell_formula_units_Z   4
loop_
 _symmetry_equiv_pos_site_id
 _symmetry_equiv_pos_as_xyz
  1  'x, y, z'
loop_
 _atom_site_type_symbol
 _atom_site_label
 _atom_site_symmetry_multiplicity
 _atom_site_fract_x
 _atom_site_fract_y
 _atom_site_fract_z
 _atom_site_occupancy
  La  La0  1  0.49717949  0.40526653  0.50168441  1.0
  La  La1  1  0.99717949  0.59473347  0.50168441  1.0
  La  La2  1  0.50282051  0.59473347  0.00168441  1.0
  La  La3  1  0.00282051  0.40526653  0.00168441  1.0
  Ga  Ga4  1  0.42164482  0.10216711  0.91157294  1.0
  Ga  Ga5  1  0.92164482  0.89783289  0.91157294  1.0
  Ga  Ga6  1  0.57835518  0.89783289  0.41157294  1.0
  Ga  Ga7  1  0.07835518  0.10216711  0.41157294  1.0
  Se  Se8  1  0.47650464  0.08507696  0.50461987  1.0
  Se  Se9  1  0.97650464  0.91492304  0.50461987  1.0
  Se  Se10  1  0.52349536  0.91492304  0.00461987  1.0
  Se  Se11  1  0.02349536  0.08507696  0.00461987  1.0
  Se  Se12  1  0.99420210  0.28088964  0.50300138  1.0
  Se  Se13  1  0.49420210  0.71911036  0.50300138  1.0
  Se  Se14  1  0.00579790  0.71911036  0.00300138  1.0
  Se  Se15  1  0.50579790  0.28088964  0.00300138  1.0
  O  O16  1  0.25067295  0.50153038  0.74842140  1.0
  O  O17  1  0.75067295  0.49846962  0.74842140  1.0
  O  O18  1  0.74932705  0.49846962  0.24842140  1.0
  O  O19  1  0.24932705  0.50153038  0.24842140  1.0
