# generated using pymatgen
data_NaP7
_symmetry_space_group_name_H-M   'P 1'
_cell_length_a   12.71903060
_cell_length_b   12.71903060
_cell_length_c   12.71903060
_cell_angle_alpha   110.31576248
_cell_angle_beta   110.31576248
_cell_angle_gamma   107.79502818
_symmetry_Int_Tables_number   1
_chemical_formula_structural   NaP7
_chemical_formula_sum   'Na8 P56'
_cell_volume   1582.93211133
_cell_formula_units_Z   8
loop_
 _symmetry_equiv_pos_site_id
 _symmetry_equiv_pos_as_xyz
  1  'x, y, z'
loop_
 _atom_site_type_symbol
 _atom_site_label
 _atom_site_symmetry_multiplicity
 _atom_site_fract_x
 _atom_site_fract_y
 _atom_site_fract_z
 _atom_site_occupancy
  Na  Na0  1  1.13447505  0.36552495  1.00000000  1.0
  Na  Na1  1  0.63447505  0.63447505  0.76895011  1.0
  Na  Na2  1  0.38447505  0.11552495  0.50000000  1.0
  Na  Na3  1  0.88447505  0.38447505  1.26895011  1.0
  Na  Na4  1  0.36552495  1.13447505  1.00000000  1.0
  Na  Na5  1  0.86552495  0.86552495  0.23104989  1.0
  Na  Na6  1  0.61552495  0.88447505  0.50000000  1.0
  Na  Na7  1  1.11552495  0.61552495  0.73104989  1.0
  P  P8  1  1.12500000  0.39668823  0.77168823  1.0
  P  P9  1  0.62500000  0.85331177  0.72831177  1.0
  P  P10  1  1.12500000  0.89668823  0.27168823  1.0
  P  P11  1  0.62500000  1.35331177  1.22831177  1.0
  P  P12  1  0.60331177  0.37500000  0.72831177  1.0
  P  P13  1  1.14668823  0.87500000  0.77168823  1.0
  P  P14  1  1.10331177  0.37500000  1.22831177  1.0
  P  P15  1  0.64668823  0.87500000  1.27168823  1.0
  P  P16  1  0.96465828  1.20236632  1.61877702  1.0
  P  P17  1  0.46465828  0.84588126  0.76229196  1.0
  P  P18  1  1.16641070  1.90411874  1.11877702  1.0
  P  P19  1  0.66641070  0.54763368  0.26229196  1.0
  P  P20  1  0.58358930  0.34588126  0.38122298  1.0
  P  P21  1  1.08358930  0.70236632  1.23770804  1.0
  P  P22  1  0.78534172  1.04763368  0.88122298  1.0
  P  P23  1  1.28534172  1.40411874  0.73770804  1.0
  P  P24  1  0.79763368  0.41641070  0.76229196  1.0
  P  P25  1  1.15411874  0.91641070  1.61877702  1.0
  P  P26  1  0.09588126  0.21465828  0.26229196  1.0
  P  P27  1  0.45236632  0.71465828  1.11877702  1.0
  P  P28  1  0.65411874  1.03534172  1.23770804  1.0
  P  P29  1  0.29763368  0.53534172  0.38122298  1.0
  P  P30  1  0.95236632  0.83358930  0.73770804  1.0
  P  P31  1  0.59588126  1.33358930  0.88122298  1.0
  P  P32  1  1.04092028  1.27654044  0.41195460  1.0
  P  P33  1  0.54092028  1.12896567  0.76437984  1.0
  P  P34  1  0.88541417  0.62103433  0.91195460  1.0
  P  P35  1  0.38541417  0.47345956  0.26437984  1.0
  P  P36  1  0.86458583  0.62896567  0.58804540  1.0
  P  P37  1  1.36458583  1.77654044  1.23562016  1.0
  P  P38  1  1.70907972  0.97345956  1.08804540  1.0
  P  P39  1  1.20907972  1.12103433  0.73562016  1.0
  P  P40  1  0.72345956  1.13541417  0.76437984  1.0
  P  P41  1  0.87103433  0.63541417  0.41195460  1.0
  P  P42  1  0.37896567  0.29092028  0.26437984  1.0
  P  P43  1  0.52654044  0.79092028  0.91195460  1.0
  P  P44  1  0.37103433  0.95907972  1.23562016  1.0
  P  P45  1  0.22345956  0.45907972  0.58804540  1.0
  P  P46  1  1.02654044  1.11458583  0.73562016  1.0
  P  P47  1  0.87896567  1.61458583  1.08804540  1.0
  P  P48  1  1.02254939  1.13158501  0.47467582  1.0
  P  P49  1  0.52254939  1.04787356  0.89096438  1.0
  P  P50  1  1.09309082  0.70212644  0.97467582  1.0
  P  P51  1  0.59309082  0.61841499  0.39096438  1.0
  P  P52  1  0.65690918  0.54787356  0.52532418  1.0
  P  P53  1  1.15690918  1.63158501  1.10903562  1.0
  P  P54  1  1.72745061  1.11841499  1.02532418  1.0
  P  P55  1  1.22745061  1.20212644  0.60903562  1.0
  P  P56  1  0.86841499  1.34309082  0.89096438  1.0
  P  P57  1  0.95212644  0.84309082  0.47467582  1.0
  P  P58  1  0.29787356  0.27254939  0.39096438  1.0
  P  P59  1  1.38158501  0.77254939  0.97467582  1.0
  P  P60  1  0.45212644  0.97745061  1.10903562  1.0
  P  P61  1  0.36841499  0.47745061  0.52532418  1.0
  P  P62  1  0.88158501  0.90690918  0.60903562  1.0
  P  P63  1  0.79787356  0.40690918  1.02532418  1.0
