# generated using pymatgen
data_Y4Fe
_symmetry_space_group_name_H-M   'P 1'
_cell_length_a   7.48023641
_cell_length_b   7.48023641
_cell_length_c   7.48023641
_cell_angle_alpha   60.00000000
_cell_angle_beta   60.00000000
_cell_angle_gamma   60.00000000
_symmetry_Int_Tables_number   1
_chemical_formula_structural   Y4Fe
_chemical_formula_sum   'Y8 Fe2'
_cell_volume   295.95860609
_cell_formula_units_Z   2
loop_
 _symmetry_equiv_pos_site_id
 _symmetry_equiv_pos_as_xyz
  1  'x, y, z'
loop_
 _atom_site_type_symbol
 _atom_site_label
 _atom_site_symmetry_multiplicity
 _atom_site_fract_x
 _atom_site_fract_y
 _atom_site_fract_z
 _atom_site_occupancy
  Y  Y0  1  -0.11530789  0.88469211  0.34592368  1.0
  Y  Y1  1  0.88469211  -0.65407632  0.88469211  1.0
  Y  Y2  1  0.36530789  0.36530789  0.36530789  1.0
  Y  Y3  1  -0.09592368  0.36530789  0.36530789  1.0
  Y  Y4  1  -0.65407632  0.88469211  0.88469211  1.0
  Y  Y5  1  0.88469211  -0.11530789  0.88469211  1.0
  Y  Y6  1  0.36530789  -0.09592368  0.36530789  1.0
  Y  Y7  1  0.36530789  0.36530789  -0.09592368  1.0
  Fe  Fe8  1  0.50000000  0.50000000  -0.50000000  1.0
  Fe  Fe9  1  0.75000000  -0.25000000  0.75000000  1.0
