# generated using pymatgen
data_Cu2Te2Br2O5
_symmetry_space_group_name_H-M   'P 1'
_cell_length_a   8.05244088
_cell_length_b   8.05244088
_cell_length_c   6.52705053
_cell_angle_alpha   90.00000000
_cell_angle_beta   90.00000000
_cell_angle_gamma   90.00000000
_symmetry_Int_Tables_number   1
_chemical_formula_structural   Cu2Te2Br2O5
_chemical_formula_sum   'Cu4 Te4 Br4 O10'
_cell_volume   423.22573130
_cell_formula_units_Z   2
loop_
 _symmetry_equiv_pos_site_id
 _symmetry_equiv_pos_as_xyz
  1  'x, y, z'
loop_
 _atom_site_type_symbol
 _atom_site_label
 _atom_site_symmetry_multiplicity
 _atom_site_fract_x
 _atom_site_fract_y
 _atom_site_fract_z
 _atom_site_occupancy
  Br  Br0  1  0.26040966  0.41049467  0.30759390  1.0
  Br  Br1  1  0.41049467  0.73959034  0.69240610  1.0
  Br  Br2  1  0.73959034  0.58950533  0.30759390  1.0
  Br  Br3  1  0.58950533  0.26040966  0.69240610  1.0
  Cu  Cu4  1  0.22258040  0.97025325  0.64785395  1.0
  Cu  Cu5  1  0.97025325  0.77741960  0.35214605  1.0
  Cu  Cu6  1  0.77741960  0.02974675  0.64785395  1.0
  Cu  Cu7  1  0.02974675  0.22258040  0.35214605  1.0
  O  O8  1  0.04205882  0.74765956  0.06943929  1.0
  O  O9  1  0.74765956  0.95794118  0.93056071  1.0
  O  O10  1  0.95794118  0.25234044  0.06943929  1.0
  O  O11  1  0.25234044  0.04205882  0.93056071  1.0
  O  O12  1  0.50000000  0.00000000  0.24952546  1.0
  O  O13  1  0.00000000  0.50000000  0.75047454  1.0
  O  O14  1  0.16791013  0.93244932  0.36065411  1.0
  O  O15  1  0.93244932  0.83208987  0.63934589  1.0
  O  O16  1  0.83208987  0.06755068  0.36065411  1.0
  O  O17  1  0.06755068  0.16791013  0.63934589  1.0
  Te  Te18  1  0.31370059  0.86465294  0.12613072  1.0
  Te  Te19  1  0.86465294  0.68629941  0.87386928  1.0
  Te  Te20  1  0.68629941  0.13534706  0.12613072  1.0
  Te  Te21  1  0.13534706  0.31370059  0.87386928  1.0
