# generated using pymatgen
data_BaLaCuTe3
_symmetry_space_group_name_H-M   'P 1'
_cell_length_a   12.00985475
_cell_length_b   4.54903115
_cell_length_c   14.99629810
_cell_angle_alpha   90.00000000
_cell_angle_beta   90.00000000
_cell_angle_gamma   90.00000000
_symmetry_Int_Tables_number   1
_chemical_formula_structural   BaLaCuTe3
_chemical_formula_sum   'Ba4 La4 Cu4 Te12'
_cell_volume   819.29580436
_cell_formula_units_Z   4
loop_
 _symmetry_equiv_pos_site_id
 _symmetry_equiv_pos_as_xyz
  1  'x, y, z'
loop_
 _atom_site_type_symbol
 _atom_site_label
 _atom_site_symmetry_multiplicity
 _atom_site_fract_x
 _atom_site_fract_y
 _atom_site_fract_z
 _atom_site_occupancy
  Ba  Ba0  1  0.72285264  0.75000000  0.00141856  1.0
  Ba  Ba1  1  0.22285264  0.75000000  0.49858144  1.0
  Ba  Ba2  1  0.27714736  0.25000000  0.99858144  1.0
  Ba  Ba3  1  0.77714736  0.25000000  0.50141856  1.0
  La  La4  1  0.98116288  0.75000000  0.75873537  1.0
  La  La5  1  0.48116288  0.75000000  0.74126463  1.0
  La  La6  1  0.01883712  0.25000000  0.24126463  1.0
  La  La7  1  0.51883712  0.25000000  0.25873537  1.0
  Cu  Cu8  1  0.76213487  0.75000000  0.28070985  1.0
  Cu  Cu9  1  0.26213487  0.75000000  0.21929015  1.0
  Cu  Cu10  1  0.23786513  0.25000000  0.71929015  1.0
  Cu  Cu11  1  0.73786513  0.25000000  0.78070985  1.0
  Te  Te12  1  0.94672158  0.75000000  0.38327988  1.0
  Te  Te13  1  0.44672158  0.75000000  0.11672012  1.0
  Te  Te14  1  0.05327842  0.25000000  0.61672012  1.0
  Te  Te15  1  0.55327842  0.25000000  0.88327988  1.0
  Te  Te16  1  0.73603754  0.75000000  0.67827629  1.0
  Te  Te17  1  0.23603754  0.75000000  0.82172371  1.0
  Te  Te18  1  0.26396246  0.25000000  0.32172371  1.0
  Te  Te19  1  0.76396246  0.25000000  0.17827629  1.0
  Te  Te20  1  0.59387668  0.75000000  0.39636488  1.0
  Te  Te21  1  0.09387668  0.75000000  0.10363512  1.0
  Te  Te22  1  0.40612332  0.25000000  0.60363512  1.0
  Te  Te23  1  0.90612332  0.25000000  0.89636488  1.0
