# generated using pymatgen
data_LiLa2ReO6
_symmetry_space_group_name_H-M   'P 1'
_cell_length_a   5.59349998
_cell_length_b   5.79893349
_cell_length_c   9.64470274
_cell_angle_alpha   90.00000000
_cell_angle_beta   124.86643419
_cell_angle_gamma   90.00000000
_symmetry_Int_Tables_number   1
_chemical_formula_structural   LiLa2ReO6
_chemical_formula_sum   'Li2 La4 Re2 O12'
_cell_volume   256.68014534
_cell_formula_units_Z   2
loop_
 _symmetry_equiv_pos_site_id
 _symmetry_equiv_pos_as_xyz
  1  'x, y, z'
loop_
 _atom_site_type_symbol
 _atom_site_label
 _atom_site_symmetry_multiplicity
 _atom_site_fract_x
 _atom_site_fract_y
 _atom_site_fract_z
 _atom_site_occupancy
  Li  Li0  1  0.50000000  0.50000000  0.00000000  1.0
  Li  Li1  1  0.50000000  0.00000000  0.50000000  1.0
  La  La2  1  0.73492178  0.05810092  0.24755200  1.0
  La  La3  1  0.73492178  0.44189908  0.74755200  1.0
  La  La4  1  0.26507822  0.55810092  0.25244800  1.0
  La  La5  1  0.26507822  0.94189908  0.75244800  1.0
  Re  Re6  1  -0.00000000  0.50000000  0.50000000  1.0
  Re  Re7  1  0.00000000  0.00000000  0.00000000  1.0
  O  O8  1  0.84689479  0.47459164  0.25800148  1.0
  O  O9  1  0.84689479  1.02540836  0.75800148  1.0
  O  O10  1  0.15310521  -0.02540836  0.24199852  1.0
  O  O11  1  0.15310521  0.52540836  0.74199852  1.0
  O  O12  1  0.76540739  0.78074037  0.45107529  1.0
  O  O13  1  0.76540739  0.71925963  0.95107529  1.0
  O  O14  1  0.23459261  0.28074037  0.04892471  1.0
  O  O15  1  0.23459261  0.21925963  0.54892471  1.0
  O  O16  1  0.66552578  0.30830710  0.45503608  1.0
  O  O17  1  0.66552578  0.19169290  -0.04496392  1.0
  O  O18  1  0.33447422  0.80830710  1.04496392  1.0
  O  O19  1  0.33447422  0.69169290  0.54496392  1.0
