# generated using pymatgen
data_Gd(BRh)4
_symmetry_space_group_name_H-M   'P 1'
_cell_length_a   5.33722868
_cell_length_b   5.33722868
_cell_length_c   7.47274894
_cell_angle_alpha   90.00000000
_cell_angle_beta   90.00000000
_cell_angle_gamma   90.00000000
_symmetry_Int_Tables_number   1
_chemical_formula_structural   Gd(BRh)4
_chemical_formula_sum   'Gd2 B8 Rh8'
_cell_volume   212.86880076
_cell_formula_units_Z   2
loop_
 _symmetry_equiv_pos_site_id
 _symmetry_equiv_pos_as_xyz
  1  'x, y, z'
loop_
 _atom_site_type_symbol
 _atom_site_label
 _atom_site_symmetry_multiplicity
 _atom_site_fract_x
 _atom_site_fract_y
 _atom_site_fract_z
 _atom_site_occupancy
  Gd  Gd0  1  0.00000000  0.00000000  0.00000000  1.0
  Gd  Gd1  1  0.50000000  0.50000000  0.50000000  1.0
  B  B2  1  0.83111243  0.50000000  0.15018628  1.0
  B  B3  1  0.16888757  0.50000000  0.15018628  1.0
  B  B4  1  0.00000000  0.33111243  0.65018628  1.0
  B  B5  1  0.00000000  0.66888757  0.65018628  1.0
  B  B6  1  0.66888757  0.00000000  0.34981372  1.0
  B  B7  1  0.33111243  0.00000000  0.34981372  1.0
  B  B8  1  0.50000000  0.16888757  0.84981372  1.0
  B  B9  1  0.50000000  0.83111243  0.84981372  1.0
  Rh  Rh10  1  0.25147155  0.50000000  0.85530603  1.0
  Rh  Rh11  1  0.74852845  0.50000000  0.85530603  1.0
  Rh  Rh12  1  0.00000000  0.75147155  0.35530603  1.0
  Rh  Rh13  1  0.00000000  0.24852845  0.35530603  1.0
  Rh  Rh14  1  0.24852845  0.00000000  0.64469397  1.0
  Rh  Rh15  1  0.75147155  0.00000000  0.64469397  1.0
  Rh  Rh16  1  0.50000000  0.74852845  0.14469397  1.0
  Rh  Rh17  1  0.50000000  0.25147155  0.14469397  1.0
