# generated using pymatgen
data_Na8Si7O18
_symmetry_space_group_name_H-M   'P 1'
_cell_length_a   7.26832845
_cell_length_b   7.26832845
_cell_length_c   7.26832845
_cell_angle_alpha   87.14750970
_cell_angle_beta   87.14750970
_cell_angle_gamma   87.14750970
_symmetry_Int_Tables_number   1
_chemical_formula_structural   Na8Si7O18
_chemical_formula_sum   'Na8 Si7 O18'
_cell_volume   382.59404997
_cell_formula_units_Z   1
loop_
 _symmetry_equiv_pos_site_id
 _symmetry_equiv_pos_as_xyz
  1  'x, y, z'
loop_
 _atom_site_type_symbol
 _atom_site_label
 _atom_site_symmetry_multiplicity
 _atom_site_fract_x
 _atom_site_fract_y
 _atom_site_fract_z
 _atom_site_occupancy
  Na  Na0  1  1.23629848  1.23629848  0.23629848  1.0
  Na  Na1  1  0.76370152  0.76370152  -0.23629848  1.0
  Na  Na2  1  0.50000000  -0.50000000  -0.00000000  1.0
  Na  Na3  1  0.50000000  1.00000000  -0.50000000  1.0
  Na  Na4  1  0.00000000  0.50000000  -0.50000000  1.0
  Na  Na5  1  1.00000000  -0.00000000  -0.50000000  1.0
  Na  Na6  1  1.00000000  1.50000000  -0.00000000  1.0
  Na  Na7  1  0.50000000  0.00000000  -0.00000000  1.0
  Si  Si8  1  0.00000000  0.00000000  0.00000000  1.0
  Si  Si9  1  0.27205480  0.73923418  -0.72786520  1.0
  Si  Si10  1  0.73923418  0.27213480  -0.72794520  1.0
  Si  Si11  1  0.27213480  0.27205480  -0.26076582  1.0
  Si  Si12  1  0.72794520  0.26076582  -0.27213480  1.0
  Si  Si13  1  0.26076582  0.72786520  -0.27205480  1.0
  Si  Si14  1  0.72786520  0.72794520  -0.73923418  1.0
  O  O15  1  1.21276677  1.54456974  0.21293424  1.0
  O  O16  1  1.54456974  1.21293424  0.21276677  1.0
  O  O17  1  1.21293424  1.21276677  0.54456974  1.0
  O  O18  1  0.78723323  0.45543026  -0.21293424  1.0
  O  O19  1  0.45543026  0.78706576  -0.21276677  1.0
  O  O20  1  0.78706576  0.78723323  -0.54456974  1.0
  O  O21  1  0.16898574  0.91867819  -0.83091182  1.0
  O  O22  1  0.91867819  0.16908818  -0.83101426  1.0
  O  O23  1  0.16908818  0.16898574  -0.08132181  1.0
  O  O24  1  0.83101426  0.08132181  -0.16908818  1.0
  O  O25  1  1.08132181  -0.16908818  -0.16898574  1.0
  O  O26  1  0.83091182  -0.16898574  0.08132181  1.0
  O  O27  1  0.49995383  0.76567562  -0.76569210  1.0
  O  O28  1  0.76567562  0.23430790  -0.50004617  1.0
  O  O29  1  0.23430790  0.49995383  -0.23432438  1.0
  O  O30  1  0.50004617  0.23432438  -0.23430790  1.0
  O  O31  1  0.23432438  0.76569210  -0.49995383  1.0
  O  O32  1  0.76569210  0.50004617  -0.76567562  1.0
