# generated using pymatgen
data_CIN
_symmetry_space_group_name_H-M   'P 1'
_cell_length_a   4.93982711
_cell_length_b   4.93982711
_cell_length_c   4.93982711
_cell_angle_alpha   105.52394464
_cell_angle_beta   105.52394464
_cell_angle_gamma   105.52394464
_symmetry_Int_Tables_number   1
_chemical_formula_structural   CIN
_chemical_formula_sum   'C1 I1 N1'
_cell_volume   104.16605873
_cell_formula_units_Z   1
loop_
 _symmetry_equiv_pos_site_id
 _symmetry_equiv_pos_as_xyz
  1  'x, y, z'
loop_
 _atom_site_type_symbol
 _atom_site_label
 _atom_site_symmetry_multiplicity
 _atom_site_fract_x
 _atom_site_fract_y
 _atom_site_fract_z
 _atom_site_occupancy
  C  C0  1  0.19660861  0.19660861  0.19660861  1.0
  I  I1  1  0.54684106  0.54684106  0.54684106  1.0
  N  N2  1  -0.00344967  -0.00344967  -0.00344967  1.0
