# generated using pymatgen
data_B9N
_symmetry_space_group_name_H-M   'P 1'
_cell_length_a   5.34460398
_cell_length_b   5.34460398
_cell_length_c   5.34460398
_cell_angle_alpha   111.77586193
_cell_angle_beta   111.77586193
_cell_angle_gamma   104.95419269
_symmetry_Int_Tables_number   1
_chemical_formula_structural   B9N
_chemical_formula_sum   'B9 N1'
_cell_volume   116.98135406
_cell_formula_units_Z   1
loop_
 _symmetry_equiv_pos_site_id
 _symmetry_equiv_pos_as_xyz
  1  'x, y, z'
loop_
 _atom_site_type_symbol
 _atom_site_label
 _atom_site_symmetry_multiplicity
 _atom_site_fract_x
 _atom_site_fract_y
 _atom_site_fract_z
 _atom_site_occupancy
  B  B0  1  0.73970028  1.00000000  0.73970028  1.0
  B  B1  1  1.26029972  1.00000000  1.26029972  1.0
  B  B2  1  -0.00000000  0.26029972  0.26029972  1.0
  B  B3  1  -0.00000000  0.73970028  0.73970028  1.0
  B  B4  1  0.12512963  0.62512963  0.50000000  1.0
  B  B5  1  0.87487037  1.37487037  0.50000000  1.0
  B  B6  1  0.37487037  0.87487037  0.50000000  1.0
  B  B7  1  0.62512963  1.12512963  0.50000000  1.0
  B  B8  1  0.00000000  0.00000000  0.00000000  1.0
  N  N9  1  0.50000000  0.50000000  0.00000000  1.0
