# generated using pymatgen
data_Sc3B2Rh5
_symmetry_space_group_name_H-M   'P 1'
_cell_length_a   9.48430603
_cell_length_b   9.48430603
_cell_length_c   3.11141050
_cell_angle_alpha   90.00000000
_cell_angle_beta   90.00000000
_cell_angle_gamma   90.00000000
_symmetry_Int_Tables_number   1
_chemical_formula_structural   Sc3B2Rh5
_chemical_formula_sum   'Sc6 B4 Rh10'
_cell_volume   279.87778635
_cell_formula_units_Z   2
loop_
 _symmetry_equiv_pos_site_id
 _symmetry_equiv_pos_as_xyz
  1  'x, y, z'
loop_
 _atom_site_type_symbol
 _atom_site_label
 _atom_site_symmetry_multiplicity
 _atom_site_fract_x
 _atom_site_fract_y
 _atom_site_fract_z
 _atom_site_occupancy
  Sc  Sc0  1  0.32543571  0.17456429  0.00000000  1.0
  Sc  Sc1  1  0.82543571  0.32543571  0.00000000  1.0
  Sc  Sc2  1  0.67456429  0.82543571  0.00000000  1.0
  Sc  Sc3  1  0.17456429  0.67456429  0.00000000  1.0
  Sc  Sc4  1  0.50000000  0.50000000  0.00000000  1.0
  Sc  Sc5  1  0.00000000  0.00000000  0.00000000  1.0
  B  B6  1  0.87692690  0.62307310  0.00000000  1.0
  B  B7  1  0.37692690  0.87692690  0.00000000  1.0
  B  B8  1  0.12307310  0.37692690  0.00000000  1.0
  B  B9  1  0.62307310  0.12307310  0.00000000  1.0
  Rh  Rh10  1  0.42852666  0.72305015  0.50000000  1.0
  Rh  Rh11  1  0.92852666  0.77694985  0.50000000  1.0
  Rh  Rh12  1  0.27694985  0.42852666  0.50000000  1.0
  Rh  Rh13  1  0.77694985  0.07147334  0.50000000  1.0
  Rh  Rh14  1  0.57147334  0.27694985  0.50000000  1.0
  Rh  Rh15  1  0.07147334  0.22305015  0.50000000  1.0
  Rh  Rh16  1  0.72305015  0.57147334  0.50000000  1.0
  Rh  Rh17  1  0.22305015  0.92852666  0.50000000  1.0
  Rh  Rh18  1  0.50000000  0.00000000  0.50000000  1.0
  Rh  Rh19  1  0.00000000  0.50000000  0.50000000  1.0
