# generated using pymatgen
data_Ge2PbC6O7
_symmetry_space_group_name_H-M   'P 1'
_cell_length_a   5.12698684
_cell_length_b   16.24044850
_cell_length_c   7.49045510
_cell_angle_alpha   76.81400761
_cell_angle_beta   102.75501151
_cell_angle_gamma   93.76200434
_symmetry_Int_Tables_number   1
_chemical_formula_structural   Ge2PbC6O7
_chemical_formula_sum   'Ge4 Pb2 C12 O14'
_cell_volume   592.18437105
_cell_formula_units_Z   2
loop_
 _symmetry_equiv_pos_site_id
 _symmetry_equiv_pos_as_xyz
  1  'x, y, z'
loop_
 _atom_site_type_symbol
 _atom_site_label
 _atom_site_symmetry_multiplicity
 _atom_site_fract_x
 _atom_site_fract_y
 _atom_site_fract_z
 _atom_site_occupancy
  Ge  Ge0  1  -0.33177450  -0.39051035  -0.61219698  1.0
  Ge  Ge1  1  -0.66822550  -0.60948965  -0.38780302  1.0
  Ge  Ge2  1  -0.75114997  -0.43149192  -0.34141558  1.0
  Ge  Ge3  1  -0.24885003  -0.56850808  -0.65858442  1.0
  Pb  Pb4  1  -0.84381600  -0.93251620  -0.77653460  1.0
  Pb  Pb5  1  -0.15618400  -0.06748380  -0.22346540  1.0
  C  C6  1  -0.17474122  -0.10971899  -0.73433917  1.0
  C  C7  1  -0.82525878  -0.89028101  -0.26566083  1.0
  C  C8  1  -0.26933889  -0.27513765  -0.71221810  1.0
  C  C9  1  -0.73066111  -0.72486235  -0.28778190  1.0
  C  C10  1  -0.22971819  -0.19929637  -0.72528730  1.0
  C  C11  1  -0.77028181  -0.80070363  -0.27471270  1.0
  C  C12  1  -0.63781698  -0.35133985  -0.19329791  1.0
  C  C13  1  -0.36218302  -0.64866015  -0.80670209  1.0
  C  C14  1  -0.65792286  -0.28236993  -0.15914949  1.0
  C  C15  1  -0.34207714  -0.71763007  -0.84085051  1.0
  C  C16  1  -0.74285348  -0.20043396  -0.14952809  1.0
  C  C17  1  -0.25714652  -0.79956604  -0.85047191  1.0
  O  O18  1  -0.13090464  -0.06305200  -0.88916043  1.0
  O  O19  1  -0.86909536  -0.93694800  -0.11083957  1.0
  O  O20  1  -0.16657310  -0.08133837  -0.59028966  1.0
  O  O21  1  -0.83342690  -0.91866163  -0.40971034  1.0
  O  O22  1  -0.65468746  -0.39661691  -0.56053389  1.0
  O  O23  1  -0.34531254  -0.60338309  -0.43946611  1.0
  O  O24  1  -0.10618558  -0.42622406  -0.39510087  1.0
  O  O25  1  -0.89381442  -0.57377594  -0.60489913  1.0
  O  O26  1  -0.61197877  -0.13286990  -0.19646641  1.0
  O  O27  1  -0.38802123  -0.86713010  -0.80353359  1.0
  O  O28  1  0.03010305  -0.20205230  -0.10481517  1.0
  O  O29  1  -1.03010305  -0.79794770  -0.89518483  1.0
  O  O30  1  -0.66679784  -0.53874451  -0.23738382  1.0
  O  O31  1  -0.33320216  -0.46125549  -0.76261618  1.0
