# generated using pymatgen
data_SrCu9Ge4
_symmetry_space_group_name_H-M   'P 1'
_cell_length_a   8.40219746
_cell_length_b   8.40219746
_cell_length_c   8.40219746
_cell_angle_alpha   120.55553069
_cell_angle_beta   120.55553069
_cell_angle_gamma   89.04045599
_symmetry_Int_Tables_number   1
_chemical_formula_structural   SrCu9Ge4
_chemical_formula_sum   'Sr2 Cu18 Ge8'
_cell_volume   415.84885978
_cell_formula_units_Z   2
loop_
 _symmetry_equiv_pos_site_id
 _symmetry_equiv_pos_as_xyz
  1  'x, y, z'
loop_
 _atom_site_type_symbol
 _atom_site_label
 _atom_site_symmetry_multiplicity
 _atom_site_fract_x
 _atom_site_fract_y
 _atom_site_fract_z
 _atom_site_occupancy
  Sr  Sr0  1  0.75000000  0.75000000  1.00000000  1.0
  Sr  Sr1  1  0.25000000  0.25000000  0.00000000  1.0
  Cu  Cu2  1  0.70379734  1.20379734  1.26447970  1.0
  Cu  Cu3  1  1.06068236  0.56068236  1.26447970  1.0
  Cu  Cu4  1  0.43931764  0.70379734  0.50000000  1.0
  Cu  Cu5  1  0.79620266  1.06068236  1.50000000  1.0
  Cu  Cu6  1  1.20379734  0.93931764  1.50000000  1.0
  Cu  Cu7  1  0.56068236  0.29620266  0.50000000  1.0
  Cu  Cu8  1  0.93931764  0.43931764  0.73552030  1.0
  Cu  Cu9  1  0.29620266  0.79620266  0.73552030  1.0
  Cu  Cu10  1  0.79724178  0.93815915  1.73540093  1.0
  Cu  Cu11  1  0.70275822  0.43815915  1.14091737  1.0
  Cu  Cu12  1  0.43815915  0.29724178  0.73540093  1.0
  Cu  Cu13  1  0.06184085  0.79724178  0.85908263  1.0
  Cu  Cu14  1  0.29724178  0.56184085  0.85908263  1.0
  Cu  Cu15  1  0.20275822  0.06184085  0.26459907  1.0
  Cu  Cu16  1  0.93815915  0.20275822  1.14091737  1.0
  Cu  Cu17  1  0.56184085  0.70275822  1.26459907  1.0
  Cu  Cu18  1  0.50000000  0.00000000  0.50000000  1.0
  Cu  Cu19  1  0.00000000  0.50000000  0.50000000  1.0
  Ge  Ge20  1  1.19917985  0.69917985  1.14171942  1.0
  Ge  Ge21  1  0.44253956  0.94253956  1.14171942  1.0
  Ge  Ge22  1  1.05746044  1.19917985  1.50000000  1.0
  Ge  Ge23  1  0.30082015  0.44253956  0.50000000  1.0
  Ge  Ge24  1  0.69917985  0.55746044  0.50000000  1.0
  Ge  Ge25  1  0.94253956  0.80082015  1.50000000  1.0
  Ge  Ge26  1  0.55746044  1.05746044  0.85828058  1.0
  Ge  Ge27  1  0.80082015  0.30082015  0.85828058  1.0
