# generated using pymatgen
data_Sn3Ru2
_symmetry_space_group_name_H-M   'P 1'
_cell_length_a   6.24188094
_cell_length_b   6.24188094
_cell_length_c   10.04831681
_cell_angle_alpha   90.00000000
_cell_angle_beta   90.00000000
_cell_angle_gamma   90.00000000
_symmetry_Int_Tables_number   1
_chemical_formula_structural   Sn3Ru2
_chemical_formula_sum   'Sn12 Ru8'
_cell_volume   391.49325140
_cell_formula_units_Z   4
loop_
 _symmetry_equiv_pos_site_id
 _symmetry_equiv_pos_as_xyz
  1  'x, y, z'
loop_
 _atom_site_type_symbol
 _atom_site_label
 _atom_site_symmetry_multiplicity
 _atom_site_fract_x
 _atom_site_fract_y
 _atom_site_fract_z
 _atom_site_occupancy
  Sn  Sn0  1  0.22195066  0.34224879  0.08377525  1.0
  Sn  Sn1  1  0.77804934  0.34224879  0.58377525  1.0
  Sn  Sn2  1  0.65775121  0.77804934  0.41622475  1.0
  Sn  Sn3  1  0.34224879  0.77804934  0.91622475  1.0
  Sn  Sn4  1  0.22195066  0.65775121  0.58377525  1.0
  Sn  Sn5  1  0.77804934  0.65775121  0.08377525  1.0
  Sn  Sn6  1  0.65775121  0.22195066  0.91622475  1.0
  Sn  Sn7  1  0.34224879  0.22195066  0.41622475  1.0
  Sn  Sn8  1  0.17948116  0.82051884  0.25000000  1.0
  Sn  Sn9  1  0.82051884  0.82051884  0.75000000  1.0
  Sn  Sn10  1  0.17948116  0.17948116  0.75000000  1.0
  Sn  Sn11  1  0.82051884  0.17948116  0.25000000  1.0
  Ru  Ru12  1  0.50000000  0.00000000  0.12418168  1.0
  Ru  Ru13  1  0.50000000  0.00000000  0.62418168  1.0
  Ru  Ru14  1  0.00000000  0.50000000  0.37581832  1.0
  Ru  Ru15  1  0.00000000  0.50000000  0.87581832  1.0
  Ru  Ru16  1  0.00000000  0.00000000  0.00000000  1.0
  Ru  Ru17  1  0.00000000  0.00000000  0.50000000  1.0
  Ru  Ru18  1  0.50000000  0.50000000  0.25000000  1.0
  Ru  Ru19  1  0.50000000  0.50000000  0.75000000  1.0
