# generated using pymatgen
data_SbP2AuF12
_symmetry_space_group_name_H-M   'P 1'
_cell_length_a   8.61961590
_cell_length_b   9.39362702
_cell_length_c   8.54560278
_cell_angle_alpha   90.00000000
_cell_angle_beta   119.91238350
_cell_angle_gamma   90.00000000
_symmetry_Int_Tables_number   1
_chemical_formula_structural   SbP2AuF12
_chemical_formula_sum   'Sb2 P4 Au2 F24'
_cell_volume   599.75974557
_cell_formula_units_Z   2
loop_
 _symmetry_equiv_pos_site_id
 _symmetry_equiv_pos_as_xyz
  1  'x, y, z'
loop_
 _atom_site_type_symbol
 _atom_site_label
 _atom_site_symmetry_multiplicity
 _atom_site_fract_x
 _atom_site_fract_y
 _atom_site_fract_z
 _atom_site_occupancy
  Sb  Sb0  1  0.00000000  0.50000000  0.00000000  1.0
  Sb  Sb1  1  -0.00000000  0.00000000  0.50000000  1.0
  P  P2  1  0.69750772  0.46391160  0.34929878  1.0
  P  P3  1  0.69750772  0.03608840  0.84929878  1.0
  P  P4  1  0.30249228  0.96391160  0.15070122  1.0
  P  P5  1  0.30249228  0.53608840  0.65070122  1.0
  Au  Au6  1  -0.00000000  0.50000000  0.50000000  1.0
  Au  Au7  1  0.00000000  0.00000000  0.00000000  1.0
  F  F8  1  0.83995811  0.92977820  0.25990045  1.0
  F  F9  1  0.83995811  0.57022180  0.75990045  1.0
  F  F10  1  0.16004189  0.42977820  0.24009955  1.0
  F  F11  1  0.16004189  0.07022180  0.74009955  1.0
  F  F12  1  0.87658256  0.18099230  0.43656524  1.0
  F  F13  1  0.87658256  0.31900770  0.93656524  1.0
  F  F14  1  0.12341744  0.68099230  0.06343476  1.0
  F  F15  1  0.12341744  0.81900770  0.56343476  1.0
  F  F16  1  0.61503442  0.38152648  0.44882071  1.0
  F  F17  1  0.61503442  0.11847352  0.94882071  1.0
  F  F18  1  0.38496558  0.88152648  0.05117929  1.0
  F  F19  1  0.38496558  0.61847352  0.55117929  1.0
  F  F20  1  0.61330612  0.38261718  0.16595045  1.0
  F  F21  1  0.61330612  0.11738282  0.66595045  1.0
  F  F22  1  0.38669388  0.88261718  0.33404955  1.0
  F  F23  1  0.38669388  0.61738282  0.83404955  1.0
  F  F24  1  0.41669159  0.10342781  0.20694548  1.0
  F  F25  1  0.41669159  0.39657219  0.70694548  1.0
  F  F26  1  0.58330841  0.60342781  0.29305452  1.0
  F  F27  1  0.58330841  0.89657219  0.79305452  1.0
  F  F28  1  0.16072456  0.06858440  0.42095203  1.0
  F  F29  1  0.16072456  0.43141560  0.92095203  1.0
  F  F30  1  0.83927544  0.56858440  0.07904797  1.0
  F  F31  1  0.83927544  0.93141560  0.57904797  1.0
