# generated using pymatgen
data_Co(RhSe2)2
_symmetry_space_group_name_H-M   'P 1'
_cell_length_a   6.36730307
_cell_length_b   6.36730307
_cell_length_c   6.43230143
_cell_angle_alpha   60.95916281
_cell_angle_beta   119.04083719
_cell_angle_gamma   145.93393188
_symmetry_Int_Tables_number   1
_chemical_formula_structural   Co(RhSe2)2
_chemical_formula_sum   'Co1 Rh2 Se4'
_cell_volume   125.84969930
_cell_formula_units_Z   1
loop_
 _symmetry_equiv_pos_site_id
 _symmetry_equiv_pos_as_xyz
  1  'x, y, z'
loop_
 _atom_site_type_symbol
 _atom_site_label
 _atom_site_symmetry_multiplicity
 _atom_site_fract_x
 _atom_site_fract_y
 _atom_site_fract_z
 _atom_site_occupancy
  Co  Co0  1  0.00000000  0.00000000  0.00000000  1.0
  Rh  Rh1  1  0.73761990  -0.73761990  0.72037597  1.0
  Rh  Rh2  1  1.26238010  -0.26238010  0.27962403  1.0
  Se  Se3  1  0.62838367  -0.62838367  0.97158203  1.0
  Se  Se4  1  1.37161633  -0.37161633  0.02841797  1.0
  Se  Se5  1  0.88225633  -0.88225633  0.55306244  1.0
  Se  Se6  1  1.11774367  -0.11774367  0.44693756  1.0
