# generated using pymatgen
data_BaPrO3
_symmetry_space_group_name_H-M   'P 1'
_cell_length_a   6.25025614
_cell_length_b   6.25025614
_cell_length_c   6.25025614
_cell_angle_alpha   90.36208312
_cell_angle_beta   120.05671443
_cell_angle_gamma   119.52633200
_symmetry_Int_Tables_number   1
_chemical_formula_structural   BaPrO3
_chemical_formula_sum   'Ba2 Pr2 O6'
_cell_volume   173.19042619
_cell_formula_units_Z   2
loop_
 _symmetry_equiv_pos_site_id
 _symmetry_equiv_pos_as_xyz
  1  'x, y, z'
loop_
 _atom_site_type_symbol
 _atom_site_label
 _atom_site_symmetry_multiplicity
 _atom_site_fract_x
 _atom_site_fract_y
 _atom_site_fract_z
 _atom_site_occupancy
  Ba  Ba0  1  1.50988755  1.25988755  1.25000000  1.0
  Ba  Ba1  1  1.49011245  0.74011245  0.75000000  1.0
  Pr  Pr2  1  1.00000000  1.00000000  0.50000000  1.0
  Pr  Pr3  1  1.00000000  0.50000000  1.00000000  1.0
  O  O4  1  1.00000000  0.70460085  0.70460085  1.0
  O  O5  1  0.50000000  0.70460085  0.20460085  1.0
  O  O6  1  0.50000000  0.29539915  0.79539915  1.0
  O  O7  1  0.00000000  0.29539915  0.29539915  1.0
  O  O8  1  1.08064224  0.83064224  1.25000000  1.0
  O  O9  1  0.91935776  0.16935776  0.75000000  1.0
