# generated using pymatgen
data_GdSnIr
_symmetry_space_group_name_H-M   'P 1'
_cell_length_a   7.41952676
_cell_length_b   7.41952676
_cell_length_c   4.11321331
_cell_angle_alpha   90.00000000
_cell_angle_beta   90.00000000
_cell_angle_gamma   120.00000000
_symmetry_Int_Tables_number   1
_chemical_formula_structural   GdSnIr
_chemical_formula_sum   'Gd3 Sn3 Ir3'
_cell_volume   196.09398643
_cell_formula_units_Z   3
loop_
 _symmetry_equiv_pos_site_id
 _symmetry_equiv_pos_as_xyz
  1  'x, y, z'
loop_
 _atom_site_type_symbol
 _atom_site_label
 _atom_site_symmetry_multiplicity
 _atom_site_fract_x
 _atom_site_fract_y
 _atom_site_fract_z
 _atom_site_occupancy
  Gd  Gd0  1  0.40914822  0.40914822  0.00000000  1.0
  Gd  Gd1  1  -0.00000000  0.59085178  0.00000000  1.0
  Gd  Gd2  1  0.59085178  0.00000000  0.00000000  1.0
  Sn  Sn3  1  0.74594349  0.74594349  0.50000000  1.0
  Sn  Sn4  1  -0.00000000  0.25405651  0.50000000  1.0
  Sn  Sn5  1  0.25405651  0.00000000  0.50000000  1.0
  Ir  Ir6  1  0.33333333  0.66666667  0.50000000  1.0
  Ir  Ir7  1  0.66666667  0.33333333  0.50000000  1.0
  Ir  Ir8  1  0.00000000  0.00000000  0.00000000  1.0
