# generated using pymatgen
data_Na2SiF6
_symmetry_space_group_name_H-M   'P 1'
_cell_length_a   9.05918468
_cell_length_b   9.05918468
_cell_length_c   5.14151307
_cell_angle_alpha   90.00000000
_cell_angle_beta   90.00000000
_cell_angle_gamma   120.00000000
_symmetry_Int_Tables_number   1
_chemical_formula_structural   Na2SiF6
_chemical_formula_sum   'Na6 Si3 F18'
_cell_volume   365.42630126
_cell_formula_units_Z   3
loop_
 _symmetry_equiv_pos_site_id
 _symmetry_equiv_pos_as_xyz
  1  'x, y, z'
loop_
 _atom_site_type_symbol
 _atom_site_label
 _atom_site_symmetry_multiplicity
 _atom_site_fract_x
 _atom_site_fract_y
 _atom_site_fract_z
 _atom_site_occupancy
  Na  Na0  1  0.71151173  0.71151173  0.50000000  1.0
  Na  Na1  1  0.00000000  0.28848827  0.50000000  1.0
  Na  Na2  1  0.28848827  0.00000000  0.50000000  1.0
  Na  Na3  1  0.37697430  0.37697430  0.00000000  1.0
  Na  Na4  1  0.00000000  0.62302570  0.00000000  1.0
  Na  Na5  1  0.62302570  0.00000000  0.00000000  1.0
  Si  Si6  1  0.33333333  0.66666667  0.49300773  1.0
  Si  Si7  1  0.66666667  0.33333333  0.50699227  1.0
  Si  Si8  1  0.00000000  0.00000000  0.00000000  1.0
  F  F9  1  0.08481946  0.90514501  0.19090127  1.0
  F  F10  1  0.90514501  0.08481946  0.80909873  1.0
  F  F11  1  0.82032555  0.91518054  0.19090127  1.0
  F  F12  1  0.09485499  0.17967445  0.19090127  1.0
  F  F13  1  0.91518054  0.82032555  0.80909873  1.0
  F  F14  1  0.17967445  0.09485499  0.80909873  1.0
  F  F15  1  0.40315058  0.84470018  0.30012149  1.0
  F  F16  1  0.84470018  0.40315058  0.69987851  1.0
  F  F17  1  0.44154960  0.59684942  0.30012149  1.0
  F  F18  1  0.15529982  0.55845040  0.30012149  1.0
  F  F19  1  0.59684942  0.44154960  0.69987851  1.0
  F  F20  1  0.55845040  0.15529982  0.69987851  1.0
  F  F21  1  0.77259453  0.51211788  0.31447696  1.0
  F  F22  1  0.51211788  0.77259453  0.68552304  1.0
  F  F23  1  0.73952335  0.22740547  0.31447696  1.0
  F  F24  1  0.48788212  0.26047665  0.31447696  1.0
  F  F25  1  0.22740547  0.73952335  0.68552304  1.0
  F  F26  1  0.26047665  0.48788212  0.68552304  1.0
