# generated using pymatgen
data_Al2P3H12(NO4)3
_symmetry_space_group_name_H-M   'P 1'
_cell_length_a   8.44550210
_cell_length_b   8.44550210
_cell_length_c   9.02854295
_cell_angle_alpha   73.64573426
_cell_angle_beta   106.35426574
_cell_angle_gamma   105.28682375
_symmetry_Int_Tables_number   1
_chemical_formula_structural   Al2P3H12(NO4)3
_chemical_formula_sum   'Al4 P6 H24 N6 O24'
_cell_volume   580.90827915
_cell_formula_units_Z   2
loop_
 _symmetry_equiv_pos_site_id
 _symmetry_equiv_pos_as_xyz
  1  'x, y, z'
loop_
 _atom_site_type_symbol
 _atom_site_label
 _atom_site_symmetry_multiplicity
 _atom_site_fract_x
 _atom_site_fract_y
 _atom_site_fract_z
 _atom_site_occupancy
  Al  Al0  1  0.75670529  0.09041919  0.42010099  1.0
  Al  Al1  1  0.90958081  0.24329471  0.92010099  1.0
  Al  Al2  1  1.09041919  -0.24329471  0.07989901  1.0
  Al  Al3  1  1.24329471  -0.09041919  0.57989901  1.0
  P  P4  1  1.41449579  -0.17043493  0.34278122  1.0
  P  P5  1  1.17043493  -0.41449579  0.84278122  1.0
  P  P6  1  0.82956507  0.41449579  0.15721878  1.0
  P  P7  1  0.58550421  0.17043493  0.65721878  1.0
  P  P8  1  0.99324947  0.99324947  0.25000000  1.0
  P  P9  1  0.00675053  0.00675053  0.75000000  1.0
  H  H10  1  1.64052401  -0.29555930  0.06498353  1.0
  H  H11  1  1.29555930  -0.64052401  0.56498353  1.0
  H  H12  1  0.70444070  0.64052401  0.43501647  1.0
  H  H13  1  0.35947599  0.29555930  0.93501647  1.0
  H  H14  1  1.64684897  -0.13247809  0.13933680  1.0
  H  H15  1  1.13247809  -0.64684897  0.63933680  1.0
  H  H16  1  0.86752191  0.64684897  0.36066320  1.0
  H  H17  1  0.35315103  0.13247809  0.86066320  1.0
  H  H18  1  1.62642049  -0.09764272  0.94353792  1.0
  H  H19  1  1.09764272  -0.62642049  0.44353792  1.0
  H  H20  1  0.90235728  0.62642049  0.55646208  1.0
  H  H21  1  0.37357951  0.09764272  0.05646208  1.0
  H  H22  1  1.46237501  -0.21836726  0.02520330  1.0
  H  H23  1  1.21836726  -0.46237501  0.52520330  1.0
  H  H24  1  0.78163274  0.46237501  0.47479670  1.0
  H  H25  1  0.53762499  0.21836726  0.97479670  1.0
  H  H26  1  0.39460410  0.28933115  0.33491968  1.0
  H  H27  1  0.71066885  0.60539590  0.83491968  1.0
  H  H28  1  1.28933115  -0.60539590  0.16508032  1.0
  H  H29  1  1.60539590  -0.28933115  0.66508032  1.0
  H  H30  1  0.50464541  0.42046869  0.19950273  1.0
  H  H31  1  0.57953131  0.49535459  0.69950273  1.0
  H  H32  1  1.42046869  -0.49535459  0.30049727  1.0
  H  H33  1  1.49535459  -0.42046869  0.80049727  1.0
  N  N34  1  1.59286128  -0.18557563  0.04130249  1.0
  N  N35  1  1.18557563  -0.59286128  0.54130249  1.0
  N  N36  1  0.81442437  0.59286128  0.45869751  1.0
  N  N37  1  0.40713872  0.18557563  0.95869751  1.0
  N  N38  1  0.39930700  0.39930700  0.25000000  1.0
  N  N39  1  0.60069300  0.60069300  0.75000000  1.0
  O  O40  1  1.82360260  -0.01952676  0.29285897  1.0
  O  O41  1  1.01952676  -0.82360260  0.79285897  1.0
  O  O42  1  0.98047324  0.82360260  0.20714103  1.0
  O  O43  1  0.17639740  0.01952676  0.70714103  1.0
  O  O44  1  1.50232109  -0.31501088  0.36067724  1.0
  O  O45  1  1.31501088  -0.50232109  0.86067724  1.0
  O  O46  1  0.68498912  0.50232109  0.13932276  1.0
  O  O47  1  0.49767891  0.31501088  0.63932276  1.0
  O  O48  1  1.31596459  -0.21983375  0.47622409  1.0
  O  O49  1  1.21983375  -0.31596459  0.97622409  1.0
  O  O50  1  0.78016625  0.31596459  0.02377591  1.0
  O  O51  1  0.68403541  0.21983375  0.52377591  1.0
  O  O52  1  1.54070689  0.00063600  0.34599387  1.0
  O  O53  1  0.99936400  -0.54070689  0.84599387  1.0
  O  O54  1  1.00063600  0.54070689  0.15400613  1.0
  O  O55  1  0.45929311  -0.00063600  0.65400613  1.0
  O  O56  1  1.29238664  -0.13408836  0.17587838  1.0
  O  O57  1  1.13408836  -0.29238664  0.67587838  1.0
  O  O58  1  0.86591164  0.29238664  0.32412162  1.0
  O  O59  1  0.70761336  0.13408836  0.82412162  1.0
  O  O60  1  0.14077485  0.02804768  0.39344765  1.0
  O  O61  1  0.97195232  0.85922515  0.89344765  1.0
  O  O62  1  1.02804768  -0.85922515  0.10655235  1.0
  O  O63  1  1.85922515  -0.02804768  0.60655235  1.0
