# generated using pymatgen
data_LiNb3O8
_symmetry_space_group_name_H-M   'P 1'
_cell_length_a   7.58889621
_cell_length_b   5.06694014
_cell_length_c   15.46505103
_cell_angle_alpha   90.00000000
_cell_angle_beta   107.06218772
_cell_angle_gamma   90.00000000
_symmetry_Int_Tables_number   1
_chemical_formula_structural   LiNb3O8
_chemical_formula_sum   'Li4 Nb12 O32'
_cell_volume   568.49633154
_cell_formula_units_Z   4
loop_
 _symmetry_equiv_pos_site_id
 _symmetry_equiv_pos_as_xyz
  1  'x, y, z'
loop_
 _atom_site_type_symbol
 _atom_site_label
 _atom_site_symmetry_multiplicity
 _atom_site_fract_x
 _atom_site_fract_y
 _atom_site_fract_z
 _atom_site_occupancy
  Li  Li0  1  0.76472816  0.75851830  0.42215609  1.0
  Li  Li1  1  0.76472816  0.74148170  0.92215609  1.0
  Li  Li2  1  0.23527184  0.25851830  0.07784391  1.0
  Li  Li3  1  0.23527184  0.24148170  0.57784391  1.0
  Nb  Nb4  1  0.98207641  0.26308086  0.33529898  1.0
  Nb  Nb5  1  0.98207641  0.23691914  0.83529898  1.0
  Nb  Nb6  1  0.01792359  0.76308086  0.16470102  1.0
  Nb  Nb7  1  0.01792359  0.73691914  0.66470102  1.0
  Nb  Nb8  1  0.74675587  0.25721914  0.07501643  1.0
  Nb  Nb9  1  0.74675587  0.24278086  0.57501643  1.0
  Nb  Nb10  1  0.25324413  0.75721914  0.42498357  1.0
  Nb  Nb11  1  0.25324413  0.74278086  0.92498357  1.0
  Nb  Nb12  1  0.49266213  0.26840766  0.33139079  1.0
  Nb  Nb13  1  0.49266213  0.23159234  0.83139079  1.0
  Nb  Nb14  1  0.50733787  0.76840766  0.16860921  1.0
  Nb  Nb15  1  0.50733787  0.73159234  0.66860921  1.0
  O  O16  1  0.99791666  0.44087870  0.09902900  1.0
  O  O17  1  0.99791666  0.05912130  0.59902900  1.0
  O  O18  1  0.00208334  0.94087870  0.40097100  1.0
  O  O19  1  0.00208334  0.55912130  0.90097100  1.0
  O  O20  1  0.91738391  0.08759270  0.21722157  1.0
  O  O21  1  0.91738391  0.41240730  0.71722157  1.0
  O  O22  1  0.08261609  0.58759270  0.28277843  1.0
  O  O23  1  0.08261609  0.91240730  0.78277843  1.0
  O  O24  1  0.85222319  0.93664586  0.05013990  1.0
  O  O25  1  0.85222319  0.56335414  0.55013990  1.0
  O  O26  1  0.14777681  0.43664586  0.44986010  1.0
  O  O27  1  0.14777681  0.06335414  0.94986010  1.0
  O  O28  1  0.76494780  0.40048634  0.34556433  1.0
  O  O29  1  0.76494780  0.09951366  0.84556433  1.0
  O  O30  1  0.23505220  0.90048634  0.15443567  1.0
  O  O31  1  0.23505220  0.59951366  0.65443567  1.0
  O  O32  1  0.64875781  0.10517149  0.46134640  1.0
  O  O33  1  0.64875781  0.39482851  0.96134640  1.0
  O  O34  1  0.35124219  0.60517149  0.03865360  1.0
  O  O35  1  0.35124219  0.89482851  0.53865360  1.0
  O  O36  1  0.54041229  0.07817383  0.10106559  1.0
  O  O37  1  0.54041229  0.42182617  0.60106559  1.0
  O  O38  1  0.45958771  0.57817383  0.39893441  1.0
  O  O39  1  0.45958771  0.92182617  0.89893441  1.0
  O  O40  1  0.41626563  0.43259580  0.21866685  1.0
  O  O41  1  0.41626563  0.06740420  0.71866685  1.0
  O  O42  1  0.58373437  0.93259580  0.28133315  1.0
  O  O43  1  0.58373437  0.56740420  0.78133315  1.0
  O  O44  1  0.28269382  0.08322493  0.34555478  1.0
  O  O45  1  0.28269382  0.41677507  0.84555478  1.0
  O  O46  1  0.71730618  0.58322493  0.15444522  1.0
  O  O47  1  0.71730618  0.91677507  0.65444522  1.0
