# generated using pymatgen
data_Gd3GaNiS7
_symmetry_space_group_name_H-M   'P 1'
_cell_length_a   9.67030372
_cell_length_b   9.67030372
_cell_length_c   6.22192014
_cell_angle_alpha   90.00000000
_cell_angle_beta   90.00000000
_cell_angle_gamma   120.00000000
_symmetry_Int_Tables_number   1
_chemical_formula_structural   Gd3GaNiS7
_chemical_formula_sum   'Gd6 Ga2 Ni2 S14'
_cell_volume   503.88948165
_cell_formula_units_Z   2
loop_
 _symmetry_equiv_pos_site_id
 _symmetry_equiv_pos_as_xyz
  1  'x, y, z'
loop_
 _atom_site_type_symbol
 _atom_site_label
 _atom_site_symmetry_multiplicity
 _atom_site_fract_x
 _atom_site_fract_y
 _atom_site_fract_z
 _atom_site_occupancy
  S  S0  1  0.43319879  0.91269204  -0.02219528  1.0
  S  S1  1  0.91269204  0.47949324  0.47780472  1.0
  S  S2  1  0.47949324  0.56680121  -0.02219528  1.0
  S  S3  1  0.08730796  0.52050676  -0.02219528  1.0
  S  S4  1  0.56680121  0.08730796  0.47780472  1.0
  S  S5  1  0.52050676  0.43319879  0.47780472  1.0
  S  S6  1  0.33333333  0.66666667  0.49785065  1.0
  S  S7  1  0.66666667  0.33333333  -0.00214935  1.0
  S  S8  1  0.09842264  0.87046443  0.30140223  1.0
  S  S9  1  0.87046443  0.77204179  0.80140223  1.0
  S  S10  1  0.77204179  0.90157736  0.30140223  1.0
  S  S11  1  0.12953557  0.22795821  0.30140223  1.0
  S  S12  1  0.90157736  0.12953557  0.80140223  1.0
  S  S13  1  0.22795821  0.09842264  0.80140223  1.0
  Ga  Ga14  1  0.33333333  0.66666667  0.13336359  1.0
  Ga  Ga15  1  0.66666667  0.33333333  0.63336359  1.0
  Gd  Gd16  1  0.78025354  0.62458682  0.20733847  1.0
  Gd  Gd17  1  0.62458682  0.84433328  0.70733847  1.0
  Gd  Gd18  1  0.84433328  0.21974646  0.20733847  1.0
  Gd  Gd19  1  0.37541318  0.15566672  0.20733847  1.0
  Gd  Gd20  1  0.21974646  0.37541318  0.70733847  1.0
  Gd  Gd21  1  0.15566672  0.78025354  0.70733847  1.0
  Ni  Ni22  1  0.00000000  0.00000000  0.04014949  1.0
  Ni  Ni23  1  0.00000000  0.00000000  0.54014949  1.0
