# generated using pymatgen
data_Lu(Al2Mo)2
_symmetry_space_group_name_H-M   'P 1'
_cell_length_a   5.42971334
_cell_length_b   5.42971334
_cell_length_c   5.42971334
_cell_angle_alpha   103.98593963
_cell_angle_beta   103.98593963
_cell_angle_gamma   121.10663236
_symmetry_Int_Tables_number   1
_chemical_formula_structural   Lu(Al2Mo)2
_chemical_formula_sum   'Lu1 Al4 Mo2'
_cell_volume   119.35340088
_cell_formula_units_Z   1
loop_
 _symmetry_equiv_pos_site_id
 _symmetry_equiv_pos_as_xyz
  1  'x, y, z'
loop_
 _atom_site_type_symbol
 _atom_site_label
 _atom_site_symmetry_multiplicity
 _atom_site_fract_x
 _atom_site_fract_y
 _atom_site_fract_z
 _atom_site_occupancy
  Lu  Lu0  1  0.00000000  0.00000000  0.00000000  1.0
  Al  Al1  1  0.69474290  0.69474290  0.38948581  1.0
  Al  Al2  1  1.30525710  0.69474290  1.00000000  1.0
  Al  Al3  1  0.69474290  0.30525710  1.00000000  1.0
  Al  Al4  1  0.30525710  0.30525710  0.61051419  1.0
  Mo  Mo5  1  0.25000000  0.75000000  0.50000000  1.0
  Mo  Mo6  1  0.75000000  1.25000000  0.50000000  1.0
