# generated using pymatgen
data_H3I3N2
_symmetry_space_group_name_H-M   'P 1'
_cell_length_a   6.30933405
_cell_length_b   7.73276986
_cell_length_c   7.57232220
_cell_angle_alpha   90.00000000
_cell_angle_beta   98.30095292
_cell_angle_gamma   90.00000000
_symmetry_Int_Tables_number   1
_chemical_formula_structural   H3I3N2
_chemical_formula_sum   'H6 I6 N4'
_cell_volume   365.57269902
_cell_formula_units_Z   2
loop_
 _symmetry_equiv_pos_site_id
 _symmetry_equiv_pos_as_xyz
  1  'x, y, z'
loop_
 _atom_site_type_symbol
 _atom_site_label
 _atom_site_symmetry_multiplicity
 _atom_site_fract_x
 _atom_site_fract_y
 _atom_site_fract_z
 _atom_site_occupancy
  H  H0  1  0.42409513  0.85796685  0.76941492  1.0
  H  H1  1  0.42409513  0.64203315  0.76941492  1.0
  H  H2  1  0.57590487  0.35796685  0.23058508  1.0
  H  H3  1  0.57590487  0.14203315  0.23058508  1.0
  H  H4  1  0.39443693  0.25000000  0.32612911  1.0
  H  H5  1  0.60556307  0.75000000  0.67387089  1.0
  I  I6  1  0.80779649  0.25000000  0.58581821  1.0
  I  I7  1  0.19220351  0.75000000  0.41418179  1.0
  I  I8  1  0.35753792  0.25000000  0.75266636  1.0
  I  I9  1  0.64246208  0.75000000  0.24733364  1.0
  I  I10  1  0.00000000  0.50000000  0.00000000  1.0
  I  I11  1  0.00000000  0.00000000  0.00000000  1.0
  N  N12  1  0.54996888  0.25000000  0.30266409  1.0
  N  N13  1  0.45003112  0.75000000  0.69733591  1.0
  N  N14  1  0.03975834  0.25000000  0.83554135  1.0
  N  N15  1  0.96024166  0.75000000  0.16445865  1.0
