# generated using pymatgen
data_NiAgSe2
_symmetry_space_group_name_H-M   'P 1'
_cell_length_a   7.84449329
_cell_length_b   7.84449329
_cell_length_c   7.84449329
_cell_angle_alpha   26.35702791
_cell_angle_beta   26.35702791
_cell_angle_gamma   26.35702791
_symmetry_Int_Tables_number   1
_chemical_formula_structural   NiAgSe2
_chemical_formula_sum   'Ni1 Ag1 Se2'
_cell_volume   83.85034045
_cell_formula_units_Z   1
loop_
 _symmetry_equiv_pos_site_id
 _symmetry_equiv_pos_as_xyz
  1  'x, y, z'
loop_
 _atom_site_type_symbol
 _atom_site_label
 _atom_site_symmetry_multiplicity
 _atom_site_fract_x
 _atom_site_fract_y
 _atom_site_fract_z
 _atom_site_occupancy
  Ni  Ni0  1  1.50000000  0.50000000  0.50000000  1.0
  Ag  Ag1  1  -0.00000000  0.00000000  -0.00000000  1.0
  Se  Se2  1  0.88853610  0.88853610  0.88853610  1.0
  Se  Se3  1  1.11146390  1.11146390  0.11146390  1.0
