# generated using pymatgen
data_Li2TeMoO6
_symmetry_space_group_name_H-M   'P 1'
_cell_length_a   5.41831831
_cell_length_b   13.49421937
_cell_length_c   8.49872008
_cell_angle_alpha   90.00000000
_cell_angle_beta   125.07880805
_cell_angle_gamma   90.00000000
_symmetry_Int_Tables_number   1
_chemical_formula_structural   Li2TeMoO6
_chemical_formula_sum   'Li8 Te4 Mo4 O24'
_cell_volume   508.52398388
_cell_formula_units_Z   4
loop_
 _symmetry_equiv_pos_site_id
 _symmetry_equiv_pos_as_xyz
  1  'x, y, z'
loop_
 _atom_site_type_symbol
 _atom_site_label
 _atom_site_symmetry_multiplicity
 _atom_site_fract_x
 _atom_site_fract_y
 _atom_site_fract_z
 _atom_site_occupancy
  Li  Li0  1  0.96575650  0.43944365  0.26290590  1.0
  Li  Li1  1  0.96575650  0.06055635  0.76290590  1.0
  Li  Li2  1  0.03424350  0.93944365  0.23709410  1.0
  Li  Li3  1  0.03424350  0.56055635  0.73709410  1.0
  Li  Li4  1  0.72603683  0.35593084  0.47161147  1.0
  Li  Li5  1  0.72603683  0.14406916  0.97161147  1.0
  Li  Li6  1  0.27396317  0.85593084  0.02838853  1.0
  Li  Li7  1  0.27396317  0.64406916  0.52838853  1.0
  Te  Te8  1  0.17701559  0.21329703  0.43033022  1.0
  Te  Te9  1  0.17701559  0.28670297  0.93033022  1.0
  Te  Te10  1  0.82298441  0.71329703  0.06966978  1.0
  Te  Te11  1  0.82298441  0.78670297  0.56966978  1.0
  Mo  Mo12  1  0.52327272  0.09215348  0.24629669  1.0
  Mo  Mo13  1  0.52327272  0.40784652  0.74629669  1.0
  Mo  Mo14  1  0.47672728  0.59215348  0.25370331  1.0
  Mo  Mo15  1  0.47672728  0.90784652  0.75370331  1.0
  O  O16  1  0.84528702  0.06029491  0.24639215  1.0
  O  O17  1  0.84528702  0.43970509  0.74639215  1.0
  O  O18  1  0.15471298  0.56029491  0.25360785  1.0
  O  O19  1  0.15471298  0.93970509  0.75360785  1.0
  O  O20  1  0.81661043  0.69176558  0.30556382  1.0
  O  O21  1  0.81661043  0.80823442  0.80556382  1.0
  O  O22  1  0.18338957  0.19176558  0.19443618  1.0
  O  O23  1  0.18338957  0.30823442  0.69443618  1.0
  O  O24  1  0.75469106  0.25040035  0.29900469  1.0
  O  O25  1  0.75469106  0.24959965  0.79900469  1.0
  O  O26  1  0.24530894  0.75040035  0.20099531  1.0
  O  O27  1  0.24530894  0.74959965  0.70099531  1.0
  O  O28  1  0.69333359  0.48242791  0.33759042  1.0
  O  O29  1  0.69333359  0.01757209  0.83759042  1.0
  O  O30  1  0.30666641  0.98242791  0.16240958  1.0
  O  O31  1  0.30666641  0.51757209  0.66240958  1.0
  O  O32  1  0.67313962  0.09506452  0.49222427  1.0
  O  O33  1  0.67313962  0.40493548  0.99222427  1.0
  O  O34  1  0.32686038  0.59506452  0.00777573  1.0
  O  O35  1  0.32686038  0.90493548  0.50777573  1.0
  O  O36  1  0.32449236  0.35102603  0.45421209  1.0
  O  O37  1  0.32449236  0.14897397  0.95421209  1.0
  O  O38  1  0.67550764  0.85102603  0.04578791  1.0
  O  O39  1  0.67550764  0.64897397  0.54578791  1.0
