# generated using pymatgen
data_RbLa(MoO4)2
_symmetry_space_group_name_H-M   'P 1'
_cell_length_a   7.69035351
_cell_length_b   7.69035351
_cell_length_c   8.40661397
_cell_angle_alpha   60.86905279
_cell_angle_beta   119.13094721
_cell_angle_gamma   92.78084405
_symmetry_Int_Tables_number   1
_chemical_formula_structural   RbLa(MoO4)2
_chemical_formula_sum   'Rb2 La2 Mo4 O16'
_cell_volume   367.60348996
_cell_formula_units_Z   2
loop_
 _symmetry_equiv_pos_site_id
 _symmetry_equiv_pos_as_xyz
  1  'x, y, z'
loop_
 _atom_site_type_symbol
 _atom_site_label
 _atom_site_symmetry_multiplicity
 _atom_site_fract_x
 _atom_site_fract_y
 _atom_site_fract_z
 _atom_site_occupancy
  Rb  Rb0  1  0.18407552  0.18407552  0.25000000  1.0
  Rb  Rb1  1  0.81592448  0.81592448  0.75000000  1.0
  La  La2  1  0.77198523  0.77198523  0.25000000  1.0
  La  La3  1  0.22801477  0.22801477  0.75000000  1.0
  Mo  Mo4  1  0.68306513  0.30841209  0.23591778  1.0
  Mo  Mo5  1  0.69158791  0.31693487  0.73591778  1.0
  Mo  Mo6  1  1.30841209  -0.31693487  0.26408222  1.0
  Mo  Mo7  1  1.31693487  -0.30841209  0.76408222  1.0
  O  O8  1  1.57647172  -0.37157976  0.03030410  1.0
  O  O9  1  1.37157976  -0.57647172  0.53030410  1.0
  O  O10  1  0.62842024  0.57647172  0.46969590  1.0
  O  O11  1  0.42352828  0.37157976  0.96969590  1.0
  O  O12  1  0.79606330  0.07501142  0.28756577  1.0
  O  O13  1  0.92498858  0.20393670  0.78756577  1.0
  O  O14  1  1.07501142  -0.20393670  0.21243423  1.0
  O  O15  1  1.20393670  -0.07501142  0.71243423  1.0
  O  O16  1  1.38892107  -0.08740975  0.13031985  1.0
  O  O17  1  1.08740975  -0.38892107  0.63031985  1.0
  O  O18  1  0.91259025  0.38892107  0.36968015  1.0
  O  O19  1  0.61107893  0.08740975  0.86968015  1.0
  O  O20  1  0.59473469  0.22658209  0.40957507  1.0
  O  O21  1  0.77341791  0.40526531  0.90957507  1.0
  O  O22  1  1.22658209  -0.40526531  0.09042493  1.0
  O  O23  1  1.40526531  -0.22658209  0.59042493  1.0
