# generated using pymatgen
data_Tl6SCl4
_symmetry_space_group_name_H-M   'P 1'
_cell_length_a   8.76423688
_cell_length_b   8.76423688
_cell_length_c   9.36993616
_cell_angle_alpha   90.00000000
_cell_angle_beta   90.00000000
_cell_angle_gamma   90.00000000
_symmetry_Int_Tables_number   1
_chemical_formula_structural   Tl6SCl4
_chemical_formula_sum   'Tl12 S2 Cl8'
_cell_volume   719.72211187
_cell_formula_units_Z   2
loop_
 _symmetry_equiv_pos_site_id
 _symmetry_equiv_pos_as_xyz
  1  'x, y, z'
loop_
 _atom_site_type_symbol
 _atom_site_label
 _atom_site_symmetry_multiplicity
 _atom_site_fract_x
 _atom_site_fract_y
 _atom_site_fract_z
 _atom_site_occupancy
  Tl  Tl0  1  0.39795392  0.81856950  0.50000000  1.0
  Tl  Tl1  1  0.89795392  0.68143050  0.00000000  1.0
  Tl  Tl2  1  0.18143050  0.39795392  0.50000000  1.0
  Tl  Tl3  1  0.68143050  0.10204608  0.00000000  1.0
  Tl  Tl4  1  0.60204608  0.18143050  0.50000000  1.0
  Tl  Tl5  1  0.10204608  0.31856950  0.00000000  1.0
  Tl  Tl6  1  0.81856950  0.60204608  0.50000000  1.0
  Tl  Tl7  1  0.31856950  0.89795392  0.00000000  1.0
  Tl  Tl8  1  0.50000000  0.50000000  0.19526795  1.0
  Tl  Tl9  1  0.50000000  0.50000000  0.80473205  1.0
  Tl  Tl10  1  0.00000000  0.00000000  0.69526795  1.0
  Tl  Tl11  1  0.00000000  0.00000000  0.30473205  1.0
  S  S12  1  0.50000000  0.50000000  0.50000000  1.0
  S  S13  1  0.00000000  0.00000000  0.00000000  1.0
  Cl  Cl14  1  0.31843539  0.18156461  0.25000000  1.0
  Cl  Cl15  1  0.31843539  0.18156461  0.75000000  1.0
  Cl  Cl16  1  0.81843539  0.31843539  0.75000000  1.0
  Cl  Cl17  1  0.81843539  0.31843539  0.25000000  1.0
  Cl  Cl18  1  0.68156461  0.81843539  0.25000000  1.0
  Cl  Cl19  1  0.68156461  0.81843539  0.75000000  1.0
  Cl  Cl20  1  0.18156461  0.68156461  0.75000000  1.0
  Cl  Cl21  1  0.18156461  0.68156461  0.25000000  1.0
