# generated using pymatgen
data_Lu2B6Os
_symmetry_space_group_name_H-M   'P 1'
_cell_length_a   9.02890115
_cell_length_b   11.39463431
_cell_length_c   3.58545608
_cell_angle_alpha   90.00000000
_cell_angle_beta   90.00000000
_cell_angle_gamma   90.00000000
_symmetry_Int_Tables_number   1
_chemical_formula_structural   Lu2B6Os
_chemical_formula_sum   'Lu8 B24 Os4'
_cell_volume   368.87540295
_cell_formula_units_Z   4
loop_
 _symmetry_equiv_pos_site_id
 _symmetry_equiv_pos_as_xyz
  1  'x, y, z'
loop_
 _atom_site_type_symbol
 _atom_site_label
 _atom_site_symmetry_multiplicity
 _atom_site_fract_x
 _atom_site_fract_y
 _atom_site_fract_z
 _atom_site_occupancy
  Lu  Lu0  1  0.18015383  0.91376088  0.50000000  1.0
  Lu  Lu1  1  0.68015383  0.58623912  0.50000000  1.0
  Lu  Lu2  1  0.81984617  0.08623912  0.50000000  1.0
  Lu  Lu3  1  0.31984617  0.41376088  0.50000000  1.0
  Lu  Lu4  1  0.05616274  0.62630422  0.50000000  1.0
  Lu  Lu5  1  0.55616274  0.87369578  0.50000000  1.0
  Lu  Lu6  1  0.94383726  0.37369578  0.50000000  1.0
  Lu  Lu7  1  0.44383726  0.12630422  0.50000000  1.0
  B  B8  1  0.44689487  0.56611335  0.00000000  1.0
  B  B9  1  0.94689487  0.93388665  0.00000000  1.0
  B  B10  1  0.55310513  0.43388665  0.00000000  1.0
  B  B11  1  0.05310513  0.06611335  0.00000000  1.0
  B  B12  1  0.39389429  0.97058859  0.00000000  1.0
  B  B13  1  0.89389429  0.52941141  0.00000000  1.0
  B  B14  1  0.60610571  0.02941141  0.00000000  1.0
  B  B15  1  0.10610571  0.47058859  0.00000000  1.0
  B  B16  1  0.36946567  0.81556102  -0.00000000  1.0
  B  B17  1  0.86946567  0.68443898  0.00000000  1.0
  B  B18  1  0.63053433  0.18443898  -0.00000000  1.0
  B  B19  1  0.13053433  0.31556102  0.00000000  1.0
  B  B20  1  0.25095923  0.57929169  -0.00000000  1.0
  B  B21  1  0.75095923  0.92070831  0.00000000  1.0
  B  B22  1  0.74904077  0.42070831  -0.00000000  1.0
  B  B23  1  0.24904077  0.07929169  0.00000000  1.0
  B  B24  1  0.20845071  0.73417118  0.00000000  1.0
  B  B25  1  0.70845071  0.76582882  0.00000000  1.0
  B  B26  1  0.79154929  0.26582882  0.00000000  1.0
  B  B27  1  0.29154929  0.23417118  0.00000000  1.0
  B  B28  1  0.01918181  0.78695420  0.00000000  1.0
  B  B29  1  0.51918181  0.71304580  0.00000000  1.0
  B  B30  1  0.98081819  0.21304580  0.00000000  1.0
  B  B31  1  0.48081819  0.28695420  0.00000000  1.0
  Os  Os32  1  0.36297059  0.67867356  0.50000000  1.0
  Os  Os33  1  0.86297059  0.82132644  0.50000000  1.0
  Os  Os34  1  0.63702941  0.32132644  0.50000000  1.0
  Os  Os35  1  0.13702941  0.17867356  0.50000000  1.0
