# generated using pymatgen
data_Sm(PRu)2
_symmetry_space_group_name_H-M   'P 1'
_cell_length_a   5.87694967
_cell_length_b   5.87694967
_cell_length_c   5.87694967
_cell_angle_alpha   139.66250885
_cell_angle_beta   139.66250885
_cell_angle_gamma   58.36609097
_symmetry_Int_Tables_number   1
_chemical_formula_structural   Sm(PRu)2
_chemical_formula_sum   'Sm1 P2 Ru2'
_cell_volume   84.26805077
_cell_formula_units_Z   1
loop_
 _symmetry_equiv_pos_site_id
 _symmetry_equiv_pos_as_xyz
  1  'x, y, z'
loop_
 _atom_site_type_symbol
 _atom_site_label
 _atom_site_symmetry_multiplicity
 _atom_site_fract_x
 _atom_site_fract_y
 _atom_site_fract_z
 _atom_site_occupancy
  Sm  Sm0  1  0.00000000  0.00000000  0.00000000  1.0
  P  P1  1  0.63638715  0.63638715  1.00000000  1.0
  P  P2  1  0.36361285  0.36361285  0.00000000  1.0
  Ru  Ru3  1  0.25000000  0.75000000  0.50000000  1.0
  Ru  Ru4  1  0.75000000  0.25000000  0.50000000  1.0
