# generated using pymatgen
data_Lu(Fe2Ge)2
_symmetry_space_group_name_H-M   'P 1'
_cell_length_a   6.58451051
_cell_length_b   7.55827019
_cell_length_c   4.07023124
_cell_angle_alpha   90.00000000
_cell_angle_beta   90.00000000
_cell_angle_gamma   90.00000000
_symmetry_Int_Tables_number   1
_chemical_formula_structural   Lu(Fe2Ge)2
_chemical_formula_sum   'Lu2 Fe8 Ge4'
_cell_volume   202.56527221
_cell_formula_units_Z   2
loop_
 _symmetry_equiv_pos_site_id
 _symmetry_equiv_pos_as_xyz
  1  'x, y, z'
loop_
 _atom_site_type_symbol
 _atom_site_label
 _atom_site_symmetry_multiplicity
 _atom_site_fract_x
 _atom_site_fract_y
 _atom_site_fract_z
 _atom_site_occupancy
  Lu  Lu0  1  0.50000000  0.50000000  0.50000000  1.0
  Lu  Lu1  1  0.00000000  0.00000000  -0.00000000  1.0
  Fe  Fe2  1  0.35830443  0.12381047  0.50000000  1.0
  Fe  Fe3  1  0.85830443  0.37618953  0.00000000  1.0
  Fe  Fe4  1  0.64169557  0.87618953  0.50000000  1.0
  Fe  Fe5  1  0.14169557  0.62381047  0.00000000  1.0
  Fe  Fe6  1  0.93390598  0.64986264  0.50000000  1.0
  Fe  Fe7  1  0.43390598  0.85013736  0.00000000  1.0
  Fe  Fe8  1  0.06609402  0.35013736  0.50000000  1.0
  Fe  Fe9  1  0.56609402  0.14986264  -0.00000000  1.0
  Ge  Ge10  1  0.24461548  0.81566927  0.50000000  1.0
  Ge  Ge11  1  0.74461548  0.68433073  -0.00000000  1.0
  Ge  Ge12  1  0.75538452  0.18433073  0.50000000  1.0
  Ge  Ge13  1  0.25538452  0.31566927  0.00000000  1.0
