# generated using pymatgen
data_TlSnPS4
_symmetry_space_group_name_H-M   'P 1'
_cell_length_a   12.23556455
_cell_length_b   8.93612851
_cell_length_c   6.79550253
_cell_angle_alpha   90.00000000
_cell_angle_beta   90.00000000
_cell_angle_gamma   90.00000000
_symmetry_Int_Tables_number   1
_chemical_formula_structural   TlSnPS4
_chemical_formula_sum   'Tl4 Sn4 P4 S16'
_cell_volume   743.01057767
_cell_formula_units_Z   4
loop_
 _symmetry_equiv_pos_site_id
 _symmetry_equiv_pos_as_xyz
  1  'x, y, z'
loop_
 _atom_site_type_symbol
 _atom_site_label
 _atom_site_symmetry_multiplicity
 _atom_site_fract_x
 _atom_site_fract_y
 _atom_site_fract_z
 _atom_site_occupancy
  Tl  Tl0  1  0.39006114  0.36871869  0.96057055  1.0
  Tl  Tl1  1  0.89006114  0.13128131  0.96057055  1.0
  Tl  Tl2  1  0.60993886  0.63128131  0.46057055  1.0
  Tl  Tl3  1  0.10993886  0.86871869  0.46057055  1.0
  Sn  Sn4  1  0.13003030  0.38489948  0.40979580  1.0
  Sn  Sn5  1  0.63003030  0.11510052  0.40979580  1.0
  Sn  Sn6  1  0.86996970  0.61510052  0.90979580  1.0
  Sn  Sn7  1  0.36996970  0.88489948  0.90979580  1.0
  P  P8  1  0.34559289  0.13165075  0.48033400  1.0
  P  P9  1  0.84559289  0.36834925  0.48033400  1.0
  P  P10  1  0.65440711  0.86834925  0.98033400  1.0
  P  P11  1  0.15440711  0.63165075  0.98033400  1.0
  S  S12  1  0.45798066  0.30450498  0.46373729  1.0
  S  S13  1  0.95798066  0.19549502  0.46373729  1.0
  S  S14  1  0.54201934  0.69549502  0.96373729  1.0
  S  S15  1  0.04201934  0.80450498  0.96373729  1.0
  S  S16  1  0.43011069  0.93088587  0.50593225  1.0
  S  S17  1  0.93011069  0.56911413  0.50593225  1.0
  S  S18  1  0.56988931  0.06911413  0.00593225  1.0
  S  S19  1  0.06988931  0.43088587  0.00593225  1.0
  S  S20  1  0.24352625  0.15690658  0.71577540  1.0
  S  S21  1  0.74352625  0.34309342  0.71577540  1.0
  S  S22  1  0.75647375  0.84309342  0.21577540  1.0
  S  S23  1  0.25647375  0.65690658  0.21577540  1.0
  S  S24  1  0.24904535  0.13395099  0.23145470  1.0
  S  S25  1  0.74904535  0.36604901  0.23145470  1.0
  S  S26  1  0.75095465  0.86604901  0.73145470  1.0
  S  S27  1  0.25095465  0.63395099  0.73145470  1.0
