# generated using pymatgen
data_TaBr5
_symmetry_space_group_name_H-M   'P 1'
_cell_length_a   13.88230323
_cell_length_b   19.83160564
_cell_length_c   6.70999845
_cell_angle_alpha   90.00000000
_cell_angle_beta   90.00000000
_cell_angle_gamma   90.00000000
_symmetry_Int_Tables_number   1
_chemical_formula_structural   TaBr5
_chemical_formula_sum   'Ta8 Br40'
_cell_volume   1847.31868931
_cell_formula_units_Z   8
loop_
 _symmetry_equiv_pos_site_id
 _symmetry_equiv_pos_as_xyz
  1  'x, y, z'
loop_
 _atom_site_type_symbol
 _atom_site_label
 _atom_site_symmetry_multiplicity
 _atom_site_fract_x
 _atom_site_fract_y
 _atom_site_fract_z
 _atom_site_occupancy
  Ta  Ta0  1  0.37506973  0.85677536  0.50882900  1.0
  Ta  Ta1  1  0.37506973  0.64322464  0.50882900  1.0
  Ta  Ta2  1  0.87506973  0.85677536  0.99117100  1.0
  Ta  Ta3  1  0.87506973  0.64322464  0.99117100  1.0
  Ta  Ta4  1  0.62493027  0.35677536  0.49117100  1.0
  Ta  Ta5  1  0.62493027  0.14322464  0.49117100  1.0
  Ta  Ta6  1  0.12493027  0.35677536  0.00882900  1.0
  Ta  Ta7  1  0.12493027  0.14322464  0.00882900  1.0
  Br  Br8  1  0.48103757  0.34647687  0.70866270  1.0
  Br  Br9  1  0.48103757  0.15352313  0.70866270  1.0
  Br  Br10  1  0.98103757  0.34647687  0.79133730  1.0
  Br  Br11  1  0.98103757  0.15352313  0.79133730  1.0
  Br  Br12  1  0.51896243  0.84647687  0.29133730  1.0
  Br  Br13  1  0.51896243  0.65352313  0.29133730  1.0
  Br  Br14  1  0.01896243  0.84647687  0.20866270  1.0
  Br  Br15  1  0.01896243  0.65352313  0.20866270  1.0
  Br  Br16  1  0.45574229  0.93299940  0.73936762  1.0
  Br  Br17  1  0.45574229  0.56700060  0.73936762  1.0
  Br  Br18  1  0.95574229  0.93299940  0.76063238  1.0
  Br  Br19  1  0.95574229  0.56700060  0.76063238  1.0
  Br  Br20  1  0.54425771  0.43299940  0.26063238  1.0
  Br  Br21  1  0.54425771  0.06700060  0.26063238  1.0
  Br  Br22  1  0.04425771  0.43299940  0.23936762  1.0
  Br  Br23  1  0.04425771  0.06700060  0.23936762  1.0
  Br  Br24  1  0.23090303  0.84624449  0.72572613  1.0
  Br  Br25  1  0.23090303  0.65375551  0.72572613  1.0
  Br  Br26  1  0.73090303  0.84624449  0.77427387  1.0
  Br  Br27  1  0.73090303  0.65375551  0.77427387  1.0
  Br  Br28  1  0.76909697  0.34624449  0.27427387  1.0
  Br  Br29  1  0.76909697  0.15375551  0.27427387  1.0
  Br  Br30  1  0.26909697  0.34624449  0.22572613  1.0
  Br  Br31  1  0.26909697  0.15375551  0.22572613  1.0
  Br  Br32  1  0.20567138  0.43349734  0.77965532  1.0
  Br  Br33  1  0.20567138  0.06650266  0.77965532  1.0
  Br  Br34  1  0.70567138  0.43349734  0.72034468  1.0
  Br  Br35  1  0.70567138  0.06650266  0.72034468  1.0
  Br  Br36  1  0.79432862  0.93349734  0.22034468  1.0
  Br  Br37  1  0.79432862  0.56650266  0.22034468  1.0
  Br  Br38  1  0.29432862  0.93349734  0.27965532  1.0
  Br  Br39  1  0.29432862  0.56650266  0.27965532  1.0
  Br  Br40  1  0.44849591  0.75000000  0.71634612  1.0
  Br  Br41  1  0.94849591  0.75000000  0.78365388  1.0
  Br  Br42  1  0.55150409  0.25000000  0.28365388  1.0
  Br  Br43  1  0.05150409  0.25000000  0.21634612  1.0
  Br  Br44  1  0.30163902  0.75000000  0.30109367  1.0
  Br  Br45  1  0.80163902  0.75000000  0.19890633  1.0
  Br  Br46  1  0.69836098  0.25000000  0.69890633  1.0
  Br  Br47  1  0.19836098  0.25000000  0.80109367  1.0
