# generated using pymatgen
data_VSO5
_symmetry_space_group_name_H-M   'P 1'
_cell_length_a   7.35767097
_cell_length_b   6.34355822
_cell_length_c   7.41274080
_cell_angle_alpha   90.00000000
_cell_angle_beta   90.00000000
_cell_angle_gamma   90.00000000
_symmetry_Int_Tables_number   1
_chemical_formula_structural   VSO5
_chemical_formula_sum   'V4 S4 O20'
_cell_volume   345.98088615
_cell_formula_units_Z   4
loop_
 _symmetry_equiv_pos_site_id
 _symmetry_equiv_pos_as_xyz
  1  'x, y, z'
loop_
 _atom_site_type_symbol
 _atom_site_label
 _atom_site_symmetry_multiplicity
 _atom_site_fract_x
 _atom_site_fract_y
 _atom_site_fract_z
 _atom_site_occupancy
  V  V0  1  0.16636432  0.75000000  0.22743455  1.0
  V  V1  1  0.66636432  0.75000000  0.27256545  1.0
  V  V2  1  0.83363568  0.25000000  0.77256545  1.0
  V  V3  1  0.33363568  0.25000000  0.72743455  1.0
  S  S4  1  0.37345526  0.75000000  0.61956878  1.0
  S  S5  1  0.87345526  0.75000000  0.88043122  1.0
  S  S6  1  0.62654474  0.25000000  0.38043122  1.0
  S  S7  1  0.12654474  0.25000000  0.11956878  1.0
  O  O8  1  0.36941159  0.93593671  0.74222249  1.0
  O  O9  1  0.36941159  0.56406329  0.74222249  1.0
  O  O10  1  0.86941159  0.93593671  0.75777751  1.0
  O  O11  1  0.86941159  0.56406329  0.75777751  1.0
  O  O12  1  0.63058841  0.43593671  0.25777751  1.0
  O  O13  1  0.63058841  0.06406329  0.25777751  1.0
  O  O14  1  0.13058841  0.43593671  0.24222249  1.0
  O  O15  1  0.13058841  0.06406329  0.24222249  1.0
  O  O16  1  0.38033628  0.75000000  0.17808705  1.0
  O  O17  1  0.88033628  0.75000000  0.32191295  1.0
  O  O18  1  0.61966372  0.25000000  0.82191295  1.0
  O  O19  1  0.11966372  0.25000000  0.67808705  1.0
  O  O20  1  0.21256211  0.75000000  0.49756073  1.0
  O  O21  1  0.71256211  0.75000000  1.00243927  1.0
  O  O22  1  0.78743789  0.25000000  0.50243927  1.0
  O  O23  1  0.28743789  0.25000000  -0.00243927  1.0
  O  O24  1  0.04753444  0.75000000  0.98457595  1.0
  O  O25  1  0.54753444  0.75000000  0.51542405  1.0
  O  O26  1  0.95246556  0.25000000  0.01542405  1.0
  O  O27  1  0.45246556  0.25000000  0.48457595  1.0
