# generated using pymatgen
data_CuBi3PbS6
_symmetry_space_group_name_H-M   'P 1'
_cell_length_a   4.04577643
_cell_length_b   11.17902966
_cell_length_c   11.87212844
_cell_angle_alpha   90.00000000
_cell_angle_beta   90.00000000
_cell_angle_gamma   90.00000000
_symmetry_Int_Tables_number   1
_chemical_formula_structural   CuBi3PbS6
_chemical_formula_sum   'Cu2 Bi6 Pb2 S12'
_cell_volume   536.95090051
_cell_formula_units_Z   2
loop_
 _symmetry_equiv_pos_site_id
 _symmetry_equiv_pos_as_xyz
  1  'x, y, z'
loop_
 _atom_site_type_symbol
 _atom_site_label
 _atom_site_symmetry_multiplicity
 _atom_site_fract_x
 _atom_site_fract_y
 _atom_site_fract_z
 _atom_site_occupancy
  Cu  Cu0  1  0.00000000  0.95541940  0.49467615  1.0
  Cu  Cu1  1  0.00000000  0.04458060  -0.00532385  1.0
  Bi  Bi2  1  0.50000000  0.92933073  0.24130937  1.0
  Bi  Bi3  1  0.50000000  0.07066927  0.74130937  1.0
  Bi  Bi4  1  0.50000000  0.71583121  0.57965463  1.0
  Bi  Bi5  1  0.50000000  0.28416879  0.07965463  1.0
  Bi  Bi6  1  0.00000000  0.42534537  0.70717955  1.0
  Bi  Bi7  1  0.00000000  0.57465463  0.20717955  1.0
  Pb  Pb8  1  0.00000000  0.76008384  0.90219598  1.0
  Pb  Pb9  1  0.00000000  0.23991616  0.40219598  1.0
  S  S10  1  0.50000000  0.95282422  0.94134138  1.0
  S  S11  1  0.50000000  0.04717578  0.44134138  1.0
  S  S12  1  0.50000000  0.69935732  0.10650234  1.0
  S  S13  1  0.50000000  0.30064268  0.60650234  1.0
  S  S14  1  0.50000000  0.60883788  0.77605059  1.0
  S  S15  1  0.50000000  0.39116212  0.27605059  1.0
  S  S16  1  0.00000000  0.88190369  0.67754372  1.0
  S  S17  1  0.00000000  0.11809631  0.17754372  1.0
  S  S18  1  0.00000000  0.80847843  0.34690332  1.0
  S  S19  1  0.00000000  0.19152157  0.84690332  1.0
  S  S20  1  0.00000000  0.55975281  0.51794296  1.0
  S  S21  1  0.00000000  0.44024719  0.01794296  1.0
