# generated using pymatgen
data_Ti3Zn3N
_symmetry_space_group_name_H-M   'P 1'
_cell_length_a   8.12163201
_cell_length_b   8.12163201
_cell_length_c   8.12163201
_cell_angle_alpha   60.00000000
_cell_angle_beta   60.00000000
_cell_angle_gamma   60.00000000
_symmetry_Int_Tables_number   1
_chemical_formula_structural   Ti3Zn3N
_chemical_formula_sum   'Ti12 Zn12 N4'
_cell_volume   378.80432157
_cell_formula_units_Z   4
loop_
 _symmetry_equiv_pos_site_id
 _symmetry_equiv_pos_as_xyz
  1  'x, y, z'
loop_
 _atom_site_type_symbol
 _atom_site_label
 _atom_site_symmetry_multiplicity
 _atom_site_fract_x
 _atom_site_fract_y
 _atom_site_fract_z
 _atom_site_occupancy
  Ti  Ti0  1  1.42924190  0.42924190  0.07075810  1.0
  Ti  Ti1  1  1.07075810  0.42924190  0.07075810  1.0
  Ti  Ti2  1  1.42924190  0.07075810  0.07075810  1.0
  Ti  Ti3  1  1.07075810  0.07075810  0.42924190  1.0
  Ti  Ti4  1  1.42924190  0.07075810  0.42924190  1.0
  Ti  Ti5  1  1.07075810  0.42924190  0.42924190  1.0
  Ti  Ti6  1  0.82075810  0.82075810  -0.82075810  1.0
  Ti  Ti7  1  1.17924190  -0.17924190  0.17924190  1.0
  Ti  Ti8  1  -0.17924190  0.17924190  0.17924190  1.0
  Ti  Ti9  1  0.17924190  0.17924190  -0.17924190  1.0
  Ti  Ti10  1  0.82075810  -0.82075810  0.82075810  1.0
  Ti  Ti11  1  -0.82075810  0.82075810  0.82075810  1.0
  Zn  Zn12  1  0.83496902  -0.16503098  0.49509294  1.0
  Zn  Zn13  1  0.83496902  -0.50490706  0.83496902  1.0
  Zn  Zn14  1  0.49509294  0.83496902  0.83496902  1.0
  Zn  Zn15  1  0.83496902  0.83496902  0.83496902  1.0
  Zn  Zn16  1  1.41503098  0.41503098  -0.24509294  1.0
  Zn  Zn17  1  1.41503098  -0.24509294  0.41503098  1.0
  Zn  Zn18  1  0.75490706  0.41503098  0.41503098  1.0
  Zn  Zn19  1  1.41503098  0.41503098  0.41503098  1.0
  Zn  Zn20  1  0.62500000  0.62500000  1.12500000  1.0
  Zn  Zn21  1  0.62500000  1.12500000  0.62500000  1.0
  Zn  Zn22  1  1.12500000  0.62500000  0.62500000  1.0
  Zn  Zn23  1  0.62500000  0.62500000  0.62500000  1.0
  N  N24  1  0.12500000  0.12500000  1.62500000  1.0
  N  N25  1  0.12500000  0.62500000  1.12500000  1.0
  N  N26  1  1.62500000  0.12500000  0.12500000  1.0
  N  N27  1  1.12500000  0.12500000  0.12500000  1.0
