# generated using pymatgen
data_Li2EuSiO4
_symmetry_space_group_name_H-M   'P 1'
_cell_length_a   5.05475290
_cell_length_b   5.05475290
_cell_length_c   12.51769712
_cell_angle_alpha   90.00000000
_cell_angle_beta   90.00000000
_cell_angle_gamma   120.00000000
_symmetry_Int_Tables_number   1
_chemical_formula_structural   Li2EuSiO4
_chemical_formula_sum   'Li6 Eu3 Si3 O12'
_cell_volume   276.98415877
_cell_formula_units_Z   3
loop_
 _symmetry_equiv_pos_site_id
 _symmetry_equiv_pos_as_xyz
  1  'x, y, z'
loop_
 _atom_site_type_symbol
 _atom_site_label
 _atom_site_symmetry_multiplicity
 _atom_site_fract_x
 _atom_site_fract_y
 _atom_site_fract_z
 _atom_site_occupancy
  Li  Li0  1  0.33257256  0.92799538  0.08698244  1.0
  Li  Li1  1  0.92799538  0.33257256  0.91301756  1.0
  Li  Li2  1  0.59542282  0.66742744  0.75364910  1.0
  Li  Li3  1  0.07200462  0.40457718  0.42031577  1.0
  Li  Li4  1  0.66742744  0.59542282  0.24635090  1.0
  Li  Li5  1  0.40457718  0.07200462  0.57968423  1.0
  Eu  Eu6  1  0.57966279  0.57966279  -0.00000000  1.0
  Eu  Eu7  1  -0.00000000  0.42033721  0.66666667  1.0
  Eu  Eu8  1  0.42033721  0.00000000  0.33333333  1.0
  Si  Si9  1  0.72172837  0.72172837  0.50000000  1.0
  Si  Si10  1  -0.00000000  0.27827163  0.16666667  1.0
  Si  Si11  1  0.27827163  0.00000000  0.83333333  1.0
  O  O12  1  0.45213680  0.96399881  0.72670357  1.0
  O  O13  1  0.96399881  0.45213680  0.27329643  1.0
  O  O14  1  0.51186201  0.54786320  0.39337023  1.0
  O  O15  1  0.03600119  0.48813799  0.06003690  1.0
  O  O16  1  0.54786320  0.51186201  0.60662977  1.0
  O  O17  1  0.48813799  0.03600119  0.93996310  1.0
  O  O18  1  0.93236498  0.69135553  0.83729098  1.0
  O  O19  1  0.69135553  0.93236498  0.16270902  1.0
  O  O20  1  0.75899055  0.06763502  0.50395765  1.0
  O  O21  1  0.30864447  0.24100945  0.17062432  1.0
  O  O22  1  0.06763502  0.75899055  0.49604235  1.0
  O  O23  1  0.24100945  0.30864447  0.82937568  1.0
