# generated using pymatgen
data_LiGa(RhO2)4
_symmetry_space_group_name_H-M   'P 1'
_cell_length_a   6.05401996
_cell_length_b   6.05401996
_cell_length_c   6.05401996
_cell_angle_alpha   60.00000000
_cell_angle_beta   60.00000000
_cell_angle_gamma   60.00000000
_symmetry_Int_Tables_number   1
_chemical_formula_structural   LiGa(RhO2)4
_chemical_formula_sum   'Li1 Ga1 Rh4 O8'
_cell_volume   156.89768945
_cell_formula_units_Z   1
loop_
 _symmetry_equiv_pos_site_id
 _symmetry_equiv_pos_as_xyz
  1  'x, y, z'
loop_
 _atom_site_type_symbol
 _atom_site_label
 _atom_site_symmetry_multiplicity
 _atom_site_fract_x
 _atom_site_fract_y
 _atom_site_fract_z
 _atom_site_occupancy
  Li  Li0  1  0.00000000  -0.00000000  -0.00000000  1.0
  Ga  Ga1  1  0.25000000  0.25000000  0.25000000  1.0
  Rh  Rh2  1  -0.37296445  0.62703555  0.62703555  1.0
  Rh  Rh3  1  1.11889336  0.62703555  -0.37296445  1.0
  Rh  Rh4  1  -0.37296445  0.62703555  1.11889336  1.0
  Rh  Rh5  1  0.62703555  1.11889336  -0.37296445  1.0
  O  O6  1  0.86295141  0.86295141  -0.13704859  1.0
  O  O7  1  0.41114576  0.86295141  -0.13704859  1.0
  O  O8  1  0.86295141  0.86295141  -0.58885424  1.0
  O  O9  1  0.86295141  0.41114576  -0.13704859  1.0
  O  O10  1  0.38055513  1.38055513  0.38055513  1.0
  O  O11  1  -0.14166538  0.38055513  0.38055513  1.0
  O  O12  1  0.38055513  1.38055513  -0.14166538  1.0
  O  O13  1  0.38055513  -0.14166538  0.38055513  1.0
