# generated using pymatgen
data_CoH14C2(NO)12
_symmetry_space_group_name_H-M   'P 1'
_cell_length_a   8.34688339
_cell_length_b   7.32055385
_cell_length_c   8.06905549
_cell_angle_alpha   122.16497905
_cell_angle_beta   101.43609357
_cell_angle_gamma   83.93871153
_symmetry_Int_Tables_number   1
_chemical_formula_structural   CoH14C2(NO)12
_chemical_formula_sum   'Co1 H14 C2 N12 O12'
_cell_volume   409.08968728
_cell_formula_units_Z   1
loop_
 _symmetry_equiv_pos_site_id
 _symmetry_equiv_pos_as_xyz
  1  'x, y, z'
loop_
 _atom_site_type_symbol
 _atom_site_label
 _atom_site_symmetry_multiplicity
 _atom_site_fract_x
 _atom_site_fract_y
 _atom_site_fract_z
 _atom_site_occupancy
  Co  Co0  1  0.00000000  0.50000000  -0.50000000  1.0
  H  H1  1  0.96955397  0.28974566  -0.92285639  1.0
  H  H2  1  0.03044603  0.71025434  -0.07714361  1.0
  H  H3  1  0.12245611  0.43956197  -0.84736715  1.0
  H  H4  1  0.87754389  0.56043803  -0.15263285  1.0
  H  H5  1  0.59943328  0.74389565  -0.60368659  1.0
  H  H6  1  0.40056672  0.25610435  -0.39631341  1.0
  H  H7  1  0.49704570  0.19513473  -0.82742007  1.0
  H  H8  1  0.50295430  0.80486527  -0.17257993  1.0
  H  H9  1  0.42781740  0.44352730  -0.80763042  1.0
  H  H10  1  0.57218260  0.55647270  -0.19236958  1.0
  H  H11  1  0.88977929  0.78468717  -0.57927475  1.0
  H  H12  1  0.11022071  0.21531283  -0.42072525  1.0
  H  H13  1  0.84645262  0.84708113  -0.36283025  1.0
  H  H14  1  0.15354738  0.15291887  -0.63716975  1.0
  C  C15  1  0.66234701  0.43294912  -0.67303444  1.0
  C  C16  1  0.33765299  0.56705088  -0.32696556  1.0
  N  N17  1  0.85145015  0.72047098  -0.50701769  1.0
  N  N18  1  0.14854985  0.27952902  -0.49298231  1.0
  N  N19  1  0.69170314  0.64035174  -0.60028532  1.0
  N  N20  1  0.30829686  0.35964826  -0.39971468  1.0
  N  N21  1  0.51373371  0.35536810  -0.76728106  1.0
  N  N22  1  0.48626629  0.64463190  -0.23271894  1.0
  N  N23  1  0.79627239  0.32448989  -0.63429558  1.0
  N  N24  1  0.20372761  0.67551011  -0.36570442  1.0
  N  N25  1  0.77861063  0.10949480  -0.70303594  1.0
  N  N26  1  0.22138937  0.89050520  -0.29696406  1.0
  N  N27  1  0.28024719  0.76478521  -0.81015016  1.0
  N  N28  1  0.71975281  0.23521479  -0.18984984  1.0
  O  O29  1  0.89841230  0.02299705  -0.65313178  1.0
  O  O30  1  0.10158770  0.97700295  -0.34686822  1.0
  O  O31  1  0.65039667  1.00777599  -0.80809891  1.0
  O  O32  1  0.34960333  -0.00777599  -0.19190110  1.0
  O  O33  1  0.05977817  0.36443185  -0.81042258  1.0
  O  O34  1  0.94022183  0.63556815  -0.18957742  1.0
  O  O35  1  0.19208789  0.87353420  -0.87356777  1.0
  O  O36  1  0.80791211  0.12646580  -0.12643223  1.0
  O  O37  1  0.26966879  0.55955668  -0.91260145  1.0
  O  O38  1  0.73033121  0.44044332  -0.08739855  1.0
  O  O39  1  0.37678737  0.85789184  -0.64795412  1.0
  O  O40  1  0.62321263  0.14210816  -0.35204588  1.0
