# generated using pymatgen
data_Cr4Re4Ni5Mo2
_symmetry_space_group_name_H-M   'P 1'
_cell_length_a   9.10544277
_cell_length_b   9.10544277
_cell_length_c   4.61472827
_cell_angle_alpha   90.00000000
_cell_angle_beta   90.00000000
_cell_angle_gamma   90.00000000
_symmetry_Int_Tables_number   1
_chemical_formula_structural   Cr4Re4Ni5Mo2
_chemical_formula_sum   'Cr8 Re8 Ni10 Mo4'
_cell_volume   382.60291193
_cell_formula_units_Z   2
loop_
 _symmetry_equiv_pos_site_id
 _symmetry_equiv_pos_as_xyz
  1  'x, y, z'
loop_
 _atom_site_type_symbol
 _atom_site_label
 _atom_site_symmetry_multiplicity
 _atom_site_fract_x
 _atom_site_fract_y
 _atom_site_fract_z
 _atom_site_occupancy
  Cr  Cr0  1  0.31468226  0.68531774  0.25467166  1.0
  Cr  Cr1  1  0.68531774  0.31468226  0.25467166  1.0
  Cr  Cr2  1  0.18531774  0.18531774  0.75467166  1.0
  Cr  Cr3  1  0.81468226  0.81468226  0.75467166  1.0
  Cr  Cr4  1  0.68531774  0.31468226  0.74532834  1.0
  Cr  Cr5  1  0.31468226  0.68531774  0.74532834  1.0
  Cr  Cr6  1  0.81468226  0.81468226  0.24532834  1.0
  Cr  Cr7  1  0.18531774  0.18531774  0.24532834  1.0
  Re  Re8  1  0.36772354  0.96481823  0.50000000  1.0
  Re  Re9  1  0.63227646  0.03518177  0.50000000  1.0
  Re  Re10  1  0.13227646  0.46481823  0.00000000  1.0
  Re  Re11  1  0.86772354  0.53518177  0.00000000  1.0
  Re  Re12  1  0.96481823  0.36772354  0.50000000  1.0
  Re  Re13  1  0.03518177  0.63227646  0.50000000  1.0
  Re  Re14  1  0.46481823  0.13227646  0.00000000  1.0
  Re  Re15  1  0.53518177  0.86772354  0.00000000  1.0
  Ni  Ni16  1  0.50000000  0.50000000  0.50000000  1.0
  Ni  Ni17  1  0.00000000  0.00000000  0.00000000  1.0
  Ni  Ni18  1  0.43643880  0.24400232  0.50000000  1.0
  Ni  Ni19  1  0.56356120  0.75599768  0.50000000  1.0
  Ni  Ni20  1  0.06356120  0.74400232  0.00000000  1.0
  Ni  Ni21  1  0.93643880  0.25599768  0.00000000  1.0
  Ni  Ni22  1  0.24400232  0.43643880  0.50000000  1.0
  Ni  Ni23  1  0.75599768  0.56356120  0.50000000  1.0
  Ni  Ni24  1  0.74400232  0.06356120  0.00000000  1.0
  Ni  Ni25  1  0.25599768  0.93643880  0.00000000  1.0
  Mo  Mo26  1  0.10061226  0.89938774  0.50000000  1.0
  Mo  Mo27  1  0.89938774  0.10061226  0.50000000  1.0
  Mo  Mo28  1  0.39938774  0.39938774  0.00000000  1.0
  Mo  Mo29  1  0.60061226  0.60061226  0.00000000  1.0
