# generated using pymatgen
data_TiCdO3
_symmetry_space_group_name_H-M   'P 1'
_cell_length_a   5.48469614
_cell_length_b   5.48469614
_cell_length_c   5.48469614
_cell_angle_alpha   58.97408437
_cell_angle_beta   58.97408437
_cell_angle_gamma   58.97408437
_symmetry_Int_Tables_number   1
_chemical_formula_structural   TiCdO3
_chemical_formula_sum   'Ti2 Cd2 O6'
_cell_volume   113.93499693
_cell_formula_units_Z   2
loop_
 _symmetry_equiv_pos_site_id
 _symmetry_equiv_pos_as_xyz
  1  'x, y, z'
loop_
 _atom_site_type_symbol
 _atom_site_label
 _atom_site_symmetry_multiplicity
 _atom_site_fract_x
 _atom_site_fract_y
 _atom_site_fract_z
 _atom_site_occupancy
  Ti  Ti0  1  1.00000000  0.00000000  -0.00000000  1.0
  Ti  Ti1  1  0.50000000  0.50000000  0.50000000  1.0
  Cd  Cd2  1  0.75000000  0.75000000  -0.25000000  1.0
  Cd  Cd3  1  0.25000000  0.25000000  0.25000000  1.0
  O  O4  1  1.33736062  -0.25000000  0.16263938  1.0
  O  O5  1  0.83736062  -0.33736062  0.25000000  1.0
  O  O6  1  0.25000000  0.83736062  -0.33736062  1.0
  O  O7  1  0.75000000  0.16263938  0.33736062  1.0
  O  O8  1  0.66263938  0.25000000  -0.16263938  1.0
  O  O9  1  1.16263938  0.33736062  -0.25000000  1.0
