# generated using pymatgen
data_MgVAgO4
_symmetry_space_group_name_H-M   'P 1'
_cell_length_a   9.51917710
_cell_length_b   6.77906262
_cell_length_c   5.36397053
_cell_angle_alpha   90.00000000
_cell_angle_beta   90.00000000
_cell_angle_gamma   90.00000000
_symmetry_Int_Tables_number   1
_chemical_formula_structural   MgVAgO4
_chemical_formula_sum   'Mg4 V4 Ag4 O16'
_cell_volume   346.14290595
_cell_formula_units_Z   4
loop_
 _symmetry_equiv_pos_site_id
 _symmetry_equiv_pos_as_xyz
  1  'x, y, z'
loop_
 _atom_site_type_symbol
 _atom_site_label
 _atom_site_symmetry_multiplicity
 _atom_site_fract_x
 _atom_site_fract_y
 _atom_site_fract_z
 _atom_site_occupancy
  Mg  Mg0  1  0.50000000  0.50000000  0.50000000  1.0
  Mg  Mg1  1  0.00000000  0.00000000  0.00000000  1.0
  Mg  Mg2  1  0.50000000  0.00000000  0.50000000  1.0
  Mg  Mg3  1  0.00000000  0.50000000  0.00000000  1.0
  V  V4  1  0.17859687  0.75000000  0.47489689  1.0
  V  V5  1  0.67859687  0.75000000  0.02510311  1.0
  V  V6  1  0.82140313  0.25000000  0.52510311  1.0
  V  V7  1  0.32140313  0.25000000  0.97489689  1.0
  Ag  Ag8  1  0.15166803  0.25000000  0.49877214  1.0
  Ag  Ag9  1  0.65166803  0.25000000  1.00122786  1.0
  Ag  Ag10  1  0.84833197  0.75000000  0.50122786  1.0
  Ag  Ag11  1  0.34833197  0.75000000  -0.00122786  1.0
  O  O12  1  0.36517319  0.75000000  0.43982474  1.0
  O  O13  1  0.86517319  0.75000000  0.06017526  1.0
  O  O14  1  0.63482681  0.25000000  0.56017526  1.0
  O  O15  1  0.13482681  0.25000000  0.93982474  1.0
  O  O16  1  0.11600161  0.75000000  0.78281566  1.0
  O  O17  1  0.61600161  0.75000000  0.71718434  1.0
  O  O18  1  0.88399839  0.25000000  0.21718434  1.0
  O  O19  1  0.38399839  0.25000000  0.28281566  1.0
  O  O20  1  0.11465799  0.94785081  0.31571064  1.0
  O  O21  1  0.61465799  0.55214919  0.18428936  1.0
  O  O22  1  0.88534201  0.44785081  0.68428936  1.0
  O  O23  1  0.38534201  0.05214919  0.81571064  1.0
  O  O24  1  0.88534201  0.05214919  0.68428936  1.0
  O  O25  1  0.38534201  0.44785081  0.81571064  1.0
  O  O26  1  0.11465799  0.55214919  0.31571064  1.0
  O  O27  1  0.61465799  0.94785081  0.18428936  1.0
