# generated using pymatgen
data_Mg3Si2O9
_symmetry_space_group_name_H-M   'P 1'
_cell_length_a   5.41213034
_cell_length_b   5.41213034
_cell_length_c   15.03428855
_cell_angle_alpha   90.00000000
_cell_angle_beta   90.00000000
_cell_angle_gamma   120.00000000
_symmetry_Int_Tables_number   1
_chemical_formula_structural   Mg3Si2O9
_chemical_formula_sum   'Mg6 Si4 O18'
_cell_volume   381.37305654
_cell_formula_units_Z   2
loop_
 _symmetry_equiv_pos_site_id
 _symmetry_equiv_pos_as_xyz
  1  'x, y, z'
loop_
 _atom_site_type_symbol
 _atom_site_label
 _atom_site_symmetry_multiplicity
 _atom_site_fract_x
 _atom_site_fract_y
 _atom_site_fract_z
 _atom_site_occupancy
  Mg  Mg0  1  0.35577667  0.35577667  0.71726040  1.0
  Mg  Mg1  1  0.64422333  0.00000000  0.71726040  1.0
  Mg  Mg2  1  -0.00000000  0.64422333  0.71726040  1.0
  Mg  Mg3  1  0.64422333  0.64422333  0.21726040  1.0
  Mg  Mg4  1  0.35577667  0.00000000  0.21726040  1.0
  Mg  Mg5  1  0.00000000  0.35577667  0.21726040  1.0
  Si  Si6  1  0.33333333  0.66666667  0.52933366  1.0
  Si  Si7  1  0.66666667  0.33333333  0.52933366  1.0
  Si  Si8  1  0.66666667  0.33333333  0.02933366  1.0
  Si  Si9  1  0.33333333  0.66666667  0.02933366  1.0
  O  O10  1  0.33333333  0.66666667  0.63908602  1.0
  O  O11  1  0.66666667  0.33333333  0.63908602  1.0
  O  O12  1  0.66666667  0.33333333  0.13908602  1.0
  O  O13  1  0.33333333  0.66666667  0.13908602  1.0
  O  O14  1  0.49839222  0.49839222  0.49422977  1.0
  O  O15  1  0.50160778  0.00000000  0.49422977  1.0
  O  O16  1  -0.00000000  0.50160778  0.49422977  1.0
  O  O17  1  0.50160778  0.50160778  0.99422977  1.0
  O  O18  1  0.49839222  0.00000000  0.99422977  1.0
  O  O19  1  -0.00000000  0.49839222  0.99422977  1.0
  O  O20  1  0.69336517  0.69336517  0.77767502  1.0
  O  O21  1  0.30663483  0.00000000  0.77767502  1.0
  O  O22  1  -0.00000000  0.30663483  0.77767502  1.0
  O  O23  1  0.30663483  0.30663483  0.27767502  1.0
  O  O24  1  0.69336517  0.00000000  0.27767502  1.0
  O  O25  1  0.00000000  0.69336517  0.27767502  1.0
  O  O26  1  0.00000000  0.00000000  0.66636506  1.0
  O  O27  1  0.00000000  0.00000000  0.16636506  1.0
