# generated using pymatgen
data_TeHO3
_symmetry_space_group_name_H-M   'P 1'
_cell_length_a   12.30837532
_cell_length_b   8.29757620
_cell_length_c   4.88275291
_cell_angle_alpha   90.00000000
_cell_angle_beta   90.00000000
_cell_angle_gamma   90.00000000
_symmetry_Int_Tables_number   1
_chemical_formula_structural   TeHO3
_chemical_formula_sum   'Te8 H8 O24'
_cell_volume   498.67400235
_cell_formula_units_Z   8
loop_
 _symmetry_equiv_pos_site_id
 _symmetry_equiv_pos_as_xyz
  1  'x, y, z'
loop_
 _atom_site_type_symbol
 _atom_site_label
 _atom_site_symmetry_multiplicity
 _atom_site_fract_x
 _atom_site_fract_y
 _atom_site_fract_z
 _atom_site_occupancy
  Te  Te0  1  0.44163392  0.35775984  0.49850173  1.0
  Te  Te1  1  0.94163392  0.14224016  0.49850173  1.0
  Te  Te2  1  0.55836608  0.64224016  -0.00149827  1.0
  Te  Te3  1  0.05836608  0.85775984  -0.00149827  1.0
  Te  Te4  1  0.38830762  0.96712788  0.13541538  1.0
  Te  Te5  1  0.88830762  0.53287212  0.13541538  1.0
  Te  Te6  1  0.61169238  0.03287212  0.63541538  1.0
  Te  Te7  1  0.11169238  0.46712788  0.63541538  1.0
  H  H8  1  0.24660596  0.11585587  0.86017147  1.0
  H  H9  1  0.74660596  0.38414413  0.86017147  1.0
  H  H10  1  0.75339404  0.88414413  0.36017147  1.0
  H  H11  1  0.25339404  0.61585587  0.36017147  1.0
  H  H12  1  0.22358078  0.39297991  0.04361031  1.0
  H  H13  1  0.72358078  0.10702009  0.04361031  1.0
  H  H14  1  0.77641922  0.60702009  0.54361031  1.0
  H  H15  1  0.27641922  0.89297991  0.54361031  1.0
  O  O16  1  0.48166522  0.09819077  0.86742822  1.0
  O  O17  1  0.98166522  0.40180923  0.86742822  1.0
  O  O18  1  0.51833478  0.90180923  0.36742822  1.0
  O  O19  1  0.01833478  0.59819077  0.36742822  1.0
  O  O20  1  0.45549595  0.44944816  0.13081952  1.0
  O  O21  1  0.95549595  0.05055184  0.13081952  1.0
  O  O22  1  0.54450405  0.55055184  0.63081952  1.0
  O  O23  1  0.04450405  0.94944816  0.63081952  1.0
  O  O24  1  0.35054688  0.16454603  0.32858557  1.0
  O  O25  1  0.85054688  0.33545397  0.32858557  1.0
  O  O26  1  0.64945312  0.83545397  0.82858557  1.0
  O  O27  1  0.14945312  0.66454603  0.82858557  1.0
  O  O28  1  0.28695795  0.83528886  0.36680747  1.0
  O  O29  1  0.78695795  0.66471114  0.36680747  1.0
  O  O30  1  0.71304205  0.16471114  0.86680747  1.0
  O  O31  1  0.21304205  0.33528886  0.86680747  1.0
  O  O32  1  0.23882271  0.49778724  0.37361954  1.0
  O  O33  1  0.73882271  0.00221276  0.37361954  1.0
  O  O34  1  0.76117729  0.50221276  0.87361954  1.0
  O  O35  1  0.26117729  0.99778724  0.87361954  1.0
  O  O36  1  0.08193544  0.26414405  0.43094080  1.0
  O  O37  1  0.58193544  0.23585595  0.43094080  1.0
  O  O38  1  0.91806456  0.73585595  0.93094080  1.0
  O  O39  1  0.41806456  0.76414405  0.93094080  1.0
