# generated using pymatgen
data_La9(SbO)5
_symmetry_space_group_name_H-M   'P 1'
_cell_length_a   10.48550646
_cell_length_b   10.48550646
_cell_length_c   9.40826119
_cell_angle_alpha   90.00000000
_cell_angle_beta   90.00000000
_cell_angle_gamma   90.00000000
_symmetry_Int_Tables_number   1
_chemical_formula_structural   La9(SbO)5
_chemical_formula_sum   'La18 Sb10 O10'
_cell_volume   1034.39923350
_cell_formula_units_Z   2
loop_
 _symmetry_equiv_pos_site_id
 _symmetry_equiv_pos_as_xyz
  1  'x, y, z'
loop_
 _atom_site_type_symbol
 _atom_site_label
 _atom_site_symmetry_multiplicity
 _atom_site_fract_x
 _atom_site_fract_y
 _atom_site_fract_z
 _atom_site_occupancy
  La  La0  1  0.00000000  0.50000000  0.67048992  1.0
  La  La1  1  0.50000000  -0.00000000  0.32951008  1.0
  La  La2  1  0.20380372  0.10391740  0.65632725  1.0
  La  La3  1  0.79619628  0.89608260  0.65632725  1.0
  La  La4  1  0.60391740  0.29619628  0.65632725  1.0
  La  La5  1  0.39608260  0.70380372  0.65632725  1.0
  La  La6  1  0.29619628  0.39608260  0.34367275  1.0
  La  La7  1  0.70380372  0.60391740  0.34367275  1.0
  La  La8  1  0.89608260  0.20380372  0.34367275  1.0
  La  La9  1  0.10391740  0.79619628  0.34367275  1.0
  La  La10  1  0.91943166  0.72784577  0.00196768  1.0
  La  La11  1  0.08056834  0.27215423  0.00196768  1.0
  La  La12  1  0.22784577  0.58056834  0.00196768  1.0
  La  La13  1  0.77215423  0.41943166  0.00196768  1.0
  La  La14  1  0.58056834  0.77215423  0.99803232  1.0
  La  La15  1  0.41943166  0.22784577  0.99803232  1.0
  La  La16  1  0.27215423  0.91943166  0.99803232  1.0
  La  La17  1  0.72784577  0.08056834  0.99803232  1.0
  Sb  Sb18  1  0.00000000  0.50000000  0.31086250  1.0
  Sb  Sb19  1  0.50000000  -0.00000000  0.68913750  1.0
  Sb  Sb20  1  0.30285338  0.40270192  0.70114035  1.0
  Sb  Sb21  1  0.69714662  0.59729808  0.70114035  1.0
  Sb  Sb22  1  0.90270192  0.19714662  0.70114035  1.0
  Sb  Sb23  1  0.09729808  0.80285338  0.70114035  1.0
  Sb  Sb24  1  0.19714662  0.09729808  0.29885965  1.0
  Sb  Sb25  1  0.80285338  0.90270192  0.29885965  1.0
  Sb  Sb26  1  0.59729808  0.30285338  0.29885965  1.0
  Sb  Sb27  1  0.40270192  0.69714662  0.29885965  1.0
  O  O28  1  0.00000000  0.50000000  0.92767793  1.0
  O  O29  1  0.50000000  -0.00000000  0.07232207  1.0
  O  O30  1  0.12118831  0.77580847  0.09042908  1.0
  O  O31  1  0.87881169  0.22419153  0.09042908  1.0
  O  O32  1  0.27580847  0.37881169  0.09042908  1.0
  O  O33  1  0.72419153  0.62118831  0.09042908  1.0
  O  O34  1  0.37881169  0.72419153  0.90957092  1.0
  O  O35  1  0.62118831  0.27580847  0.90957092  1.0
  O  O36  1  0.22419153  0.12118831  0.90957092  1.0
  O  O37  1  0.77580847  0.87881169  0.90957092  1.0
