# generated using pymatgen
data_VCoP
_symmetry_space_group_name_H-M   'P 1'
_cell_length_a   5.86300139
_cell_length_b   3.49921344
_cell_length_c   6.67875020
_cell_angle_alpha   90.00000000
_cell_angle_beta   90.00000000
_cell_angle_gamma   90.00000000
_symmetry_Int_Tables_number   1
_chemical_formula_structural   VCoP
_chemical_formula_sum   'V4 Co4 P4'
_cell_volume   137.02052641
_cell_formula_units_Z   4
loop_
 _symmetry_equiv_pos_site_id
 _symmetry_equiv_pos_as_xyz
  1  'x, y, z'
loop_
 _atom_site_type_symbol
 _atom_site_label
 _atom_site_symmetry_multiplicity
 _atom_site_fract_x
 _atom_site_fract_y
 _atom_site_fract_z
 _atom_site_occupancy
  V  V0  1  0.02917268  0.25000000  0.16801065  1.0
  V  V1  1  0.52917268  0.25000000  0.33198935  1.0
  V  V2  1  0.97082732  0.75000000  0.83198935  1.0
  V  V3  1  0.47082732  0.75000000  0.66801065  1.0
  Co  Co4  1  0.14321659  0.25000000  0.56099727  1.0
  Co  Co5  1  0.64321659  0.25000000  0.93900273  1.0
  Co  Co6  1  0.85678341  0.75000000  0.43900273  1.0
  Co  Co7  1  0.35678341  0.75000000  0.06099727  1.0
  P  P8  1  0.76684485  0.25000000  0.62553989  1.0
  P  P9  1  0.26684485  0.25000000  0.87446011  1.0
  P  P10  1  0.23315515  0.75000000  0.37446011  1.0
  P  P11  1  0.73315515  0.75000000  0.12553989  1.0
