# generated using pymatgen
data_Tl2TeBr6
_symmetry_space_group_name_H-M   'P 1'
_cell_length_a   7.59054472
_cell_length_b   7.59054472
_cell_length_c   11.29858408
_cell_angle_alpha   90.00000000
_cell_angle_beta   90.00000000
_cell_angle_gamma   90.00000000
_symmetry_Int_Tables_number   1
_chemical_formula_structural   Tl2TeBr6
_chemical_formula_sum   'Tl4 Te2 Br12'
_cell_volume   650.98339105
_cell_formula_units_Z   2
loop_
 _symmetry_equiv_pos_site_id
 _symmetry_equiv_pos_as_xyz
  1  'x, y, z'
loop_
 _atom_site_type_symbol
 _atom_site_label
 _atom_site_symmetry_multiplicity
 _atom_site_fract_x
 _atom_site_fract_y
 _atom_site_fract_z
 _atom_site_occupancy
  Tl  Tl0  1  0.50000000  0.00000000  0.25000000  1.0
  Tl  Tl1  1  0.50000000  0.00000000  0.75000000  1.0
  Tl  Tl2  1  0.00000000  0.50000000  0.75000000  1.0
  Tl  Tl3  1  0.00000000  0.50000000  0.25000000  1.0
  Te  Te4  1  0.50000000  0.50000000  0.50000000  1.0
  Te  Te5  1  0.00000000  0.00000000  0.00000000  1.0
  Br  Br6  1  0.30794716  0.80610857  0.50000000  1.0
  Br  Br7  1  0.80794716  0.69389143  0.00000000  1.0
  Br  Br8  1  0.19389143  0.30794716  0.50000000  1.0
  Br  Br9  1  0.69389143  0.19205284  0.00000000  1.0
  Br  Br10  1  0.69205284  0.19389143  0.50000000  1.0
  Br  Br11  1  0.19205284  0.30610857  0.00000000  1.0
  Br  Br12  1  0.80610857  0.69205284  0.50000000  1.0
  Br  Br13  1  0.30610857  0.80794716  0.00000000  1.0
  Br  Br14  1  0.50000000  0.50000000  0.25677403  1.0
  Br  Br15  1  0.50000000  0.50000000  0.74322597  1.0
  Br  Br16  1  0.00000000  0.00000000  0.75677403  1.0
  Br  Br17  1  0.00000000  0.00000000  0.24322597  1.0
