# generated using pymatgen
data_Sr3Ga3Si2SbO14
_symmetry_space_group_name_H-M   'P 1'
_cell_length_a   8.37646962
_cell_length_b   8.37646962
_cell_length_c   5.14556468
_cell_angle_alpha   90.00000000
_cell_angle_beta   90.00000000
_cell_angle_gamma   120.00000000
_symmetry_Int_Tables_number   1
_chemical_formula_structural   Sr3Ga3Si2SbO14
_chemical_formula_sum   'Sr3 Ga3 Si2 Sb1 O14'
_cell_volume   312.66963658
_cell_formula_units_Z   1
loop_
 _symmetry_equiv_pos_site_id
 _symmetry_equiv_pos_as_xyz
  1  'x, y, z'
loop_
 _atom_site_type_symbol
 _atom_site_label
 _atom_site_symmetry_multiplicity
 _atom_site_fract_x
 _atom_site_fract_y
 _atom_site_fract_z
 _atom_site_occupancy
  Sr  Sr0  1  0.43148481  0.43148481  -0.00000000  1.0
  Sr  Sr1  1  0.00000000  0.56851519  -0.00000000  1.0
  Sr  Sr2  1  0.56851519  0.00000000  -0.00000000  1.0
  Ga  Ga3  1  0.74832485  0.74832485  0.50000000  1.0
  Ga  Ga4  1  -0.00000000  0.25167515  0.50000000  1.0
  Ga  Ga5  1  0.25167515  -0.00000000  0.50000000  1.0
  Si  Si6  1  0.33333333  0.66666667  0.53281186  1.0
  Si  Si7  1  0.66666667  0.33333333  0.46718814  1.0
  Sb  Sb8  1  -0.00000000  -0.00000000  -0.00000000  1.0
  O  O9  1  0.09368568  0.87007159  0.22934713  1.0
  O  O10  1  0.87007159  0.09368568  0.77065287  1.0
  O  O11  1  0.77638590  0.90631432  0.22934713  1.0
  O  O12  1  0.12992841  0.22361410  0.22934713  1.0
  O  O13  1  0.90631432  0.77638590  0.77065287  1.0
  O  O14  1  0.22361410  0.12992841  0.77065287  1.0
  O  O15  1  0.69193619  0.52542939  0.33292889  1.0
  O  O16  1  0.52542939  0.69193619  0.66707111  1.0
  O  O17  1  0.83349320  0.30806381  0.33292889  1.0
  O  O18  1  0.47457061  0.16650680  0.33292889  1.0
  O  O19  1  0.30806381  0.83349320  0.66707111  1.0
  O  O20  1  0.16650680  0.47457061  0.66707111  1.0
  O  O21  1  0.33333333  0.66666667  0.21951280  1.0
  O  O22  1  0.66666667  0.33333333  0.78048720  1.0
