# generated using pymatgen
data_Na2BeF4
_symmetry_space_group_name_H-M   'P 1'
_cell_length_a   5.64981117
_cell_length_b   8.13569472
_cell_length_c   9.02295436
_cell_angle_alpha   90.00000000
_cell_angle_beta   118.26598434
_cell_angle_gamma   90.00000000
_symmetry_Int_Tables_number   1
_chemical_formula_structural   Na2BeF4
_chemical_formula_sum   'Na8 Be4 F16'
_cell_volume   365.28703506
_cell_formula_units_Z   4
loop_
 _symmetry_equiv_pos_site_id
 _symmetry_equiv_pos_as_xyz
  1  'x, y, z'
loop_
 _atom_site_type_symbol
 _atom_site_label
 _atom_site_symmetry_multiplicity
 _atom_site_fract_x
 _atom_site_fract_y
 _atom_site_fract_z
 _atom_site_occupancy
  Na  Na0  1  0.91194501  0.84270293  0.12551303  1.0
  Na  Na1  1  0.91194501  0.65729707  0.62551303  1.0
  Na  Na2  1  0.08805499  0.34270293  0.37448697  1.0
  Na  Na3  1  0.08805499  0.15729707  0.87448697  1.0
  Na  Na4  1  0.64436027  0.98682284  0.36279513  1.0
  Na  Na5  1  0.64436027  0.51317716  0.86279513  1.0
  Na  Na6  1  0.35563973  0.48682284  0.13720487  1.0
  Na  Na7  1  0.35563973  0.01317716  0.63720487  1.0
  Be  Be8  1  0.74566989  0.19718524  0.03800106  1.0
  Be  Be9  1  0.74566989  0.30281476  0.53800106  1.0
  Be  Be10  1  0.25433011  0.69718524  0.46199894  1.0
  Be  Be11  1  0.25433011  0.80281476  0.96199894  1.0
  F  F12  1  0.98279730  0.31852561  0.06739724  1.0
  F  F13  1  0.98279730  0.18147439  0.56739724  1.0
  F  F14  1  0.01720270  0.81852561  0.43260276  1.0
  F  F15  1  0.01720270  0.68147439  0.93260276  1.0
  F  F16  1  0.82363856  0.10711281  0.20628193  1.0
  F  F17  1  0.82363856  0.39288719  0.70628193  1.0
  F  F18  1  0.17636144  0.60711281  0.29371807  1.0
  F  F19  1  0.17636144  0.89288719  0.79371807  1.0
  F  F20  1  0.71183349  0.42939816  0.39875336  1.0
  F  F21  1  0.71183349  0.07060184  0.89875336  1.0
  F  F22  1  0.28816651  0.92939816  0.10124664  1.0
  F  F23  1  0.28816651  0.57060184  0.60124664  1.0
  F  F24  1  0.48454950  0.19530595  0.48009883  1.0
  F  F25  1  0.48454950  0.30469405  0.98009883  1.0
  F  F26  1  0.51545050  0.69530595  0.01990117  1.0
  F  F27  1  0.51545050  0.80469405  0.51990117  1.0
