# generated using pymatgen
data_H3CSNOF2
_symmetry_space_group_name_H-M   'P 1'
_cell_length_a   7.19065014
_cell_length_b   7.19065014
_cell_length_c   11.61241190
_cell_angle_alpha   80.72455250
_cell_angle_beta   99.27544750
_cell_angle_gamma   118.63160741
_symmetry_Int_Tables_number   1
_chemical_formula_structural   H3CSNOF2
_chemical_formula_sum   'H12 C4 S4 N4 O4 F8'
_cell_volume   517.66556901
_cell_formula_units_Z   4
loop_
 _symmetry_equiv_pos_site_id
 _symmetry_equiv_pos_as_xyz
  1  'x, y, z'
loop_
 _atom_site_type_symbol
 _atom_site_label
 _atom_site_symmetry_multiplicity
 _atom_site_fract_x
 _atom_site_fract_y
 _atom_site_fract_z
 _atom_site_occupancy
  H  H0  1  1.31255437  0.50699440  0.31868686  1.0
  H  H1  1  1.50699440  0.31255437  0.18131314  1.0
  H  H2  1  0.68744563  -0.50699440  0.68131314  1.0
  H  H3  1  0.49300560  -0.31255437  0.81868686  1.0
  H  H4  1  0.44448105  -0.32709206  0.43509798  1.0
  H  H5  1  0.67290794  -0.55551895  0.06490202  1.0
  H  H6  1  1.55551895  0.32709206  0.56490202  1.0
  H  H7  1  1.32709206  0.55551895  0.93509798  1.0
  H  H8  1  0.43977806  -0.21037813  0.28680912  1.0
  H  H9  1  0.78962187  -0.56022194  0.21319088  1.0
  H  H10  1  1.56022194  0.21037813  0.71319088  1.0
  H  H11  1  1.21037813  0.56022194  0.78680912  1.0
  C  C12  1  1.34870591  0.65749652  0.35007745  1.0
  C  C13  1  1.65749652  0.34870591  0.14992255  1.0
  C  C14  1  0.65129409  -0.65749652  0.64992255  1.0
  C  C15  1  0.34250348  -0.34870591  0.85007745  1.0
  S  S16  1  1.11169740  0.80460547  0.41171062  1.0
  S  S17  1  1.80460547  0.11169740  0.08828938  1.0
  S  S18  1  0.88830260  -0.80460547  0.58828938  1.0
  S  S19  1  0.19539453  -0.11169740  0.91171062  1.0
  N  N20  1  1.14341423  0.64857395  0.35982967  1.0
  N  N21  1  1.64857395  0.14341423  0.14017033  1.0
  N  N22  1  0.85658577  -0.64857395  0.64017033  1.0
  N  N23  1  0.35142605  -0.14341423  0.85982967  1.0
  O  O24  1  0.90216993  -0.22423537  0.41708609  1.0
  O  O25  1  0.77576463  -0.09783007  0.08291391  1.0
  O  O26  1  1.09783007  0.22423537  0.58291391  1.0
  O  O27  1  1.22423537  0.09783007  0.91708609  1.0
  F  F28  1  0.23830594  -0.14460754  0.54008124  1.0
  F  F29  1  0.85539246  -0.76169406  0.95991876  1.0
  F  F30  1  1.76169406  0.14460754  0.45991876  1.0
  F  F31  1  1.14460754  0.76169406  0.04008124  1.0
  F  F32  1  1.25046690  0.04734547  0.35692603  1.0
  F  F33  1  1.04734547  0.25046690  0.14307397  1.0
  F  F34  1  0.74953310  -0.04734547  0.64307397  1.0
  F  F35  1  0.95265453  -0.25046690  0.85692603  1.0
