# generated using pymatgen
data_La11V4O26
_symmetry_space_group_name_H-M   'P 1'
_cell_length_a   10.37789829
_cell_length_b   10.25503338
_cell_length_c   7.11985657
_cell_angle_alpha   69.97652696
_cell_angle_beta   71.57469544
_cell_angle_gamma   77.47193971
_symmetry_Int_Tables_number   1
_chemical_formula_structural   La11V4O26
_chemical_formula_sum   'La11 V4 O26'
_cell_volume   670.39592073
_cell_formula_units_Z   1
loop_
 _symmetry_equiv_pos_site_id
 _symmetry_equiv_pos_as_xyz
  1  'x, y, z'
loop_
 _atom_site_type_symbol
 _atom_site_label
 _atom_site_symmetry_multiplicity
 _atom_site_fract_x
 _atom_site_fract_y
 _atom_site_fract_z
 _atom_site_occupancy
  La  La0  1  0.19300862  -0.97172202  1.87664831  1.0
  La  La1  1  0.80699138  -0.02827798  0.12335169  1.0
  La  La2  1  0.66131095  -0.36131506  1.17420403  1.0
  La  La3  1  0.33868905  -0.63868494  0.82579597  1.0
  La  La4  1  0.15880193  -0.65626410  1.41177152  1.0
  La  La5  1  0.84119807  -0.34373590  0.58822848  1.0
  La  La6  1  0.59474466  -0.98285914  1.71940771  1.0
  La  La7  1  0.40525534  -0.01714086  0.28059229  1.0
  La  La8  1  0.95342719  -0.66932146  1.02016095  1.0
  La  La9  1  0.04657281  -0.33067854  0.97983905  1.0
  La  La10  1  -0.00000000  0.00000000  0.50000000  1.0
  O  O11  1  0.69936997  -0.53852958  1.51044440  1.0
  O  O12  1  0.30063003  -0.46147042  0.48955560  1.0
  O  O13  1  0.83273652  -0.27203910  1.23348701  1.0
  O  O14  1  0.16726348  -0.72796090  0.76651299  1.0
  O  O15  1  0.61605162  -0.10692963  1.04825901  1.0
  O  O16  1  0.38394838  -0.89307037  0.95174099  1.0
  O  O17  1  0.75213614  -0.84374100  1.76474371  1.0
  O  O18  1  0.24786386  -0.15625900  0.23525629  1.0
  O  O19  1  0.49797944  -0.72997032  1.53235848  1.0
  O  O20  1  0.50202056  -0.27002968  0.46764152  1.0
  O  O21  1  0.93900528  -0.73602191  1.39665591  1.0
  O  O22  1  0.06099472  -0.26397809  0.60334409  1.0
  O  O23  1  0.20032671  -0.90716567  1.48458693  1.0
  O  O24  1  0.79967329  -0.09283433  0.51541307  1.0
  O  O25  1  0.86721626  -0.42034140  0.94357606  1.0
  O  O26  1  0.13278374  -0.57965860  1.05642394  1.0
  O  O27  1  0.67430116  -0.63272367  1.14018375  1.0
  O  O28  1  0.32569884  -0.36727633  0.85981625  1.0
  O  O29  1  0.40062259  -0.68244415  1.17754141  1.0
  O  O30  1  0.59937741  -0.31755585  0.82245859  1.0
  O  O31  1  0.59280251  -0.90605585  1.30268185  1.0
  O  O32  1  0.40719749  -0.09394415  0.69731815  1.0
  O  O33  1  0.98996003  -0.91952892  1.13765356  1.0
  O  O34  1  0.01003997  -0.08047108  0.86234644  1.0
  O  O35  1  0.91440921  -0.60747574  0.67631233  1.0
  O  O36  1  0.08559079  -0.39252426  1.32368767  1.0
  V  V37  1  0.54182043  -0.72790034  1.27866913  1.0
  V  V38  1  0.45817957  -0.27209966  0.72133087  1.0
  V  V39  1  0.80902732  -0.68198931  1.59663724  1.0
  V  V40  1  0.19097268  -0.31801069  0.40336276  1.0
