# generated using pymatgen
data_KIO4
_symmetry_space_group_name_H-M   'P 1'
_cell_length_a   7.75978943
_cell_length_b   7.75978943
_cell_length_c   7.75978943
_cell_angle_alpha   135.44216668
_cell_angle_beta   135.44216668
_cell_angle_gamma   64.84394347
_symmetry_Int_Tables_number   1
_chemical_formula_structural   KIO4
_chemical_formula_sum   'K2 I2 O8'
_cell_volume   226.75596157
_cell_formula_units_Z   2
loop_
 _symmetry_equiv_pos_site_id
 _symmetry_equiv_pos_as_xyz
  1  'x, y, z'
loop_
 _atom_site_type_symbol
 _atom_site_label
 _atom_site_symmetry_multiplicity
 _atom_site_fract_x
 _atom_site_fract_y
 _atom_site_fract_z
 _atom_site_occupancy
  K  K0  1  0.50000000  0.50000000  0.00000000  1.0
  K  K1  1  0.25000000  0.75000000  0.50000000  1.0
  I  I2  1  0.75000000  0.25000000  0.50000000  1.0
  I  I3  1  1.00000000  1.00000000  1.00000000  1.0
  O  O4  1  0.80268643  0.94731052  1.40687262  1.0
  O  O5  1  0.54043790  0.39581381  0.59312738  1.0
  O  O6  1  1.14581381  1.05268643  1.35537590  1.0
  O  O7  1  0.69731052  0.79043790  0.64462410  1.0
  O  O8  1  0.94731357  1.30268948  1.09312738  1.0
  O  O9  1  1.20956210  0.85418619  0.90687262  1.0
  O  O10  1  0.60418619  1.19731357  1.14462410  1.0
  O  O11  1  1.05268948  0.45956210  0.85537590  1.0
