# generated using pymatgen
data_BH6N
_symmetry_space_group_name_H-M   'P 1'
_cell_length_a   5.57425428
_cell_length_b   5.57425428
_cell_length_c   5.82977701
_cell_angle_alpha   90.00000000
_cell_angle_beta   90.00000000
_cell_angle_gamma   119.11460779
_symmetry_Int_Tables_number   1
_chemical_formula_structural   BH6N
_chemical_formula_sum   'B2 H12 N2'
_cell_volume   158.25669135
_cell_formula_units_Z   2
loop_
 _symmetry_equiv_pos_site_id
 _symmetry_equiv_pos_as_xyz
  1  'x, y, z'
loop_
 _atom_site_type_symbol
 _atom_site_label
 _atom_site_symmetry_multiplicity
 _atom_site_fract_x
 _atom_site_fract_y
 _atom_site_fract_z
 _atom_site_occupancy
  B  B0  1  0.16711937  0.83288063  -0.01830944  1.0
  B  B1  1  -0.16711937  1.16711937  0.48169056  1.0
  H  H2  1  0.07041938  0.92958062  0.32297351  1.0
  H  H3  1  -0.07041938  1.07041938  0.82297351  1.0
  H  H4  1  0.07296204  0.63328619  0.31970462  1.0
  H  H5  1  -0.36671381  1.07296204  0.81970462  1.0
  H  H6  1  0.36671381  0.92703796  0.31970462  1.0
  H  H7  1  -0.07296204  1.36671381  0.81970462  1.0
  H  H8  1  0.07212709  0.28389112  0.41756996  1.0
  H  H9  1  -0.71610888  1.07212709  -0.08243004  1.0
  H  H10  1  0.71610888  0.92787291  0.41756996  1.0
  H  H11  1  -0.07212709  1.71610888  -0.08243004  1.0
  H  H12  1  -0.28732005  1.28732005  0.41286148  1.0
  H  H13  1  0.28732005  0.71267995  0.91286148  1.0
  N  N14  1  0.16952667  0.83047333  0.25542528  1.0
  N  N15  1  -0.16952667  1.16952667  0.75542528  1.0
