# generated using pymatgen
data_Y5CoSb2
_symmetry_space_group_name_H-M   'P 1'
_cell_length_a   12.20028940
_cell_length_b   8.78214874
_cell_length_c   7.90062150
_cell_angle_alpha   90.00000000
_cell_angle_beta   90.00000000
_cell_angle_gamma   90.00000000
_symmetry_Int_Tables_number   1
_chemical_formula_structural   Y5CoSb2
_chemical_formula_sum   'Y20 Co4 Sb8'
_cell_volume   846.51016386
_cell_formula_units_Z   4
loop_
 _symmetry_equiv_pos_site_id
 _symmetry_equiv_pos_as_xyz
  1  'x, y, z'
loop_
 _atom_site_type_symbol
 _atom_site_label
 _atom_site_symmetry_multiplicity
 _atom_site_fract_x
 _atom_site_fract_y
 _atom_site_fract_z
 _atom_site_occupancy
  Y  Y0  1  0.93430936  0.96576508  0.17777495  1.0
  Y  Y1  1  0.93430936  0.53423492  0.17777495  1.0
  Y  Y2  1  0.43430936  0.96576508  0.32222505  1.0
  Y  Y3  1  0.43430936  0.53423492  0.32222505  1.0
  Y  Y4  1  0.06569064  0.46576508  0.82222505  1.0
  Y  Y5  1  0.06569064  0.03423492  0.82222505  1.0
  Y  Y6  1  0.56569064  0.46576508  0.67777495  1.0
  Y  Y7  1  0.56569064  0.03423492  0.67777495  1.0
  Y  Y8  1  0.99794947  0.25000000  0.45616687  1.0
  Y  Y9  1  0.49794947  0.25000000  0.04383313  1.0
  Y  Y10  1  0.00205053  0.75000000  0.54383313  1.0
  Y  Y11  1  0.50205053  0.75000000  0.95616687  1.0
  Y  Y12  1  0.80632869  0.25000000  0.87389529  1.0
  Y  Y13  1  0.30632869  0.25000000  0.62610471  1.0
  Y  Y14  1  0.19367131  0.75000000  0.12610471  1.0
  Y  Y15  1  0.69367131  0.75000000  0.37389529  1.0
  Y  Y16  1  0.70347746  0.25000000  0.34413027  1.0
  Y  Y17  1  0.20347746  0.25000000  0.15586973  1.0
  Y  Y18  1  0.29652254  0.75000000  0.65586973  1.0
  Y  Y19  1  0.79652254  0.75000000  0.84413027  1.0
  Co  Co20  1  0.99019000  0.25000000  0.06484454  1.0
  Co  Co21  1  0.49019000  0.25000000  0.43515546  1.0
  Co  Co22  1  0.00981000  0.75000000  0.93515546  1.0
  Co  Co23  1  0.50981000  0.75000000  0.56484454  1.0
  Sb  Sb24  1  0.67289460  0.50734017  0.06870690  1.0
  Sb  Sb25  1  0.67289460  -0.00734017  0.06870690  1.0
  Sb  Sb26  1  0.17289460  0.50734017  0.43129310  1.0
  Sb  Sb27  1  0.17289460  -0.00734017  0.43129310  1.0
  Sb  Sb28  1  0.32710540  1.00734017  0.93129310  1.0
  Sb  Sb29  1  0.32710540  0.49265983  0.93129310  1.0
  Sb  Sb30  1  0.82710540  1.00734017  0.56870690  1.0
  Sb  Sb31  1  0.82710540  0.49265983  0.56870690  1.0
