# generated using pymatgen
data_SbTeI
_symmetry_space_group_name_H-M   'P 1'
_cell_length_a   7.72041494
_cell_length_b   7.76574910
_cell_length_c   4.30563338
_cell_angle_alpha   73.91240109
_cell_angle_beta   73.79144414
_cell_angle_gamma   78.56414520
_symmetry_Int_Tables_number   1
_chemical_formula_structural   SbTeI
_chemical_formula_sum   'Sb2 Te2 I2'
_cell_volume   236.12108751
_cell_formula_units_Z   2
loop_
 _symmetry_equiv_pos_site_id
 _symmetry_equiv_pos_as_xyz
  1  'x, y, z'
loop_
 _atom_site_type_symbol
 _atom_site_label
 _atom_site_symmetry_multiplicity
 _atom_site_fract_x
 _atom_site_fract_y
 _atom_site_fract_z
 _atom_site_occupancy
  Sb  Sb0  1  0.25680543  -0.99749419  0.37052232  1.0
  Sb  Sb1  1  0.74319457  -0.00250581  -0.37052232  1.0
  Te  Te2  1  0.59840886  -0.22689516  0.31418791  1.0
  Te  Te3  1  0.40159114  -0.77310484  -0.31418791  1.0
  I  I4  1  0.86637874  -0.72165403  -0.07247288  1.0
  I  I5  1  0.13362126  -0.27834597  0.07247288  1.0
