# generated using pymatgen
data_CdI2
_symmetry_space_group_name_H-M   'P 1'
_cell_length_a   4.32824086
_cell_length_b   4.32824086
_cell_length_c   68.28024495
_cell_angle_alpha   90.00000000
_cell_angle_beta   90.00000000
_cell_angle_gamma   120.00000000
_symmetry_Int_Tables_number   1
_chemical_formula_structural   CdI2
_chemical_formula_sum   'Cd9 I18'
_cell_volume   1107.76730419
_cell_formula_units_Z   9
loop_
 _symmetry_equiv_pos_site_id
 _symmetry_equiv_pos_as_xyz
  1  'x, y, z'
loop_
 _atom_site_type_symbol
 _atom_site_label
 _atom_site_symmetry_multiplicity
 _atom_site_fract_x
 _atom_site_fract_y
 _atom_site_fract_z
 _atom_site_occupancy
  Cd  Cd0  1  0.00000000  0.00000000  0.02779138  1.0
  Cd  Cd1  1  0.00000000  0.00000000  0.25000038  1.0
  Cd  Cd2  1  0.00000000  0.00000000  0.69445900  1.0
  Cd  Cd3  1  0.00000000  0.00000000  0.80554302  1.0
  Cd  Cd4  1  0.66666667  0.33333333  0.13890097  1.0
  Cd  Cd5  1  0.66666667  0.33333333  0.36111636  1.0
  Cd  Cd6  1  0.66666667  0.33333333  0.47220531  1.0
  Cd  Cd7  1  0.66666667  0.33333333  0.58331452  1.0
  Cd  Cd8  1  0.33333333  0.66666667  0.91666789  1.0
  I  I9  1  0.00000000  0.00000000  0.16408170  1.0
  I  I10  1  0.00000000  0.00000000  0.38629670  1.0
  I  I11  1  0.00000000  0.00000000  0.49738714  1.0
  I  I12  1  0.00000000  0.00000000  0.60848494  1.0
  I  I13  1  0.00000000  0.00000000  0.89149934  1.0
  I  I14  1  0.66666667  0.33333333  0.05297351  1.0
  I  I15  1  0.66666667  0.33333333  0.27518089  1.0
  I  I16  1  0.66666667  0.33333333  0.71962689  1.0
  I  I17  1  0.66666667  0.33333333  0.83071016  1.0
  I  I18  1  0.66666667  0.33333333  0.94183584  1.0
  I  I19  1  0.33333333  0.66666667  0.00260927  1.0
  I  I20  1  0.33333333  0.66666667  0.11372121  1.0
  I  I21  1  0.33333333  0.66666667  0.22482051  1.0
  I  I22  1  0.33333333  0.66666667  0.33593688  1.0
  I  I23  1  0.33333333  0.66666667  0.44702431  1.0
  I  I24  1  0.33333333  0.66666667  0.55814425  1.0
  I  I25  1  0.33333333  0.66666667  0.66929196  1.0
  I  I26  1  0.33333333  0.66666667  0.78037568  1.0
