# generated using pymatgen
data_ZrH3NF4
_symmetry_space_group_name_H-M   'P 1'
_cell_length_a   8.19937626
_cell_length_b   6.23117983
_cell_length_c   9.34059142
_cell_angle_alpha   63.68225097
_cell_angle_beta   62.56286699
_cell_angle_gamma   71.94901263
_symmetry_Int_Tables_number   1
_chemical_formula_structural   ZrH3NF4
_chemical_formula_sum   'Zr4 H12 N4 F16'
_cell_volume   376.28811704
_cell_formula_units_Z   4
loop_
 _symmetry_equiv_pos_site_id
 _symmetry_equiv_pos_as_xyz
  1  'x, y, z'
loop_
 _atom_site_type_symbol
 _atom_site_label
 _atom_site_symmetry_multiplicity
 _atom_site_fract_x
 _atom_site_fract_y
 _atom_site_fract_z
 _atom_site_occupancy
  Zr  Zr0  1  -0.78780048  0.40053944  0.34202940  1.0
  Zr  Zr1  1  -0.21219952  -0.40053944  0.65797060  1.0
  Zr  Zr2  1  -0.70740037  -0.35513242  0.62900566  1.0
  Zr  Zr3  1  -0.29259963  0.35513242  0.37099434  1.0
  H  H4  1  -0.90887663  0.02222295  0.77380453  1.0
  H  H5  1  -0.09112337  -0.02222295  0.22619547  1.0
  H  H6  1  -0.35124707  -0.02104161  0.79928850  1.0
  H  H7  1  -0.64875293  0.02104161  0.20071150  1.0
  H  H8  1  -0.78940852  -0.16950555  0.89411159  1.0
  H  H9  1  -0.21059148  0.16950555  0.10588841  1.0
  H  H10  1  -0.49376690  -0.22825098  0.93244634  1.0
  H  H11  1  -0.50623310  0.22825098  0.06755366  1.0
  H  H12  1  -0.98266438  -0.23661097  0.92497275  1.0
  H  H13  1  -0.01733562  0.23661097  0.07502725  1.0
  H  H14  1  -0.29460996  -0.26541855  0.94786954  1.0
  H  H15  1  -0.70539004  0.26541855  0.05213046  1.0
  N  N16  1  -0.86741905  -0.15702933  0.83055686  1.0
  N  N17  1  -0.13258095  0.15702933  0.16944314  1.0
  N  N18  1  -0.35719610  -0.20285992  0.86095198  1.0
  N  N19  1  -0.64280390  0.20285992  0.13904802  1.0
  F  F20  1  -0.95771899  0.33027692  0.61148690  1.0
  F  F21  1  -0.04228101  -0.33027692  0.38851310  1.0
  F  F22  1  -0.26309382  0.34365384  0.59221970  1.0
  F  F23  1  -0.73690618  -0.34365384  0.40778030  1.0
  F  F24  1  -0.56166307  0.30928597  0.59061633  1.0
  F  F25  1  -0.43833693  -0.30928597  0.40938367  1.0
  F  F26  1  -0.73356321  0.66805035  0.11569633  1.0
  F  F27  1  -0.26643679  -0.66805035  0.88430367  1.0
  F  F28  1  -0.99657606  0.29010395  0.32798822  1.0
  F  F29  1  -0.00342394  -0.29010395  0.67201178  1.0
  F  F30  1  -0.72543233  0.02239142  0.48270550  1.0
  F  F31  1  -0.27456767  -0.02239142  0.51729450  1.0
  F  F32  1  -0.50763302  -0.35042161  0.71371088  1.0
  F  F33  1  -0.49236698  0.35042161  0.28628912  1.0
  F  F34  1  -0.80107710  -0.61543065  0.85803434  1.0
  F  F35  1  -0.19892290  0.61543065  0.14196566  1.0
