# generated using pymatgen
data_Tb2ZnNi2
_symmetry_space_group_name_H-M   'P 1'
_cell_length_a   5.32206702
_cell_length_b   5.32206702
_cell_length_c   5.32206702
_cell_angle_alpha   133.15438608
_cell_angle_beta   119.25381928
_cell_angle_gamma   80.05830417
_symmetry_Int_Tables_number   1
_chemical_formula_structural   Tb2ZnNi2
_chemical_formula_sum   'Tb2 Zn1 Ni2'
_cell_volume   92.80099700
_cell_formula_units_Z   1
loop_
 _symmetry_equiv_pos_site_id
 _symmetry_equiv_pos_as_xyz
  1  'x, y, z'
loop_
 _atom_site_type_symbol
 _atom_site_label
 _atom_site_symmetry_multiplicity
 _atom_site_fract_x
 _atom_site_fract_y
 _atom_site_fract_z
 _atom_site_occupancy
  Tb  Tb0  1  0.70224764  0.20224764  0.50000000  1.0
  Tb  Tb1  1  1.29775236  0.79775236  0.50000000  1.0
  Zn  Zn2  1  0.00000000  0.00000000  0.00000000  1.0
  Ni  Ni3  1  0.26928728  0.50000000  0.76928728  1.0
  Ni  Ni4  1  0.73071272  0.50000000  1.23071272  1.0
