# generated using pymatgen
data_Hg2GeO2
_symmetry_space_group_name_H-M   'P 1'
_cell_length_a   11.05994269
_cell_length_b   8.93100710
_cell_length_c   8.62203453
_cell_angle_alpha   78.09119172
_cell_angle_beta   52.19761916
_cell_angle_gamma   49.71118912
_symmetry_Int_Tables_number   1
_chemical_formula_structural   Hg2GeO2
_chemical_formula_sum   'Hg8 Ge4 O8'
_cell_volume   487.12526818
_cell_formula_units_Z   4
loop_
 _symmetry_equiv_pos_site_id
 _symmetry_equiv_pos_as_xyz
  1  'x, y, z'
loop_
 _atom_site_type_symbol
 _atom_site_label
 _atom_site_symmetry_multiplicity
 _atom_site_fract_x
 _atom_site_fract_y
 _atom_site_fract_z
 _atom_site_occupancy
  Hg  Hg0  1  -0.23958494  0.66824103  0.45095506  1.0
  Hg  Hg1  1  0.12038885  0.45095506  1.66824103  1.0
  Hg  Hg2  1  -0.41824103  0.48958494  1.12961115  1.0
  Hg  Hg3  1  -0.20095506  1.12961115  0.48958494  1.0
  Hg  Hg4  1  0.45095506  0.12038885  -0.23958494  1.0
  Hg  Hg5  1  0.66824103  -0.23958494  1.12038885  1.0
  Hg  Hg6  1  0.12961115  0.79904494  0.58175897  1.0
  Hg  Hg7  1  -0.51041506  0.58175897  0.79904494  1.0
  Ge  Ge8  1  0.12500000  0.12500000  1.62500000  1.0
  Ge  Ge9  1  0.12500000  0.62500000  1.12500000  1.0
  Ge  Ge10  1  0.12500000  0.12500000  1.12500000  1.0
  Ge  Ge11  1  0.62500000  0.12500000  1.12500000  1.0
  O  O12  1  0.30878101  -0.04965430  1.64263157  1.0
  O  O13  1  0.09824171  0.64263157  -0.04965430  1.0
  O  O14  1  0.29965430  -0.05878101  1.15175829  1.0
  O  O15  1  -0.39263157  1.15175829  0.94121899  1.0
  O  O16  1  0.64263157  0.09824171  1.30878101  1.0
  O  O17  1  -0.04965430  0.30878101  0.09824171  1.0
  O  O18  1  1.15175829  -0.39263157  0.29965430  1.0
  O  O19  1  -0.05878101  0.29965430  0.60736843  1.0
