# generated using pymatgen
data_K2CuAs
_symmetry_space_group_name_H-M   'P 1'
_cell_length_a   6.34624388
_cell_length_b   6.34624388
_cell_length_c   5.94732295
_cell_angle_alpha   90.00000000
_cell_angle_beta   90.00000000
_cell_angle_gamma   73.89143097
_symmetry_Int_Tables_number   1
_chemical_formula_structural   K2CuAs
_chemical_formula_sum   'K4 Cu2 As2'
_cell_volume   230.12290971
_cell_formula_units_Z   2
loop_
 _symmetry_equiv_pos_site_id
 _symmetry_equiv_pos_as_xyz
  1  'x, y, z'
loop_
 _atom_site_type_symbol
 _atom_site_label
 _atom_site_symmetry_multiplicity
 _atom_site_fract_x
 _atom_site_fract_y
 _atom_site_fract_z
 _atom_site_occupancy
  K  K0  1  -0.18157614  1.52048747  0.25000000  1.0
  K  K1  1  0.52048747  0.81842386  0.75000000  1.0
  K  K2  1  -0.52048747  1.18157614  0.25000000  1.0
  K  K3  1  0.18157614  0.47951253  0.75000000  1.0
  Cu  Cu4  1  0.00000000  0.00000000  0.50000000  1.0
  Cu  Cu5  1  0.00000000  0.00000000  0.00000000  1.0
  As  As6  1  0.24030367  0.75969633  0.25000000  1.0
  As  As7  1  -0.24030367  1.24030367  0.75000000  1.0
