# generated using pymatgen
data_Pr3(Al3Ru)4
_symmetry_space_group_name_H-M   'P 1'
_cell_length_a   8.88510203
_cell_length_b   8.88510203
_cell_length_c   9.64076428
_cell_angle_alpha   90.00000000
_cell_angle_beta   90.00000000
_cell_angle_gamma   120.00000000
_symmetry_Int_Tables_number   1
_chemical_formula_structural   Pr3(Al3Ru)4
_chemical_formula_sum   'Pr6 Al24 Ru8'
_cell_volume   659.12371072
_cell_formula_units_Z   2
loop_
 _symmetry_equiv_pos_site_id
 _symmetry_equiv_pos_as_xyz
  1  'x, y, z'
loop_
 _atom_site_type_symbol
 _atom_site_label
 _atom_site_symmetry_multiplicity
 _atom_site_fract_x
 _atom_site_fract_y
 _atom_site_fract_z
 _atom_site_occupancy
  Pr  Pr0  1  0.19256244  0.80743756  0.25000000  1.0
  Pr  Pr1  1  0.19256244  0.38512488  0.25000000  1.0
  Pr  Pr2  1  0.80743756  0.19256244  0.75000000  1.0
  Pr  Pr3  1  0.80743756  0.61487512  0.75000000  1.0
  Pr  Pr4  1  0.61487512  0.80743756  0.25000000  1.0
  Pr  Pr5  1  0.38512488  0.19256244  0.75000000  1.0
  Al  Al6  1  0.16157101  0.83842899  0.92345736  1.0
  Al  Al7  1  0.16157101  0.83842899  0.57654264  1.0
  Al  Al8  1  0.16157101  0.32314202  0.92345736  1.0
  Al  Al9  1  0.16157101  0.32314202  0.57654264  1.0
  Al  Al10  1  0.83842899  0.16157101  0.42345736  1.0
  Al  Al11  1  0.83842899  0.16157101  0.07654264  1.0
  Al  Al12  1  0.83842899  0.67685798  0.42345736  1.0
  Al  Al13  1  0.83842899  0.67685798  0.07654264  1.0
  Al  Al14  1  0.67685798  0.83842899  0.92345736  1.0
  Al  Al15  1  0.67685798  0.83842899  0.57654264  1.0
  Al  Al16  1  0.32314202  0.16157101  0.42345736  1.0
  Al  Al17  1  0.32314202  0.16157101  0.07654264  1.0
  Al  Al18  1  0.56180992  0.43819008  0.25000000  1.0
  Al  Al19  1  0.56180992  0.12361985  0.25000000  1.0
  Al  Al20  1  0.43819008  0.56180992  0.75000000  1.0
  Al  Al21  1  0.43819008  0.87638015  0.75000000  1.0
  Al  Al22  1  0.87638015  0.43819008  0.25000000  1.0
  Al  Al23  1  0.12361985  0.56180992  0.75000000  1.0
  Al  Al24  1  0.33333333  0.66666667  0.49483843  1.0
  Al  Al25  1  0.33333333  0.66666667  0.00516157  1.0
  Al  Al26  1  0.66666667  0.33333333  0.99483843  1.0
  Al  Al27  1  0.66666667  0.33333333  0.50516157  1.0
  Al  Al28  1  0.00000000  0.00000000  0.25000000  1.0
  Al  Al29  1  0.00000000  0.00000000  0.75000000  1.0
  Ru  Ru30  1  0.50000000  0.50000000  0.50000000  1.0
  Ru  Ru31  1  0.50000000  0.50000000  0.00000000  1.0
  Ru  Ru32  1  0.50000000  0.00000000  0.50000000  1.0
  Ru  Ru33  1  0.50000000  0.00000000  0.00000000  1.0
  Ru  Ru34  1  0.00000000  0.50000000  0.50000000  1.0
  Ru  Ru35  1  0.00000000  0.50000000  0.00000000  1.0
  Ru  Ru36  1  0.00000000  0.00000000  0.50000000  1.0
  Ru  Ru37  1  0.00000000  0.00000000  0.00000000  1.0
