# generated using pymatgen
data_Te2I
_symmetry_space_group_name_H-M   'P 1'
_cell_length_a   16.22703378
_cell_length_b   4.16454958
_cell_length_c   15.21167787
_cell_angle_alpha   90.00000000
_cell_angle_beta   90.00000000
_cell_angle_gamma   90.00000000
_symmetry_Int_Tables_number   1
_chemical_formula_structural   Te2I
_chemical_formula_sum   'Te16 I8'
_cell_volume   1027.97912965
_cell_formula_units_Z   8
loop_
 _symmetry_equiv_pos_site_id
 _symmetry_equiv_pos_as_xyz
  1  'x, y, z'
loop_
 _atom_site_type_symbol
 _atom_site_label
 _atom_site_symmetry_multiplicity
 _atom_site_fract_x
 _atom_site_fract_y
 _atom_site_fract_z
 _atom_site_occupancy
  Te  Te0  1  0.38495161  0.75000000  0.62187133  1.0
  Te  Te1  1  0.88495161  0.75000000  0.87812867  1.0
  Te  Te2  1  0.61504839  0.25000000  0.37812867  1.0
  Te  Te3  1  0.11504839  0.25000000  0.12187133  1.0
  Te  Te4  1  0.32649448  0.75000000  0.25216262  1.0
  Te  Te5  1  0.82649448  0.75000000  0.24783738  1.0
  Te  Te6  1  0.67350552  0.25000000  0.74783738  1.0
  Te  Te7  1  0.17350552  0.25000000  0.75216262  1.0
  Te  Te8  1  0.20127878  0.75000000  0.62224284  1.0
  Te  Te9  1  0.70127878  0.75000000  0.87775716  1.0
  Te  Te10  1  0.79872122  0.25000000  0.37775716  1.0
  Te  Te11  1  0.29872122  0.25000000  0.12224284  1.0
  Te  Te12  1  0.08448629  0.75000000  0.25178137  1.0
  Te  Te13  1  0.58448629  0.75000000  0.24821863  1.0
  Te  Te14  1  0.91551371  0.25000000  0.74821863  1.0
  Te  Te15  1  0.41551371  0.25000000  0.75178137  1.0
  I  I16  1  0.45448585  0.75000000  0.89670017  1.0
  I  I17  1  0.95448585  0.75000000  0.60329983  1.0
  I  I18  1  0.54551415  0.25000000  0.10329983  1.0
  I  I19  1  0.04551415  0.25000000  0.39670017  1.0
  I  I20  1  0.13756874  0.75000000  0.89990639  1.0
  I  I21  1  0.63756874  0.75000000  0.60009361  1.0
  I  I22  1  0.86243126  0.25000000  0.10009361  1.0
  I  I23  1  0.36243126  0.25000000  0.39990639  1.0
