# generated using pymatgen
data_LiZnAsH2O5
_symmetry_space_group_name_H-M   'P 1'
_cell_length_a   11.25047445
_cell_length_b   8.38994008
_cell_length_c   5.22253481
_cell_angle_alpha   90.00000000
_cell_angle_beta   90.00000000
_cell_angle_gamma   90.00000000
_symmetry_Int_Tables_number   1
_chemical_formula_structural   LiZnAsH2O5
_chemical_formula_sum   'Li4 Zn4 As4 H8 O20'
_cell_volume   492.95927265
_cell_formula_units_Z   4
loop_
 _symmetry_equiv_pos_site_id
 _symmetry_equiv_pos_as_xyz
  1  'x, y, z'
loop_
 _atom_site_type_symbol
 _atom_site_label
 _atom_site_symmetry_multiplicity
 _atom_site_fract_x
 _atom_site_fract_y
 _atom_site_fract_z
 _atom_site_occupancy
  Li  Li0  1  0.81559048  0.67883683  0.24716333  1.0
  Li  Li1  1  0.18440952  0.32116317  0.74716333  1.0
  Li  Li2  1  0.68440952  0.17883683  0.74716333  1.0
  Li  Li3  1  0.31559048  0.82116317  0.24716333  1.0
  Zn  Zn4  1  0.87441631  0.87465383  0.74939660  1.0
  Zn  Zn5  1  0.12558369  0.12534617  0.24939660  1.0
  Zn  Zn6  1  0.62558369  0.37465383  0.24939660  1.0
  Zn  Zn7  1  0.37441631  0.62534617  0.74939660  1.0
  As  As8  1  0.66515979  0.58709174  0.75517979  1.0
  As  As9  1  0.33484021  0.41290826  0.25517979  1.0
  As  As10  1  0.83484021  0.08709174  0.25517979  1.0
  As  As11  1  0.16515979  0.91290826  0.75517979  1.0
  H  H12  1  0.02682557  0.66652228  0.14257448  1.0
  H  H13  1  0.97317443  0.33347772  0.64257448  1.0
  H  H14  1  0.47317443  0.16652228  0.64257448  1.0
  H  H15  1  0.52682557  0.83347772  0.14257448  1.0
  H  H16  1  0.01665750  0.54497580  0.37654125  1.0
  H  H17  1  0.98334250  0.45502420  0.87654125  1.0
  H  H18  1  0.48334250  0.04497580  0.87654125  1.0
  H  H19  1  0.51665750  0.95502420  0.37654125  1.0
  O  O20  1  0.53646134  0.68591748  0.84414932  1.0
  O  O21  1  0.46353866  0.31408252  0.34414932  1.0
  O  O22  1  0.96353866  0.18591748  0.34414932  1.0
  O  O23  1  0.03646134  0.81408252  0.84414932  1.0
  O  O24  1  0.78408242  0.69027329  0.88441012  1.0
  O  O25  1  0.21591758  0.30972671  0.38441012  1.0
  O  O26  1  0.71591758  0.19027329  0.38441012  1.0
  O  O27  1  0.28408242  0.80972671  0.88441012  1.0
  O  O28  1  0.68405008  0.57070106  0.42551039  1.0
  O  O29  1  0.31594992  0.42929894  0.92551039  1.0
  O  O30  1  0.81594992  0.07070106  0.92551039  1.0
  O  O31  1  0.18405008  0.92929894  0.42551039  1.0
  O  O32  1  0.66450193  0.39536218  0.88468073  1.0
  O  O33  1  0.33549807  0.60463782  0.38468073  1.0
  O  O34  1  0.83549807  0.89536218  0.38468073  1.0
  O  O35  1  0.16450193  0.10463782  0.88468073  1.0
  O  O36  1  0.97693865  0.58372260  0.22139399  1.0
  O  O37  1  0.02306135  0.41627740  0.72139399  1.0
  O  O38  1  0.52306135  0.08372260  0.72139399  1.0
  O  O39  1  0.47693865  0.91627740  0.22139399  1.0
