# generated using pymatgen
data_Cs2RuO4
_symmetry_space_group_name_H-M   'P 1'
_cell_length_a   8.63984008
_cell_length_b   6.62043099
_cell_length_c   11.73899995
_cell_angle_alpha   90.00000000
_cell_angle_beta   90.00000000
_cell_angle_gamma   90.00000000
_symmetry_Int_Tables_number   1
_chemical_formula_structural   Cs2RuO4
_chemical_formula_sum   'Cs8 Ru4 O16'
_cell_volume   671.46451638
_cell_formula_units_Z   4
loop_
 _symmetry_equiv_pos_site_id
 _symmetry_equiv_pos_as_xyz
  1  'x, y, z'
loop_
 _atom_site_type_symbol
 _atom_site_label
 _atom_site_symmetry_multiplicity
 _atom_site_fract_x
 _atom_site_fract_y
 _atom_site_fract_z
 _atom_site_occupancy
  Cs  Cs0  1  0.83054082  0.75000000  0.42140299  1.0
  Cs  Cs1  1  0.33054082  0.75000000  0.07859701  1.0
  Cs  Cs2  1  0.16945918  0.25000000  0.57859701  1.0
  Cs  Cs3  1  0.66945918  0.25000000  0.92140299  1.0
  Cs  Cs4  1  0.50295157  0.75000000  0.70478574  1.0
  Cs  Cs5  1  0.00295157  0.75000000  0.79521426  1.0
  Cs  Cs6  1  0.49704843  0.25000000  0.29521426  1.0
  Cs  Cs7  1  0.99704843  0.25000000  0.20478574  1.0
  Ru  Ru8  1  0.77778077  0.75000000  0.08003192  1.0
  Ru  Ru9  1  0.27778077  0.75000000  0.41996808  1.0
  Ru  Ru10  1  0.22221923  0.25000000  0.91996808  1.0
  Ru  Ru11  1  0.72221923  0.25000000  0.58003192  1.0
  O  O12  1  0.19883234  0.75000000  0.56182868  1.0
  O  O13  1  0.69883234  0.75000000  0.93817132  1.0
  O  O14  1  0.80116766  0.25000000  0.43817132  1.0
  O  O15  1  0.30116766  0.25000000  0.06182868  1.0
  O  O16  1  0.70727996  0.97165896  0.15032384  1.0
  O  O17  1  0.70727996  0.52834104  0.15032384  1.0
  O  O18  1  0.20727996  0.97165896  0.34967616  1.0
  O  O19  1  0.20727996  0.52834104  0.34967616  1.0
  O  O20  1  0.29272004  0.47165896  0.84967616  1.0
  O  O21  1  0.29272004  0.02834104  0.84967616  1.0
  O  O22  1  0.79272004  0.47165896  0.65032384  1.0
  O  O23  1  0.79272004  0.02834104  0.65032384  1.0
  O  O24  1  0.98342808  0.75000000  0.07572986  1.0
  O  O25  1  0.48342808  0.75000000  0.42427014  1.0
  O  O26  1  0.01657192  0.25000000  0.92427014  1.0
  O  O27  1  0.51657192  0.25000000  0.57572986  1.0
