# generated using pymatgen
data_Y4Sb3
_symmetry_space_group_name_H-M   'P 1'
_cell_length_a   7.97036819
_cell_length_b   7.97036819
_cell_length_c   7.97036819
_cell_angle_alpha   109.47122063
_cell_angle_beta   109.47122063
_cell_angle_gamma   109.47122063
_symmetry_Int_Tables_number   1
_chemical_formula_structural   Y4Sb3
_chemical_formula_sum   'Y8 Sb6'
_cell_volume   389.77435443
_cell_formula_units_Z   2
loop_
 _symmetry_equiv_pos_site_id
 _symmetry_equiv_pos_as_xyz
  1  'x, y, z'
loop_
 _atom_site_type_symbol
 _atom_site_label
 _atom_site_symmetry_multiplicity
 _atom_site_fract_x
 _atom_site_fract_y
 _atom_site_fract_z
 _atom_site_occupancy
  Y  Y0  1  1.35574962  1.35574962  1.35574962  1.0
  Y  Y1  1  1.50000000  1.00000000  1.14425038  1.0
  Y  Y2  1  0.85574962  0.85574962  0.85574962  1.0
  Y  Y3  1  0.50000000  1.00000000  0.64425038  1.0
  Y  Y4  1  1.00000000  1.14425038  1.50000000  1.0
  Y  Y5  1  1.14425038  0.50000000  1.00000000  1.0
  Y  Y6  1  1.00000000  0.64425038  1.50000000  1.0
  Y  Y7  1  0.64425038  1.50000000  1.00000000  1.0
  Sb  Sb8  1  1.12500000  0.87500000  1.25000000  1.0
  Sb  Sb9  1  0.37500000  0.62500000  0.75000000  1.0
  Sb  Sb10  1  0.25000000  1.12500000  0.87500000  1.0
  Sb  Sb11  1  0.75000000  1.37500000  0.62500000  1.0
  Sb  Sb12  1  0.62500000  0.75000000  0.37500000  1.0
  Sb  Sb13  1  0.87500000  0.25000000  1.12500000  1.0
