# generated using pymatgen
data_PtF4
_symmetry_space_group_name_H-M   'P 1'
_cell_length_a   5.68113639
_cell_length_b   5.62600502
_cell_length_c   6.74749132
_cell_angle_alpha   53.73937536
_cell_angle_beta   52.98805583
_cell_angle_gamma   73.27256881
_symmetry_Int_Tables_number   1
_chemical_formula_structural   PtF4
_chemical_formula_sum   'Pt2 F8'
_cell_volume   138.07701688
_cell_formula_units_Z   2
loop_
 _symmetry_equiv_pos_site_id
 _symmetry_equiv_pos_as_xyz
  1  'x, y, z'
loop_
 _atom_site_type_symbol
 _atom_site_label
 _atom_site_symmetry_multiplicity
 _atom_site_fract_x
 _atom_site_fract_y
 _atom_site_fract_z
 _atom_site_occupancy
  Pt  Pt0  1  1.00269157  0.00269157  -0.00269157  1.0
  Pt  Pt1  1  0.25269157  0.25269157  1.24730843  1.0
  F  F2  1  0.30346049  0.71210941  1.00939298  1.0
  F  F3  1  1.24060702  0.27496288  -0.05346049  1.0
  F  F4  1  0.71210941  -0.69653951  0.97503712  1.0
  F  F5  1  0.27496288  0.24060702  1.53789059  1.0
  F  F6  1  -0.16497451  0.24471304  1.47592725  1.0
  F  F7  1  0.77407275  -0.19433423  0.41497451  1.0
  F  F8  1  1.24471304  -0.16497451  0.44433423  1.0
  F  F9  1  0.80566577  0.77407275  1.00528696  1.0
