# generated using pymatgen
data_Rb6Ge2O7
_symmetry_space_group_name_H-M   'P 1'
_cell_length_a   6.93193651
_cell_length_b   9.55927136
_cell_length_c   11.75217373
_cell_angle_alpha   90.00000000
_cell_angle_beta   124.56796399
_cell_angle_gamma   90.00000000
_symmetry_Int_Tables_number   1
_chemical_formula_structural   Rb6Ge2O7
_chemical_formula_sum   'Rb12 Ge4 O14'
_cell_volume   641.26387609
_cell_formula_units_Z   2
loop_
 _symmetry_equiv_pos_site_id
 _symmetry_equiv_pos_as_xyz
  1  'x, y, z'
loop_
 _atom_site_type_symbol
 _atom_site_label
 _atom_site_symmetry_multiplicity
 _atom_site_fract_x
 _atom_site_fract_y
 _atom_site_fract_z
 _atom_site_occupancy
  Rb  Rb0  1  0.89922851  0.71321838  0.27833576  1.0
  Rb  Rb1  1  0.89922851  0.78678162  0.77833576  1.0
  Rb  Rb2  1  0.10077149  0.21321838  0.22166424  1.0
  Rb  Rb3  1  0.10077149  0.28678162  0.72166424  1.0
  Rb  Rb4  1  0.70918606  0.02752521  0.45795521  1.0
  Rb  Rb5  1  0.70918606  0.47247479  0.95795521  1.0
  Rb  Rb6  1  0.29081394  0.52752521  0.04204479  1.0
  Rb  Rb7  1  0.29081394  0.97247479  0.54204479  1.0
  Rb  Rb8  1  0.46055679  0.14677187  0.08164149  1.0
  Rb  Rb9  1  0.46055679  0.35322813  0.58164149  1.0
  Rb  Rb10  1  0.53944321  0.64677187  0.41835851  1.0
  Rb  Rb11  1  0.53944321  0.85322813  0.91835851  1.0
  Ge  Ge12  1  0.82114174  0.36099089  0.37256168  1.0
  Ge  Ge13  1  0.82114174  0.13900911  0.87256168  1.0
  Ge  Ge14  1  0.17885826  0.86099089  0.12743832  1.0
  Ge  Ge15  1  0.17885826  0.63900911  0.62743832  1.0
  O  O16  1  0.00715937  0.21176807  0.43528052  1.0
  O  O17  1  0.00715937  0.28823193  0.93528052  1.0
  O  O18  1  0.99284063  0.71176807  0.06471948  1.0
  O  O19  1  0.99284063  0.78823193  0.56471948  1.0
  O  O20  1  0.75326988  0.41596241  0.20959602  1.0
  O  O21  1  0.75326988  0.08403759  0.70959602  1.0
  O  O22  1  0.24673012  0.91596241  0.29040398  1.0
  O  O23  1  0.24673012  0.58403759  0.79040398  1.0
  O  O24  1  0.56846495  0.33868208  0.37475683  1.0
  O  O25  1  0.56846495  0.16131792  0.87475683  1.0
  O  O26  1  0.43153505  0.83868208  0.12524317  1.0
  O  O27  1  0.43153505  0.66131792  0.62524317  1.0
  O  O28  1  -0.00000000  0.50000000  0.50000000  1.0
  O  O29  1  0.00000000  0.00000000  0.00000000  1.0
