# generated using pymatgen
data_BaTe2(HO4)2
_symmetry_space_group_name_H-M   'P 1'
_cell_length_a   5.21212640
_cell_length_b   15.80563566
_cell_length_c   8.89188945
_cell_angle_alpha   90.00000000
_cell_angle_beta   91.37841271
_cell_angle_gamma   90.00000000
_symmetry_Int_Tables_number   1
_chemical_formula_structural   BaTe2(HO4)2
_chemical_formula_sum   'Ba4 Te8 H8 O32'
_cell_volume   732.31051141
_cell_formula_units_Z   4
loop_
 _symmetry_equiv_pos_site_id
 _symmetry_equiv_pos_as_xyz
  1  'x, y, z'
loop_
 _atom_site_type_symbol
 _atom_site_label
 _atom_site_symmetry_multiplicity
 _atom_site_fract_x
 _atom_site_fract_y
 _atom_site_fract_z
 _atom_site_occupancy
  Ba  Ba0  1  0.76583094  0.62468095  0.19957312  1.0
  Ba  Ba1  1  0.23416906  0.12468095  0.30042688  1.0
  Ba  Ba2  1  0.23416906  0.37531905  0.80042688  1.0
  Ba  Ba3  1  0.76583094  0.87531905  0.69957312  1.0
  Te  Te4  1  0.20975111  0.84591137  0.35144406  1.0
  Te  Te5  1  0.79024889  0.34591137  0.14855594  1.0
  Te  Te6  1  0.79024889  0.15408863  0.64855594  1.0
  Te  Te7  1  0.20975111  0.65408863  0.85144406  1.0
  Te  Te8  1  0.69696802  0.90870625  0.18017342  1.0
  Te  Te9  1  0.30303198  0.40870625  0.31982658  1.0
  Te  Te10  1  0.30303198  0.09129375  0.81982658  1.0
  Te  Te11  1  0.69696802  0.59129375  0.68017342  1.0
  H  H12  1  0.09405008  0.70950216  0.47884838  1.0
  H  H13  1  0.90594992  0.20950216  0.02115162  1.0
  H  H14  1  0.90594992  0.29049784  0.52115162  1.0
  H  H15  1  0.09405008  0.79049784  0.97884838  1.0
  H  H16  1  0.30184548  0.55432248  0.41779765  1.0
  H  H17  1  0.69815452  0.05432248  0.08220235  1.0
  H  H18  1  0.69815452  0.44567752  0.58220235  1.0
  H  H19  1  0.30184548  0.94567752  0.91779765  1.0
  O  O20  1  0.02251756  0.84160689  0.14362850  1.0
  O  O21  1  0.97748244  0.34160689  0.35637150  1.0
  O  O22  1  0.97748244  0.15839311  0.85637150  1.0
  O  O23  1  0.02251756  0.65839311  0.64362850  1.0
  O  O24  1  0.06720794  0.72886997  0.37272185  1.0
  O  O25  1  0.93279206  0.22886997  0.12727815  1.0
  O  O26  1  0.93279206  0.27113003  0.62727815  1.0
  O  O27  1  0.06720794  0.77113003  0.87272185  1.0
  O  O28  1  0.11706875  0.41274900  0.11224102  1.0
  O  O29  1  0.88293125  0.91274900  0.38775898  1.0
  O  O30  1  0.88293125  0.58725100  0.88775898  1.0
  O  O31  1  0.11706875  0.08725100  0.61224102  1.0
  O  O32  1  0.17116640  0.52650791  0.34716643  1.0
  O  O33  1  0.82883360  0.02650791  0.15283357  1.0
  O  O34  1  0.82883360  0.47349209  0.65283357  1.0
  O  O35  1  0.17116640  0.97349209  0.84716643  1.0
  O  O36  1  0.29996899  0.64513750  0.05847442  1.0
  O  O37  1  0.70003101  0.14513750  0.44152558  1.0
  O  O38  1  0.70003101  0.35486250  0.94152558  1.0
  O  O39  1  0.29996899  0.85486250  0.55847442  1.0
  O  O40  1  0.38298275  0.95610943  0.28221693  1.0
  O  O41  1  0.61701725  0.45610943  0.21778307  1.0
  O  O42  1  0.61701725  0.04389057  0.71778307  1.0
  O  O43  1  0.38298275  0.54389057  0.78221693  1.0
  O  O44  1  0.52574931  0.79858679  0.25487894  1.0
  O  O45  1  0.47425069  0.29858679  0.24512106  1.0
  O  O46  1  0.47425069  0.20141321  0.74512106  1.0
  O  O47  1  0.52574931  0.70141321  0.75487894  1.0
  O  O48  1  0.57083257  0.60337119  0.47869358  1.0
  O  O49  1  0.42916743  0.10337119  0.02130642  1.0
  O  O50  1  0.42916743  0.39662881  0.52130642  1.0
  O  O51  1  0.57083257  0.89662881  0.97869358  1.0
