# generated using pymatgen
data_Sr2P6Rh7
_symmetry_space_group_name_H-M   'P 1'
_cell_length_a   11.18117118
_cell_length_b   11.18117118
_cell_length_c   4.13281128
_cell_angle_alpha   90.00000000
_cell_angle_beta   90.00000000
_cell_angle_gamma   90.00000000
_symmetry_Int_Tables_number   1
_chemical_formula_structural   Sr2P6Rh7
_chemical_formula_sum   'Sr4 P12 Rh14'
_cell_volume   516.67823503
_cell_formula_units_Z   2
loop_
 _symmetry_equiv_pos_site_id
 _symmetry_equiv_pos_as_xyz
  1  'x, y, z'
loop_
 _atom_site_type_symbol
 _atom_site_label
 _atom_site_symmetry_multiplicity
 _atom_site_fract_x
 _atom_site_fract_y
 _atom_site_fract_z
 _atom_site_occupancy
  Sr  Sr0  1  0.33810659  0.83810659  0.75044747  1.0
  Sr  Sr1  1  0.16189341  0.33810659  0.24955253  1.0
  Sr  Sr2  1  0.66189341  0.16189341  0.75044747  1.0
  Sr  Sr3  1  0.83810659  0.66189341  0.24955253  1.0
  P  P4  1  0.38909772  0.35778754  0.72492131  1.0
  P  P5  1  0.11090228  0.85778754  0.27507869  1.0
  P  P6  1  0.64221246  0.38909772  0.27507869  1.0
  P  P7  1  0.85778754  0.88909772  0.72492131  1.0
  P  P8  1  0.61090228  0.64221246  0.72492131  1.0
  P  P9  1  0.88909772  0.14221246  0.27507869  1.0
  P  P10  1  0.35778754  0.61090228  0.27507869  1.0
  P  P11  1  0.14221246  0.11090228  0.72492131  1.0
  P  P12  1  0.92730765  0.42730765  0.76550632  1.0
  P  P13  1  0.57269235  0.92730765  0.23449368  1.0
  P  P14  1  0.07269235  0.57269235  0.76550632  1.0
  P  P15  1  0.42730765  0.07269235  0.23449368  1.0
  Rh  Rh16  1  0.96286602  0.22361246  0.75426513  1.0
  Rh  Rh17  1  0.53713398  0.72361246  0.24573487  1.0
  Rh  Rh18  1  0.77638754  0.96286602  0.24573487  1.0
  Rh  Rh19  1  0.72361246  0.46286602  0.75426513  1.0
  Rh  Rh20  1  0.03713398  0.77638754  0.75426513  1.0
  Rh  Rh21  1  0.46286602  0.27638754  0.24573487  1.0
  Rh  Rh22  1  0.22361246  0.03713398  0.24573487  1.0
  Rh  Rh23  1  0.27638754  0.53713398  0.75426513  1.0
  Rh  Rh24  1  0.84720672  0.34720672  0.26297806  1.0
  Rh  Rh25  1  0.65279328  0.84720672  0.73702194  1.0
  Rh  Rh26  1  0.15279328  0.65279328  0.26297806  1.0
  Rh  Rh27  1  0.34720672  0.15279328  0.73702194  1.0
  Rh  Rh28  1  0.50000000  0.50000000  0.00000000  1.0
  Rh  Rh29  1  0.00000000  0.00000000  0.00000000  1.0
