# generated using pymatgen
data_NaNiPO4
_symmetry_space_group_name_H-M   'P 1'
_cell_length_a   8.90000908
_cell_length_b   6.77949265
_cell_length_c   5.06444598
_cell_angle_alpha   90.00000000
_cell_angle_beta   90.00000000
_cell_angle_gamma   90.00000000
_symmetry_Int_Tables_number   1
_chemical_formula_structural   NaNiPO4
_chemical_formula_sum   'Na4 Ni4 P4 O16'
_cell_volume   305.57624289
_cell_formula_units_Z   4
loop_
 _symmetry_equiv_pos_site_id
 _symmetry_equiv_pos_as_xyz
  1  'x, y, z'
loop_
 _atom_site_type_symbol
 _atom_site_label
 _atom_site_symmetry_multiplicity
 _atom_site_fract_x
 _atom_site_fract_y
 _atom_site_fract_z
 _atom_site_occupancy
  Ni  Ni0  1  0.00000000  0.50000000  0.00000000  1.0
  Ni  Ni1  1  0.00000000  0.00000000  0.00000000  1.0
  Ni  Ni2  1  0.50000000  0.50000000  0.50000000  1.0
  Ni  Ni3  1  0.50000000  0.00000000  0.50000000  1.0
  Na  Na4  1  0.85134095  0.25000000  0.52633792  1.0
  Na  Na5  1  0.35134095  0.25000000  0.97366208  1.0
  Na  Na6  1  0.14865905  0.75000000  0.47366208  1.0
  Na  Na7  1  0.64865905  0.75000000  0.02633792  1.0
  O  O8  1  0.62368072  0.43713368  0.18436397  1.0
  O  O9  1  0.62368072  0.06286632  0.18436397  1.0
  O  O10  1  0.12368072  0.43713368  0.31563603  1.0
  O  O11  1  0.12368072  0.06286632  0.31563603  1.0
  O  O12  1  0.37631928  0.93713368  0.81563603  1.0
  O  O13  1  0.37631928  0.56286632  0.81563603  1.0
  O  O14  1  0.87631928  0.93713368  0.68436397  1.0
  O  O15  1  0.87631928  0.56286632  0.68436397  1.0
  O  O16  1  0.85616309  0.25000000  0.04917008  1.0
  O  O17  1  0.35616309  0.25000000  0.45082992  1.0
  O  O18  1  0.14383691  0.75000000  0.95082992  1.0
  O  O19  1  0.64383691  0.75000000  0.54917008  1.0
  O  O20  1  0.61636231  0.25000000  0.74678340  1.0
  O  O21  1  0.11636231  0.25000000  0.75321660  1.0
  O  O22  1  0.38363769  0.75000000  0.25321660  1.0
  O  O23  1  0.88363769  0.75000000  0.24678340  1.0
  P  P24  1  0.67721065  0.25000000  0.03825451  1.0
  P  P25  1  0.17721065  0.25000000  0.46174549  1.0
  P  P26  1  0.32278935  0.75000000  0.96174549  1.0
  P  P27  1  0.82278935  0.75000000  0.53825451  1.0
