# generated using pymatgen
data_Ni4B3
_symmetry_space_group_name_H-M   'P 1'
_cell_length_a   4.01702560
_cell_length_b   4.01702560
_cell_length_c   7.84782595
_cell_angle_alpha   80.44547692
_cell_angle_beta   99.55452308
_cell_angle_gamma   104.90424469
_symmetry_Int_Tables_number   1
_chemical_formula_structural   Ni4B3
_chemical_formula_sum   'Ni8 B6'
_cell_volume   119.66408367
_cell_formula_units_Z   2
loop_
 _symmetry_equiv_pos_site_id
 _symmetry_equiv_pos_as_xyz
  1  'x, y, z'
loop_
 _atom_site_type_symbol
 _atom_site_label
 _atom_site_symmetry_multiplicity
 _atom_site_fract_x
 _atom_site_fract_y
 _atom_site_fract_z
 _atom_site_occupancy
  Ni  Ni0  1  0.70685526  0.79727246  1.00739362  1.0
  Ni  Ni1  1  1.79727246  -0.29314474  0.49260638  1.0
  Ni  Ni2  1  1.29314474  -0.79727246  -0.00739362  1.0
  Ni  Ni3  1  0.20272754  0.29314474  0.50739362  1.0
  Ni  Ni4  1  0.77745519  0.36449732  0.79012601  1.0
  Ni  Ni5  1  1.36449732  -0.22254481  0.70987399  1.0
  Ni  Ni6  1  1.22254481  -0.36449732  0.20987399  1.0
  Ni  Ni7  1  0.63550268  0.22254481  0.29012601  1.0
  B  B8  1  1.15585341  -0.31166478  0.94013475  1.0
  B  B9  1  0.68833522  0.15585341  0.55986525  1.0
  B  B10  1  0.84414659  0.31166478  0.05986525  1.0
  B  B11  1  1.31166478  -0.15585341  0.44013475  1.0
  B  B12  1  0.92001546  0.92001546  0.75000000  1.0
  B  B13  1  0.07998454  0.07998454  0.25000000  1.0
