# generated using pymatgen
data_K2CaS2O9
_symmetry_space_group_name_H-M   'P 1'
_cell_length_a   6.28438030
_cell_length_b   7.22167442
_cell_length_c   10.12857606
_cell_angle_alpha   90.00000000
_cell_angle_beta   104.76121238
_cell_angle_gamma   90.00000000
_symmetry_Int_Tables_number   1
_chemical_formula_structural   K2CaS2O9
_chemical_formula_sum   'K4 Ca2 S4 O18'
_cell_volume   444.50175288
_cell_formula_units_Z   2
loop_
 _symmetry_equiv_pos_site_id
 _symmetry_equiv_pos_as_xyz
  1  'x, y, z'
loop_
 _atom_site_type_symbol
 _atom_site_label
 _atom_site_symmetry_multiplicity
 _atom_site_fract_x
 _atom_site_fract_y
 _atom_site_fract_z
 _atom_site_occupancy
  O  O0  1  0.70372034  0.41614411  0.49167555  1.0
  O  O1  1  0.70372034  0.08385589  0.49167555  1.0
  O  O2  1  0.29627966  0.91614411  0.50832445  1.0
  O  O3  1  0.29627966  0.58385589  0.50832445  1.0
  O  O4  1  0.97636051  0.75000000  0.36698155  1.0
  O  O5  1  0.02363949  0.25000000  0.63301845  1.0
  O  O6  1  0.93143479  0.75000000  0.96201387  1.0
  O  O7  1  0.06856521  0.25000000  0.03798613  1.0
  O  O8  1  0.53309563  0.75000000  0.93514067  1.0
  O  O9  1  0.46690437  0.25000000  0.06485933  1.0
  O  O10  1  0.04496724  0.75000000  0.61588766  1.0
  O  O11  1  0.95503276  0.25000000  0.38411234  1.0
  O  O12  1  0.58775824  0.75000000  0.30474823  1.0
  O  O13  1  0.41224176  0.25000000  0.69525177  1.0
  O  O14  1  0.69253425  0.91754465  0.77020092  1.0
  O  O15  1  0.69253425  0.58245535  0.77020092  1.0
  O  O16  1  0.30746575  0.41754465  0.22979908  1.0
  O  O17  1  0.30746575  0.08245535  0.22979908  1.0
  Ca  Ca18  1  0.65377256  0.75000000  0.55295946  1.0
  Ca  Ca19  1  0.34622744  0.25000000  0.44704054  1.0
  S  S20  1  0.70993263  0.75000000  0.86107985  1.0
  S  S21  1  0.29006737  0.25000000  0.13892015  1.0
  S  S22  1  0.15037210  0.75000000  0.49892505  1.0
  S  S23  1  0.84962790  0.25000000  0.50107495  1.0
  K  K24  1  0.81383700  0.99812849  0.15767425  1.0
  K  K25  1  0.81383700  0.50187151  0.15767425  1.0
  K  K26  1  0.18616300  0.49812849  0.84232575  1.0
  K  K27  1  0.18616300  0.00187151  0.84232575  1.0
