# generated using pymatgen
data_Xe
_symmetry_space_group_name_H-M   'P 1'
_cell_length_a   4.94824477
_cell_length_b   4.94824477
_cell_length_c   8.12424828
_cell_angle_alpha   90.00000000
_cell_angle_beta   90.00000000
_cell_angle_gamma   120.00000000
_symmetry_Int_Tables_number   1
_chemical_formula_structural   Xe
_chemical_formula_sum   Xe2
_cell_volume   172.27258391
_cell_formula_units_Z   2
loop_
 _symmetry_equiv_pos_site_id
 _symmetry_equiv_pos_as_xyz
  1  'x, y, z'
loop_
 _atom_site_type_symbol
 _atom_site_label
 _atom_site_symmetry_multiplicity
 _atom_site_fract_x
 _atom_site_fract_y
 _atom_site_fract_z
 _atom_site_occupancy
  Xe  Xe0  1  0.33333333  0.66666667  0.25000000  1.0
  Xe  Xe1  1  0.66666667  0.33333333  0.75000000  1.0
