# generated using pymatgen
data_Re(TeCl2)2
_symmetry_space_group_name_H-M   'P 1'
_cell_length_a   10.99990834
_cell_length_b   10.99990834
_cell_length_c   10.99990834
_cell_angle_alpha   115.15344800
_cell_angle_beta   115.15344800
_cell_angle_gamma   98.62182778
_symmetry_Int_Tables_number   1
_chemical_formula_structural   Re(TeCl2)2
_chemical_formula_sum   'Re4 Te8 Cl16'
_cell_volume   997.81206801
_cell_formula_units_Z   4
loop_
 _symmetry_equiv_pos_site_id
 _symmetry_equiv_pos_as_xyz
  1  'x, y, z'
loop_
 _atom_site_type_symbol
 _atom_site_label
 _atom_site_symmetry_multiplicity
 _atom_site_fract_x
 _atom_site_fract_y
 _atom_site_fract_z
 _atom_site_occupancy
  Re  Re0  1  0.45514666  0.59649215  0.90910142  1.0
  Re  Re1  1  1.45395477  1.54485334  1.14134549  1.0
  Re  Re2  1  0.68739073  1.54604523  1.09089858  1.0
  Re  Re3  1  1.40350785  1.31260927  1.85865451  1.0
  Te  Te4  1  0.33928674  0.79803019  0.88692627  1.0
  Te  Te5  1  1.54763953  1.66071326  1.45874345  1.0
  Te  Te6  1  0.91110392  1.45236047  1.11307373  1.0
  Te  Te7  1  1.20196981  1.08889608  1.54125655  1.0
  Te  Te8  1  0.57760910  1.35528497  1.14162421  1.0
  Te  Te9  1  1.56401512  1.42239090  1.77767588  1.0
  Te  Te10  1  1.21366076  1.43598488  0.85837579  1.0
  Te  Te11  1  0.64471503  0.78633924  1.22232412  1.0
  Cl  Cl12  1  0.59698422  0.78932874  0.89939236  1.0
  Cl  Cl13  1  1.30240814  1.40301578  1.19234452  1.0
  Cl  Cl14  1  0.88993638  1.69759186  1.10060764  1.0
  Cl  Cl15  1  1.21067126  1.11006362  1.80765548  1.0
  Cl  Cl16  1  0.47000615  1.10034208  0.74627249  1.0
  Cl  Cl17  1  0.27626635  0.52999385  0.63033594  1.0
  Cl  Cl18  1  1.35406959  1.72373365  1.25372751  1.0
  Cl  Cl19  1  0.89965792  0.64593041  0.36966406  1.0
  Cl  Cl20  1  0.87082430  1.24544858  1.14057818  1.0
  Cl  Cl21  1  1.26975388  1.12917570  1.37462428  1.0
  Cl  Cl22  1  1.10487040  1.73024612  0.85942182  1.0
  Cl  Cl23  1  0.75455142  0.89512960  1.62537572  1.0
  Cl  Cl24  1  0.46536823  1.02072389  1.15398300  1.0
  Cl  Cl25  1  0.68861477  0.53463177  0.55535566  1.0
  Cl  Cl26  1  0.86674089  0.31138523  0.84601700  1.0
  Cl  Cl27  1  0.97927611  1.13325911  1.44464434  1.0
