# generated using pymatgen
data_Ca3CoRhO6
_symmetry_space_group_name_H-M   'P 1'
_cell_length_a   6.42815292
_cell_length_b   6.42815292
_cell_length_c   6.42815292
_cell_angle_alpha   91.83047714
_cell_angle_beta   91.83047714
_cell_angle_gamma   91.83047714
_symmetry_Int_Tables_number   1
_chemical_formula_structural   Ca3CoRhO6
_chemical_formula_sum   'Ca6 Co2 Rh2 O12'
_cell_volume   265.20316567
_cell_formula_units_Z   2
loop_
 _symmetry_equiv_pos_site_id
 _symmetry_equiv_pos_as_xyz
  1  'x, y, z'
loop_
 _atom_site_type_symbol
 _atom_site_label
 _atom_site_symmetry_multiplicity
 _atom_site_fract_x
 _atom_site_fract_y
 _atom_site_fract_z
 _atom_site_occupancy
  Ca  Ca0  1  0.88402599  1.25000000  -0.38402599  1.0
  Ca  Ca1  1  1.38402599  0.11597401  -0.25000000  1.0
  Ca  Ca2  1  0.75000000  0.38402599  0.11597401  1.0
  Ca  Ca3  1  1.25000000  0.61597401  -0.11597401  1.0
  Ca  Ca4  1  1.11597401  -0.25000000  0.38402599  1.0
  Ca  Ca5  1  0.61597401  0.88402599  0.25000000  1.0
  Co  Co6  1  0.25000000  0.25000000  0.25000000  1.0
  Co  Co7  1  0.75000000  0.75000000  0.75000000  1.0
  Rh  Rh8  1  0.50000000  0.50000000  0.50000000  1.0
  Rh  Rh9  1  0.00000000  0.00000000  0.00000000  1.0
  O  O10  1  1.20172232  0.40634188  -0.46036528  1.0
  O  O11  1  0.70172232  1.03963472  -0.09365812  1.0
  O  O12  1  0.96036528  0.09365812  0.29827768  1.0
  O  O13  1  1.46036528  -0.20172232  0.59365812  1.0
  O  O14  1  1.59365812  0.46036528  -0.20172232  1.0
  O  O15  1  1.09365812  0.29827768  -0.03963472  1.0
  O  O16  1  0.79827768  0.59365812  0.46036528  1.0
  O  O17  1  1.29827768  -0.03963472  0.09365812  1.0
  O  O18  1  0.53963472  1.20172232  -0.59365812  1.0
  O  O19  1  1.03963472  0.90634188  -0.29827768  1.0
  O  O20  1  0.90634188  0.70172232  0.03963472  1.0
  O  O21  1  0.40634188  0.53963472  0.20172232  1.0
