# generated using pymatgen
data_Cs2Sn3(SbS5)2
_symmetry_space_group_name_H-M   'P 1'
_cell_length_a   7.27494743
_cell_length_b   14.27564134
_cell_length_c   12.44083931
_cell_angle_alpha   90.00000000
_cell_angle_beta   121.25737016
_cell_angle_gamma   90.00000000
_symmetry_Int_Tables_number   1
_chemical_formula_structural   Cs2Sn3(SbS5)2
_chemical_formula_sum   'Cs4 Sn6 Sb4 S20'
_cell_volume   1104.49209241
_cell_formula_units_Z   2
loop_
 _symmetry_equiv_pos_site_id
 _symmetry_equiv_pos_as_xyz
  1  'x, y, z'
loop_
 _atom_site_type_symbol
 _atom_site_label
 _atom_site_symmetry_multiplicity
 _atom_site_fract_x
 _atom_site_fract_y
 _atom_site_fract_z
 _atom_site_occupancy
  Cs  Cs0  1  0.94220115  0.17113106  0.33584419  1.0
  Cs  Cs1  1  0.94220115  0.32886894  0.83584419  1.0
  Cs  Cs2  1  0.05779885  0.67113106  0.16415581  1.0
  Cs  Cs3  1  0.05779885  0.82886894  0.66415581  1.0
  Sn  Sn4  1  0.60948584  0.45170242  0.14993478  1.0
  Sn  Sn5  1  0.60948584  0.04829758  0.64993478  1.0
  Sn  Sn6  1  0.39051416  0.95170242  0.35006522  1.0
  Sn  Sn7  1  0.39051416  0.54829758  0.85006522  1.0
  Sn  Sn8  1  0.00000000  0.50000000  0.50000000  1.0
  Sn  Sn9  1  0.00000000  0.00000000  0.00000000  1.0
  Sb  Sb10  1  0.50713123  0.36920852  0.39815507  1.0
  Sb  Sb11  1  0.50713123  0.13079148  0.89815507  1.0
  Sb  Sb12  1  0.49286877  0.86920852  0.10184493  1.0
  Sb  Sb13  1  0.49286877  0.63079148  0.60184493  1.0
  S  S14  1  0.99183592  0.44654549  0.29643405  1.0
  S  S15  1  0.99183592  0.05345451  0.79643405  1.0
  S  S16  1  0.00816408  0.94654549  0.20356595  1.0
  S  S17  1  0.00816408  0.55345451  0.70356595  1.0
  S  S18  1  0.89330548  0.16531571  0.03066186  1.0
  S  S19  1  0.89330548  0.33468429  0.53066186  1.0
  S  S20  1  0.10669452  0.66531571  0.46933814  1.0
  S  S21  1  0.10669452  0.83468429  0.96933814  1.0
  S  S22  1  0.56461292  0.10150401  0.44422753  1.0
  S  S23  1  0.56461292  0.39849599  0.94422753  1.0
  S  S24  1  0.43538708  0.60150401  0.05577247  1.0
  S  S25  1  0.43538708  0.89849599  0.55577247  1.0
  S  S26  1  0.42396920  0.32201467  0.18066144  1.0
  S  S27  1  0.42396920  0.17798533  0.68066144  1.0
  S  S28  1  0.57603080  0.82201467  0.31933856  1.0
  S  S29  1  0.57603080  0.67798533  0.81933856  1.0
  S  S30  1  0.41514864  0.03287186  0.13046167  1.0
  S  S31  1  0.41514864  0.46712814  0.63046167  1.0
  S  S32  1  0.58485136  0.53287186  0.36953833  1.0
  S  S33  1  0.58485136  0.96712814  0.86953833  1.0
