# generated using pymatgen
data_Li5B4
_symmetry_space_group_name_H-M   'P 1'
_cell_length_a   3.97378915
_cell_length_b   3.97378915
_cell_length_c   12.79185837
_cell_angle_alpha   90.00000000
_cell_angle_beta   90.00000000
_cell_angle_gamma   120.00000000
_symmetry_Int_Tables_number   1
_chemical_formula_structural   Li5B4
_chemical_formula_sum   'Li10 B8'
_cell_volume   174.93387362
_cell_formula_units_Z   2
loop_
 _symmetry_equiv_pos_site_id
 _symmetry_equiv_pos_as_xyz
  1  'x, y, z'
loop_
 _atom_site_type_symbol
 _atom_site_label
 _atom_site_symmetry_multiplicity
 _atom_site_fract_x
 _atom_site_fract_y
 _atom_site_fract_z
 _atom_site_occupancy
  Li  Li0  1  0.33333333  0.66666667  0.44949858  1.0
  Li  Li1  1  0.33333333  0.66666667  0.05050142  1.0
  Li  Li2  1  0.66666667  0.33333333  0.94949858  1.0
  Li  Li3  1  0.66666667  0.33333333  0.55050142  1.0
  Li  Li4  1  0.33333333  0.66666667  0.84912136  1.0
  Li  Li5  1  0.33333333  0.66666667  0.65087864  1.0
  Li  Li6  1  0.66666667  0.33333333  0.34912136  1.0
  Li  Li7  1  0.66666667  0.33333333  0.15087864  1.0
  Li  Li8  1  0.33333333  0.66666667  0.25000000  1.0
  Li  Li9  1  0.66666667  0.33333333  0.75000000  1.0
  B  B10  1  0.00000000  0.00000000  0.37504782  1.0
  B  B11  1  0.00000000  0.00000000  0.12495218  1.0
  B  B12  1  0.00000000  0.00000000  0.87504782  1.0
  B  B13  1  0.00000000  0.00000000  0.62495218  1.0
  B  B14  1  0.00000000  0.00000000  0.25000000  1.0
  B  B15  1  0.00000000  0.00000000  0.75000000  1.0
  B  B16  1  0.00000000  0.00000000  0.50000000  1.0
  B  B17  1  0.00000000  0.00000000  0.00000000  1.0
