# generated using pymatgen
data_Nb(SeBr)2
_symmetry_space_group_name_H-M   'P 1'
_cell_length_a   6.76765179
_cell_length_b   8.14639889
_cell_length_c   6.79726284
_cell_angle_alpha   68.09901369
_cell_angle_beta   60.22177090
_cell_angle_gamma   69.30724694
_symmetry_Int_Tables_number   1
_chemical_formula_structural   Nb(SeBr)2
_chemical_formula_sum   'Nb2 Se4 Br4'
_cell_volume   295.14018236
_cell_formula_units_Z   2
loop_
 _symmetry_equiv_pos_site_id
 _symmetry_equiv_pos_as_xyz
  1  'x, y, z'
loop_
 _atom_site_type_symbol
 _atom_site_label
 _atom_site_symmetry_multiplicity
 _atom_site_fract_x
 _atom_site_fract_y
 _atom_site_fract_z
 _atom_site_occupancy
  Nb  Nb0  1  -0.62556018  -0.50008182  -0.74832490  1.0
  Nb  Nb1  1  -0.37443982  -0.49991818  -0.25167510  1.0
  Se  Se2  1  -0.75955109  -0.61948246  -0.96255052  1.0
  Se  Se3  1  -0.24044891  -0.38051754  -0.03744948  1.0
  Se  Se4  1  -0.43108845  -0.79620183  -0.90721671  1.0
  Se  Se5  1  -0.56891155  -0.20379817  -0.09278329  1.0
  Br  Br6  1  -0.92667243  -0.70846431  -0.35141752  1.0
  Br  Br7  1  -0.07332757  -0.29153569  -0.64858248  1.0
  Br  Br8  1  -0.34281091  -0.70821620  -0.51797945  1.0
  Br  Br9  1  -0.65718909  -0.29178380  -0.48202055  1.0
