# generated using pymatgen
data_Na4CO4
_symmetry_space_group_name_H-M   'P 1'
_cell_length_a   5.30066045
_cell_length_b   5.30066045
_cell_length_c   5.48772018
_cell_angle_alpha   67.05128404
_cell_angle_beta   112.94871596
_cell_angle_gamma   119.62191484
_symmetry_Int_Tables_number   1
_chemical_formula_structural   Na4CO4
_chemical_formula_sum   'Na4 C1 O4'
_cell_volume   119.62526343
_cell_formula_units_Z   1
loop_
 _symmetry_equiv_pos_site_id
 _symmetry_equiv_pos_as_xyz
  1  'x, y, z'
loop_
 _atom_site_type_symbol
 _atom_site_label
 _atom_site_symmetry_multiplicity
 _atom_site_fract_x
 _atom_site_fract_y
 _atom_site_fract_z
 _atom_site_occupancy
  Na  Na0  1  0.25706798  -0.06268435  0.53500056  1.0
  Na  Na1  1  0.93731565  0.25706798  0.46499944  1.0
  Na  Na2  1  0.51214972  -0.22234284  0.11318474  1.0
  Na  Na3  1  0.77765716  0.51214972  0.88681526  1.0
  C  C4  1  0.22324857  0.22324857  -0.00000000  1.0
  O  O5  1  0.15471141  -0.00902763  0.88713199  1.0
  O  O6  1  0.99097237  0.15471141  0.11286801  1.0
  O  O7  1  1.26679412  0.49762302  0.78947229  1.0
  O  O8  1  0.49762302  0.26679412  0.21052771  1.0
