# generated using pymatgen
data_KP(HO2)2
_symmetry_space_group_name_H-M   'P 1'
_cell_length_a   7.47576339
_cell_length_b   7.35665414
_cell_length_c   7.50086808
_cell_angle_alpha   87.18385240
_cell_angle_beta   88.13332998
_cell_angle_gamma   89.14000185
_symmetry_Int_Tables_number   1
_chemical_formula_structural   KP(HO2)2
_chemical_formula_sum   'K4 P4 H8 O16'
_cell_volume   411.76829497
_cell_formula_units_Z   4
loop_
 _symmetry_equiv_pos_site_id
 _symmetry_equiv_pos_as_xyz
  1  'x, y, z'
loop_
 _atom_site_type_symbol
 _atom_site_label
 _atom_site_symmetry_multiplicity
 _atom_site_fract_x
 _atom_site_fract_y
 _atom_site_fract_z
 _atom_site_occupancy
  K  K0  1  -0.32280451  -0.56305197  -0.69305725  1.0
  K  K1  1  -0.67719549  -0.43694803  -0.30694275  1.0
  K  K2  1  -0.74555074  -0.14795495  -0.79665965  1.0
  K  K3  1  -0.25444926  -0.85204505  -0.20334035  1.0
  P  P4  1  -0.74742940  -0.93168432  -0.30343369  1.0
  P  P5  1  -0.25257060  -0.06831568  -0.69656631  1.0
  P  P6  1  -0.77932811  -0.61358438  -0.79251852  1.0
  P  P7  1  -0.22067189  -0.38641562  -0.20748148  1.0
  H  H8  1  -0.06560598  -0.84585897  -0.79059358  1.0
  H  H9  1  -0.93439402  -0.15414103  -0.20940642  1.0
  H  H10  1  -0.91488088  -0.78389710  -0.51496642  1.0
  H  H11  1  -0.08511912  -0.21610290  -0.48503358  1.0
  H  H12  1  -0.63917094  -0.77295084  -1.00441002  1.0
  H  H13  1  -0.36082906  -0.22704916  0.00441002  1.0
  H  H14  1  -0.50000000  0.00000000  -0.50000000  1.0
  H  H15  1  -0.00000000  -0.50000000  0.00000000  1.0
  O  O16  1  -0.34610592  -0.96500597  -0.54252586  1.0
  O  O17  1  -0.65389408  -0.03499403  -0.45747414  1.0
  O  O18  1  -0.16668937  -0.92498988  -0.83948489  1.0
  O  O19  1  -0.83331063  -0.07501012  -0.16051511  1.0
  O  O20  1  -0.62239722  -0.81142266  -0.20761979  1.0
  O  O21  1  -0.37760278  -0.18857734  -0.79238021  1.0
  O  O22  1  -0.91508824  -0.82106935  -0.37851409  1.0
  O  O23  1  -0.08491176  -0.17893065  -0.62148591  1.0
  O  O24  1  -0.63130796  -0.75332208  -0.87133532  1.0
  O  O25  1  -0.36869204  -0.24667792  -0.12866468  1.0
  O  O26  1  -0.93664861  -0.72946566  -0.70673106  1.0
  O  O27  1  -0.06335139  -0.27053434  -0.29326894  1.0
  O  O28  1  -0.68774929  -0.50430899  -0.65662327  1.0
  O  O29  1  -0.31225071  -0.49569101  -0.34337673  1.0
  O  O30  1  -0.84656556  -0.49293656  -0.95543623  1.0
  O  O31  1  -0.15343444  -0.50706344  -0.04456377  1.0
