# generated using pymatgen
data_AlPO4
_symmetry_space_group_name_H-M   'P 1'
_cell_length_a   8.72805466
_cell_length_b   7.62291264
_cell_length_c   6.21331333
_cell_angle_alpha   102.28904466
_cell_angle_beta   104.52700664
_cell_angle_gamma   98.37969645
_symmetry_Int_Tables_number   1
_chemical_formula_structural   AlPO4
_chemical_formula_sum   'Al6 P6 O24'
_cell_volume   382.24304118
_cell_formula_units_Z   6
loop_
 _symmetry_equiv_pos_site_id
 _symmetry_equiv_pos_as_xyz
  1  'x, y, z'
loop_
 _atom_site_type_symbol
 _atom_site_label
 _atom_site_symmetry_multiplicity
 _atom_site_fract_x
 _atom_site_fract_y
 _atom_site_fract_z
 _atom_site_occupancy
  Al  Al0  1  -0.71022282  -0.89388339  -0.96863772  1.0
  Al  Al1  1  -0.28977718  -0.10611661  -0.03136228  1.0
  Al  Al2  1  -0.47740313  -0.70212435  -0.51571117  1.0
  Al  Al3  1  -0.52259687  -0.29787565  -0.48428883  1.0
  Al  Al4  1  -0.91884678  -0.68831440  -0.26247969  1.0
  Al  Al5  1  -0.08115322  -0.31168560  -0.73752031  1.0
  P  P6  1  -0.36909069  -0.70054247  -0.97724183  1.0
  P  P7  1  -0.63090931  -0.29945753  -0.02275817  1.0
  P  P8  1  -0.84285962  -0.59576217  -0.69965481  1.0
  P  P9  1  -0.15714038  -0.40423783  -0.30034519  1.0
  P  P10  1  -0.76005490  -0.00621008  -0.50936992  1.0
  P  P11  1  -0.23994510  -0.99378992  -0.49063008  1.0
  O  O12  1  -0.28695252  -0.86730153  -0.97690504  1.0
  O  O13  1  -0.71304748  -0.13269847  -0.02309496  1.0
  O  O14  1  -0.84996046  -0.73271774  -0.93965337  1.0
  O  O15  1  -0.15003954  -0.26728226  -0.06034663  1.0
  O  O16  1  -0.51062800  -0.73216734  -0.85463520  1.0
  O  O17  1  -0.48937200  -0.26783266  -0.14536480  1.0
  O  O18  1  -0.24928404  -0.52195510  -0.84341629  1.0
  O  O19  1  -0.75071596  -0.47804490  -0.15658371  1.0
  O  O20  1  -0.53897700  -0.30187219  -0.78057606  1.0
  O  O21  1  -0.46102300  -0.69812781  -0.21942394  1.0
  O  O22  1  -0.91712091  -0.43843890  -0.76082654  1.0
  O  O23  1  -0.08287909  -0.56156110  -0.23917346  1.0
  O  O24  1  -0.92710795  -0.09492394  -0.67166926  1.0
  O  O25  1  -0.07289205  -0.90507606  -0.32833074  1.0
  O  O26  1  -0.67385904  -0.87944429  -0.63750804  1.0
  O  O27  1  -0.32614096  -0.12055571  -0.36249196  1.0
  O  O28  1  -0.93052242  -0.70000668  -0.56666026  1.0
  O  O29  1  -0.06947758  -0.29999332  -0.43333974  1.0
  O  O30  1  -0.65497991  -0.52892818  -0.56304526  1.0
  O  O31  1  -0.34502009  -0.47107182  -0.43695474  1.0
  O  O32  1  -0.34583064  -0.86159744  -0.55463222  1.0
  O  O33  1  -0.65416936  -0.13840256  -0.44536778  1.0
  O  O34  1  -0.76762713  -0.87717799  -0.27584996  1.0
  O  O35  1  -0.23237287  -0.12282201  -0.72415004  1.0
