# generated using pymatgen
data_CrH10SO9
_symmetry_space_group_name_H-M   'P 1'
_cell_length_a   6.04103430
_cell_length_b   11.37476837
_cell_length_c   6.11191885
_cell_angle_alpha   77.70568442
_cell_angle_beta   73.12446261
_cell_angle_gamma   82.26999747
_symmetry_Int_Tables_number   1
_chemical_formula_structural   CrH10SO9
_chemical_formula_sum   'Cr2 H20 S2 O18'
_cell_volume   391.49188673
_cell_formula_units_Z   2
loop_
 _symmetry_equiv_pos_site_id
 _symmetry_equiv_pos_as_xyz
  1  'x, y, z'
loop_
 _atom_site_type_symbol
 _atom_site_label
 _atom_site_symmetry_multiplicity
 _atom_site_fract_x
 _atom_site_fract_y
 _atom_site_fract_z
 _atom_site_occupancy
  Cr  Cr0  1  0.00000000  -0.50000000  -0.50000000  1.0
  Cr  Cr1  1  0.00000000  0.00000000  0.00000000  1.0
  H  H2  1  -0.95264215  -0.79534746  -0.28511377  1.0
  H  H3  1  -0.04735785  -0.20465254  -0.71488623  1.0
  H  H4  1  -0.87466303  -0.39952133  -0.19598614  1.0
  H  H5  1  -0.12533697  -0.60047867  -0.80401386  1.0
  H  H6  1  -0.84696556  -0.62752562  -0.85299710  1.0
  H  H7  1  -0.15303444  -0.37247438  -0.14700290  1.0
  H  H8  1  -0.74068593  -0.99883134  -0.71795166  1.0
  H  H9  1  -0.25931407  -0.00116866  -0.28204834  1.0
  H  H10  1  -0.74081600  -0.86653898  -0.87847697  1.0
  H  H11  1  -0.25918400  -0.13346102  -0.12152303  1.0
  H  H12  1  -0.69210177  -0.86377199  -0.32603795  1.0
  H  H13  1  -0.30789823  -0.13622801  -0.67396205  1.0
  H  H14  1  -0.66295041  -0.62993483  -0.30523014  1.0
  H  H15  1  -0.33704959  -0.37006517  -0.69476986  1.0
  H  H16  1  -0.57172134  -0.61249227  -0.58951902  1.0
  H  H17  1  -0.42827866  -0.38750773  -0.41048098  1.0
  H  H18  1  -0.35731215  -0.86215291  -0.58515739  1.0
  H  H19  1  -0.64268785  -0.13784709  -0.41484261  1.0
  H  H20  1  -0.32706661  -0.80703361  -0.37862715  1.0
  H  H21  1  -0.67293339  -0.19296639  -0.62137285  1.0
  S  S22  1  -0.61235748  -0.28171150  -1.00829601  1.0
  S  S23  1  -0.38764252  -0.71828850  0.00829601  1.0
  O  O24  1  -0.98611865  -0.58421763  -0.76219006  1.0
  O  O25  1  -0.01388135  -0.41578237  -0.23780994  1.0
  O  O26  1  -0.86226254  -0.87446804  -0.28312237  1.0
  O  O27  1  -0.13773746  -0.12553196  -0.71687763  1.0
  O  O28  1  -0.83109909  -0.93746713  -0.80795772  1.0
  O  O29  1  -0.16890091  -0.06253287  -0.19204228  1.0
  O  O30  1  -0.77863280  -0.30530726  -0.77077533  1.0
  O  O31  1  -0.22136720  -0.69469274  -0.22922467  1.0
  O  O32  1  -0.70272981  -0.59652139  -0.45374640  1.0
  O  O33  1  -0.29727019  -0.40347861  -0.54625360  1.0
  O  O34  1  -0.36885604  -0.29278993  -0.97988732  1.0
  O  O35  1  -0.63114396  -0.70721007  -0.02011268  1.0
  O  O36  1  -0.39630986  -0.87255085  -0.41188790  1.0
  O  O37  1  -0.60369014  -0.12744915  -0.58811210  1.0
  O  O38  1  -0.37317984  -0.62870617  -0.84961777  1.0
  O  O39  1  -0.62682016  -0.37129383  -0.15038223  1.0
  O  O40  1  -0.33662540  -0.84393776  -0.87189576  1.0
  O  O41  1  -0.66337460  -0.15606224  -0.12810424  1.0
