# generated using pymatgen
data_Ba6Ta4SnO18
_symmetry_space_group_name_H-M   'P 1'
_cell_length_a   14.76467792
_cell_length_b   14.76467792
_cell_length_c   14.76467792
_cell_angle_alpha   22.87757195
_cell_angle_beta   22.87757195
_cell_angle_gamma   22.87757195
_symmetry_Int_Tables_number   1
_chemical_formula_structural   Ba6Ta4SnO18
_chemical_formula_sum   'Ba6 Ta4 Sn1 O18'
_cell_volume   426.87670025
_cell_formula_units_Z   1
loop_
 _symmetry_equiv_pos_site_id
 _symmetry_equiv_pos_as_xyz
  1  'x, y, z'
loop_
 _atom_site_type_symbol
 _atom_site_label
 _atom_site_symmetry_multiplicity
 _atom_site_fract_x
 _atom_site_fract_y
 _atom_site_fract_z
 _atom_site_occupancy
  Ba  Ba0  1  0.91314344  0.91314344  0.91314344  1.0
  Ba  Ba1  1  1.08685656  1.08685656  0.08685656  1.0
  Ba  Ba2  1  0.81468996  0.81468996  0.81468996  1.0
  Ba  Ba3  1  1.18531004  1.18531004  0.18531004  1.0
  Ba  Ba4  1  1.63858667  0.63858667  0.63858667  1.0
  Ba  Ba5  1  1.36141333  0.36141333  0.36141333  1.0
  Ta  Ta6  1  1.55179801  0.55179801  0.55179801  1.0
  Ta  Ta7  1  1.44820199  0.44820199  0.44820199  1.0
  Ta  Ta8  1  0.72348833  0.72348833  0.72348833  1.0
  Ta  Ta9  1  1.27651167  1.27651167  0.27651167  1.0
  Sn  Sn10  1  0.00000000  0.00000000  0.00000000  1.0
  O  O11  1  1.14337151  1.14337151  0.63031345  1.0
  O  O12  1  1.14337151  1.63031345  0.14337151  1.0
  O  O13  1  1.36968655  0.85662849  -0.14337151  1.0
  O  O14  1  0.85662849  1.36968655  -0.14337151  1.0
  O  O15  1  0.85662849  0.85662849  0.36968655  1.0
  O  O16  1  1.63031345  1.14337151  0.14337151  1.0
  O  O17  1  1.41692377  0.41692377  0.92358815  1.0
  O  O18  1  1.41692377  0.92358815  0.41692377  1.0
  O  O19  1  1.07641185  0.58307623  0.58307623  1.0
  O  O20  1  1.58307623  0.07641185  0.58307623  1.0
  O  O21  1  1.58307623  0.58307623  0.07641185  1.0
  O  O22  1  1.92358815  0.41692377  0.41692377  1.0
  O  O23  1  1.30510188  1.30510188  -0.20541250  1.0
  O  O24  1  1.30510188  0.79458750  0.30510188  1.0
  O  O25  1  1.20541250  0.69489812  0.69489812  1.0
  O  O26  1  1.69489812  0.20541250  0.69489812  1.0
  O  O27  1  1.69489812  0.69489812  0.20541250  1.0
  O  O28  1  0.79458750  1.30510188  0.30510188  1.0
