# generated using pymatgen
data_Fe(RhSe2)2
_symmetry_space_group_name_H-M   'P 1'
_cell_length_a   6.53776449
_cell_length_b   6.53776449
_cell_length_c   6.47229144
_cell_angle_alpha   60.70350600
_cell_angle_beta   119.29649400
_cell_angle_gamma   147.14105964
_symmetry_Int_Tables_number   1
_chemical_formula_structural   Fe(RhSe2)2
_chemical_formula_sum   'Fe1 Rh2 Se4'
_cell_volume   129.09612375
_cell_formula_units_Z   1
loop_
 _symmetry_equiv_pos_site_id
 _symmetry_equiv_pos_as_xyz
  1  'x, y, z'
loop_
 _atom_site_type_symbol
 _atom_site_label
 _atom_site_symmetry_multiplicity
 _atom_site_fract_x
 _atom_site_fract_y
 _atom_site_fract_z
 _atom_site_occupancy
  Fe  Fe0  1  0.00000000  0.00000000  0.00000000  1.0
  Rh  Rh1  1  0.73753914  -0.73753914  0.72088709  1.0
  Rh  Rh2  1  1.26246086  -0.26246086  0.27911291  1.0
  Se  Se3  1  0.63192658  -0.63192658  0.97097271  1.0
  Se  Se4  1  1.36807342  -0.36807342  0.02902729  1.0
  Se  Se5  1  0.87902516  -0.87902516  0.55460918  1.0
  Se  Se6  1  1.12097484  -0.12097484  0.44539082  1.0
