# generated using pymatgen
data_La(MnSi)2
_symmetry_space_group_name_H-M   'P 1'
_cell_length_a   6.03189684
_cell_length_b   6.03189684
_cell_length_c   6.03189684
_cell_angle_alpha   141.16145903
_cell_angle_beta   141.16145903
_cell_angle_gamma   56.09396123
_symmetry_Int_Tables_number   1
_chemical_formula_structural   La(MnSi)2
_chemical_formula_sum   'La1 Mn2 Si2'
_cell_volume   85.64338895
_cell_formula_units_Z   1
loop_
 _symmetry_equiv_pos_site_id
 _symmetry_equiv_pos_as_xyz
  1  'x, y, z'
loop_
 _atom_site_type_symbol
 _atom_site_label
 _atom_site_symmetry_multiplicity
 _atom_site_fract_x
 _atom_site_fract_y
 _atom_site_fract_z
 _atom_site_occupancy
  La  La0  1  0.00000000  0.00000000  0.00000000  1.0
  Mn  Mn1  1  0.25000000  0.75000000  0.50000000  1.0
  Mn  Mn2  1  0.75000000  0.25000000  0.50000000  1.0
  Si  Si3  1  0.62885329  0.62885329  1.00000000  1.0
  Si  Si4  1  0.37114671  0.37114671  -0.00000000  1.0
