# generated using pymatgen
data_Ba2Bi2Se3O2
_symmetry_space_group_name_H-M   'P 1'
_cell_length_a   10.00601252
_cell_length_b   4.23420900
_cell_length_c   14.17905587
_cell_angle_alpha   90.00000000
_cell_angle_beta   124.27956702
_cell_angle_gamma   90.00000000
_symmetry_Int_Tables_number   1
_chemical_formula_structural   Ba2Bi2Se3O2
_chemical_formula_sum   'Ba4 Bi4 Se6 O4'
_cell_volume   496.38423909
_cell_formula_units_Z   2
loop_
 _symmetry_equiv_pos_site_id
 _symmetry_equiv_pos_as_xyz
  1  'x, y, z'
loop_
 _atom_site_type_symbol
 _atom_site_label
 _atom_site_symmetry_multiplicity
 _atom_site_fract_x
 _atom_site_fract_y
 _atom_site_fract_z
 _atom_site_occupancy
  Ba  Ba0  1  0.60686099  0.49975789  0.40060170  1.0
  Ba  Ba1  1  0.60686099  0.00024211  0.90060170  1.0
  Ba  Ba2  1  0.39313901  0.99975789  0.09939830  1.0
  Ba  Ba3  1  0.39313901  0.50024211  0.59939830  1.0
  Bi  Bi4  1  0.86405219  -0.00023317  0.31324613  1.0
  Bi  Bi5  1  0.86405219  0.50023317  0.81324613  1.0
  Bi  Bi6  1  0.13594781  0.49976683  0.18675387  1.0
  Bi  Bi7  1  0.13594781  1.00023317  0.68675387  1.0
  Se  Se8  1  0.26917919  0.99996741  0.35996562  1.0
  Se  Se9  1  0.26917919  0.50003259  0.85996562  1.0
  Se  Se10  1  0.73082081  0.49996741  0.14003438  1.0
  Se  Se11  1  0.73082081  0.00003259  0.64003438  1.0
  Se  Se12  1  -0.00000000  0.50000000  0.50000000  1.0
  Se  Se13  1  0.00000000  0.00000000  0.00000000  1.0
  O  O14  1  0.65302425  0.99969258  0.31311712  1.0
  O  O15  1  0.65302425  0.50030742  0.81311712  1.0
  O  O16  1  0.34697575  0.49969258  0.18688288  1.0
  O  O17  1  0.34697575  0.00030742  0.68688288  1.0
