# generated using pymatgen
data_CsAs(HO2)2
_symmetry_space_group_name_H-M   'P 1'
_cell_length_a   7.11838890
_cell_length_b   6.97459172
_cell_length_c   8.20670080
_cell_angle_alpha   55.20612019
_cell_angle_beta   53.57367495
_cell_angle_gamma   71.22020487
_symmetry_Int_Tables_number   1
_chemical_formula_structural   CsAs(HO2)2
_chemical_formula_sum   'Cs2 As2 H4 O8'
_cell_volume   269.13658114
_cell_formula_units_Z   2
loop_
 _symmetry_equiv_pos_site_id
 _symmetry_equiv_pos_as_xyz
  1  'x, y, z'
loop_
 _atom_site_type_symbol
 _atom_site_label
 _atom_site_symmetry_multiplicity
 _atom_site_fract_x
 _atom_site_fract_y
 _atom_site_fract_z
 _atom_site_occupancy
  Cs  Cs0  1  0.99914176  -0.00085824  0.50085824  1.0
  Cs  Cs1  1  0.74914176  0.74914176  -0.74914176  1.0
  As  As2  1  1.47960468  0.47960468  0.02039532  1.0
  As  As3  1  0.22960468  1.22960468  -0.22960468  1.0
  H  H4  1  0.50085716  1.22934080  -0.58529590  1.0
  H  H5  1  0.39490206  0.83529590  1.02065920  1.0
  H  H6  1  1.22934080  -0.49914284  0.85509794  1.0
  H  H7  1  -0.16470410  0.39490206  0.74914284  1.0
  O  O8  1  0.52390166  0.71163179  0.02767935  1.0
  O  O9  1  1.51321279  0.22232065  0.53836821  1.0
  O  O10  1  0.71163179  0.52390166  0.73678721  1.0
  O  O11  1  0.22232065  1.51321279  -0.27390166  1.0
  O  O12  1  0.21049266  1.02132949  0.03013363  1.0
  O  O13  1  1.51195578  0.21986637  0.22867051  1.0
  O  O14  1  1.02132949  0.21049266  0.73804422  1.0
  O  O15  1  0.21986637  1.51195578  0.03950734  1.0
