# generated using pymatgen
data_CdTeO3
_symmetry_space_group_name_H-M   'P 1'
_cell_length_a   8.07537390
_cell_length_b   11.16251535
_cell_length_c   7.51434771
_cell_angle_alpha   90.00000000
_cell_angle_beta   113.15094138
_cell_angle_gamma   90.00000000
_symmetry_Int_Tables_number   1
_chemical_formula_structural   CdTeO3
_chemical_formula_sum   'Cd8 Te8 O24'
_cell_volume   622.80867182
_cell_formula_units_Z   8
loop_
 _symmetry_equiv_pos_site_id
 _symmetry_equiv_pos_as_xyz
  1  'x, y, z'
loop_
 _atom_site_type_symbol
 _atom_site_label
 _atom_site_symmetry_multiplicity
 _atom_site_fract_x
 _atom_site_fract_y
 _atom_site_fract_z
 _atom_site_occupancy
  Cd  Cd0  1  0.76414262  0.47804849  0.81329608  1.0
  Cd  Cd1  1  0.76414262  0.02195151  0.31329608  1.0
  Cd  Cd2  1  0.23585738  0.97804849  0.68670392  1.0
  Cd  Cd3  1  0.23585738  0.52195151  0.18670392  1.0
  Cd  Cd4  1  0.51123673  0.73090037  0.54490330  1.0
  Cd  Cd5  1  0.51123673  0.76909963  0.04490330  1.0
  Cd  Cd6  1  0.48876327  0.23090037  0.95509670  1.0
  Cd  Cd7  1  0.48876327  0.26909963  0.45509670  1.0
  Te  Te8  1  0.66988298  1.00192379  0.75164219  1.0
  Te  Te9  1  0.66988298  0.49807621  0.25164219  1.0
  Te  Te10  1  0.33011702  0.50192379  0.74835781  1.0
  Te  Te11  1  0.33011702  -0.00192379  0.24835781  1.0
  Te  Te12  1  1.00330410  0.75560289  0.86175864  1.0
  Te  Te13  1  1.00330410  0.74439711  0.36175864  1.0
  Te  Te14  1  -0.00330410  0.25560289  0.63824136  1.0
  Te  Te15  1  -0.00330410  0.24439711  0.13824136  1.0
  O  O16  1  0.21260102  0.65793664  0.88161908  1.0
  O  O17  1  0.21260102  0.84206336  0.38161908  1.0
  O  O18  1  0.78739898  0.15793664  0.61838092  1.0
  O  O19  1  0.78739898  0.34206336  0.11838092  1.0
  O  O20  1  0.51195183  0.86858899  0.77716204  1.0
  O  O21  1  0.51195183  0.63141101  0.27716204  1.0
  O  O22  1  0.48804817  0.36858899  0.72283796  1.0
  O  O23  1  0.48804817  0.13141101  0.22283796  1.0
  O  O24  1  0.55570174  0.58983637  0.89798682  1.0
  O  O25  1  0.55570174  0.91016363  0.39798682  1.0
  O  O26  1  0.44429826  0.08983637  0.60201318  1.0
  O  O27  1  0.44429826  0.41016363  0.10201318  1.0
  O  O28  1  0.70664996  0.40808131  0.48921312  1.0
  O  O29  1  0.70664996  0.09191869  0.98921312  1.0
  O  O30  1  0.29335004  0.90808131  0.01078688  1.0
  O  O31  1  0.29335004  0.59191869  0.51078688  1.0
  O  O32  1  1.00554881  0.84916884  0.60133154  1.0
  O  O33  1  1.00554881  0.65083116  0.10133154  1.0
  O  O34  1  -0.00554881  0.34916884  0.89866846  1.0
  O  O35  1  -0.00554881  0.15083116  0.39866846  1.0
  O  O36  1  0.80680823  0.65490449  0.68686641  1.0
  O  O37  1  0.80680823  0.84509551  0.18686641  1.0
  O  O38  1  0.19319177  0.15490449  0.81313359  1.0
  O  O39  1  0.19319177  0.34509551  0.31313359  1.0
