# generated using pymatgen
data_V2Cu3Sb4
_symmetry_space_group_name_H-M   'P 1'
_cell_length_a   8.57889878
_cell_length_b   8.57889878
_cell_length_c   5.29688569
_cell_angle_alpha   90.00000000
_cell_angle_beta   90.00000000
_cell_angle_gamma   120.00000000
_symmetry_Int_Tables_number   1
_chemical_formula_structural   V2Cu3Sb4
_chemical_formula_sum   'V4 Cu6 Sb8'
_cell_volume   337.60923693
_cell_formula_units_Z   2
loop_
 _symmetry_equiv_pos_site_id
 _symmetry_equiv_pos_as_xyz
  1  'x, y, z'
loop_
 _atom_site_type_symbol
 _atom_site_label
 _atom_site_symmetry_multiplicity
 _atom_site_fract_x
 _atom_site_fract_y
 _atom_site_fract_z
 _atom_site_occupancy
  V  V0  1  0.33333333  0.66666667  0.25000000  1.0
  V  V1  1  0.66666667  0.33333333  0.75000000  1.0
  V  V2  1  0.00000000  0.00000000  0.50000000  1.0
  V  V3  1  0.00000000  0.00000000  0.00000000  1.0
  Cu  Cu4  1  0.50000000  0.50000000  0.50000000  1.0
  Cu  Cu5  1  0.50000000  0.50000000  0.00000000  1.0
  Cu  Cu6  1  0.50000000  0.00000000  0.50000000  1.0
  Cu  Cu7  1  0.50000000  0.00000000  0.00000000  1.0
  Cu  Cu8  1  -0.00000000  0.50000000  0.50000000  1.0
  Cu  Cu9  1  -0.00000000  0.50000000  0.00000000  1.0
  Sb  Sb10  1  0.15594434  0.84405566  0.25000000  1.0
  Sb  Sb11  1  0.15594434  0.31188868  0.25000000  1.0
  Sb  Sb12  1  0.84405566  0.15594434  0.75000000  1.0
  Sb  Sb13  1  0.84405566  0.68811132  0.75000000  1.0
  Sb  Sb14  1  0.68811132  0.84405566  0.25000000  1.0
  Sb  Sb15  1  0.31188868  0.15594434  0.75000000  1.0
  Sb  Sb16  1  0.33333333  0.66666667  0.75000000  1.0
  Sb  Sb17  1  0.66666667  0.33333333  0.25000000  1.0
