# generated using pymatgen
data_NaCd4P3
_symmetry_space_group_name_H-M   'P 1'
_cell_length_a   7.62112695
_cell_length_b   7.62112695
_cell_length_c   11.48173488
_cell_angle_alpha   83.41695898
_cell_angle_beta   96.58304102
_cell_angle_gamma   60.06286536
_symmetry_Int_Tables_number   1
_chemical_formula_structural   NaCd4P3
_chemical_formula_sum   'Na3 Cd12 P9'
_cell_volume   562.53199954
_cell_formula_units_Z   3
loop_
 _symmetry_equiv_pos_site_id
 _symmetry_equiv_pos_as_xyz
  1  'x, y, z'
loop_
 _atom_site_type_symbol
 _atom_site_label
 _atom_site_symmetry_multiplicity
 _atom_site_fract_x
 _atom_site_fract_y
 _atom_site_fract_z
 _atom_site_occupancy
  Na  Na0  1  0.40616522  -0.07589476  0.17033655  1.0
  Na  Na1  1  1.07589476  0.59383478  0.17033655  1.0
  Na  Na2  1  0.68825251  -0.68825251  0.17041333  1.0
  Cd  Cd3  1  1.66757496  0.00197035  0.99046670  1.0
  Cd  Cd4  1  0.99802965  -0.66757496  0.99046670  1.0
  Cd  Cd5  1  1.46241310  0.20322820  0.39195735  1.0
  Cd  Cd6  1  0.79677180  -0.46241310  0.39195735  1.0
  Cd  Cd7  1  0.31147290  -0.31147290  0.92847111  1.0
  Cd  Cd8  1  0.10677372  -0.10677372  0.33855648  1.0
  Cd  Cd9  1  0.64417387  -0.25640465  0.76715143  1.0
  Cd  Cd10  1  1.25640465  0.35582613  0.76715143  1.0
  Cd  Cd11  1  1.18782849  0.10843506  0.56252750  1.0
  Cd  Cd12  1  0.89156494  -0.18782849  0.56252750  1.0
  Cd  Cd13  1  0.87394359  -0.87394359  0.76830142  1.0
  Cd  Cd14  1  0.48297066  -0.48297066  0.56710522  1.0
  P  P15  1  1.55079509  0.11615611  0.65208555  1.0
  P  P16  1  0.88384389  -0.55079509  0.65208555  1.0
  P  P17  1  0.22494876  -0.22494876  0.68316929  1.0
  P  P18  1  0.66486332  -0.33371877  0.99488166  1.0
  P  P19  1  1.33371877  0.33513668  0.99488166  1.0
  P  P20  1  0.77079604  -0.10728461  0.33064977  1.0
  P  P21  1  1.10728461  0.22920396  0.33064977  1.0
  P  P22  1  1.00730804  -1.00730804  0.99805217  1.0
  P  P23  1  0.44280665  -0.44280665  0.33691798  1.0
