# generated using pymatgen
data_Re(Se2Cl3)2
_symmetry_space_group_name_H-M   'P 1'
_cell_length_a   10.88104583
_cell_length_b   11.16910751
_cell_length_c   10.99051393
_cell_angle_alpha   90.00000000
_cell_angle_beta   90.00000000
_cell_angle_gamma   90.00000000
_symmetry_Int_Tables_number   1
_chemical_formula_structural   Re(Se2Cl3)2
_chemical_formula_sum   'Re4 Se16 Cl24'
_cell_volume   1335.69442098
_cell_formula_units_Z   4
loop_
 _symmetry_equiv_pos_site_id
 _symmetry_equiv_pos_as_xyz
  1  'x, y, z'
loop_
 _atom_site_type_symbol
 _atom_site_label
 _atom_site_symmetry_multiplicity
 _atom_site_fract_x
 _atom_site_fract_y
 _atom_site_fract_z
 _atom_site_occupancy
  Re  Re0  1  0.50000000  0.50000000  0.00000000  1.0
  Re  Re1  1  0.50000000  0.00000000  0.50000000  1.0
  Re  Re2  1  0.00000000  0.00000000  0.00000000  1.0
  Re  Re3  1  0.00000000  0.50000000  0.50000000  1.0
  Se  Se4  1  0.41373159  0.89943193  0.07233649  1.0
  Se  Se5  1  0.41373159  0.60056807  0.57233649  1.0
  Se  Se6  1  0.91373159  0.39943193  0.92766351  1.0
  Se  Se7  1  0.91373159  0.10056807  0.42766351  1.0
  Se  Se8  1  0.58626841  0.39943193  0.42766351  1.0
  Se  Se9  1  0.58626841  0.10056807  0.92766351  1.0
  Se  Se10  1  0.08626841  0.89943193  0.57233649  1.0
  Se  Se11  1  0.08626841  0.60056807  0.07233649  1.0
  Se  Se12  1  0.11063718  0.40000479  0.01466182  1.0
  Se  Se13  1  0.11063718  0.09999521  0.51466182  1.0
  Se  Se14  1  0.61063718  0.90000479  0.98533818  1.0
  Se  Se15  1  0.61063718  0.59999521  0.48533818  1.0
  Se  Se16  1  0.88936282  0.90000479  0.48533818  1.0
  Se  Se17  1  0.88936282  0.59999521  0.98533818  1.0
  Se  Se18  1  0.38936282  0.40000479  0.51466182  1.0
  Se  Se19  1  0.38936282  0.09999521  0.01466182  1.0
  Cl  Cl20  1  0.42253394  0.16322744  0.38484138  1.0
  Cl  Cl21  1  0.42253394  0.33677256  0.88484138  1.0
  Cl  Cl22  1  0.92253394  0.66322744  0.61515862  1.0
  Cl  Cl23  1  0.92253394  0.83677256  0.11515862  1.0
  Cl  Cl24  1  0.57746606  0.66322744  0.11515862  1.0
  Cl  Cl25  1  0.57746606  0.83677256  0.61515862  1.0
  Cl  Cl26  1  0.07746606  0.16322744  0.88484138  1.0
  Cl  Cl27  1  0.07746606  0.33677256  0.38484138  1.0
  Cl  Cl28  1  0.34035264  0.47465656  0.14497994  1.0
  Cl  Cl29  1  0.34035264  0.02534344  0.64497994  1.0
  Cl  Cl30  1  0.84035264  0.97465656  0.85502006  1.0
  Cl  Cl31  1  0.84035264  0.52534344  0.35502006  1.0
  Cl  Cl32  1  0.65964736  0.97465656  0.35502006  1.0
  Cl  Cl33  1  0.65964736  0.52534344  0.85502006  1.0
  Cl  Cl34  1  0.15964736  0.47465656  0.64497994  1.0
  Cl  Cl35  1  0.15964736  0.02534344  0.14497994  1.0
  Cl  Cl36  1  0.87608992  0.13073852  0.11113596  1.0
  Cl  Cl37  1  0.87608992  0.36926148  0.61113596  1.0
  Cl  Cl38  1  0.37608992  0.63073852  0.88886404  1.0
  Cl  Cl39  1  0.37608992  0.86926148  0.38886404  1.0
  Cl  Cl40  1  0.12391008  0.63073852  0.38886404  1.0
  Cl  Cl41  1  0.12391008  0.86926148  0.88886404  1.0
  Cl  Cl42  1  0.62391008  0.13073852  0.61113596  1.0
  Cl  Cl43  1  0.62391008  0.36926148  0.11113596  1.0
