# generated using pymatgen
data_SrSe2O5
_symmetry_space_group_name_H-M   'P 1'
_cell_length_a   11.21409207
_cell_length_b   7.12005155
_cell_length_c   7.04485635
_cell_angle_alpha   79.75490000
_cell_angle_beta   80.55057370
_cell_angle_gamma   84.49131160
_symmetry_Int_Tables_number   1
_chemical_formula_structural   SrSe2O5
_chemical_formula_sum   'Sr4 Se8 O20'
_cell_volume   544.72233043
_cell_formula_units_Z   4
loop_
 _symmetry_equiv_pos_site_id
 _symmetry_equiv_pos_as_xyz
  1  'x, y, z'
loop_
 _atom_site_type_symbol
 _atom_site_label
 _atom_site_symmetry_multiplicity
 _atom_site_fract_x
 _atom_site_fract_y
 _atom_site_fract_z
 _atom_site_occupancy
  Sr  Sr0  1  -0.74187976  -0.39113733  -0.80895216  1.0
  Sr  Sr1  1  -0.25812024  -0.60886267  -0.19104784  1.0
  Sr  Sr2  1  -0.60828677  -0.64463014  -0.30472848  1.0
  Sr  Sr3  1  -0.39171323  -0.35536986  -0.69527152  1.0
  Se  Se4  1  -0.87459884  -0.83502966  -0.90868470  1.0
  Se  Se5  1  -0.12540116  -0.16497034  -0.09131530  1.0
  Se  Se6  1  -0.54147566  -0.83614215  -0.80592021  1.0
  Se  Se7  1  -0.45852434  -0.16385785  -0.19407979  1.0
  Se  Se8  1  -0.29007992  -0.82944891  -0.62878642  1.0
  Se  Se9  1  -0.70992008  -0.17055109  -0.37121358  1.0
  Se  Se10  1  -0.93061161  -0.72579482  -0.36406836  1.0
  Se  Se11  1  -0.06938839  -0.27420518  -0.63593164  1.0
  O  O12  1  -0.52600746  -0.22997777  -0.96309814  1.0
  O  O13  1  -0.47399254  -0.77002223  -0.03690186  1.0
  O  O14  1  -0.74581891  -0.71370338  -0.95350920  1.0
  O  O15  1  -0.25418109  -0.28629662  -0.04649080  1.0
  O  O16  1  -0.27308151  -0.65574933  -0.82451549  1.0
  O  O17  1  -0.72691849  -0.34425067  -0.17548451  1.0
  O  O18  1  -0.83426691  -0.05298896  -0.79504210  1.0
  O  O19  1  -0.16573309  -0.94701104  -0.20495790  1.0
  O  O20  1  -0.97437677  -0.43149131  -0.74612958  1.0
  O  O21  1  -0.02562323  -0.56850869  -0.25387042  1.0
  O  O22  1  -0.55869105  -0.63357231  -0.70580176  1.0
  O  O23  1  -0.44130895  -0.36642769  -0.29419824  1.0
  O  O24  1  -0.40528030  -0.96882924  -0.68990071  1.0
  O  O25  1  -0.59471970  -0.03117076  -0.31009929  1.0
  O  O26  1  -0.80092943  -0.61718577  -0.45607613  1.0
  O  O27  1  -0.19907057  -0.38281423  -0.54392387  1.0
  O  O28  1  -0.37105928  -0.70828392  -0.45579940  1.0
  O  O29  1  -0.62894072  -0.29171608  -0.54420060  1.0
  O  O30  1  -0.87499669  -0.89775846  -0.15444323  1.0
  O  O31  1  -0.12500331  -0.10224154  -0.84555677  1.0
