# generated using pymatgen
data_TlPbI3
_symmetry_space_group_name_H-M   'P 1'
_cell_length_a   8.08691511
_cell_length_b   8.08691511
_cell_length_c   11.98158151
_cell_angle_alpha   90.00000000
_cell_angle_beta   90.00000000
_cell_angle_gamma   146.29663647
_symmetry_Int_Tables_number   1
_chemical_formula_structural   TlPbI3
_chemical_formula_sum   'Tl2 Pb2 I6'
_cell_volume   434.79983385
_cell_formula_units_Z   2
loop_
 _symmetry_equiv_pos_site_id
 _symmetry_equiv_pos_as_xyz
  1  'x, y, z'
loop_
 _atom_site_type_symbol
 _atom_site_label
 _atom_site_symmetry_multiplicity
 _atom_site_fract_x
 _atom_site_fract_y
 _atom_site_fract_z
 _atom_site_occupancy
  Tl  Tl0  1  -0.25147814  0.25147814  0.75000000  1.0
  Tl  Tl1  1  0.25147814  0.74852186  0.25000000  1.0
  Pb  Pb2  1  0.00000000  0.00000000  0.00000000  1.0
  Pb  Pb3  1  0.00000000  0.00000000  0.50000000  1.0
  I  I4  1  0.35972239  0.64027761  0.94255046  1.0
  I  I5  1  0.35972239  0.64027761  0.55744954  1.0
  I  I6  1  -0.35972239  0.35972239  0.44255046  1.0
  I  I7  1  -0.35972239  0.35972239  0.05744954  1.0
  I  I8  1  0.08174006  0.91825994  0.75000000  1.0
  I  I9  1  -0.08174006  0.08174006  0.25000000  1.0
