# generated using pymatgen
data_TeO3
_symmetry_space_group_name_H-M   'P 1'
_cell_length_a   5.38461989
_cell_length_b   5.38461989
_cell_length_c   5.38461989
_cell_angle_alpha   56.81863241
_cell_angle_beta   56.81863241
_cell_angle_gamma   56.81863241
_symmetry_Int_Tables_number   1
_chemical_formula_structural   TeO3
_chemical_formula_sum   'Te2 O6'
_cell_volume   102.28993530
_cell_formula_units_Z   2
loop_
 _symmetry_equiv_pos_site_id
 _symmetry_equiv_pos_as_xyz
  1  'x, y, z'
loop_
 _atom_site_type_symbol
 _atom_site_label
 _atom_site_symmetry_multiplicity
 _atom_site_fract_x
 _atom_site_fract_y
 _atom_site_fract_z
 _atom_site_occupancy
  Te  Te0  1  1.00000000  0.00000000  0.00000000  1.0
  Te  Te1  1  0.50000000  0.50000000  0.50000000  1.0
  O  O2  1  1.39964408  -0.25000000  0.10035592  1.0
  O  O3  1  0.89964408  -0.39964408  0.25000000  1.0
  O  O4  1  0.25000000  0.89964408  -0.39964408  1.0
  O  O5  1  0.75000000  0.10035592  0.39964408  1.0
  O  O6  1  0.60035592  0.25000000  -0.10035592  1.0
  O  O7  1  1.10035592  0.39964408  -0.25000000  1.0
