# generated using pymatgen
data_PbO2
_symmetry_space_group_name_H-M   'P 1'
_cell_length_a   5.11895927
_cell_length_b   6.07727777
_cell_length_c   5.57836032
_cell_angle_alpha   90.00000000
_cell_angle_beta   90.00000000
_cell_angle_gamma   90.00000000
_symmetry_Int_Tables_number   1
_chemical_formula_structural   PbO2
_chemical_formula_sum   'Pb4 O8'
_cell_volume   173.53909358
_cell_formula_units_Z   4
loop_
 _symmetry_equiv_pos_site_id
 _symmetry_equiv_pos_as_xyz
  1  'x, y, z'
loop_
 _atom_site_type_symbol
 _atom_site_label
 _atom_site_symmetry_multiplicity
 _atom_site_fract_x
 _atom_site_fract_y
 _atom_site_fract_z
 _atom_site_occupancy
  Pb  Pb0  1  0.50000000  0.17774407  0.25000000  1.0
  Pb  Pb1  1  0.50000000  0.82225593  0.75000000  1.0
  Pb  Pb2  1  0.00000000  0.67774407  0.25000000  1.0
  Pb  Pb3  1  0.00000000  0.32225593  0.75000000  1.0
  O  O4  1  0.23443403  0.40554006  0.07107152  1.0
  O  O5  1  0.23443403  0.59445994  0.57107152  1.0
  O  O6  1  0.73443403  0.90554006  0.42892848  1.0
  O  O7  1  0.73443403  0.09445994  0.92892848  1.0
  O  O8  1  0.76556597  0.40554006  0.42892848  1.0
  O  O9  1  0.76556597  0.59445994  0.92892848  1.0
  O  O10  1  0.26556597  0.90554006  0.07107152  1.0
  O  O11  1  0.26556597  0.09445994  0.57107152  1.0
