# generated using pymatgen
data_Ba2GaSbTe5
_symmetry_space_group_name_H-M   'P 1'
_cell_length_a   13.79191166
_cell_length_b   9.67071968
_cell_length_c   10.03352189
_cell_angle_alpha   90.00000000
_cell_angle_beta   90.00000000
_cell_angle_gamma   90.00000000
_symmetry_Int_Tables_number   1
_chemical_formula_structural   Ba2GaSbTe5
_chemical_formula_sum   'Ba8 Ga4 Sb4 Te20'
_cell_volume   1338.24818914
_cell_formula_units_Z   4
loop_
 _symmetry_equiv_pos_site_id
 _symmetry_equiv_pos_as_xyz
  1  'x, y, z'
loop_
 _atom_site_type_symbol
 _atom_site_label
 _atom_site_symmetry_multiplicity
 _atom_site_fract_x
 _atom_site_fract_y
 _atom_site_fract_z
 _atom_site_occupancy
  Ba  Ba0  1  0.17570149  0.99410672  0.87526857  1.0
  Ba  Ba1  1  0.17570149  0.50589328  0.87526857  1.0
  Ba  Ba2  1  0.67570149  0.99410672  0.62473143  1.0
  Ba  Ba3  1  0.67570149  0.50589328  0.62473143  1.0
  Ba  Ba4  1  0.82429851  0.49410672  0.12473143  1.0
  Ba  Ba5  1  0.82429851  0.00589328  0.12473143  1.0
  Ba  Ba6  1  0.32429851  0.49410672  0.37526857  1.0
  Ba  Ba7  1  0.32429851  0.00589328  0.37526857  1.0
  Ga  Ga8  1  0.40108637  0.75000000  0.66334084  1.0
  Ga  Ga9  1  0.90108637  0.75000000  0.83665916  1.0
  Ga  Ga10  1  0.59891363  0.25000000  0.33665916  1.0
  Ga  Ga11  1  0.09891363  0.25000000  0.16334084  1.0
  Sb  Sb12  1  0.46934576  0.75000000  0.01740941  1.0
  Sb  Sb13  1  0.96934576  0.75000000  0.48259059  1.0
  Sb  Sb14  1  0.53065424  0.25000000  0.98259059  1.0
  Sb  Sb15  1  0.03065424  0.25000000  0.51740941  1.0
  Te  Te16  1  0.44179066  0.96765536  0.82123384  1.0
  Te  Te17  1  0.44179066  0.53234464  0.82123384  1.0
  Te  Te18  1  0.94179066  0.96765536  0.67876616  1.0
  Te  Te19  1  0.94179066  0.53234464  0.67876616  1.0
  Te  Te20  1  0.55820934  0.46765536  0.17876616  1.0
  Te  Te21  1  0.55820934  0.03234464  0.17876616  1.0
  Te  Te22  1  0.05820934  0.46765536  0.32123384  1.0
  Te  Te23  1  0.05820934  0.03234464  0.32123384  1.0
  Te  Te24  1  0.27740351  0.75000000  0.11712596  1.0
  Te  Te25  1  0.77740351  0.75000000  0.38287404  1.0
  Te  Te26  1  0.72259649  0.25000000  0.88287404  1.0
  Te  Te27  1  0.22259649  0.25000000  0.61712596  1.0
  Te  Te28  1  0.21519588  0.75000000  0.60713042  1.0
  Te  Te29  1  0.71519588  0.75000000  0.89286958  1.0
  Te  Te30  1  0.78480412  0.25000000  0.39286958  1.0
  Te  Te31  1  0.28480412  0.25000000  0.10713042  1.0
  Te  Te32  1  0.00987305  0.75000000  0.04869972  1.0
  Te  Te33  1  0.50987305  0.75000000  0.45130028  1.0
  Te  Te34  1  0.99012695  0.25000000  0.95130028  1.0
  Te  Te35  1  0.49012695  0.25000000  0.54869972  1.0
