# generated using pymatgen
data_KSO3
_symmetry_space_group_name_H-M   'P 1'
_cell_length_a   10.05914368
_cell_length_b   10.05914368
_cell_length_c   6.51835762
_cell_angle_alpha   90.00000000
_cell_angle_beta   90.00000000
_cell_angle_gamma   120.00000000
_symmetry_Int_Tables_number   1
_chemical_formula_structural   KSO3
_chemical_formula_sum   'K6 S6 O18'
_cell_volume   571.20347122
_cell_formula_units_Z   6
loop_
 _symmetry_equiv_pos_site_id
 _symmetry_equiv_pos_as_xyz
  1  'x, y, z'
loop_
 _atom_site_type_symbol
 _atom_site_label
 _atom_site_symmetry_multiplicity
 _atom_site_fract_x
 _atom_site_fract_y
 _atom_site_fract_z
 _atom_site_occupancy
  K  K0  1  0.71120091  0.71120091  0.50000000  1.0
  K  K1  1  0.00000000  0.28879909  0.50000000  1.0
  K  K2  1  0.28879909  0.00000000  0.50000000  1.0
  K  K3  1  0.37508385  0.37508385  0.00000000  1.0
  K  K4  1  0.00000000  0.62491615  0.00000000  1.0
  K  K5  1  0.62491615  0.00000000  0.00000000  1.0
  S  S6  1  0.33333333  0.66666667  0.31863885  1.0
  S  S7  1  0.66666667  0.33333333  0.68136115  1.0
  S  S8  1  0.33333333  0.66666667  0.65829021  1.0
  S  S9  1  0.66666667  0.33333333  0.34170979  1.0
  S  S10  1  0.00000000  0.00000000  0.16993673  1.0
  S  S11  1  0.00000000  0.00000000  0.83006327  1.0
  O  O12  1  0.95967091  0.84235976  0.22856950  1.0
  O  O13  1  0.84235976  0.95967091  0.77143050  1.0
  O  O14  1  0.88268885  0.04032909  0.22856950  1.0
  O  O15  1  0.15764024  0.11731115  0.22856950  1.0
  O  O16  1  0.04032909  0.88268885  0.77143050  1.0
  O  O17  1  0.11731115  0.15764024  0.77143050  1.0
  O  O18  1  0.26036511  0.75734047  0.26080578  1.0
  O  O19  1  0.75734047  0.26036511  0.73919422  1.0
  O  O20  1  0.49697536  0.73963489  0.26080578  1.0
  O  O21  1  0.24265953  0.50302464  0.26080578  1.0
  O  O22  1  0.73963489  0.49697536  0.73919422  1.0
  O  O23  1  0.50302464  0.24265953  0.73919422  1.0
  O  O24  1  0.60750076  0.43624533  0.28456360  1.0
  O  O25  1  0.43624533  0.60750076  0.71543640  1.0
  O  O26  1  0.82874457  0.39249924  0.28456360  1.0
  O  O27  1  0.56375467  0.17125543  0.28456360  1.0
  O  O28  1  0.39249924  0.82874457  0.71543640  1.0
  O  O29  1  0.17125543  0.56375467  0.71543640  1.0
