# generated using pymatgen
data_ScFeSi2
_symmetry_space_group_name_H-M   'P 1'
_cell_length_a   9.77192536
_cell_length_b   9.77192536
_cell_length_c   14.23726160
_cell_angle_alpha   90.00000000
_cell_angle_beta   90.00000000
_cell_angle_gamma   150.00712092
_symmetry_Int_Tables_number   1
_chemical_formula_structural   ScFeSi2
_chemical_formula_sum   'Sc12 Fe12 Si24'
_cell_volume   679.61546034
_cell_formula_units_Z   12
loop_
 _symmetry_equiv_pos_site_id
 _symmetry_equiv_pos_as_xyz
  1  'x, y, z'
loop_
 _atom_site_type_symbol
 _atom_site_label
 _atom_site_symmetry_multiplicity
 _atom_site_fract_x
 _atom_site_fract_y
 _atom_site_fract_z
 _atom_site_occupancy
  Fe  Fe0  1  0.04097106  0.95902894  0.87691429  1.0
  Fe  Fe1  1  -0.45902894  0.45902894  0.62308571  1.0
  Fe  Fe2  1  -0.04097106  0.04097106  0.12308571  1.0
  Fe  Fe3  1  0.45902894  0.54097106  0.37691429  1.0
  Fe  Fe4  1  0.08905681  0.41094319  0.75000000  1.0
  Fe  Fe5  1  0.58905681  0.91094319  0.75000000  1.0
  Fe  Fe6  1  0.41094319  1.08905681  0.25000000  1.0
  Fe  Fe7  1  -0.08905681  0.58905681  0.25000000  1.0
  Fe  Fe8  1  -0.00000000  0.50000000  0.00000000  1.0
  Fe  Fe9  1  0.50000000  1.00000000  0.50000000  1.0
  Fe  Fe10  1  0.50000000  1.00000000  0.00000000  1.0
  Fe  Fe11  1  -0.00000000  0.50000000  0.50000000  1.0
  Si  Si12  1  0.14005656  0.85994344  0.99228172  1.0
  Si  Si13  1  -0.35994344  0.35994344  0.50771828  1.0
  Si  Si14  1  -0.14005656  0.14005656  0.00771828  1.0
  Si  Si15  1  0.35994344  0.64005656  0.49228172  1.0
  Si  Si16  1  0.26455115  0.73544885  0.64339166  1.0
  Si  Si17  1  -0.23544885  0.23544885  0.85660834  1.0
  Si  Si18  1  -0.26455115  0.26455115  0.35660834  1.0
  Si  Si19  1  0.23544885  0.76455115  0.14339166  1.0
  Si  Si20  1  0.33305391  0.66694609  0.89936872  1.0
  Si  Si21  1  -0.16694609  0.16694609  0.60063128  1.0
  Si  Si22  1  -0.33305391  0.33305391  0.10063128  1.0
  Si  Si23  1  0.16694609  0.83305391  0.39936872  1.0
  Si  Si24  1  0.41313501  0.58686499  0.64348944  1.0
  Si  Si25  1  -0.08686499  0.08686499  0.85651056  1.0
  Si  Si26  1  -0.41313501  0.41313501  0.35651056  1.0
  Si  Si27  1  0.08686499  0.91313501  0.14348944  1.0
  Si  Si28  1  -0.16404843  0.66404843  0.75000000  1.0
  Si  Si29  1  0.33595157  1.16404843  0.75000000  1.0
  Si  Si30  1  0.66404843  0.83595157  0.25000000  1.0
  Si  Si31  1  0.16404843  0.33595157  0.25000000  1.0
  Si  Si32  1  0.74614185  0.74614185  0.00000000  1.0
  Si  Si33  1  0.24614185  0.24614185  0.50000000  1.0
  Si  Si34  1  0.25385815  0.25385815  0.00000000  1.0
  Si  Si35  1  0.75385815  0.75385815  0.50000000  1.0
  Sc  Sc36  1  0.12314191  0.87685809  0.58480743  1.0
  Sc  Sc37  1  -0.37685809  0.37685809  0.91519257  1.0
  Sc  Sc38  1  -0.12314191  0.12314191  0.41519257  1.0
  Sc  Sc39  1  0.37685809  0.62314191  0.08480743  1.0
  Sc  Sc40  1  0.20408044  0.79591956  0.81874521  1.0
  Sc  Sc41  1  -0.29591956  0.29591956  0.68125479  1.0
  Sc  Sc42  1  -0.20408044  0.20408044  0.18125479  1.0
  Sc  Sc43  1  0.29591956  0.70408044  0.31874521  1.0
  Sc  Sc44  1  0.46738195  0.53261805  0.82297297  1.0
  Sc  Sc45  1  -0.03261805  0.03261805  0.67702703  1.0
  Sc  Sc46  1  -0.46738195  0.46738195  0.17702703  1.0
  Sc  Sc47  1  0.03261805  0.96738195  0.32297297  1.0
