# generated using pymatgen
data_La4Si4I3
_symmetry_space_group_name_H-M   'P 1'
_cell_length_a   12.54211211
_cell_length_b   12.54211211
_cell_length_c   12.67691659
_cell_angle_alpha   82.40057527
_cell_angle_beta   97.59942473
_cell_angle_gamma   160.41277280
_symmetry_Int_Tables_number   1
_chemical_formula_structural   La4Si4I3
_chemical_formula_sum   'La8 Si8 I6'
_cell_volume   662.47014900
_cell_formula_units_Z   2
loop_
 _symmetry_equiv_pos_site_id
 _symmetry_equiv_pos_as_xyz
  1  'x, y, z'
loop_
 _atom_site_type_symbol
 _atom_site_label
 _atom_site_symmetry_multiplicity
 _atom_site_fract_x
 _atom_site_fract_y
 _atom_site_fract_z
 _atom_site_occupancy
  La  La0  1  0.99678851  0.00321149  0.83514909  1.0
  La  La1  1  0.00321149  -0.00321149  0.16485091  1.0
  La  La2  1  0.86219458  0.13780542  0.28999028  1.0
  La  La3  1  0.13780542  -0.13780542  0.71000972  1.0
  La  La4  1  0.85624678  0.14375322  0.97617645  1.0
  La  La5  1  0.14375322  -0.14375322  0.02382355  1.0
  La  La6  1  0.57324114  0.42675886  0.44577291  1.0
  La  La7  1  0.42675886  -0.42675886  0.55422709  1.0
  Si  Si8  1  0.97671251  0.02328749  0.40913969  1.0
  Si  Si9  1  0.02328749  -0.02328749  0.59086031  1.0
  Si  Si10  1  0.59545084  0.40454916  0.86046363  1.0
  Si  Si11  1  0.40454916  -0.40454916  0.13953637  1.0
  Si  Si12  1  0.54273058  0.45726942  0.68325100  1.0
  Si  Si13  1  0.45726942  -0.45726942  0.31674900  1.0
  Si  Si14  1  0.44971188  -0.44971188  0.98399517  1.0
  Si  Si15  1  0.55028812  0.44971188  0.01600483  1.0
  I  I16  1  0.86940588  0.13059412  0.71154010  1.0
  I  I17  1  0.13059412  -0.13059412  0.28845990  1.0
  I  I18  1  0.69883404  0.30116596  0.57253427  1.0
  I  I19  1  0.30116596  -0.30116596  0.42746573  1.0
  I  I20  1  0.25700569  -0.25700569  0.86982436  1.0
  I  I21  1  0.74299431  0.25700569  0.13017564  1.0
