# generated using pymatgen
data_Fe2AgS3
_symmetry_space_group_name_H-M   'P 1'
_cell_length_a   6.28589007
_cell_length_b   6.28589007
_cell_length_c   12.92430444
_cell_angle_alpha   90.00000000
_cell_angle_beta   90.00000000
_cell_angle_gamma   61.13067483
_symmetry_Int_Tables_number   1
_chemical_formula_structural   Fe2AgS3
_chemical_formula_sum   'Fe8 Ag4 S12'
_cell_volume   447.20594496
_cell_formula_units_Z   4
loop_
 _symmetry_equiv_pos_site_id
 _symmetry_equiv_pos_as_xyz
  1  'x, y, z'
loop_
 _atom_site_type_symbol
 _atom_site_label
 _atom_site_symmetry_multiplicity
 _atom_site_fract_x
 _atom_site_fract_y
 _atom_site_fract_z
 _atom_site_occupancy
  Fe  Fe0  1  -0.00141733  0.66585261  0.94132941  1.0
  Fe  Fe1  1  -0.50141733  1.16585261  0.55867059  1.0
  Fe  Fe2  1  -0.33414739  0.99858267  0.05867059  1.0
  Fe  Fe3  1  0.16585261  0.49858267  0.44132941  1.0
  Fe  Fe4  1  -0.66585261  1.00141733  0.94132941  1.0
  Fe  Fe5  1  -0.16585261  0.50141733  0.55867059  1.0
  Fe  Fe6  1  0.00141733  0.33414739  0.05867059  1.0
  Fe  Fe7  1  -0.49858267  0.83414739  0.44132941  1.0
  Ag  Ag8  1  -0.84751013  0.84751013  0.70804961  1.0
  Ag  Ag9  1  -0.34751013  0.34751013  0.79195039  1.0
  Ag  Ag10  1  -0.15248987  0.15248987  0.29195039  1.0
  Ag  Ag11  1  -0.65248987  0.65248987  0.20804961  1.0
  S  S12  1  0.02179555  0.33152410  0.89298565  1.0
  S  S13  1  -0.47820445  0.83152410  0.60701435  1.0
  S  S14  1  -0.66847590  1.02179555  0.10701435  1.0
  S  S15  1  -0.16847590  0.52179555  0.39298565  1.0
  S  S16  1  -0.33152410  0.97820445  0.89298565  1.0
  S  S17  1  0.16847590  0.47820445  0.60701435  1.0
  S  S18  1  -0.02179555  0.66847590  0.10701435  1.0
  S  S19  1  -0.52179555  1.16847590  0.39298565  1.0
  S  S20  1  -0.69650699  0.69650699  0.88601049  1.0
  S  S21  1  -0.19650699  0.19650699  0.61398951  1.0
  S  S22  1  -0.30349301  0.30349301  0.11398951  1.0
  S  S23  1  -0.80349301  0.80349301  0.38601049  1.0
