# generated using pymatgen
data_V4P3
_symmetry_space_group_name_H-M   'P 1'
_cell_length_a   6.83013045
_cell_length_b   6.83013045
_cell_length_c   17.13848008
_cell_angle_alpha   90.00000000
_cell_angle_beta   90.00000000
_cell_angle_gamma   152.52687859
_symmetry_Int_Tables_number   1
_chemical_formula_structural   V4P3
_chemical_formula_sum   'V16 P12'
_cell_volume   368.84534196
_cell_formula_units_Z   4
loop_
 _symmetry_equiv_pos_site_id
 _symmetry_equiv_pos_as_xyz
  1  'x, y, z'
loop_
 _atom_site_type_symbol
 _atom_site_label
 _atom_site_symmetry_multiplicity
 _atom_site_fract_x
 _atom_site_fract_y
 _atom_site_fract_z
 _atom_site_occupancy
  V  V0  1  0.26452872  0.73547128  0.83941627  1.0
  V  V1  1  0.26452872  0.73547128  0.66058373  1.0
  V  V2  1  -0.26452872  0.26452872  0.33941627  1.0
  V  V3  1  -0.26452872  0.26452872  0.16058373  1.0
  V  V4  1  0.33133113  0.66866887  0.47279493  1.0
  V  V5  1  0.33133113  0.66866887  0.02720507  1.0
  V  V6  1  -0.33133113  0.33133113  0.97279493  1.0
  V  V7  1  -0.33133113  0.33133113  0.52720507  1.0
  V  V8  1  0.46709049  0.53290951  0.88090093  1.0
  V  V9  1  0.46709049  0.53290951  0.61909907  1.0
  V  V10  1  -0.46709049  0.46709049  0.38090093  1.0
  V  V11  1  -0.46709049  0.46709049  0.11909907  1.0
  V  V12  1  0.06010280  0.93989720  0.75000000  1.0
  V  V13  1  -0.06010280  0.06010280  0.25000000  1.0
  V  V14  1  0.00000000  0.00000000  0.00000000  1.0
  V  V15  1  0.00000000  0.00000000  0.50000000  1.0
  P  P16  1  0.09856532  0.90143468  0.88301118  1.0
  P  P17  1  0.09856532  0.90143468  0.61698882  1.0
  P  P18  1  -0.09856532  0.09856532  0.38301118  1.0
  P  P19  1  -0.09856532  0.09856532  0.11698882  1.0
  P  P20  1  0.15698307  0.84301693  0.42354766  1.0
  P  P21  1  0.15698307  0.84301693  0.07645234  1.0
  P  P22  1  -0.15698307  0.15698307  0.92354766  1.0
  P  P23  1  -0.15698307  0.15698307  0.57645234  1.0
  P  P24  1  0.41865081  0.58134919  0.75000000  1.0
  P  P25  1  -0.41865081  0.41865081  0.25000000  1.0
  P  P26  1  -0.30296165  0.30296165  0.75000000  1.0
  P  P27  1  0.30296165  0.69703835  0.25000000  1.0
