# generated using pymatgen
data_LiMnH2OF4
_symmetry_space_group_name_H-M   'P 1'
_cell_length_a   5.43968232
_cell_length_b   12.36732103
_cell_length_c   5.56951527
_cell_angle_alpha   90.00000000
_cell_angle_beta   90.00000000
_cell_angle_gamma   90.00000000
_symmetry_Int_Tables_number   1
_chemical_formula_structural   LiMnH2OF4
_chemical_formula_sum   'Li4 Mn4 H8 O4 F16'
_cell_volume   374.68522735
_cell_formula_units_Z   4
loop_
 _symmetry_equiv_pos_site_id
 _symmetry_equiv_pos_as_xyz
  1  'x, y, z'
loop_
 _atom_site_type_symbol
 _atom_site_label
 _atom_site_symmetry_multiplicity
 _atom_site_fract_x
 _atom_site_fract_y
 _atom_site_fract_z
 _atom_site_occupancy
  Li  Li0  1  0.20766384  0.25000000  0.72614643  1.0
  Li  Li1  1  0.70766384  0.25000000  0.77385357  1.0
  Li  Li2  1  0.79233616  0.75000000  0.27385357  1.0
  Li  Li3  1  0.29233616  0.75000000  0.22614643  1.0
  Mn  Mn4  1  0.50000000  0.50000000  0.50000000  1.0
  Mn  Mn5  1  0.50000000  0.00000000  0.50000000  1.0
  Mn  Mn6  1  -0.00000000  0.50000000  -0.00000000  1.0
  Mn  Mn7  1  -0.00000000  -0.00000000  0.00000000  1.0
  H  H8  1  0.39103475  0.31374878  0.12525949  1.0
  H  H9  1  0.39103475  0.18625122  0.12525949  1.0
  H  H10  1  0.89103475  0.31374878  0.37474051  1.0
  H  H11  1  0.89103475  0.18625122  0.37474051  1.0
  H  H12  1  0.60896525  0.81374878  0.87474051  1.0
  H  H13  1  0.60896525  0.68625122  0.87474051  1.0
  H  H14  1  0.10896525  0.81374878  0.62525949  1.0
  H  H15  1  0.10896525  0.68625122  0.62525949  1.0
  O  O16  1  0.44313813  0.25000000  0.03431487  1.0
  O  O17  1  0.94313813  0.25000000  0.46568513  1.0
  O  O18  1  0.55686187  0.75000000  0.96568513  1.0
  O  O19  1  0.05686187  0.75000000  0.53431487  1.0
  F  F20  1  0.46425435  0.36008685  0.61051555  1.0
  F  F21  1  0.46425435  0.13991315  0.61051555  1.0
  F  F22  1  0.96425435  0.36008685  0.88948445  1.0
  F  F23  1  0.96425435  0.13991315  0.88948445  1.0
  F  F24  1  0.53574565  0.86008685  0.38948445  1.0
  F  F25  1  0.53574565  0.63991315  0.38948445  1.0
  F  F26  1  0.03574565  0.86008685  0.11051555  1.0
  F  F27  1  0.03574565  0.63991315  0.11051555  1.0
  F  F28  1  0.23189115  0.95540313  0.68961057  1.0
  F  F29  1  0.23189115  0.54459687  0.68961057  1.0
  F  F30  1  0.73189115  0.95540313  0.81038943  1.0
  F  F31  1  0.73189115  0.54459687  0.81038943  1.0
  F  F32  1  0.76810885  0.45540313  0.31038943  1.0
  F  F33  1  0.76810885  0.04459687  0.31038943  1.0
  F  F34  1  0.26810885  0.45540313  0.18961057  1.0
  F  F35  1  0.26810885  0.04459687  0.18961057  1.0
