# generated using pymatgen
data_CuH14C4S3(N2O)3
_symmetry_space_group_name_H-M   'P 1'
_cell_length_a   6.12465149
_cell_length_b   11.80501943
_cell_length_c   9.82610420
_cell_angle_alpha   95.65346759
_cell_angle_beta   98.73113991
_cell_angle_gamma   91.61579653
_symmetry_Int_Tables_number   1
_chemical_formula_structural   CuH14C4S3(N2O)3
_chemical_formula_sum   'Cu2 H28 C8 S6 N12 O6'
_cell_volume   698.12200078
_cell_formula_units_Z   2
loop_
 _symmetry_equiv_pos_site_id
 _symmetry_equiv_pos_as_xyz
  1  'x, y, z'
loop_
 _atom_site_type_symbol
 _atom_site_label
 _atom_site_symmetry_multiplicity
 _atom_site_fract_x
 _atom_site_fract_y
 _atom_site_fract_z
 _atom_site_occupancy
  Cu  Cu0  1  -0.96961288  -0.09738244  -0.94766468  1.0
  Cu  Cu1  1  -0.03038712  -0.90261756  -0.05233532  1.0
  H  H2  1  -0.97975606  -0.96019755  -0.69901689  1.0
  H  H3  1  -0.02024394  -0.03980245  -0.30098311  1.0
  H  H4  1  -0.88509710  -0.44025084  -0.26682389  1.0
  H  H5  1  -0.11490290  -0.55974916  -0.73317611  1.0
  H  H6  1  -0.86856376  -0.67640948  -0.41453326  1.0
  H  H7  1  -0.13143624  -0.32359052  -0.58546674  1.0
  H  H8  1  -0.88400842  -0.49221047  -0.78610036  1.0
  H  H9  1  -0.11599158  -0.50778953  -0.21389964  1.0
  H  H10  1  -0.89628236  -0.83837677  -0.58304864  1.0
  H  H11  1  -0.10371764  -0.16162323  -0.41695136  1.0
  H  H12  1  -0.84979091  -0.33512583  -0.52052720  1.0
  H  H13  1  -0.15020909  -0.66487417  -0.47947280  1.0
  H  H14  1  -0.81375053  -0.69981475  -0.05015646  1.0
  H  H15  1  -0.18624947  -0.30018525  -0.94984354  1.0
  H  H16  1  -0.70555595  -0.57130843  -0.95011868  1.0
  H  H17  1  -0.29444405  -0.42869157  -0.04988132  1.0
  H  H18  1  -0.67038435  -0.13528808  -0.73302595  1.0
  H  H19  1  -0.32961565  -0.86471192  -0.26697405  1.0
  H  H20  1  -0.64722979  -0.35629381  -0.90666047  1.0
  H  H21  1  -0.35277021  -0.64370619  -0.09333953  1.0
  H  H22  1  -0.57336680  -0.72780994  -0.61598076  1.0
  H  H23  1  -0.42663320  -0.27219006  -0.38401924  1.0
  H  H24  1  -0.50905852  -0.39294600  -0.76958377  1.0
  H  H25  1  -0.49094148  -0.60705400  -0.23041623  1.0
  H  H26  1  -0.45834552  -0.76488965  -0.76618646  1.0
  H  H27  1  -0.54165448  -0.23511035  -0.23381354  1.0
  H  H28  1  -0.41300555  -0.76254255  -0.38085330  1.0
  H  H29  1  -0.58699445  -0.23745745  -0.61914670  1.0
  C  C30  1  -0.98534674  -0.64295742  -0.89708421  1.0
  C  C31  1  -0.01465326  -0.35704258  -0.10291579  1.0
  C  C32  1  -0.92051869  -0.21604901  -0.66129412  1.0
  C  C33  1  -0.07948131  -0.78395099  -0.33870588  1.0
  C  C34  1  -0.71726711  -0.86980974  -0.74347812  1.0
  C  C35  1  -0.28273289  -0.13019026  -0.25652188  1.0
  C  C36  1  -0.58734644  -0.51897172  -0.45466528  1.0
  C  C37  1  -0.41265356  -0.48102828  -0.54533472  1.0
  S  S38  1  -0.86925293  -0.84762119  -0.23866328  1.0
  S  S39  1  -0.13074707  -0.15237881  -0.76133672  1.0
  S  S40  1  -0.69903420  -0.95324388  -0.89748722  1.0
  S  S41  1  -0.30096580  -0.04675612  -0.10251278  1.0
  S  S42  1  -0.18477161  -0.75404665  -0.93244444  1.0
  S  S43  1  -0.81522839  -0.24595335  -0.06755556  1.0
  N  N44  1  -0.99507772  -0.55993171  -0.79573916  1.0
  N  N45  1  -0.00492228  -0.44006829  -0.20426084  1.0
  N  N46  1  -0.97056893  -0.29119291  -0.57566267  1.0
  N  N47  1  -0.02943107  -0.70880709  -0.42433733  1.0
  N  N48  1  -0.86985870  -0.89269814  -0.66550876  1.0
  N  N49  1  -0.13014130  -0.10730186  -0.33449124  1.0
  N  N50  1  -0.82154083  -0.63741164  -0.97162437  1.0
  N  N51  1  -0.17845917  -0.36258836  -0.02837563  1.0
  N  N52  1  -0.70803875  -0.18937818  -0.66446137  1.0
  N  N53  1  -0.29196125  -0.81062182  -0.33553863  1.0
  N  N54  1  -0.57067434  -0.78256619  -0.70331103  1.0
  N  N55  1  -0.42932566  -0.21743381  -0.29668897  1.0
  O  O56  1  -0.70693737  -0.44396648  -0.40944958  1.0
  O  O57  1  -0.29306263  -0.55603352  -0.59055042  1.0
  O  O58  1  -0.59332347  -0.62416431  -0.43314242  1.0
  O  O59  1  -0.40667653  -0.37583569  -0.56685758  1.0
  O  O60  1  -0.60730785  -0.42216771  -0.85471849  1.0
  O  O61  1  -0.39269215  -0.57783229  -0.14528151  1.0
