# generated using pymatgen
data_CoSnO6
_symmetry_space_group_name_H-M   'P 1'
_cell_length_a   7.63997190
_cell_length_b   7.63997190
_cell_length_c   7.63997190
_cell_angle_alpha   90.00000000
_cell_angle_beta   90.00000000
_cell_angle_gamma   90.00000000
_symmetry_Int_Tables_number   1
_chemical_formula_structural   CoSnO6
_chemical_formula_sum   'Co4 Sn4 O24'
_cell_volume   445.93882348
_cell_formula_units_Z   4
loop_
 _symmetry_equiv_pos_site_id
 _symmetry_equiv_pos_as_xyz
  1  'x, y, z'
loop_
 _atom_site_type_symbol
 _atom_site_label
 _atom_site_symmetry_multiplicity
 _atom_site_fract_x
 _atom_site_fract_y
 _atom_site_fract_z
 _atom_site_occupancy
  Co  Co0  1  0.25000000  0.75000000  0.75000000  1.0
  Co  Co1  1  0.75000000  0.75000000  0.25000000  1.0
  Co  Co2  1  0.75000000  0.25000000  0.75000000  1.0
  Co  Co3  1  0.25000000  0.25000000  0.25000000  1.0
  Sn  Sn4  1  0.75000000  0.25000000  0.25000000  1.0
  Sn  Sn5  1  0.25000000  0.25000000  0.75000000  1.0
  Sn  Sn6  1  0.25000000  0.75000000  0.25000000  1.0
  Sn  Sn7  1  0.75000000  0.75000000  0.75000000  1.0
  O  O8  1  0.74999512  0.25000488  0.51427752  1.0
  O  O9  1  0.25000488  0.25000488  0.48572248  1.0
  O  O10  1  0.25000488  0.74999512  0.51427752  1.0
  O  O11  1  0.74999512  0.74999512  0.48572248  1.0
  O  O12  1  0.48572248  0.25000488  0.25000488  1.0
  O  O13  1  0.51427752  0.25000488  0.74999512  1.0
  O  O14  1  0.51427752  0.74999512  0.25000488  1.0
  O  O15  1  0.48572248  0.74999512  0.74999512  1.0
  O  O16  1  0.25000488  0.48572248  0.25000488  1.0
  O  O17  1  0.74999512  0.51427752  0.25000488  1.0
  O  O18  1  0.25000488  0.51427752  0.74999512  1.0
  O  O19  1  0.74999512  0.48572248  0.74999512  1.0
  O  O20  1  0.75000488  0.24999512  -0.01427752  1.0
  O  O21  1  0.24999512  0.24999512  0.01427752  1.0
  O  O22  1  0.24999512  0.75000488  -0.01427752  1.0
  O  O23  1  0.75000488  0.75000488  0.01427752  1.0
  O  O24  1  0.01427752  0.24999512  0.24999512  1.0
  O  O25  1  -0.01427752  0.24999512  0.75000488  1.0
  O  O26  1  -0.01427752  0.75000488  0.24999512  1.0
  O  O27  1  0.01427752  0.75000488  0.75000488  1.0
  O  O28  1  0.24999512  0.01427752  0.24999512  1.0
  O  O29  1  0.75000488  -0.01427752  0.24999512  1.0
  O  O30  1  0.24999512  -0.01427752  0.75000488  1.0
  O  O31  1  0.75000488  0.01427752  0.75000488  1.0
