# generated using pymatgen
data_H12OsN5Cl3O
_symmetry_space_group_name_H-M   'P 1'
_cell_length_a   6.99777105
_cell_length_b   6.99777105
_cell_length_c   6.99777105
_cell_angle_alpha   113.04621582
_cell_angle_beta   113.04621582
_cell_angle_gamma   102.53600055
_symmetry_Int_Tables_number   1
_chemical_formula_structural   H12OsN5Cl3O
_chemical_formula_sum   'H12 Os1 N5 Cl3 O1'
_cell_volume   260.93952252
_cell_formula_units_Z   1
loop_
 _symmetry_equiv_pos_site_id
 _symmetry_equiv_pos_as_xyz
  1  'x, y, z'
loop_
 _atom_site_type_symbol
 _atom_site_label
 _atom_site_symmetry_multiplicity
 _atom_site_fract_x
 _atom_site_fract_y
 _atom_site_fract_z
 _atom_site_occupancy
  H  H0  1  0.41315271  0.87659759  0.84599708  1.0
  H  H1  1  1.03060051  0.87659759  1.46344489  1.0
  H  H2  1  0.56715562  1.03060051  1.15400292  1.0
  H  H3  1  0.87659759  1.03060051  1.46344489  1.0
  H  H4  1  0.41315271  0.56715562  0.53655511  1.0
  H  H5  1  1.03060051  0.56715562  1.15400292  1.0
  H  H6  1  0.56715562  0.41315271  0.53655511  1.0
  H  H7  1  0.87659759  0.41315271  0.84599708  1.0
  H  H8  1  0.33555181  0.77923158  1.00000000  1.0
  H  H9  1  0.77923158  0.77923158  0.44367978  1.0
  H  H10  1  1.33555181  1.33555181  1.55632022  1.0
  H  H11  1  0.77923158  1.33555181  1.00000000  1.0
  Os  Os12  1  0.68208186  0.68208186  0.00000000  1.0
  N  N13  1  0.47422549  0.86480316  1.00000000  1.0
  N  N14  1  0.86480316  0.86480316  0.39057767  1.0
  N  N15  1  1.47422549  1.47422549  1.60942233  1.0
  N  N16  1  0.86480316  1.47422549  1.00000000  1.0
  N  N17  1  0.88141348  0.88141348  0.00000000  1.0
  Cl  Cl18  1  0.36955005  0.86955005  0.50000000  1.0
  Cl  Cl19  1  0.86955005  0.36955005  0.50000000  1.0
  Cl  Cl20  1  0.41540713  0.41540713  0.00000000  1.0
  O  O21  1  0.01556047  0.01556047  0.00000000  1.0
