# generated using pymatgen
data_NaV2O4
_symmetry_space_group_name_H-M   'P 1'
_cell_length_a   9.25069554
_cell_length_b   2.88615481
_cell_length_c   10.72533484
_cell_angle_alpha   90.00000000
_cell_angle_beta   90.00000000
_cell_angle_gamma   90.00000000
_symmetry_Int_Tables_number   1
_chemical_formula_structural   NaV2O4
_chemical_formula_sum   'Na4 V8 O16'
_cell_volume   286.35506477
_cell_formula_units_Z   4
loop_
 _symmetry_equiv_pos_site_id
 _symmetry_equiv_pos_as_xyz
  1  'x, y, z'
loop_
 _atom_site_type_symbol
 _atom_site_label
 _atom_site_symmetry_multiplicity
 _atom_site_fract_x
 _atom_site_fract_y
 _atom_site_fract_z
 _atom_site_occupancy
  Na  Na0  1  0.75793035  0.75000000  0.65192145  1.0
  Na  Na1  1  0.25793035  0.75000000  0.84807855  1.0
  Na  Na2  1  0.24206965  0.25000000  0.34807855  1.0
  Na  Na3  1  0.74206965  0.25000000  0.15192145  1.0
  V  V4  1  0.91325122  0.75000000  0.39596212  1.0
  V  V5  1  0.41325122  0.75000000  0.10403788  1.0
  V  V6  1  0.08674878  0.25000000  0.60403788  1.0
  V  V7  1  0.58674878  0.25000000  0.89596212  1.0
  V  V8  1  0.43872470  0.75000000  0.61464155  1.0
  V  V9  1  0.93872470  0.75000000  0.88535845  1.0
  V  V10  1  0.56127530  0.25000000  0.38535845  1.0
  V  V11  1  0.06127530  0.25000000  0.11464155  1.0
  O  O12  1  0.92330672  0.75000000  0.07038234  1.0
  O  O13  1  0.42330672  0.75000000  0.42961766  1.0
  O  O14  1  0.07669328  0.25000000  0.92961766  1.0
  O  O15  1  0.57669328  0.25000000  0.57038234  1.0
  O  O16  1  0.70687503  0.75000000  0.35500302  1.0
  O  O17  1  0.20687503  0.75000000  0.14499698  1.0
  O  O18  1  0.29312497  0.25000000  0.64499698  1.0
  O  O19  1  0.79312497  0.25000000  0.85500302  1.0
  O  O20  1  0.61002557  0.75000000  0.01891313  1.0
  O  O21  1  0.11002557  0.75000000  0.48108687  1.0
  O  O22  1  0.38997443  0.25000000  0.98108687  1.0
  O  O23  1  0.88997443  0.25000000  0.51891313  1.0
  O  O24  1  0.52051482  0.75000000  0.78273676  1.0
  O  O25  1  0.02051482  0.75000000  0.71726324  1.0
  O  O26  1  0.47948518  0.25000000  0.21726324  1.0
  O  O27  1  0.97948518  0.25000000  0.28273676  1.0
