# generated using pymatgen
data_SiBr2
_symmetry_space_group_name_H-M   'P 1'
_cell_length_a   11.13078195
_cell_length_b   11.13078195
_cell_length_c   15.28270145
_cell_angle_alpha   73.15218259
_cell_angle_beta   106.84781741
_cell_angle_gamma   122.25052052
_symmetry_Int_Tables_number   1
_chemical_formula_structural   SiBr2
_chemical_formula_sum   'Si12 Br24'
_cell_volume   1511.07188368
_cell_formula_units_Z   12
loop_
 _symmetry_equiv_pos_site_id
 _symmetry_equiv_pos_as_xyz
  1  'x, y, z'
loop_
 _atom_site_type_symbol
 _atom_site_label
 _atom_site_symmetry_multiplicity
 _atom_site_fract_x
 _atom_site_fract_y
 _atom_site_fract_z
 _atom_site_occupancy
  Si  Si0  1  1.23339604  0.55267249  0.57283455  1.0
  Si  Si1  1  0.55267249  0.23339604  0.92716545  1.0
  Si  Si2  1  0.76660396  0.44732751  0.42716545  1.0
  Si  Si3  1  0.44732751  -0.23339604  0.07283455  1.0
  Si  Si4  1  1.17363885  0.73884699  0.50263577  1.0
  Si  Si5  1  0.73884699  0.17363885  0.99736423  1.0
  Si  Si6  1  0.82636115  0.26115301  0.49736423  1.0
  Si  Si7  1  0.26115301  -0.17363885  0.00263577  1.0
  Si  Si8  1  1.07408265  0.33688780  0.50931315  1.0
  Si  Si9  1  0.33688780  0.07408265  0.99068685  1.0
  Si  Si10  1  0.92591735  0.66311220  0.49068685  1.0
  Si  Si11  1  0.66311220  -0.07408265  0.00931315  1.0
  Br  Br12  1  1.21943990  0.50325334  0.72329901  1.0
  Br  Br13  1  0.50325334  0.21943990  0.77670099  1.0
  Br  Br14  1  0.78056010  0.49674666  0.27670099  1.0
  Br  Br15  1  0.49674666  -0.21943990  0.22329901  1.0
  Br  Br16  1  0.30690687  -0.08248671  0.58555635  1.0
  Br  Br17  1  0.91751329  0.30690687  0.91444365  1.0
  Br  Br18  1  0.69309313  0.08248671  0.41444365  1.0
  Br  Br19  1  1.08248671  0.69309313  0.08555635  1.0
  Br  Br20  1  0.22230478  -0.18499737  0.35833637  1.0
  Br  Br21  1  0.81500263  0.22230478  0.14166363  1.0
  Br  Br22  1  0.77769522  0.18499737  0.64166363  1.0
  Br  Br23  1  1.18499737  0.77769522  0.85833637  1.0
  Br  Br24  1  1.11912272  0.38014945  0.36665850  1.0
  Br  Br25  1  0.38014945  0.11912272  0.13334150  1.0
  Br  Br26  1  0.88087728  0.61985055  0.63334150  1.0
  Br  Br27  1  0.61985055  -0.11912272  0.86665850  1.0
  Br  Br28  1  1.11635039  0.16096271  0.59821066  1.0
  Br  Br29  1  0.16096271  0.11635039  0.90178934  1.0
  Br  Br30  1  0.88364961  0.83903729  0.40178934  1.0
  Br  Br31  1  0.83903729  -0.11635039  0.09821066  1.0
  Br  Br32  1  0.45734227  -0.36999490  0.55583959  1.0
  Br  Br33  1  0.63000510  0.45734227  0.94416041  1.0
  Br  Br34  1  0.54265773  0.36999490  0.44416041  1.0
  Br  Br35  1  1.36999490  0.54265773  0.05583959  1.0
