# generated using pymatgen
data_NaSO4
_symmetry_space_group_name_H-M   'P 1'
_cell_length_a   7.37133533
_cell_length_b   10.00501146
_cell_length_c   11.14603555
_cell_angle_alpha   90.00000000
_cell_angle_beta   90.00000000
_cell_angle_gamma   90.00000000
_symmetry_Int_Tables_number   1
_chemical_formula_structural   NaSO4
_chemical_formula_sum   'Na8 S8 O32'
_cell_volume   822.02340388
_cell_formula_units_Z   8
loop_
 _symmetry_equiv_pos_site_id
 _symmetry_equiv_pos_as_xyz
  1  'x, y, z'
loop_
 _atom_site_type_symbol
 _atom_site_label
 _atom_site_symmetry_multiplicity
 _atom_site_fract_x
 _atom_site_fract_y
 _atom_site_fract_z
 _atom_site_occupancy
  O  O0  1  0.43268593  0.37393862  0.59273599  1.0
  O  O1  1  0.43268593  0.12606138  0.59273599  1.0
  O  O2  1  0.93268593  0.37393862  0.90726401  1.0
  O  O3  1  0.93268593  0.12606138  0.90726401  1.0
  O  O4  1  0.56731407  0.87393862  0.40726401  1.0
  O  O5  1  0.56731407  0.62606138  0.40726401  1.0
  O  O6  1  0.06731407  0.87393862  0.09273599  1.0
  O  O7  1  0.06731407  0.62606138  0.09273599  1.0
  O  O8  1  0.36438308  0.37335301  -0.01429801  1.0
  O  O9  1  0.36438308  0.12664699  -0.01429801  1.0
  O  O10  1  0.86438308  0.37335301  0.51429801  1.0
  O  O11  1  0.86438308  0.12664699  0.51429801  1.0
  O  O12  1  0.63561692  0.87335301  1.01429801  1.0
  O  O13  1  0.63561692  0.62664699  1.01429801  1.0
  O  O14  1  0.13561692  0.87335301  0.48570199  1.0
  O  O15  1  0.13561692  0.62664699  0.48570199  1.0
  O  O16  1  0.12030034  0.25000000  0.76006448  1.0
  O  O17  1  0.62030034  0.25000000  0.73993552  1.0
  O  O18  1  0.87969966  0.75000000  0.23993552  1.0
  O  O19  1  0.37969966  0.75000000  0.26006448  1.0
  O  O20  1  0.36857556  0.97147267  0.75056054  1.0
  O  O21  1  0.36857556  0.52852733  0.75056054  1.0
  O  O22  1  0.86857556  0.97147267  0.74943946  1.0
  O  O23  1  0.86857556  0.52852733  0.74943946  1.0
  O  O24  1  0.63142444  0.47147267  0.24943946  1.0
  O  O25  1  0.63142444  0.02852733  0.24943946  1.0
  O  O26  1  0.13142444  0.47147267  0.25056054  1.0
  O  O27  1  0.13142444  0.02852733  0.25056054  1.0
  O  O28  1  0.17144936  0.25000000  0.13046587  1.0
  O  O29  1  0.67144936  0.25000000  0.36953413  1.0
  O  O30  1  0.82855064  0.75000000  0.86953413  1.0
  O  O31  1  0.32855064  0.75000000  0.63046587  1.0
  S  S32  1  0.53382424  0.25000000  0.62049059  1.0
  S  S33  1  1.03382424  0.25000000  0.87950941  1.0
  S  S34  1  0.46617576  0.75000000  0.37950941  1.0
  S  S35  1  -0.03382424  0.75000000  0.12049059  1.0
  S  S36  1  0.26146274  0.25000000  0.01278295  1.0
  S  S37  1  0.76146274  0.25000000  0.48721705  1.0
  S  S38  1  0.73853726  0.75000000  0.98721705  1.0
  S  S39  1  0.23853726  0.75000000  0.51278295  1.0
  Na  Na40  1  0.12542708  0.44805556  0.62995892  1.0
  Na  Na41  1  0.12542708  0.05194444  0.62995892  1.0
  Na  Na42  1  0.62542708  0.44805556  0.87004108  1.0
  Na  Na43  1  0.62542708  0.05194444  0.87004108  1.0
  Na  Na44  1  0.87457292  0.94805556  0.37004108  1.0
  Na  Na45  1  0.87457292  0.55194444  0.37004108  1.0
  Na  Na46  1  0.37457292  0.94805556  0.12995892  1.0
  Na  Na47  1  0.37457292  0.55194444  0.12995892  1.0
