# generated using pymatgen
data_K(In3Au2)2
_symmetry_space_group_name_H-M   'P 1'
_cell_length_a   8.21535898
_cell_length_b   8.21535898
_cell_length_c   4.56958844
_cell_angle_alpha   90.00000000
_cell_angle_beta   90.00000000
_cell_angle_gamma   120.00000000
_symmetry_Int_Tables_number   1
_chemical_formula_structural   K(In3Au2)2
_chemical_formula_sum   'K1 In6 Au4'
_cell_volume   267.09195616
_cell_formula_units_Z   1
loop_
 _symmetry_equiv_pos_site_id
 _symmetry_equiv_pos_as_xyz
  1  'x, y, z'
loop_
 _atom_site_type_symbol
 _atom_site_label
 _atom_site_symmetry_multiplicity
 _atom_site_fract_x
 _atom_site_fract_y
 _atom_site_fract_z
 _atom_site_occupancy
  K  K0  1  0.00000000  0.00000000  -0.00000000  1.0
  In  In1  1  0.60756924  0.80378462  0.50000000  1.0
  In  In2  1  0.19621538  0.80378462  0.50000000  1.0
  In  In3  1  0.19621538  0.39243076  0.50000000  1.0
  In  In4  1  0.93022050  0.46511025  0.00000000  1.0
  In  In5  1  0.53488975  0.46511025  -0.00000000  1.0
  In  In6  1  0.53488975  0.06977950  0.00000000  1.0
  Au  Au7  1  0.40959850  0.20479925  0.50000000  1.0
  Au  Au8  1  0.79520075  0.20479925  0.50000000  1.0
  Au  Au9  1  0.79520075  0.59040150  0.50000000  1.0
  Au  Au10  1  0.33333333  0.66666667  -0.00000000  1.0
