# generated using pymatgen
data_Ta2V3Si
_symmetry_space_group_name_H-M   'P 1'
_cell_length_a   4.93313246
_cell_length_b   4.93313246
_cell_length_c   8.37404391
_cell_angle_alpha   90.00000000
_cell_angle_beta   90.00000000
_cell_angle_gamma   120.00000000
_symmetry_Int_Tables_number   1
_chemical_formula_structural   Ta2V3Si
_chemical_formula_sum   'Ta4 V6 Si2'
_cell_volume   176.48647099
_cell_formula_units_Z   2
loop_
 _symmetry_equiv_pos_site_id
 _symmetry_equiv_pos_as_xyz
  1  'x, y, z'
loop_
 _atom_site_type_symbol
 _atom_site_label
 _atom_site_symmetry_multiplicity
 _atom_site_fract_x
 _atom_site_fract_y
 _atom_site_fract_z
 _atom_site_occupancy
  Ta  Ta0  1  0.33333333  0.66666667  0.93818283  1.0
  Ta  Ta1  1  0.66666667  0.33333333  0.06181717  1.0
  Ta  Ta2  1  0.66666667  0.33333333  0.43818283  1.0
  Ta  Ta3  1  0.33333333  0.66666667  0.56181717  1.0
  V  V4  1  0.17066195  0.82933805  0.25000000  1.0
  V  V5  1  0.17066195  0.34132391  0.25000000  1.0
  V  V6  1  0.65867609  0.82933805  0.25000000  1.0
  V  V7  1  0.82933805  0.17066195  0.75000000  1.0
  V  V8  1  0.82933805  0.65867609  0.75000000  1.0
  V  V9  1  0.34132391  0.17066195  0.75000000  1.0
  Si  Si10  1  -0.00000000  -0.00000000  0.50000000  1.0
  Si  Si11  1  0.00000000  0.00000000  -0.00000000  1.0
