# generated using pymatgen
data_LaSiOs2C
_symmetry_space_group_name_H-M   'P 1'
_cell_length_a   5.93739904
_cell_length_b   5.93739904
_cell_length_c   7.22775729
_cell_angle_alpha   90.00000000
_cell_angle_beta   90.00000000
_cell_angle_gamma   140.23066358
_symmetry_Int_Tables_number   1
_chemical_formula_structural   LaSiOs2C
_chemical_formula_sum   'La2 Si2 Os4 C2'
_cell_volume   162.99389046
_cell_formula_units_Z   2
loop_
 _symmetry_equiv_pos_site_id
 _symmetry_equiv_pos_as_xyz
  1  'x, y, z'
loop_
 _atom_site_type_symbol
 _atom_site_label
 _atom_site_symmetry_multiplicity
 _atom_site_fract_x
 _atom_site_fract_y
 _atom_site_fract_z
 _atom_site_occupancy
  La  La0  1  0.44928219  0.55071781  0.75000000  1.0
  La  La1  1  -0.44928219  0.44928219  0.25000000  1.0
  Si  Si2  1  -0.27087190  0.27087190  0.75000000  1.0
  Si  Si3  1  0.27087190  0.72912810  0.25000000  1.0
  Os  Os4  1  0.16601520  0.83398480  0.93962404  1.0
  Os  Os5  1  0.16601520  0.83398480  0.56037596  1.0
  Os  Os6  1  -0.16601520  0.16601520  0.43962404  1.0
  Os  Os7  1  -0.16601520  0.16601520  0.06037596  1.0
  C  C8  1  0.00000000  0.00000000  0.00000000  1.0
  C  C9  1  0.00000000  0.00000000  0.50000000  1.0
