# generated using pymatgen
data_K3AlH6
_symmetry_space_group_name_H-M   'P 1'
_cell_length_a   6.08579508
_cell_length_b   5.99772306
_cell_length_c   10.39126725
_cell_angle_alpha   90.00000000
_cell_angle_beta   124.47601131
_cell_angle_gamma   90.00000000
_symmetry_Int_Tables_number   1
_chemical_formula_structural   K3AlH6
_chemical_formula_sum   'K6 Al2 H12'
_cell_volume   312.67335652
_cell_formula_units_Z   2
loop_
 _symmetry_equiv_pos_site_id
 _symmetry_equiv_pos_as_xyz
  1  'x, y, z'
loop_
 _atom_site_type_symbol
 _atom_site_label
 _atom_site_symmetry_multiplicity
 _atom_site_fract_x
 _atom_site_fract_y
 _atom_site_fract_z
 _atom_site_occupancy
  K  K0  1  0.50000000  0.00000000  0.50000000  1.0
  K  K1  1  0.50000000  0.50000000  -0.00000000  1.0
  K  K2  1  0.76262327  0.47993801  0.75501195  1.0
  K  K3  1  0.76262327  0.02006199  0.25501195  1.0
  K  K4  1  0.23737673  0.52006199  0.24498805  1.0
  K  K5  1  0.23737673  0.97993801  0.74498805  1.0
  Al  Al6  1  0.00000000  0.00000000  0.00000000  1.0
  Al  Al7  1  0.00000000  0.50000000  0.50000000  1.0
  H  H8  1  0.73192529  0.01143103  0.79805366  1.0
  H  H9  1  0.73192529  0.48856897  0.29805366  1.0
  H  H10  1  0.26807471  0.98856897  0.20194634  1.0
  H  H11  1  0.26807471  0.51143103  0.70194634  1.0
  H  H12  1  0.18628055  0.31469308  0.46309377  1.0
  H  H13  1  0.18628055  0.18530692  0.96309377  1.0
  H  H14  1  0.81371945  0.68530692  0.53690623  1.0
  H  H15  1  0.81371945  0.81469308  0.03690623  1.0
  H  H16  1  0.86061827  0.23136548  0.03759616  1.0
  H  H17  1  0.86061827  0.26863452  0.53759616  1.0
  H  H18  1  0.13938173  0.76863452  0.96240384  1.0
  H  H19  1  0.13938173  0.73136548  0.46240384  1.0
