# generated using pymatgen
data_LiSO3F
_symmetry_space_group_name_H-M   'P 1'
_cell_length_a   5.71450245
_cell_length_b   5.71450245
_cell_length_c   5.91220315
_cell_angle_alpha   88.45634283
_cell_angle_beta   91.54365717
_cell_angle_gamma   96.75419505
_symmetry_Int_Tables_number   1
_chemical_formula_structural   LiSO3F
_chemical_formula_sum   'Li2 S2 O6 F2'
_cell_volume   191.60173467
_cell_formula_units_Z   2
loop_
 _symmetry_equiv_pos_site_id
 _symmetry_equiv_pos_as_xyz
  1  'x, y, z'
loop_
 _atom_site_type_symbol
 _atom_site_label
 _atom_site_symmetry_multiplicity
 _atom_site_fract_x
 _atom_site_fract_y
 _atom_site_fract_z
 _atom_site_occupancy
  Li  Li0  1  0.80697175  -0.19302825  -0.00000000  1.0
  Li  Li1  1  1.19302825  0.19302825  -0.00000000  1.0
  S  S2  1  0.70541635  -0.70541635  0.76608428  1.0
  S  S3  1  0.29458365  -0.29458365  0.23391572  1.0
  O  O4  1  1.45858869  0.21574819  0.80458308  1.0
  O  O5  1  0.78425181  -0.45858869  0.80458308  1.0
  O  O6  1  1.21574819  0.45858869  0.19541692  1.0
  O  O7  1  0.54141131  -0.21574819  0.19541692  1.0
  O  O8  1  0.86771679  -0.86771679  0.85965196  1.0
  O  O9  1  0.13228321  -0.13228321  0.14034804  1.0
  F  F10  1  0.72863152  -0.72863152  0.49873048  1.0
  F  F11  1  0.27136848  -0.27136848  0.50126952  1.0
