# generated using pymatgen
data_NaZnAsO4
_symmetry_space_group_name_H-M   'P 1'
_cell_length_a   9.16911537
_cell_length_b   9.16911537
_cell_length_c   8.43537050
_cell_angle_alpha   90.00000000
_cell_angle_beta   90.00000000
_cell_angle_gamma   120.00000000
_symmetry_Int_Tables_number   1
_chemical_formula_structural   NaZnAsO4
_chemical_formula_sum   'Na6 Zn6 As6 O24'
_cell_volume   614.17151265
_cell_formula_units_Z   6
loop_
 _symmetry_equiv_pos_site_id
 _symmetry_equiv_pos_as_xyz
  1  'x, y, z'
loop_
 _atom_site_type_symbol
 _atom_site_label
 _atom_site_symmetry_multiplicity
 _atom_site_fract_x
 _atom_site_fract_y
 _atom_site_fract_z
 _atom_site_occupancy
  Na  Na0  1  0.33333333  0.66666667  1.08048432  1.0
  Na  Na1  1  0.66666667  0.33333333  0.58048432  1.0
  Na  Na2  1  0.33333333  0.66666667  0.49933778  1.0
  Na  Na3  1  0.66666667  0.33333333  -0.00066222  1.0
  Na  Na4  1  0.00000000  0.00000000  -0.00103261  1.0
  Na  Na5  1  -0.00000000  -0.00000000  0.49896739  1.0
  Zn  Zn6  1  0.32251751  0.98517829  0.20370161  1.0
  Zn  Zn7  1  0.98517829  0.66266078  0.70370161  1.0
  Zn  Zn8  1  0.66266078  0.67748249  0.20370161  1.0
  Zn  Zn9  1  0.01482171  0.33733922  0.20370161  1.0
  Zn  Zn10  1  0.67748249  0.01482171  0.70370161  1.0
  Zn  Zn11  1  0.33733922  0.32251751  0.70370161  1.0
  As  As12  1  0.97273828  0.65655350  0.31221643  1.0
  As  As13  1  0.65655350  0.68381523  0.81221643  1.0
  As  As14  1  0.68381523  0.02726172  0.31221643  1.0
  As  As15  1  0.34344650  0.31618477  0.31221643  1.0
  As  As16  1  0.02726172  0.34344650  0.81221643  1.0
  As  As17  1  0.31618477  0.97273828  0.81221643  1.0
  O  O18  1  0.26550654  0.86995027  -0.00637692  1.0
  O  O19  1  0.86995027  0.60444373  0.49362308  1.0
  O  O20  1  0.60444373  0.73449346  -0.00637692  1.0
  O  O21  1  0.13004973  0.39555627  -0.00637692  1.0
  O  O22  1  0.73449346  0.13004973  0.49362308  1.0
  O  O23  1  0.39555627  0.26550654  0.49362308  1.0
  O  O24  1  0.46702316  0.89970432  0.28806867  1.0
  O  O25  1  0.89970432  0.43268116  0.78806867  1.0
  O  O26  1  0.43268116  0.53297684  0.28806867  1.0
  O  O27  1  0.10029568  0.56731884  0.28806867  1.0
  O  O28  1  0.53297684  0.10029568  0.78806867  1.0
  O  O29  1  0.56731884  0.46702316  0.78806867  1.0
  O  O30  1  0.09861342  0.87477324  0.30483799  1.0
  O  O31  1  0.87477324  0.77615982  0.80483799  1.0
  O  O32  1  0.77615982  0.90138658  0.30483799  1.0
  O  O33  1  0.12522676  0.22384018  0.30483799  1.0
  O  O34  1  0.90138658  0.12522676  0.80483799  1.0
  O  O35  1  0.22384018  0.09861342  0.80483799  1.0
  O  O36  1  0.81405637  0.58603623  0.16932239  1.0
  O  O37  1  0.58603623  0.77197986  0.66932239  1.0
  O  O38  1  0.77197986  0.18594363  0.16932239  1.0
  O  O39  1  0.41396377  0.22802014  0.16932239  1.0
  O  O40  1  0.18594363  0.41396377  0.66932239  1.0
  O  O41  1  0.22802014  0.81405637  0.66932239  1.0
