# generated using pymatgen
data_GdCrTeO6
_symmetry_space_group_name_H-M   'P 1'
_cell_length_a   5.22944044
_cell_length_b   5.22944044
_cell_length_c   10.00233103
_cell_angle_alpha   90.00000000
_cell_angle_beta   90.00000000
_cell_angle_gamma   120.00000000
_symmetry_Int_Tables_number   1
_chemical_formula_structural   GdCrTeO6
_chemical_formula_sum   'Gd2 Cr2 Te2 O12'
_cell_volume   236.88758335
_cell_formula_units_Z   2
loop_
 _symmetry_equiv_pos_site_id
 _symmetry_equiv_pos_as_xyz
  1  'x, y, z'
loop_
 _atom_site_type_symbol
 _atom_site_label
 _atom_site_symmetry_multiplicity
 _atom_site_fract_x
 _atom_site_fract_y
 _atom_site_fract_z
 _atom_site_occupancy
  Gd  Gd0  1  0.00000000  0.00000000  0.00000000  1.0
  Gd  Gd1  1  0.00000000  0.00000000  0.50000000  1.0
  Cr  Cr2  1  0.66666667  0.33333333  0.75000000  1.0
  Cr  Cr3  1  0.33333333  0.66666667  0.25000000  1.0
  Te  Te4  1  0.66666667  0.33333333  0.25000000  1.0
  Te  Te5  1  0.33333333  0.66666667  0.75000000  1.0
  O  O6  1  0.64030186  0.00488547  0.85967373  1.0
  O  O7  1  0.36458360  0.35969814  0.85967373  1.0
  O  O8  1  -0.00488547  0.63541640  0.85967373  1.0
  O  O9  1  0.35969814  -0.00488547  0.14032627  1.0
  O  O10  1  0.63541640  0.64030186  0.14032627  1.0
  O  O11  1  0.00488547  0.36458360  0.14032627  1.0
  O  O12  1  0.36458360  0.00488547  0.64032627  1.0
  O  O13  1  0.64030186  0.63541640  0.64032627  1.0
  O  O14  1  -0.00488547  0.35969814  0.64032627  1.0
  O  O15  1  0.63541640  -0.00488547  0.35967373  1.0
  O  O16  1  0.35969814  0.36458360  0.35967373  1.0
  O  O17  1  0.00488547  0.64030186  0.35967373  1.0
