# generated using pymatgen
data_La12(ReC3)5
_symmetry_space_group_name_H-M   'P 1'
_cell_length_a   11.20983719
_cell_length_b   11.20983719
_cell_length_c   5.47612464
_cell_angle_alpha   90.00000000
_cell_angle_beta   90.00000000
_cell_angle_gamma   120.00000000
_symmetry_Int_Tables_number   1
_chemical_formula_structural   La12(ReC3)5
_chemical_formula_sum   'La12 Re5 C15'
_cell_volume   595.94004075
_cell_formula_units_Z   1
loop_
 _symmetry_equiv_pos_site_id
 _symmetry_equiv_pos_as_xyz
  1  'x, y, z'
loop_
 _atom_site_type_symbol
 _atom_site_label
 _atom_site_symmetry_multiplicity
 _atom_site_fract_x
 _atom_site_fract_y
 _atom_site_fract_z
 _atom_site_occupancy
  La  La0  1  0.58048242  0.58048242  0.50000000  1.0
  La  La1  1  0.00000000  0.41951758  0.50000000  1.0
  La  La2  1  0.41951758  0.00000000  0.50000000  1.0
  La  La3  1  0.20461912  0.20461912  0.50000000  1.0
  La  La4  1  0.00000000  0.79538088  0.50000000  1.0
  La  La5  1  0.79538088  0.00000000  0.50000000  1.0
  La  La6  1  0.18689857  0.72902625  0.00000000  1.0
  La  La7  1  0.72902625  0.18689857  0.00000000  1.0
  La  La8  1  0.54212768  0.81310143  0.00000000  1.0
  La  La9  1  0.27097375  0.45787232  0.00000000  1.0
  La  La10  1  0.81310143  0.54212768  0.00000000  1.0
  La  La11  1  0.45787232  0.27097375  0.00000000  1.0
  Re  Re12  1  0.84773721  0.84773721  0.00000000  1.0
  Re  Re13  1  -0.00000000  0.15226279  0.00000000  1.0
  Re  Re14  1  0.15226279  0.00000000  0.00000000  1.0
  Re  Re15  1  0.33333333  0.66666667  0.50000000  1.0
  Re  Re16  1  0.66666667  0.33333333  0.50000000  1.0
  C  C17  1  0.67526943  0.67526943  0.00000000  1.0
  C  C18  1  0.00000000  0.32473057  0.00000000  1.0
  C  C19  1  0.32473057  0.00000000  0.00000000  1.0
  C  C20  1  0.55423041  0.55423041  0.00000000  1.0
  C  C21  1  -0.00000000  0.44576959  0.00000000  1.0
  C  C22  1  0.44576959  0.00000000  0.00000000  1.0
  C  C23  1  0.20249837  0.20249837  0.00000000  1.0
  C  C24  1  0.00000000  0.79750163  0.00000000  1.0
  C  C25  1  0.79750163  0.00000000  0.00000000  1.0
  C  C26  1  0.18950716  0.71063058  0.50000000  1.0
  C  C27  1  0.71063058  0.18950716  0.50000000  1.0
  C  C28  1  0.52112342  0.81049284  0.50000000  1.0
  C  C29  1  0.28936942  0.47887658  0.50000000  1.0
  C  C30  1  0.81049284  0.52112342  0.50000000  1.0
  C  C31  1  0.47887658  0.28936942  0.50000000  1.0
