# generated using pymatgen
data_BaSbClO2
_symmetry_space_group_name_H-M   'P 1'
_cell_length_a   7.21155911
_cell_length_b   7.21155911
_cell_length_c   5.60718092
_cell_angle_alpha   90.00000000
_cell_angle_beta   90.00000000
_cell_angle_gamma   131.45148591
_symmetry_Int_Tables_number   1
_chemical_formula_structural   BaSbClO2
_chemical_formula_sum   'Ba2 Sb2 Cl2 O4'
_cell_volume   218.56675759
_cell_formula_units_Z   2
loop_
 _symmetry_equiv_pos_site_id
 _symmetry_equiv_pos_as_xyz
  1  'x, y, z'
loop_
 _atom_site_type_symbol
 _atom_site_label
 _atom_site_symmetry_multiplicity
 _atom_site_fract_x
 _atom_site_fract_y
 _atom_site_fract_z
 _atom_site_occupancy
  Ba  Ba0  1  0.37351625  0.62648375  0.75000000  1.0
  Ba  Ba1  1  -0.37351625  0.37351625  0.25000000  1.0
  Sb  Sb2  1  0.06867593  0.93132407  0.75000000  1.0
  Sb  Sb3  1  -0.06867593  0.06867593  0.25000000  1.0
  Cl  Cl4  1  -0.25331481  0.25331481  0.75000000  1.0
  Cl  Cl5  1  0.25331481  0.74668519  0.25000000  1.0
  O  O6  1  0.78114253  0.78114253  0.00000000  1.0
  O  O7  1  0.78114253  0.78114253  0.50000000  1.0
  O  O8  1  0.21885747  0.21885747  0.00000000  1.0
  O  O9  1  0.21885747  0.21885747  0.50000000  1.0
