# generated using pymatgen
data_EuCoO3
_symmetry_space_group_name_H-M   'P 1'
_cell_length_a   5.37683334
_cell_length_b   7.55841543
_cell_length_c   5.33259513
_cell_angle_alpha   90.00000000
_cell_angle_beta   90.00000000
_cell_angle_gamma   90.00000000
_symmetry_Int_Tables_number   1
_chemical_formula_structural   EuCoO3
_chemical_formula_sum   'Eu4 Co4 O12'
_cell_volume   216.71847991
_cell_formula_units_Z   4
loop_
 _symmetry_equiv_pos_site_id
 _symmetry_equiv_pos_as_xyz
  1  'x, y, z'
loop_
 _atom_site_type_symbol
 _atom_site_label
 _atom_site_symmetry_multiplicity
 _atom_site_fract_x
 _atom_site_fract_y
 _atom_site_fract_z
 _atom_site_occupancy
  Eu  Eu0  1  0.04481124  0.75000000  0.50782887  1.0
  Eu  Eu1  1  0.54481124  0.75000000  0.99217113  1.0
  Eu  Eu2  1  0.95518876  0.25000000  0.49217113  1.0
  Eu  Eu3  1  0.45518876  0.25000000  0.00782887  1.0
  Co  Co4  1  0.50000000  0.00000000  0.50000000  1.0
  Co  Co5  1  0.50000000  0.50000000  0.50000000  1.0
  Co  Co6  1  0.00000000  0.00000000  0.00000000  1.0
  Co  Co7  1  0.00000000  0.50000000  0.00000000  1.0
  O  O8  1  0.29453774  0.96214724  0.79530231  1.0
  O  O9  1  0.29453774  0.53785276  0.79530231  1.0
  O  O10  1  0.79453774  0.96214724  0.70469769  1.0
  O  O11  1  0.79453774  0.53785276  0.70469769  1.0
  O  O12  1  0.70546226  0.46214724  0.20469769  1.0
  O  O13  1  0.70546226  0.03785276  0.20469769  1.0
  O  O14  1  0.20546226  0.46214724  0.29530231  1.0
  O  O15  1  0.20546226  0.03785276  0.29530231  1.0
  O  O16  1  0.98722359  0.75000000  0.07491084  1.0
  O  O17  1  0.48722359  0.75000000  0.42508916  1.0
  O  O18  1  0.01277641  0.25000000  0.92508916  1.0
  O  O19  1  0.51277641  0.25000000  0.57491084  1.0
