# generated using pymatgen
data_YPd
_symmetry_space_group_name_H-M   'P 1'
_cell_length_a   5.58748996
_cell_length_b   5.58748996
_cell_length_c   4.59915840
_cell_angle_alpha   90.00000000
_cell_angle_beta   90.00000000
_cell_angle_gamma   141.18515029
_symmetry_Int_Tables_number   1
_chemical_formula_structural   YPd
_chemical_formula_sum   'Y2 Pd2'
_cell_volume   90.00048903
_cell_formula_units_Z   2
loop_
 _symmetry_equiv_pos_site_id
 _symmetry_equiv_pos_as_xyz
  1  'x, y, z'
loop_
 _atom_site_type_symbol
 _atom_site_label
 _atom_site_symmetry_multiplicity
 _atom_site_fract_x
 _atom_site_fract_y
 _atom_site_fract_z
 _atom_site_occupancy
  Y  Y0  1  -0.63738073  0.63738073  0.25000000  1.0
  Y  Y1  1  -0.36261927  1.36261927  0.75000000  1.0
  Pd  Pd2  1  -0.91419909  0.91419909  0.25000000  1.0
  Pd  Pd3  1  -0.08580091  1.08580091  0.75000000  1.0
