# generated using pymatgen
data_Hf9Mo4As
_symmetry_space_group_name_H-M   'P 1'
_cell_length_a   8.68964349
_cell_length_b   8.68964349
_cell_length_c   8.66348702
_cell_angle_alpha   90.00000000
_cell_angle_beta   90.00000000
_cell_angle_gamma   120.00000000
_symmetry_Int_Tables_number   1
_chemical_formula_structural   Hf9Mo4As
_chemical_formula_sum   'Hf18 Mo8 As2'
_cell_volume   566.53569632
_cell_formula_units_Z   2
loop_
 _symmetry_equiv_pos_site_id
 _symmetry_equiv_pos_as_xyz
  1  'x, y, z'
loop_
 _atom_site_type_symbol
 _atom_site_label
 _atom_site_symmetry_multiplicity
 _atom_site_fract_x
 _atom_site_fract_y
 _atom_site_fract_z
 _atom_site_occupancy
  Hf  Hf0  1  0.19582414  0.80417586  0.45579536  1.0
  Hf  Hf1  1  0.19582414  0.80417586  0.04420464  1.0
  Hf  Hf2  1  0.19582414  0.39164827  0.45579536  1.0
  Hf  Hf3  1  0.19582414  0.39164827  0.04420464  1.0
  Hf  Hf4  1  0.80417586  0.19582414  0.95579536  1.0
  Hf  Hf5  1  0.80417586  0.19582414  0.54420464  1.0
  Hf  Hf6  1  0.80417586  0.60835173  0.95579536  1.0
  Hf  Hf7  1  0.80417586  0.60835173  0.54420464  1.0
  Hf  Hf8  1  0.60835173  0.80417586  0.45579536  1.0
  Hf  Hf9  1  0.60835173  0.80417586  0.04420464  1.0
  Hf  Hf10  1  0.39164827  0.19582414  0.95579536  1.0
  Hf  Hf11  1  0.39164827  0.19582414  0.54420464  1.0
  Hf  Hf12  1  0.53998149  0.46001851  0.25000000  1.0
  Hf  Hf13  1  0.53998149  0.07996299  0.25000000  1.0
  Hf  Hf14  1  0.46001851  0.53998149  0.75000000  1.0
  Hf  Hf15  1  0.46001851  0.92003701  0.75000000  1.0
  Hf  Hf16  1  0.92003701  0.46001851  0.25000000  1.0
  Hf  Hf17  1  0.07996299  0.53998149  0.75000000  1.0
  Mo  Mo18  1  0.89035636  0.10964364  0.25000000  1.0
  Mo  Mo19  1  0.89035636  0.78071271  0.25000000  1.0
  Mo  Mo20  1  0.10964364  0.89035636  0.75000000  1.0
  Mo  Mo21  1  0.10964364  0.21928729  0.75000000  1.0
  Mo  Mo22  1  0.21928729  0.10964364  0.25000000  1.0
  Mo  Mo23  1  0.78071271  0.89035636  0.75000000  1.0
  Mo  Mo24  1  0.00000000  0.00000000  0.50000000  1.0
  Mo  Mo25  1  0.00000000  0.00000000  0.00000000  1.0
  As  As26  1  0.33333333  0.66666667  0.25000000  1.0
  As  As27  1  0.66666667  0.33333333  0.75000000  1.0
