# generated using pymatgen
data_Co3(W5C2)2
_symmetry_space_group_name_H-M   'P 1'
_cell_length_a   7.93395029
_cell_length_b   7.93395029
_cell_length_c   8.01145641
_cell_angle_alpha   90.00000000
_cell_angle_beta   90.00000000
_cell_angle_gamma   120.00000000
_symmetry_Int_Tables_number   1
_chemical_formula_structural   Co3(W5C2)2
_chemical_formula_sum   'Co6 W20 C8'
_cell_volume   436.73807544
_cell_formula_units_Z   2
loop_
 _symmetry_equiv_pos_site_id
 _symmetry_equiv_pos_as_xyz
  1  'x, y, z'
loop_
 _atom_site_type_symbol
 _atom_site_label
 _atom_site_symmetry_multiplicity
 _atom_site_fract_x
 _atom_site_fract_y
 _atom_site_fract_z
 _atom_site_occupancy
  Co  Co0  1  0.46820320  0.53179680  0.25000000  1.0
  Co  Co1  1  0.46820320  0.93640640  0.25000000  1.0
  Co  Co2  1  0.06359360  0.53179680  0.25000000  1.0
  Co  Co3  1  0.53179680  0.46820320  0.75000000  1.0
  Co  Co4  1  0.53179680  0.06359360  0.75000000  1.0
  Co  Co5  1  0.93640640  0.46820320  0.75000000  1.0
  W  W6  1  0.11804370  0.88195630  0.25000000  1.0
  W  W7  1  0.11804370  0.23608741  0.25000000  1.0
  W  W8  1  0.76391259  0.88195630  0.25000000  1.0
  W  W9  1  0.88195630  0.11804370  0.75000000  1.0
  W  W10  1  0.88195630  0.76391259  0.75000000  1.0
  W  W11  1  0.23608741  0.11804370  0.75000000  1.0
  W  W12  1  0.21053000  0.78947000  0.93761155  1.0
  W  W13  1  0.21053000  0.42105999  0.93761155  1.0
  W  W14  1  0.57894001  0.78947000  0.93761155  1.0
  W  W15  1  0.78947000  0.21053000  0.06238845  1.0
  W  W16  1  0.78947000  0.57894001  0.06238845  1.0
  W  W17  1  0.42105999  0.21053000  0.06238845  1.0
  W  W18  1  0.78947000  0.21053000  0.43761155  1.0
  W  W19  1  0.78947000  0.57894001  0.43761155  1.0
  W  W20  1  0.42105999  0.21053000  0.43761155  1.0
  W  W21  1  0.21053000  0.78947000  0.56238845  1.0
  W  W22  1  0.21053000  0.42105999  0.56238845  1.0
  W  W23  1  0.57894001  0.78947000  0.56238845  1.0
  W  W24  1  -0.00000000  -0.00000000  0.50000000  1.0
  W  W25  1  0.00000000  0.00000000  -0.00000000  1.0
  C  C26  1  0.50000000  0.50000000  0.50000000  1.0
  C  C27  1  0.50000000  -0.00000000  0.50000000  1.0
  C  C28  1  0.00000000  0.50000000  0.50000000  1.0
  C  C29  1  0.50000000  0.50000000  -0.00000000  1.0
  C  C30  1  0.50000000  0.00000000  -0.00000000  1.0
  C  C31  1  0.00000000  0.50000000  -0.00000000  1.0
  C  C32  1  0.33333333  0.66666667  0.25000000  1.0
  C  C33  1  0.66666667  0.33333333  0.75000000  1.0
