# generated using pymatgen
data_K3Na2SnP3
_symmetry_space_group_name_H-M   'P 1'
_cell_length_a   10.59122603
_cell_length_b   10.59122603
_cell_length_c   15.14690078
_cell_angle_alpha   90.00000000
_cell_angle_beta   90.00000000
_cell_angle_gamma   36.96936182
_symmetry_Int_Tables_number   1
_chemical_formula_structural   K3Na2SnP3
_chemical_formula_sum   'K12 Na8 Sn4 P12'
_cell_volume   1021.81182085
_cell_formula_units_Z   4
loop_
 _symmetry_equiv_pos_site_id
 _symmetry_equiv_pos_as_xyz
  1  'x, y, z'
loop_
 _atom_site_type_symbol
 _atom_site_label
 _atom_site_symmetry_multiplicity
 _atom_site_fract_x
 _atom_site_fract_y
 _atom_site_fract_z
 _atom_site_occupancy
  K  K0  1  0.10214681  0.56424164  0.82303353  1.0
  K  K1  1  -0.39785319  1.06424164  0.67696647  1.0
  K  K2  1  -0.43575836  1.10214681  0.17696647  1.0
  K  K3  1  0.06424164  0.60214681  0.32303353  1.0
  K  K4  1  -0.56424164  0.89785319  0.82303353  1.0
  K  K5  1  -0.06424164  0.39785319  0.67696647  1.0
  K  K6  1  -0.10214681  0.43575836  0.17696647  1.0
  K  K7  1  -0.60214681  0.93575836  0.32303353  1.0
  K  K8  1  -0.75856554  0.75856554  0.67983041  1.0
  K  K9  1  -0.25856554  0.25856554  0.82016959  1.0
  K  K10  1  -0.24143446  0.24143446  0.32016959  1.0
  K  K11  1  -0.74143446  0.74143446  0.17983041  1.0
  Na  Na12  1  -0.25530218  0.74469782  0.00000000  1.0
  Na  Na13  1  0.24469782  0.24469782  0.50000000  1.0
  Na  Na14  1  0.25530218  0.25530218  0.00000000  1.0
  Na  Na15  1  -0.24469782  0.75530218  0.50000000  1.0
  Na  Na16  1  -0.41931519  0.58068481  0.00000000  1.0
  Na  Na17  1  0.08068481  0.08068481  0.50000000  1.0
  Na  Na18  1  0.41931519  0.41931519  0.00000000  1.0
  Na  Na19  1  -0.08068481  0.91931519  0.50000000  1.0
  Sn  Sn20  1  -0.08832425  0.91167575  0.00000000  1.0
  Sn  Sn21  1  0.41167575  0.41167575  0.50000000  1.0
  Sn  Sn22  1  0.08832425  0.08832425  0.00000000  1.0
  Sn  Sn23  1  -0.41167575  0.58832425  0.50000000  1.0
  P  P24  1  -0.06196618  0.37778515  0.89626538  1.0
  P  P25  1  -0.56196618  0.87778515  0.60373462  1.0
  P  P26  1  -0.62221485  0.93803382  0.10373462  1.0
  P  P27  1  -0.12221485  0.43803382  0.39626538  1.0
  P  P28  1  -0.37778514  1.06196618  0.89626538  1.0
  P  P29  1  0.12221486  0.56196618  0.60373462  1.0
  P  P30  1  0.06196618  0.62221486  0.10373462  1.0
  P  P31  1  -0.43803382  1.12221486  0.39626538  1.0
  P  P32  1  -0.79708106  0.79708106  0.90718353  1.0
  P  P33  1  -0.29708106  0.29708106  0.59281647  1.0
  P  P34  1  -0.20291894  0.20291894  0.09281647  1.0
  P  P35  1  -0.70291894  0.70291894  0.40718353  1.0
