# generated using pymatgen
data_LuGe2Ru
_symmetry_space_group_name_H-M   'P 1'
_cell_length_a   9.57793981
_cell_length_b   10.55721047
_cell_length_c   8.28347599
_cell_angle_alpha   90.00000000
_cell_angle_beta   90.00000000
_cell_angle_gamma   90.00000000
_symmetry_Int_Tables_number   1
_chemical_formula_structural   LuGe2Ru
_chemical_formula_sum   'Lu12 Ge24 Ru12'
_cell_volume   837.59466212
_cell_formula_units_Z   12
loop_
 _symmetry_equiv_pos_site_id
 _symmetry_equiv_pos_as_xyz
  1  'x, y, z'
loop_
 _atom_site_type_symbol
 _atom_site_label
 _atom_site_symmetry_multiplicity
 _atom_site_fract_x
 _atom_site_fract_y
 _atom_site_fract_z
 _atom_site_occupancy
  Lu  Lu0  1  0.17723702  0.55140042  0.75285839  1.0
  Lu  Lu1  1  0.17723702  0.55140042  0.24714161  1.0
  Lu  Lu2  1  0.67723702  0.94859958  0.75285839  1.0
  Lu  Lu3  1  0.67723702  0.94859958  0.24714161  1.0
  Lu  Lu4  1  0.82276298  0.44859958  0.75285839  1.0
  Lu  Lu5  1  0.82276298  0.44859958  0.24714161  1.0
  Lu  Lu6  1  0.32276298  0.05140042  0.75285839  1.0
  Lu  Lu7  1  0.32276298  0.05140042  0.24714161  1.0
  Lu  Lu8  1  0.16377291  0.82258182  0.00000000  1.0
  Lu  Lu9  1  0.66377291  0.67741818  0.00000000  1.0
  Lu  Lu10  1  0.83622709  0.17741818  0.00000000  1.0
  Lu  Lu11  1  0.33622709  0.32258182  0.00000000  1.0
  Ge  Ge12  1  0.16091816  0.82125729  0.65299379  1.0
  Ge  Ge13  1  0.16091816  0.82125729  0.34700621  1.0
  Ge  Ge14  1  0.66091816  0.67874271  0.65299379  1.0
  Ge  Ge15  1  0.66091816  0.67874271  0.34700621  1.0
  Ge  Ge16  1  0.83908184  0.17874271  0.65299379  1.0
  Ge  Ge17  1  0.83908184  0.17874271  0.34700621  1.0
  Ge  Ge18  1  0.33908184  0.32125729  0.65299379  1.0
  Ge  Ge19  1  0.33908184  0.32125729  0.34700621  1.0
  Ge  Ge20  1  0.45579586  0.88468645  0.50000000  1.0
  Ge  Ge21  1  0.95579586  0.61531355  0.50000000  1.0
  Ge  Ge22  1  0.54420414  0.11531355  0.50000000  1.0
  Ge  Ge23  1  0.04420414  0.38468645  0.50000000  1.0
  Ge  Ge24  1  0.38022280  0.60099750  0.50000000  1.0
  Ge  Ge25  1  0.88022280  0.89900250  0.50000000  1.0
  Ge  Ge26  1  0.61977720  0.39900250  0.50000000  1.0
  Ge  Ge27  1  0.11977720  0.10099750  0.50000000  1.0
  Ge  Ge28  1  0.46150006  0.88357336  0.00000000  1.0
  Ge  Ge29  1  0.96150006  0.61642664  0.00000000  1.0
  Ge  Ge30  1  0.53849994  0.11642664  0.00000000  1.0
  Ge  Ge31  1  0.03849994  0.38357336  0.00000000  1.0
  Ge  Ge32  1  0.37003052  0.60467692  0.00000000  1.0
  Ge  Ge33  1  0.87003052  0.89532308  0.00000000  1.0
  Ge  Ge34  1  0.62996948  0.39532308  0.00000000  1.0
  Ge  Ge35  1  0.12996948  0.10467692  0.00000000  1.0
  Ru  Ru36  1  0.41641431  0.76325205  0.74873633  1.0
  Ru  Ru37  1  0.41641431  0.76325205  0.25126367  1.0
  Ru  Ru38  1  0.91641431  0.73674795  0.74873633  1.0
  Ru  Ru39  1  0.91641431  0.73674795  0.25126367  1.0
  Ru  Ru40  1  0.58358569  0.23674795  0.74873633  1.0
  Ru  Ru41  1  0.58358569  0.23674795  0.25126367  1.0
  Ru  Ru42  1  0.08358569  0.26325205  0.74873633  1.0
  Ru  Ru43  1  0.08358569  0.26325205  0.25126367  1.0
  Ru  Ru44  1  0.50000000  0.50000000  0.75183301  1.0
  Ru  Ru45  1  0.50000000  0.50000000  0.24816699  1.0
  Ru  Ru46  1  0.00000000  0.00000000  0.75183301  1.0
  Ru  Ru47  1  0.00000000  0.00000000  0.24816699  1.0
