# generated using pymatgen
data_LiCaAlN2
_symmetry_space_group_name_H-M   'P 1'
_cell_length_a   5.80544756
_cell_length_b   5.80544756
_cell_length_c   12.01972270
_cell_angle_alpha   88.95235716
_cell_angle_beta   91.04764284
_cell_angle_gamma   60.08951423
_symmetry_Int_Tables_number   1
_chemical_formula_structural   LiCaAlN2
_chemical_formula_sum   'Li6 Ca6 Al6 N12'
_cell_volume   350.91161768
_cell_formula_units_Z   6
loop_
 _symmetry_equiv_pos_site_id
 _symmetry_equiv_pos_as_xyz
  1  'x, y, z'
loop_
 _atom_site_type_symbol
 _atom_site_label
 _atom_site_symmetry_multiplicity
 _atom_site_fract_x
 _atom_site_fract_y
 _atom_site_fract_z
 _atom_site_occupancy
  Li  Li0  1  1.45601319  0.18179086  0.67711835  1.0
  Li  Li1  1  0.54398681  -0.18179086  0.32288165  1.0
  Li  Li2  1  1.18179086  0.45601319  0.32288165  1.0
  Li  Li3  1  0.81820914  -0.45601319  0.67711835  1.0
  Li  Li4  1  0.60970577  -0.60970577  0.92651168  1.0
  Li  Li5  1  0.39029423  -0.39029423  0.07348832  1.0
  Ca  Ca6  1  1.16263153  0.16263153  -0.00000000  1.0
  Ca  Ca7  1  0.83736847  -0.16263153  -0.00000000  1.0
  Ca  Ca8  1  1.16974024  0.16974024  0.50000000  1.0
  Ca  Ca9  1  0.83025976  -0.16974024  0.50000000  1.0
  Ca  Ca10  1  0.05288424  -0.05288424  0.25505398  1.0
  Ca  Ca11  1  0.94711576  -0.94711576  0.74494602  1.0
  Al  Al12  1  1.48963694  0.18617297  0.18542374  1.0
  Al  Al13  1  0.51036306  -0.18617297  0.81457626  1.0
  Al  Al14  1  1.18617297  0.48963694  0.81457626  1.0
  Al  Al15  1  0.81382703  -0.48963694  0.18542374  1.0
  Al  Al16  1  0.61062973  -0.61062973  0.41248979  1.0
  Al  Al17  1  0.38937027  -0.38937027  0.58751021  1.0
  N  N18  1  1.49158594  0.14358678  0.85425238  1.0
  N  N19  1  0.50841406  -0.14358678  0.14574762  1.0
  N  N20  1  1.14358678  0.49158594  0.14574762  1.0
  N  N21  1  0.85641322  -0.49158594  0.85425238  1.0
  N  N22  1  1.55570529  0.13605298  0.34412874  1.0
  N  N23  1  0.44429471  -0.13605298  0.65587126  1.0
  N  N24  1  1.13605298  0.55570529  0.65587126  1.0
  N  N25  1  0.86394702  -0.55570529  0.34412874  1.0
  N  N26  1  0.72027766  -0.72027766  0.56962741  1.0
  N  N27  1  0.27972234  -0.27972234  0.43037259  1.0
  N  N28  1  0.24479991  -0.24479991  0.88960753  1.0
  N  N29  1  0.75520009  -0.75520009  0.11039247  1.0
