# generated using pymatgen
data_IrN7ClO6
_symmetry_space_group_name_H-M   'P 1'
_cell_length_a   7.51131411
_cell_length_b   7.51131411
_cell_length_c   7.51131411
_cell_angle_alpha   115.06604187
_cell_angle_beta   115.06604187
_cell_angle_gamma   98.78196307
_symmetry_Int_Tables_number   1
_chemical_formula_structural   IrN7ClO6
_chemical_formula_sum   'Ir1 N7 Cl1 O6'
_cell_volume   317.95424314
_cell_formula_units_Z   1
loop_
 _symmetry_equiv_pos_site_id
 _symmetry_equiv_pos_as_xyz
  1  'x, y, z'
loop_
 _atom_site_type_symbol
 _atom_site_label
 _atom_site_symmetry_multiplicity
 _atom_site_fract_x
 _atom_site_fract_y
 _atom_site_fract_z
 _atom_site_occupancy
  N  N0  1  0.02630189  0.52630189  0.50000000  1.0
  N  N1  1  0.52630189  0.02630189  0.50000000  1.0
  N  N2  1  0.65624025  0.98784779  1.00400645  1.0
  N  N3  1  0.98784779  0.98384133  1.33160753  1.0
  N  N4  1  0.98384133  1.65223380  0.99599355  1.0
  N  N5  1  1.65223380  1.65624025  1.66839247  1.0
  N  N6  1  0.04569428  0.04569428  0.00000000  1.0
  Ir  Ir7  1  0.87076649  0.87076649  -0.00000000  1.0
  O  O8  1  0.09442420  0.72445825  0.63651098  1.0
  O  O9  1  0.72445825  1.08794727  1.63003405  1.0
  O  O10  1  1.08794727  0.45791322  1.36348902  1.0
  O  O11  1  0.45791322  0.09442420  0.36996595  1.0
  O  O12  1  0.39916587  0.89916587  0.50000000  1.0
  O  O13  1  0.89916587  0.39916587  0.50000000  1.0
  Cl  Cl14  1  0.60249761  0.60249761  -0.00000000  1.0
