# generated using pymatgen
data_RbYb2Cl7
_symmetry_space_group_name_H-M   'P 1'
_cell_length_a   13.74261851
_cell_length_b   6.91404451
_cell_length_c   12.69701835
_cell_angle_alpha   90.00000000
_cell_angle_beta   90.00000000
_cell_angle_gamma   90.00000000
_symmetry_Int_Tables_number   1
_chemical_formula_structural   RbYb2Cl7
_chemical_formula_sum   'Rb4 Yb8 Cl28'
_cell_volume   1206.43355886
_cell_formula_units_Z   4
loop_
 _symmetry_equiv_pos_site_id
 _symmetry_equiv_pos_as_xyz
  1  'x, y, z'
loop_
 _atom_site_type_symbol
 _atom_site_label
 _atom_site_symmetry_multiplicity
 _atom_site_fract_x
 _atom_site_fract_y
 _atom_site_fract_z
 _atom_site_occupancy
  Rb  Rb0  1  0.46775978  0.75000000  0.29824863  1.0
  Rb  Rb1  1  0.96775978  0.75000000  0.20175137  1.0
  Rb  Rb2  1  0.53224022  0.25000000  0.70175137  1.0
  Rb  Rb3  1  0.03224022  0.25000000  0.79824863  1.0
  Yb  Yb4  1  0.25546079  0.75000000  0.95438317  1.0
  Yb  Yb5  1  0.75546079  0.75000000  0.54561683  1.0
  Yb  Yb6  1  0.74453921  0.25000000  0.04561683  1.0
  Yb  Yb7  1  0.24453921  0.25000000  0.45438317  1.0
  Yb  Yb8  1  0.24961361  0.75000000  0.65611446  1.0
  Yb  Yb9  1  0.74961361  0.75000000  0.84388554  1.0
  Yb  Yb10  1  0.75038639  0.25000000  0.34388554  1.0
  Yb  Yb11  1  0.25038639  0.25000000  0.15611446  1.0
  Cl  Cl12  1  0.37071814  0.98893081  0.07202802  1.0
  Cl  Cl13  1  0.37071814  0.51106919  0.07202802  1.0
  Cl  Cl14  1  0.87071814  0.98893081  0.42797198  1.0
  Cl  Cl15  1  0.87071814  0.51106919  0.42797198  1.0
  Cl  Cl16  1  0.62928186  0.48893081  0.92797198  1.0
  Cl  Cl17  1  0.62928186  0.01106919  0.92797198  1.0
  Cl  Cl18  1  0.12928186  0.48893081  0.57202802  1.0
  Cl  Cl19  1  0.12928186  0.01106919  0.57202802  1.0
  Cl  Cl20  1  0.36717783  0.98994075  0.53849020  1.0
  Cl  Cl21  1  0.36717783  0.51005925  0.53849020  1.0
  Cl  Cl22  1  0.86717783  0.98994075  0.96150980  1.0
  Cl  Cl23  1  0.86717783  0.51005925  0.96150980  1.0
  Cl  Cl24  1  0.63282217  0.48994075  0.46150980  1.0
  Cl  Cl25  1  0.63282217  0.01005925  0.46150980  1.0
  Cl  Cl26  1  0.13282217  0.48994075  0.03849020  1.0
  Cl  Cl27  1  0.13282217  0.01005925  0.03849020  1.0
  Cl  Cl28  1  0.32392003  0.98987374  0.80403652  1.0
  Cl  Cl29  1  0.32392003  0.51012626  0.80403652  1.0
  Cl  Cl30  1  0.82392003  0.98987374  0.69596348  1.0
  Cl  Cl31  1  0.82392003  0.51012626  0.69596348  1.0
  Cl  Cl32  1  0.67607997  0.48987374  0.19596348  1.0
  Cl  Cl33  1  0.67607997  0.01012626  0.19596348  1.0
  Cl  Cl34  1  0.17607997  0.48987374  0.30403652  1.0
  Cl  Cl35  1  0.17607997  0.01012626  0.30403652  1.0
  Cl  Cl36  1  0.10895530  0.75000000  0.80643185  1.0
  Cl  Cl37  1  0.60895530  0.75000000  0.69356815  1.0
  Cl  Cl38  1  0.89104470  0.25000000  0.19356815  1.0
  Cl  Cl39  1  0.39104470  0.25000000  0.30643185  1.0
