# generated using pymatgen
data_La3C2Br3
_symmetry_space_group_name_H-M   'P 1'
_cell_length_a   10.46964510
_cell_length_b   10.46964510
_cell_length_c   17.35388056
_cell_angle_alpha   90.00000000
_cell_angle_beta   90.00000000
_cell_angle_gamma   112.15034765
_symmetry_Int_Tables_number   1
_chemical_formula_structural   La3C2Br3
_chemical_formula_sum   'La24 C16 Br24'
_cell_volume   1761.83084731
_cell_formula_units_Z   8
loop_
 _symmetry_equiv_pos_site_id
 _symmetry_equiv_pos_as_xyz
  1  'x, y, z'
loop_
 _atom_site_type_symbol
 _atom_site_label
 _atom_site_symmetry_multiplicity
 _atom_site_fract_x
 _atom_site_fract_y
 _atom_site_fract_z
 _atom_site_occupancy
  La  La0  1  0.10902941  0.82264504  0.01774657  1.0
  La  La1  1  -0.17735496  1.10902941  0.98225343  1.0
  La  La2  1  0.17735496  0.89097059  0.48225343  1.0
  La  La3  1  -0.10902941  1.17735496  0.51774657  1.0
  La  La4  1  0.05070026  0.51522487  0.39636246  1.0
  La  La5  1  -0.48477513  1.05070026  0.60363754  1.0
  La  La6  1  0.48477513  0.94929974  0.10363754  1.0
  La  La7  1  -0.05070026  1.48477513  0.89636246  1.0
  La  La8  1  0.02013643  0.51215608  0.12434974  1.0
  La  La9  1  -0.48784392  1.02013643  0.87565026  1.0
  La  La10  1  0.48784392  0.97986357  0.37565026  1.0
  La  La11  1  -0.02013643  1.48784392  0.62434974  1.0
  La  La12  1  -0.24839587  1.72442946  0.10469335  1.0
  La  La13  1  0.72442946  0.75160413  0.89530665  1.0
  La  La14  1  -0.72442946  1.24839587  0.39530665  1.0
  La  La15  1  0.24839587  0.27557054  0.60469335  1.0
  La  La16  1  -0.35909643  1.38380225  0.00253028  1.0
  La  La17  1  0.38380225  0.64090357  0.99746972  1.0
  La  La18  1  -0.38380225  1.35909643  0.49746972  1.0
  La  La19  1  0.35909643  0.61619775  0.50253028  1.0
  La  La20  1  0.12477661  0.87522339  0.25000000  1.0
  La  La21  1  -0.12477661  1.12477661  0.75000000  1.0
  La  La22  1  0.33482419  0.66517581  0.25000000  1.0
  La  La23  1  -0.33482419  1.33482419  0.75000000  1.0
  C  C24  1  0.21320724  0.77292403  0.15040577  1.0
  C  C25  1  -0.22707597  1.21320724  0.84959423  1.0
  C  C26  1  0.22707597  0.78679276  0.34959423  1.0
  C  C27  1  -0.21320724  1.22707597  0.65040577  1.0
  C  C28  1  0.27322685  0.71608009  0.09520794  1.0
  C  C29  1  -0.28391991  1.27322685  0.90479206  1.0
  C  C30  1  0.28391991  0.72677315  0.40479206  1.0
  C  C31  1  -0.27322685  1.28391991  0.59520794  1.0
  C  C32  1  0.16330813  0.35967353  0.47656893  1.0
  C  C33  1  -0.64032647  1.16330813  0.52343107  1.0
  C  C34  1  0.64032647  0.83669187  0.02343107  1.0
  C  C35  1  -0.16330813  1.64032647  0.97656893  1.0
  C  C36  1  -0.10034725  1.58658202  0.03179045  1.0
  C  C37  1  0.58658202  0.89965275  0.96820955  1.0
  C  C38  1  -0.58658202  1.10034725  0.46820955  1.0
  C  C39  1  0.10034725  0.41341798  0.53179045  1.0
  Br  Br40  1  0.00609998  0.99513022  0.61610145  1.0
  Br  Br41  1  -0.00486978  1.00609998  0.38389855  1.0
  Br  Br42  1  0.00486978  0.99390002  0.88389855  1.0
  Br  Br43  1  -0.00609998  1.00486978  0.11610145  1.0
  Br  Br44  1  0.47476235  0.48564631  0.13011191  1.0
  Br  Br45  1  -0.51435369  1.47476235  0.86988809  1.0
  Br  Br46  1  0.51435369  0.52523765  0.36988809  1.0
  Br  Br47  1  -0.47476235  1.51435369  0.63011191  1.0
  Br  Br48  1  -0.11592008  1.64230492  0.49692786  1.0
  Br  Br49  1  0.64230492  0.88407992  0.50307214  1.0
  Br  Br50  1  -0.64230492  1.11592008  0.00307214  1.0
  Br  Br51  1  0.11592008  0.35769508  0.99692786  1.0
  Br  Br52  1  0.13107123  0.36591445  0.25936582  1.0
  Br  Br53  1  -0.63408555  1.13107123  0.74063418  1.0
  Br  Br54  1  0.63408555  0.86892877  0.24063418  1.0
  Br  Br55  1  -0.13107123  1.63408555  0.75936582  1.0
  Br  Br56  1  -0.13203946  1.60156665  0.25733671  1.0
  Br  Br57  1  0.60156665  0.86796054  0.74266329  1.0
  Br  Br58  1  -0.60156665  1.13203946  0.24266329  1.0
  Br  Br59  1  0.13203946  0.39843335  0.75733671  1.0
  Br  Br60  1  -0.25496108  1.23117286  0.12847955  1.0
  Br  Br61  1  0.23117286  0.74503892  0.87152045  1.0
  Br  Br62  1  -0.23117286  1.25496108  0.37152045  1.0
  Br  Br63  1  0.25496108  0.76882714  0.62847955  1.0
