# generated using pymatgen
data_Ba3MnN3
_symmetry_space_group_name_H-M   'P 1'
_cell_length_a   8.27388449
_cell_length_b   8.27388449
_cell_length_c   5.49898865
_cell_angle_alpha   90.00000000
_cell_angle_beta   90.00000000
_cell_angle_gamma   120.00000000
_symmetry_Int_Tables_number   1
_chemical_formula_structural   Ba3MnN3
_chemical_formula_sum   'Ba6 Mn2 N6'
_cell_volume   326.01108134
_cell_formula_units_Z   2
loop_
 _symmetry_equiv_pos_site_id
 _symmetry_equiv_pos_as_xyz
  1  'x, y, z'
loop_
 _atom_site_type_symbol
 _atom_site_label
 _atom_site_symmetry_multiplicity
 _atom_site_fract_x
 _atom_site_fract_y
 _atom_site_fract_z
 _atom_site_occupancy
  Ba  Ba0  1  0.91901626  0.63687081  0.25000000  1.0
  Ba  Ba1  1  0.63687081  0.71785456  0.75000000  1.0
  Ba  Ba2  1  0.71785456  0.08098374  0.25000000  1.0
  Ba  Ba3  1  0.36312919  0.28214544  0.25000000  1.0
  Ba  Ba4  1  0.08098374  0.36312919  0.75000000  1.0
  Ba  Ba5  1  0.28214544  0.91901626  0.75000000  1.0
  Mn  Mn6  1  0.33333333  0.66666667  0.25000000  1.0
  Mn  Mn7  1  0.66666667  0.33333333  0.75000000  1.0
  N  N8  1  0.31756278  0.86574393  0.25000000  1.0
  N  N9  1  0.86574393  0.54818115  0.75000000  1.0
  N  N10  1  0.54818115  0.68243722  0.25000000  1.0
  N  N11  1  0.13425607  0.45181885  0.25000000  1.0
  N  N12  1  0.68243722  0.13425607  0.75000000  1.0
  N  N13  1  0.45181885  0.31756278  0.75000000  1.0
