# generated using pymatgen
data_Gd2PbAu2
_symmetry_space_group_name_H-M   'P 1'
_cell_length_a   8.12219882
_cell_length_b   8.12219882
_cell_length_c   7.59577726
_cell_angle_alpha   90.00000000
_cell_angle_beta   90.00000000
_cell_angle_gamma   90.00000000
_symmetry_Int_Tables_number   1
_chemical_formula_structural   Gd2PbAu2
_chemical_formula_sum   'Gd8 Pb4 Au8'
_cell_volume   501.09428973
_cell_formula_units_Z   4
loop_
 _symmetry_equiv_pos_site_id
 _symmetry_equiv_pos_as_xyz
  1  'x, y, z'
loop_
 _atom_site_type_symbol
 _atom_site_label
 _atom_site_symmetry_multiplicity
 _atom_site_fract_x
 _atom_site_fract_y
 _atom_site_fract_z
 _atom_site_occupancy
  Gd  Gd0  1  0.18089581  0.18089581  0.50000000  1.0
  Gd  Gd1  1  0.68089581  0.31910419  -0.00000000  1.0
  Gd  Gd2  1  0.81910419  0.81910419  0.50000000  1.0
  Gd  Gd3  1  0.31910419  0.68089581  0.00000000  1.0
  Gd  Gd4  1  0.33868787  0.66131213  0.50000000  1.0
  Gd  Gd5  1  0.83868787  0.83868787  0.00000000  1.0
  Gd  Gd6  1  0.66131213  0.33868787  0.50000000  1.0
  Gd  Gd7  1  0.16131213  0.16131213  -0.00000000  1.0
  Pb  Pb8  1  0.50000000  0.00000000  0.25000000  1.0
  Pb  Pb9  1  0.50000000  0.00000000  0.75000000  1.0
  Pb  Pb10  1  0.00000000  0.50000000  0.75000000  1.0
  Pb  Pb11  1  0.00000000  0.50000000  0.25000000  1.0
  Au  Au12  1  0.12484499  0.87515501  0.27135061  1.0
  Au  Au13  1  0.12484499  0.87515501  0.72864939  1.0
  Au  Au14  1  0.62484499  0.62484499  0.77135061  1.0
  Au  Au15  1  0.62484499  0.62484499  0.22864939  1.0
  Au  Au16  1  0.87515501  0.12484499  0.27135061  1.0
  Au  Au17  1  0.87515501  0.12484499  0.72864939  1.0
  Au  Au18  1  0.37515501  0.37515501  0.77135061  1.0
  Au  Au19  1  0.37515501  0.37515501  0.22864939  1.0
