# generated using pymatgen
data_KY(PSe3)2
_symmetry_space_group_name_H-M   'P 1'
_cell_length_a   6.84676732
_cell_length_b   7.56437184
_cell_length_c   21.87975971
_cell_angle_alpha   90.00000000
_cell_angle_beta   90.00000000
_cell_angle_gamma   90.00000000
_symmetry_Int_Tables_number   1
_chemical_formula_structural   KY(PSe3)2
_chemical_formula_sum   'K4 Y4 P8 Se24'
_cell_volume   1133.18544225
_cell_formula_units_Z   4
loop_
 _symmetry_equiv_pos_site_id
 _symmetry_equiv_pos_as_xyz
  1  'x, y, z'
loop_
 _atom_site_type_symbol
 _atom_site_label
 _atom_site_symmetry_multiplicity
 _atom_site_fract_x
 _atom_site_fract_y
 _atom_site_fract_z
 _atom_site_occupancy
  K  K0  1  0.37827135  0.48520589  0.50384766  1.0
  K  K1  1  0.87827135  0.01479411  0.49615234  1.0
  K  K2  1  0.62172865  0.98520589  0.99615234  1.0
  K  K3  1  0.12172865  0.51479411  0.00384766  1.0
  Y  Y4  1  0.28200715  0.31616004  0.74836473  1.0
  Y  Y5  1  0.78200715  0.18383996  0.25163527  1.0
  Y  Y6  1  0.71799285  0.81616004  0.75163527  1.0
  Y  Y7  1  0.21799285  0.68383996  0.24836473  1.0
  P  P8  1  0.19231030  0.82606294  0.66634260  1.0
  P  P9  1  0.69231030  0.67393706  0.33365740  1.0
  P  P10  1  0.80768970  0.32606294  0.83365740  1.0
  P  P11  1  0.30768970  0.17393706  0.16634260  1.0
  P  P12  1  0.17499290  0.95173770  0.11084765  1.0
  P  P13  1  0.67499290  0.54826230  0.88915235  1.0
  P  P14  1  0.82500710  0.45173770  0.38915235  1.0
  P  P15  1  0.32500710  0.04826230  0.61084765  1.0
  Se  Se16  1  0.43265165  0.62529966  0.66959139  1.0
  Se  Se17  1  0.93265165  0.87470034  0.33040861  1.0
  Se  Se18  1  0.56734835  0.12529966  0.83040861  1.0
  Se  Se19  1  0.06734835  0.37470034  0.16959139  1.0
  Se  Se20  1  0.42540539  0.62665832  0.82811543  1.0
  Se  Se21  1  0.92540539  0.87334168  0.17188457  1.0
  Se  Se22  1  0.57459461  0.12665832  0.67188457  1.0
  Se  Se23  1  0.07459461  0.37334168  0.32811543  1.0
  Se  Se24  1  0.38591369  0.73679386  0.11967701  1.0
  Se  Se25  1  0.88591369  0.76320614  0.88032299  1.0
  Se  Se26  1  0.61408631  0.23679386  0.38032299  1.0
  Se  Se27  1  0.11408631  0.26320614  0.61967701  1.0
  Se  Se28  1  0.38302664  0.95795522  0.51850334  1.0
  Se  Se29  1  0.88302664  0.54204478  0.48149666  1.0
  Se  Se30  1  0.61697336  0.45795522  0.98149666  1.0
  Se  Se31  1  0.11697336  0.04204478  0.01850334  1.0
  Se  Se32  1  0.12851099  0.95031491  0.75769660  1.0
  Se  Se33  1  0.62851099  0.54968509  0.24230340  1.0
  Se  Se34  1  0.87148901  0.45031491  0.74230340  1.0
  Se  Se35  1  0.37148901  0.04968509  0.25769660  1.0
  Se  Se36  1  0.91254346  0.73300735  0.62956754  1.0
  Se  Se37  1  0.41254346  0.76699265  0.37043246  1.0
  Se  Se38  1  0.08745654  0.23300735  0.87043246  1.0
  Se  Se39  1  0.58745654  0.26699265  0.12956754  1.0
