# generated using pymatgen
data_Ba8Nb6ZnO24
_symmetry_space_group_name_H-M   'P 1'
_cell_length_a   5.84803518
_cell_length_b   5.84803518
_cell_length_c   19.10935344
_cell_angle_alpha   90.00000000
_cell_angle_beta   90.00000000
_cell_angle_gamma   120.00000000
_symmetry_Int_Tables_number   1
_chemical_formula_structural   Ba8Nb6ZnO24
_chemical_formula_sum   'Ba8 Nb6 Zn1 O24'
_cell_volume   565.97412612
_cell_formula_units_Z   1
loop_
 _symmetry_equiv_pos_site_id
 _symmetry_equiv_pos_as_xyz
  1  'x, y, z'
loop_
 _atom_site_type_symbol
 _atom_site_label
 _atom_site_symmetry_multiplicity
 _atom_site_fract_x
 _atom_site_fract_y
 _atom_site_fract_z
 _atom_site_occupancy
  Ba  Ba0  1  0.33333333  0.66666667  0.06185608  1.0
  Ba  Ba1  1  0.66666667  0.33333333  0.93814392  1.0
  Ba  Ba2  1  0.33333333  0.66666667  0.45605782  1.0
  Ba  Ba3  1  0.66666667  0.33333333  0.54394218  1.0
  Ba  Ba4  1  0.33333333  0.66666667  0.68245176  1.0
  Ba  Ba5  1  0.66666667  0.33333333  0.31754824  1.0
  Ba  Ba6  1  0.00000000  0.00000000  0.18609288  1.0
  Ba  Ba7  1  0.00000000  0.00000000  0.81390712  1.0
  Nb  Nb8  1  0.33333333  0.66666667  0.25361363  1.0
  Nb  Nb9  1  0.66666667  0.33333333  0.74638637  1.0
  Nb  Nb10  1  0.33333333  0.66666667  0.87832431  1.0
  Nb  Nb11  1  0.66666667  0.33333333  0.12167569  1.0
  Nb  Nb12  1  -0.00000000  -0.00000000  0.38511895  1.0
  Nb  Nb13  1  0.00000000  0.00000000  0.61488105  1.0
  Zn  Zn14  1  0.00000000  0.00000000  0.00000000  1.0
  O  O15  1  0.66122497  0.83061248  0.30706750  1.0
  O  O16  1  0.83061248  0.66122497  0.69293250  1.0
  O  O17  1  0.83061248  0.16938752  0.69293250  1.0
  O  O18  1  0.16938752  0.83061248  0.30706750  1.0
  O  O19  1  0.16938752  0.33877503  0.30706750  1.0
  O  O20  1  0.33877503  0.16938752  0.69293250  1.0
  O  O21  1  0.00239088  0.50119544  0.18716476  1.0
  O  O22  1  0.50119544  0.00239088  0.81283524  1.0
  O  O23  1  0.50119544  0.49880456  0.81283524  1.0
  O  O24  1  0.49880456  0.50119544  0.18716476  1.0
  O  O25  1  0.49880456  0.99760912  0.18716476  1.0
  O  O26  1  0.99760912  0.49880456  0.81283524  1.0
  O  O27  1  0.34610641  0.17305320  0.06621907  1.0
  O  O28  1  0.17305320  0.34610641  0.93378093  1.0
  O  O29  1  0.17305320  0.82694680  0.93378093  1.0
  O  O30  1  0.82694680  0.17305320  0.06621907  1.0
  O  O31  1  0.82694680  0.65389359  0.06621907  1.0
  O  O32  1  0.65389359  0.82694680  0.93378093  1.0
  O  O33  1  0.32664277  0.16332138  0.42903423  1.0
  O  O34  1  0.16332138  0.32664277  0.57096577  1.0
  O  O35  1  0.16332138  0.83667862  0.57096577  1.0
  O  O36  1  0.83667862  0.16332138  0.42903423  1.0
  O  O37  1  0.83667862  0.67335723  0.42903423  1.0
  O  O38  1  0.67335723  0.83667862  0.57096577  1.0
