# generated using pymatgen
data_K2Ag4S3
_symmetry_space_group_name_H-M   'P 1'
_cell_length_a   9.16211387
_cell_length_b   9.16211387
_cell_length_c   11.71208997
_cell_angle_alpha   72.11186874
_cell_angle_beta   107.88813126
_cell_angle_gamma   152.90977445
_symmetry_Int_Tables_number   1
_chemical_formula_structural   K2Ag4S3
_chemical_formula_sum   'K4 Ag8 S6'
_cell_volume   424.79185471
_cell_formula_units_Z   2
loop_
 _symmetry_equiv_pos_site_id
 _symmetry_equiv_pos_as_xyz
  1  'x, y, z'
loop_
 _atom_site_type_symbol
 _atom_site_label
 _atom_site_symmetry_multiplicity
 _atom_site_fract_x
 _atom_site_fract_y
 _atom_site_fract_z
 _atom_site_occupancy
  K  K0  1  0.66787395  0.33212605  0.34061553  1.0
  K  K1  1  0.33212605  -0.33212605  0.65938447  1.0
  K  K2  1  0.18565291  -0.18565291  0.84145275  1.0
  K  K3  1  0.81434709  0.18565291  0.15854725  1.0
  Ag  Ag4  1  0.98550659  0.01449341  0.62170329  1.0
  Ag  Ag5  1  0.01449341  -0.01449341  0.37829671  1.0
  Ag  Ag6  1  0.97734607  0.02265393  0.86694453  1.0
  Ag  Ag7  1  0.02265393  -0.02265393  0.13305547  1.0
  Ag  Ag8  1  0.58934114  0.41065886  0.58600518  1.0
  Ag  Ag9  1  0.41065886  -0.41065886  0.41399482  1.0
  Ag  Ag10  1  0.40748140  -0.40748140  0.99026462  1.0
  Ag  Ag11  1  0.59251860  0.40748140  0.00973538  1.0
  S  S12  1  0.85442056  0.14557944  0.45805399  1.0
  S  S13  1  0.14557944  -0.14557944  0.54194601  1.0
  S  S14  1  0.83957260  0.16042740  0.88774963  1.0
  S  S15  1  0.16042740  -0.16042740  0.11225037  1.0
  S  S16  1  0.53245861  0.46754139  0.77414716  1.0
  S  S17  1  0.46754139  -0.46754139  0.22585284  1.0
