# generated using pymatgen
data_LuMnO3
_symmetry_space_group_name_H-M   'P 1'
_cell_length_a   5.80399981
_cell_length_b   7.37250943
_cell_length_c   5.24214993
_cell_angle_alpha   90.00000000
_cell_angle_beta   90.00000000
_cell_angle_gamma   90.00000000
_symmetry_Int_Tables_number   1
_chemical_formula_structural   LuMnO3
_chemical_formula_sum   'Lu4 Mn4 O12'
_cell_volume   224.31182246
_cell_formula_units_Z   4
loop_
 _symmetry_equiv_pos_site_id
 _symmetry_equiv_pos_as_xyz
  1  'x, y, z'
loop_
 _atom_site_type_symbol
 _atom_site_label
 _atom_site_symmetry_multiplicity
 _atom_site_fract_x
 _atom_site_fract_y
 _atom_site_fract_z
 _atom_site_occupancy
  Lu  Lu0  1  0.08531032  0.75000000  0.51956153  1.0
  Lu  Lu1  1  0.58531032  0.75000000  0.98043847  1.0
  Lu  Lu2  1  0.91468968  0.25000000  0.48043847  1.0
  Lu  Lu3  1  0.41468968  0.25000000  0.01956153  1.0
  Mn  Mn4  1  0.50000000  0.00000000  0.50000000  1.0
  Mn  Mn5  1  0.50000000  0.50000000  0.50000000  1.0
  Mn  Mn6  1  0.00000000  0.00000000  0.00000000  1.0
  Mn  Mn7  1  0.00000000  0.50000000  0.00000000  1.0
  O  O8  1  0.32766340  0.94191528  0.80203149  1.0
  O  O9  1  0.32766340  0.55808472  0.80203149  1.0
  O  O10  1  0.82766340  0.94191528  0.69796851  1.0
  O  O11  1  0.82766340  0.55808472  0.69796851  1.0
  O  O12  1  0.67233660  0.44191528  0.19796851  1.0
  O  O13  1  0.67233660  0.05808472  0.19796851  1.0
  O  O14  1  0.17233660  0.44191528  0.30203149  1.0
  O  O15  1  0.17233660  0.05808472  0.30203149  1.0
  O  O16  1  0.95582732  0.75000000  0.12333637  1.0
  O  O17  1  0.45582732  0.75000000  0.37666363  1.0
  O  O18  1  0.04417268  0.25000000  0.87666363  1.0
  O  O19  1  0.54417268  0.25000000  0.62333637  1.0
