# generated using pymatgen
data_Na3(CO4)2
_symmetry_space_group_name_H-M   'P 1'
_cell_length_a   10.93646257
_cell_length_b   10.93646257
_cell_length_c   10.05723185
_cell_angle_alpha   61.01490984
_cell_angle_beta   118.98509016
_cell_angle_gamma   161.21504767
_symmetry_Int_Tables_number   1
_chemical_formula_structural   Na3(CO4)2
_chemical_formula_sum   'Na6 C4 O16'
_cell_volume   337.41309057
_cell_formula_units_Z   2
loop_
 _symmetry_equiv_pos_site_id
 _symmetry_equiv_pos_as_xyz
  1  'x, y, z'
loop_
 _atom_site_type_symbol
 _atom_site_label
 _atom_site_symmetry_multiplicity
 _atom_site_fract_x
 _atom_site_fract_y
 _atom_site_fract_z
 _atom_site_occupancy
  C  C0  1  1.71508859  -0.07939793  0.84694801  1.0
  C  C1  1  1.07939793  -0.71508859  0.34694801  1.0
  C  C2  1  0.92060207  -0.28491141  0.65305199  1.0
  C  C3  1  1.28491141  0.07939793  0.15305199  1.0
  O  O4  1  1.68596043  -0.16074511  0.76250572  1.0
  O  O5  1  1.16074511  -0.68596043  0.26250572  1.0
  O  O6  1  0.83925489  -0.31403957  0.73749428  1.0
  O  O7  1  1.31403957  0.16074511  0.23749428  1.0
  O  O8  1  1.33492668  0.17027788  1.01624805  1.0
  O  O9  1  0.82972212  -0.33492668  0.51624805  1.0
  O  O10  1  1.17027788  -0.66507332  0.48375195  1.0
  O  O11  1  1.66507332  -0.17027788  -0.01624805  1.0
  O  O12  1  1.28092725  -0.12909334  0.87447336  1.0
  O  O13  1  1.12909334  -0.28092725  0.37447336  1.0
  O  O14  1  0.87090666  -0.71907275  0.62552664  1.0
  O  O15  1  1.71907275  0.12909334  0.12552664  1.0
  O  O16  1  1.82503721  0.17009718  0.78124235  1.0
  O  O17  1  0.82990282  -0.82503721  0.28124235  1.0
  O  O18  1  1.17009718  -0.17496279  0.71875765  1.0
  O  O19  1  1.17496279  -0.17009718  0.21875765  1.0
  Na  Na20  1  1.44170679  -0.21666912  0.50269397  1.0
  Na  Na21  1  1.21666912  -0.44170679  0.00269397  1.0
  Na  Na22  1  0.78333088  -0.55829321  0.99730603  1.0
  Na  Na23  1  1.55829321  0.21666912  0.49730603  1.0
  Na  Na24  1  0.26810397  0.26810397  0.75000000  1.0
  Na  Na25  1  0.73189603  0.73189603  0.25000000  1.0
