# generated using pymatgen
data_Si(PbO2)2
_symmetry_space_group_name_H-M   'P 1'
_cell_length_a   10.20467724
_cell_length_b   7.34342433
_cell_length_c   7.29080758
_cell_angle_alpha   116.23653127
_cell_angle_beta   103.32678444
_cell_angle_gamma   87.57580483
_symmetry_Int_Tables_number   1
_chemical_formula_structural   Si(PbO2)2
_chemical_formula_sum   'Si4 Pb8 O16'
_cell_volume   475.75606434
_cell_formula_units_Z   4
loop_
 _symmetry_equiv_pos_site_id
 _symmetry_equiv_pos_as_xyz
  1  'x, y, z'
loop_
 _atom_site_type_symbol
 _atom_site_label
 _atom_site_symmetry_multiplicity
 _atom_site_fract_x
 _atom_site_fract_y
 _atom_site_fract_z
 _atom_site_occupancy
  Si  Si0  1  0.16298311  0.81629915  0.34402876  1.0
  Si  Si1  1  0.83701689  0.18370085  0.65597124  1.0
  Si  Si2  1  0.15464613  0.24200657  0.76904565  1.0
  Si  Si3  1  0.84535387  0.75799343  0.23095435  1.0
  Pb  Pb4  1  0.54354940  0.50686590  0.76678093  1.0
  Pb  Pb5  1  0.45645060  0.49313410  0.23321907  1.0
  Pb  Pb6  1  0.51830700  0.00742503  0.25703860  1.0
  Pb  Pb7  1  0.48169300  0.99257497  0.74296140  1.0
  Pb  Pb8  1  0.81413460  0.70322677  0.68864355  1.0
  Pb  Pb9  1  0.18586540  0.29677323  0.31135645  1.0
  Pb  Pb10  1  0.80911261  0.23228041  0.15934079  1.0
  Pb  Pb11  1  0.19088739  0.76771959  0.84065921  1.0
  O  O12  1  0.15995729  0.01891065  0.56708646  1.0
  O  O13  1  0.84004271  0.98108935  0.43291354  1.0
  O  O14  1  0.75937538  0.11638243  0.79209512  1.0
  O  O15  1  0.24062462  0.88361757  0.20790488  1.0
  O  O16  1  0.79303712  0.58211416  0.28279253  1.0
  O  O17  1  0.20696288  0.41788584  0.71720747  1.0
  O  O18  1  0.24889979  0.23667023  0.98029818  1.0
  O  O19  1  0.75110021  0.76332977  0.01970182  1.0
  O  O20  1  0.58775484  0.69065750  0.60102223  1.0
  O  O21  1  0.41224516  0.30934250  0.39897777  1.0
  O  O22  1  0.58452575  0.18939527  0.09969961  1.0
  O  O23  1  0.41547425  0.81060473  0.90030039  1.0
  O  O24  1  0.24211609  0.64647081  0.40780706  1.0
  O  O25  1  0.75788391  0.35352919  0.59219294  1.0
  O  O26  1  -0.00481149  0.26394175  0.78803411  1.0
  O  O27  1  0.00481149  0.73605825  0.21196589  1.0
