# generated using pymatgen
data_PH7(NO2)2
_symmetry_space_group_name_H-M   'P 1'
_cell_length_a   5.72366769
_cell_length_b   8.03965760
_cell_length_c   10.67411430
_cell_angle_alpha   90.00000000
_cell_angle_beta   90.00000000
_cell_angle_gamma   90.00000000
_symmetry_Int_Tables_number   1
_chemical_formula_structural   PH7(NO2)2
_chemical_formula_sum   'P4 H28 N8 O16'
_cell_volume   491.18354921
_cell_formula_units_Z   4
loop_
 _symmetry_equiv_pos_site_id
 _symmetry_equiv_pos_as_xyz
  1  'x, y, z'
loop_
 _atom_site_type_symbol
 _atom_site_label
 _atom_site_symmetry_multiplicity
 _atom_site_fract_x
 _atom_site_fract_y
 _atom_site_fract_z
 _atom_site_occupancy
  P  P0  1  0.40269859  0.81544389  0.65639564  1.0
  P  P1  1  0.90269859  0.68455611  0.34360436  1.0
  P  P2  1  0.59730141  0.31544389  0.84360436  1.0
  P  P3  1  0.09730141  0.18455611  0.15639564  1.0
  H  H4  1  0.43256347  0.94941960  0.07309719  1.0
  H  H5  1  0.93256347  0.55058040  0.92690281  1.0
  H  H6  1  0.56743653  0.44941960  0.42690281  1.0
  H  H7  1  0.06743653  0.05058040  0.57309719  1.0
  H  H8  1  0.16502144  0.66610509  0.98344079  1.0
  H  H9  1  0.66502144  0.83389491  0.01655921  1.0
  H  H10  1  0.83497856  0.16610509  0.51655921  1.0
  H  H11  1  0.33497856  0.33389491  0.48344079  1.0
  H  H12  1  0.13853116  0.63514599  0.82613761  1.0
  H  H13  1  0.63853116  0.86485401  0.17386239  1.0
  H  H14  1  0.86146884  0.13514599  0.67386239  1.0
  H  H15  1  0.36146884  0.36485401  0.32613761  1.0
  H  H16  1  0.01252366  0.90158911  0.91040464  1.0
  H  H17  1  0.51252366  0.59841089  0.08959536  1.0
  H  H18  1  0.98747634  0.40158911  0.58959536  1.0
  H  H19  1  0.48747634  0.09841089  0.41040464  1.0
  H  H20  1  -0.00635052  0.98126174  0.28877625  1.0
  H  H21  1  0.49364948  0.51873826  0.71122375  1.0
  H  H22  1  1.00635052  0.48126174  0.21122375  1.0
  H  H23  1  0.50635052  0.01873826  0.78877625  1.0
  H  H24  1  0.83271365  0.80600483  0.81348537  1.0
  H  H25  1  0.33271365  0.69399517  0.18651463  1.0
  H  H26  1  0.16728635  0.30600483  0.68651463  1.0
  H  H27  1  0.66728635  0.19399517  0.31348537  1.0
  H  H28  1  0.72597241  0.72618981  0.56419763  1.0
  H  H29  1  0.22597241  0.77381019  0.43580237  1.0
  H  H30  1  0.27402759  0.22618981  0.93580237  1.0
  H  H31  1  0.77402759  0.27381019  0.06419763  1.0
  N  N32  1  0.40075325  0.69799336  0.09725452  1.0
  N  N33  1  0.90075325  0.80200664  0.90274548  1.0
  N  N34  1  0.59924675  0.19799336  0.40274548  1.0
  N  N35  1  0.09924675  0.30200664  0.59725452  1.0
  N  N36  1  0.04252073  0.65284522  0.90942395  1.0
  N  N37  1  0.54252073  0.84715478  0.09057605  1.0
  N  N38  1  0.95747927  0.15284522  0.59057605  1.0
  N  N39  1  0.45747927  0.34715478  0.40942395  1.0
  O  O40  1  0.37742199  0.92811521  0.77725427  1.0
  O  O41  1  0.87742199  0.57188479  0.22274573  1.0
  O  O42  1  0.62257801  0.42811521  0.72274573  1.0
  O  O43  1  0.12257801  0.07188479  0.27725427  1.0
  O  O44  1  0.32065713  0.30583283  0.86394022  1.0
  O  O45  1  0.82065713  0.19416717  0.13605978  1.0
  O  O46  1  0.67934287  0.80583283  0.63605978  1.0
  O  O47  1  0.17934287  0.69416717  0.36394022  1.0
  O  O48  1  0.30585147  0.64212964  0.68922313  1.0
  O  O49  1  0.80585147  0.85787036  0.31077687  1.0
  O  O50  1  0.69414853  0.14212964  0.81077687  1.0
  O  O51  1  0.19414853  0.35787036  0.18922313  1.0
  O  O52  1  0.28129801  0.89580619  0.54341644  1.0
  O  O53  1  0.78129801  0.60419381  0.45658356  1.0
  O  O54  1  0.71870199  0.39580619  0.95658356  1.0
  O  O55  1  0.21870199  0.10419381  0.04341644  1.0
