# generated using pymatgen
data_K4Cu8Te11
_symmetry_space_group_name_H-M   'P 1'
_cell_length_a   12.76874097
_cell_length_b   12.76874097
_cell_length_c   18.71002564
_cell_angle_alpha   57.10881765
_cell_angle_beta   122.89118235
_cell_angle_gamma   148.78910542
_symmetry_Int_Tables_number   1
_chemical_formula_structural   K4Cu8Te11
_chemical_formula_sum   'K8 Cu16 Te22'
_cell_volume   1305.51553714
_cell_formula_units_Z   2
loop_
 _symmetry_equiv_pos_site_id
 _symmetry_equiv_pos_as_xyz
  1  'x, y, z'
loop_
 _atom_site_type_symbol
 _atom_site_label
 _atom_site_symmetry_multiplicity
 _atom_site_fract_x
 _atom_site_fract_y
 _atom_site_fract_z
 _atom_site_occupancy
  K  K0  1  0.93610625  -0.93610625  0.77766956  1.0
  K  K1  1  0.06389375  -0.06389375  0.22233044  1.0
  K  K2  1  0.87751755  -0.87751755  0.33531223  1.0
  K  K3  1  0.12248245  -0.12248245  0.66468777  1.0
  K  K4  1  0.74669649  0.25330351  0.90223999  1.0
  K  K5  1  1.25330351  -0.25330351  0.09776001  1.0
  K  K6  1  0.64597708  0.35402292  0.52840760  1.0
  K  K7  1  1.35402292  -0.35402292  0.47159240  1.0
  Cu  Cu8  1  1.69358533  -0.28962115  0.66383500  1.0
  Cu  Cu9  1  1.28962115  -0.69358533  0.66383500  1.0
  Cu  Cu10  1  0.71037885  0.69358533  0.33616500  1.0
  Cu  Cu11  1  0.30641467  0.28962115  0.33616500  1.0
  Cu  Cu12  1  0.56365573  -0.18069980  0.88301637  1.0
  Cu  Cu13  1  1.18069980  0.43634427  0.88301637  1.0
  Cu  Cu14  1  0.81930020  -0.43634427  0.11698363  1.0
  Cu  Cu15  1  1.43634427  0.18069980  0.11698363  1.0
  Cu  Cu16  1  0.48485609  -0.10670962  0.61225772  1.0
  Cu  Cu17  1  1.10670962  0.51514391  0.61225772  1.0
  Cu  Cu18  1  0.89329038  -0.51514391  0.38774228  1.0
  Cu  Cu19  1  1.51514391  0.10670962  0.38774228  1.0
  Cu  Cu20  1  0.38578390  0.23047402  0.94218669  1.0
  Cu  Cu21  1  0.76952598  0.61421610  0.94218669  1.0
  Cu  Cu22  1  1.23047402  -0.61421610  0.05781331  1.0
  Cu  Cu23  1  1.61421610  -0.23047402  0.05781331  1.0
  Te  Te24  1  1.40907553  -0.40907553  0.68880374  1.0
  Te  Te25  1  0.59092447  0.40907553  0.31119626  1.0
  Te  Te26  1  0.56286410  0.01555195  0.72707671  1.0
  Te  Te27  1  0.98444805  0.43713590  0.72707671  1.0
  Te  Te28  1  1.01555195  -0.43713590  0.27292329  1.0
  Te  Te29  1  1.43713590  -0.01555195  0.27292329  1.0
  Te  Te30  1  0.30113172  0.11699509  0.81852026  1.0
  Te  Te31  1  0.88300491  0.69886828  0.81852026  1.0
  Te  Te32  1  1.11699509  -0.69886828  0.18147974  1.0
  Te  Te33  1  1.69886828  -0.11699509  0.18147974  1.0
  Te  Te34  1  0.93325528  0.06674472  0.98119557  1.0
  Te  Te35  1  1.06674472  -0.06674472  0.01880443  1.0
  Te  Te36  1  0.93124157  -0.93124157  0.56316006  1.0
  Te  Te37  1  0.06875843  -0.06875843  0.43683994  1.0
  Te  Te38  1  0.80064931  -0.80064931  0.53178269  1.0
  Te  Te39  1  0.19935069  -0.19935069  0.46821731  1.0
  Te  Te40  1  0.54141101  0.45858899  0.59446747  1.0
  Te  Te41  1  1.45858899  -0.45858899  0.40553253  1.0
  Te  Te42  1  1.46348409  -0.46348409  0.87522821  1.0
  Te  Te43  1  0.53651591  0.46348409  0.12477179  1.0
  Te  Te44  1  0.31370538  -0.31370538  0.94508311  1.0
  Te  Te45  1  0.68629462  -0.68629462  0.05491689  1.0
