# generated using pymatgen
data_As2PbO4
_symmetry_space_group_name_H-M   'P 1'
_cell_length_a   7.40530737
_cell_length_b   12.21775154
_cell_length_c   6.43002853
_cell_angle_alpha   90.00000000
_cell_angle_beta   111.93365633
_cell_angle_gamma   90.00000000
_symmetry_Int_Tables_number   1
_chemical_formula_structural   As2PbO4
_chemical_formula_sum   'As8 Pb4 O16'
_cell_volume   539.65471443
_cell_formula_units_Z   4
loop_
 _symmetry_equiv_pos_site_id
 _symmetry_equiv_pos_as_xyz
  1  'x, y, z'
loop_
 _atom_site_type_symbol
 _atom_site_label
 _atom_site_symmetry_multiplicity
 _atom_site_fract_x
 _atom_site_fract_y
 _atom_site_fract_z
 _atom_site_occupancy
  As  As0  1  0.86889001  0.85964747  0.98064175  1.0
  As  As1  1  0.86889001  0.64035253  0.48064175  1.0
  As  As2  1  0.13110999  0.35964747  0.51935825  1.0
  As  As3  1  0.13110999  0.14035253  0.01935825  1.0
  As  As4  1  0.78434656  0.41465094  0.69314081  1.0
  As  As5  1  0.78434656  0.08534906  0.19314081  1.0
  As  As6  1  0.21565344  0.91465094  0.80685919  1.0
  As  As7  1  0.21565344  0.58534906  0.30685919  1.0
  Pb  Pb8  1  0.48806781  0.65862125  0.90406139  1.0
  Pb  Pb9  1  0.48806781  0.84137875  0.40406139  1.0
  Pb  Pb10  1  0.51193219  0.15862125  0.59593861  1.0
  Pb  Pb11  1  0.51193219  0.34137875  0.09593861  1.0
  O  O12  1  0.95304895  0.90664018  0.75431072  1.0
  O  O13  1  0.95304895  0.59335982  0.25431072  1.0
  O  O14  1  0.04695105  0.40664018  0.74568928  1.0
  O  O15  1  0.04695105  0.09335982  0.24568928  1.0
  O  O16  1  0.71202765  0.98233692  0.96177389  1.0
  O  O17  1  0.71202765  0.51766308  0.46177389  1.0
  O  O18  1  0.28797235  0.48233692  0.53822611  1.0
  O  O19  1  0.28797235  0.01766308  0.03822611  1.0
  O  O20  1  0.67851591  0.77624309  0.79350521  1.0
  O  O21  1  0.67851591  0.72375691  0.29350521  1.0
  O  O22  1  0.32148409  0.27624309  0.70649479  1.0
  O  O23  1  0.32148409  0.22375691  0.20649479  1.0
  O  O24  1  0.31067037  0.79900146  0.98672060  1.0
  O  O25  1  0.31067037  0.70099854  0.48672060  1.0
  O  O26  1  0.68932963  0.29900146  0.51327940  1.0
  O  O27  1  0.68932963  0.20099854  0.01327940  1.0
