# generated using pymatgen
data_CdI2
_symmetry_space_group_name_H-M   'P 1'
_cell_length_a   4.32822000
_cell_length_b   4.32822000
_cell_length_c   75.89001685
_cell_angle_alpha   90.00000000
_cell_angle_beta   90.00000000
_cell_angle_gamma   120.00000000
_symmetry_Int_Tables_number   1
_chemical_formula_structural   CdI2
_chemical_formula_sum   'Cd10 I20'
_cell_volume   1231.21510902
_cell_formula_units_Z   10
loop_
 _symmetry_equiv_pos_site_id
 _symmetry_equiv_pos_as_xyz
  1  'x, y, z'
loop_
 _atom_site_type_symbol
 _atom_site_label
 _atom_site_symmetry_multiplicity
 _atom_site_fract_x
 _atom_site_fract_y
 _atom_site_fract_z
 _atom_site_occupancy
  Cd  Cd0  1  0.00000000  0.00000000  0.02501152  1.0
  Cd  Cd1  1  0.00000000  0.00000000  0.12498180  1.0
  Cd  Cd2  1  0.00000000  0.00000000  0.32499806  1.0
  Cd  Cd3  1  0.00000000  0.00000000  0.52500015  1.0
  Cd  Cd4  1  0.00000000  0.00000000  0.82499838  1.0
  Cd  Cd5  1  0.66666667  0.33333333  0.22499953  1.0
  Cd  Cd6  1  0.66666667  0.33333333  0.42499692  1.0
  Cd  Cd7  1  0.66666667  0.33333333  0.62501114  1.0
  Cd  Cd8  1  0.66666667  0.33333333  0.72498156  1.0
  Cd  Cd9  1  0.66666667  0.33333333  0.92499932  1.0
  I  I10  1  0.00000000  0.00000000  0.24765416  1.0
  I  I11  1  0.00000000  0.00000000  0.44765106  1.0
  I  I12  1  0.00000000  0.00000000  0.64766489  1.0
  I  I13  1  0.00000000  0.00000000  0.74763726  1.0
  I  I14  1  0.00000000  0.00000000  0.94765364  1.0
  I  I15  1  0.66666667  0.33333333  0.04766532  1.0
  I  I16  1  0.66666667  0.33333333  0.14763752  1.0
  I  I17  1  0.66666667  0.33333333  0.34765215  1.0
  I  I18  1  0.66666667  0.33333333  0.54765447  1.0
  I  I19  1  0.66666667  0.33333333  0.84765272  1.0
  I  I20  1  0.33333333  0.66666667  0.00236478  1.0
  I  I21  1  0.33333333  0.66666667  0.10233142  1.0
  I  I22  1  0.33333333  0.66666667  0.20235187  1.0
  I  I23  1  0.33333333  0.66666667  0.30235056  1.0
  I  I24  1  0.33333333  0.66666667  0.40234944  1.0
  I  I25  1  0.33333333  0.66666667  0.50235266  1.0
  I  I26  1  0.33333333  0.66666667  0.60236427  1.0
  I  I27  1  0.33333333  0.66666667  0.70233112  1.0
  I  I28  1  0.33333333  0.66666667  0.80235035  1.0
  I  I29  1  0.33333333  0.66666667  0.90235197  1.0
