# generated using pymatgen
data_AlNi9B8
_symmetry_space_group_name_H-M   'P 1'
_cell_length_a   5.39711819
_cell_length_b   5.39711819
_cell_length_c   10.77124450
_cell_angle_alpha   90.00000000
_cell_angle_beta   90.00000000
_cell_angle_gamma   97.16561793
_symmetry_Int_Tables_number   1
_chemical_formula_structural   AlNi9B8
_chemical_formula_sum   'Al2 Ni18 B16'
_cell_volume   311.30383461
_cell_formula_units_Z   2
loop_
 _symmetry_equiv_pos_site_id
 _symmetry_equiv_pos_as_xyz
  1  'x, y, z'
loop_
 _atom_site_type_symbol
 _atom_site_label
 _atom_site_symmetry_multiplicity
 _atom_site_fract_x
 _atom_site_fract_y
 _atom_site_fract_z
 _atom_site_occupancy
  Al  Al0  1  0.08711356  0.91288644  0.25000000  1.0
  Al  Al1  1  -0.08711356  1.08711356  0.75000000  1.0
  Ni  Ni2  1  -0.23924433  1.62193732  0.38565775  1.0
  Ni  Ni3  1  -0.23924433  1.62193732  0.11434225  1.0
  Ni  Ni4  1  0.62193732  0.76075567  0.88565775  1.0
  Ni  Ni5  1  0.62193732  0.76075567  0.61434225  1.0
  Ni  Ni6  1  -0.62193732  1.23924433  0.38565775  1.0
  Ni  Ni7  1  -0.62193732  1.23924433  0.11434225  1.0
  Ni  Ni8  1  0.23924433  0.37806268  0.88565775  1.0
  Ni  Ni9  1  0.23924433  0.37806268  0.61434225  1.0
  Ni  Ni10  1  0.05071678  0.39286059  0.25000000  1.0
  Ni  Ni11  1  -0.60713941  1.05071678  0.75000000  1.0
  Ni  Ni12  1  0.60713941  0.94928322  0.25000000  1.0
  Ni  Ni13  1  -0.05071678  1.60713941  0.75000000  1.0
  Ni  Ni14  1  0.29032570  0.70967430  0.41889888  1.0
  Ni  Ni15  1  0.29032570  0.70967430  0.08110112  1.0
  Ni  Ni16  1  -0.29032570  1.29032570  0.91889888  1.0
  Ni  Ni17  1  -0.29032570  1.29032570  0.58110112  1.0
  Ni  Ni18  1  0.00000000  0.00000000  0.50000000  1.0
  Ni  Ni19  1  0.00000000  0.00000000  0.00000000  1.0
  B  B20  1  0.03958277  0.38288152  0.44884506  1.0
  B  B21  1  0.03958277  0.38288152  0.05115494  1.0
  B  B22  1  -0.61711848  1.03958277  0.94884506  1.0
  B  B23  1  -0.61711848  1.03958277  0.55115494  1.0
  B  B24  1  0.61711848  0.96041723  0.44884506  1.0
  B  B25  1  0.61711848  0.96041723  0.05115494  1.0
  B  B26  1  -0.03958277  1.61711848  0.94884506  1.0
  B  B27  1  -0.03958277  1.61711848  0.55115494  1.0
  B  B28  1  0.21951634  0.78048366  0.88012152  1.0
  B  B29  1  0.21951634  0.78048366  0.61987848  1.0
  B  B30  1  -0.21951634  1.21951634  0.38012152  1.0
  B  B31  1  -0.21951634  1.21951634  0.11987848  1.0
  B  B32  1  0.43272471  0.56727529  0.25000000  1.0
  B  B33  1  -0.43272471  1.43272471  0.75000000  1.0
  B  B34  1  -0.35270779  1.35270779  0.25000000  1.0
  B  B35  1  0.35270779  0.64729221  0.75000000  1.0
