# generated using pymatgen
data_SrSiN2
_symmetry_space_group_name_H-M   'P 1'
_cell_length_a   5.94527735
_cell_length_b   7.44045591
_cell_length_c   5.52939839
_cell_angle_alpha   90.00000000
_cell_angle_beta   112.62017383
_cell_angle_gamma   90.00000000
_symmetry_Int_Tables_number   1
_chemical_formula_structural   SrSiN2
_chemical_formula_sum   'Sr4 Si4 N8'
_cell_volume   225.78051884
_cell_formula_units_Z   4
loop_
 _symmetry_equiv_pos_site_id
 _symmetry_equiv_pos_as_xyz
  1  'x, y, z'
loop_
 _atom_site_type_symbol
 _atom_site_label
 _atom_site_symmetry_multiplicity
 _atom_site_fract_x
 _atom_site_fract_y
 _atom_site_fract_z
 _atom_site_occupancy
  Sr  Sr0  1  0.66373032  0.42103058  0.82590082  1.0
  Sr  Sr1  1  0.66373032  0.07896942  0.32590082  1.0
  Sr  Sr2  1  0.33626968  0.92103058  0.67409918  1.0
  Sr  Sr3  1  0.33626968  0.57896942  0.17409918  1.0
  Si  Si4  1  0.89798515  0.85886495  0.92500319  1.0
  Si  Si5  1  0.89798515  0.64113505  0.42500319  1.0
  Si  Si6  1  0.10201485  0.35886495  0.57499681  1.0
  Si  Si7  1  0.10201485  0.14113505  0.07499681  1.0
  N  N8  1  0.78628752  0.41717141  0.42086023  1.0
  N  N9  1  0.78628752  0.08282859  0.92086023  1.0
  N  N10  1  0.21371248  0.91717141  0.07913977  1.0
  N  N11  1  0.21371248  0.58282859  0.57913977  1.0
  N  N12  1  0.79923013  0.79041829  0.60142966  1.0
  N  N13  1  0.79923013  0.70958171  0.10142966  1.0
  N  N14  1  0.20076987  0.29041829  0.89857034  1.0
  N  N15  1  0.20076987  0.20958171  0.39857034  1.0
