# generated using pymatgen
data_PrAl4
_symmetry_space_group_name_H-M   'P 1'
_cell_length_a   6.38858754
_cell_length_b   6.38858754
_cell_length_c   6.38858754
_cell_angle_alpha   140.74456209
_cell_angle_beta   140.74456209
_cell_angle_gamma   56.72451303
_symmetry_Int_Tables_number   1
_chemical_formula_structural   PrAl4
_chemical_formula_sum   'Pr1 Al4'
_cell_volume   103.55645092
_cell_formula_units_Z   1
loop_
 _symmetry_equiv_pos_site_id
 _symmetry_equiv_pos_as_xyz
  1  'x, y, z'
loop_
 _atom_site_type_symbol
 _atom_site_label
 _atom_site_symmetry_multiplicity
 _atom_site_fract_x
 _atom_site_fract_y
 _atom_site_fract_z
 _atom_site_occupancy
  Pr  Pr0  1  0.00000000  0.00000000  0.00000000  1.0
  Al  Al1  1  0.61261173  0.61261173  1.00000000  1.0
  Al  Al2  1  0.38738827  0.38738827  0.00000000  1.0
  Al  Al3  1  0.25000000  0.75000000  0.50000000  1.0
  Al  Al4  1  0.75000000  0.25000000  0.50000000  1.0
