# generated using pymatgen
data_AlTl(SeO4)2
_symmetry_space_group_name_H-M   'P 1'
_cell_length_a   5.31248209
_cell_length_b   5.31248209
_cell_length_c   8.34378926
_cell_angle_alpha   90.00000000
_cell_angle_beta   90.00000000
_cell_angle_gamma   120.00000000
_symmetry_Int_Tables_number   1
_chemical_formula_structural   AlTl(SeO4)2
_chemical_formula_sum   'Al1 Tl1 Se2 O8'
_cell_volume   203.93366084
_cell_formula_units_Z   1
loop_
 _symmetry_equiv_pos_site_id
 _symmetry_equiv_pos_as_xyz
  1  'x, y, z'
loop_
 _atom_site_type_symbol
 _atom_site_label
 _atom_site_symmetry_multiplicity
 _atom_site_fract_x
 _atom_site_fract_y
 _atom_site_fract_z
 _atom_site_occupancy
  Al  Al0  1  -0.00000000  0.00000000  -0.00000000  1.0
  Tl  Tl1  1  0.00000000  -0.00000000  0.50000000  1.0
  Se  Se2  1  0.33333333  0.66666667  0.20356579  1.0
  Se  Se3  1  0.66666667  0.33333333  0.79643421  1.0
  O  O4  1  0.16335504  0.83949299  0.14145705  1.0
  O  O5  1  0.83949299  0.16335504  0.85854295  1.0
  O  O6  1  0.67613796  0.83664496  0.14145705  1.0
  O  O7  1  0.16050701  0.32386204  0.14145705  1.0
  O  O8  1  0.83664496  0.67613796  0.85854295  1.0
  O  O9  1  0.32386204  0.16050701  0.85854295  1.0
  O  O10  1  0.33333333  0.66666667  0.39971151  1.0
  O  O11  1  0.66666667  0.33333333  0.60028849  1.0
