# generated using pymatgen
data_B3NO
_symmetry_space_group_name_H-M   'P 1'
_cell_length_a   2.46981668
_cell_length_b   2.58095547
_cell_length_c   5.32863154
_cell_angle_alpha   90.00000000
_cell_angle_beta   90.00000000
_cell_angle_gamma   90.00000000
_symmetry_Int_Tables_number   1
_chemical_formula_structural   B3NO
_chemical_formula_sum   'B3 N1 O1'
_cell_volume   33.96729177
_cell_formula_units_Z   1
loop_
 _symmetry_equiv_pos_site_id
 _symmetry_equiv_pos_as_xyz
  1  'x, y, z'
loop_
 _atom_site_type_symbol
 _atom_site_label
 _atom_site_symmetry_multiplicity
 _atom_site_fract_x
 _atom_site_fract_y
 _atom_site_fract_z
 _atom_site_occupancy
  B  B0  1  0.00000000  0.00000000  0.91336664  1.0
  B  B1  1  0.50000000  0.00000000  0.35357100  1.0
  B  B2  1  0.50000000  0.50000000  0.57179690  1.0
  N  N3  1  0.00000000  0.50000000  0.75029537  1.0
  O  O4  1  0.50000000  0.00000000  0.07787009  1.0
