# generated using pymatgen
data_InGa3Te5
_symmetry_space_group_name_H-M   'P 1'
_cell_length_a   10.64946297
_cell_length_b   10.64946297
_cell_length_c   10.64946297
_cell_angle_alpha   89.97830467
_cell_angle_beta   89.97830467
_cell_angle_gamma   89.97830467
_symmetry_Int_Tables_number   1
_chemical_formula_structural   InGa3Te5
_chemical_formula_sum   'In4 Ga12 Te20'
_cell_volume   1207.76664082
_cell_formula_units_Z   4
loop_
 _symmetry_equiv_pos_site_id
 _symmetry_equiv_pos_as_xyz
  1  'x, y, z'
loop_
 _atom_site_type_symbol
 _atom_site_label
 _atom_site_symmetry_multiplicity
 _atom_site_fract_x
 _atom_site_fract_y
 _atom_site_fract_z
 _atom_site_occupancy
  In  In0  1  0.75424884  0.50000000  -0.75424884  1.0
  In  In1  1  0.50000000  0.24575116  -0.24575116  1.0
  In  In2  1  0.24575116  0.75424884  -0.50000000  1.0
  In  In3  1  0.00000000  -0.00000000  0.00000000  1.0
  Ga  Ga4  1  0.66411813  0.92228823  -0.38560232  1.0
  Ga  Ga5  1  1.38560232  1.07771177  0.33588187  1.0
  Ga  Ga6  1  1.07771177  1.33588187  0.38560232  1.0
  Ga  Ga7  1  1.33588187  1.38560232  0.07771177  1.0
  Ga  Ga8  1  0.61439768  0.66411813  -0.07771177  1.0
  Ga  Ga9  1  0.92228823  0.61439768  -0.33588187  1.0
  Ga  Ga10  1  0.84740280  0.23817133  -0.33357277  1.0
  Ga  Ga11  1  0.33357277  0.76182867  -0.84740280  1.0
  Ga  Ga12  1  0.76182867  0.15259720  -0.66642723  1.0
  Ga  Ga13  1  0.15259720  0.33357277  -0.23817133  1.0
  Ga  Ga14  1  0.66642723  -0.15259720  0.23817133  1.0
  Ga  Ga15  1  1.23817133  -0.33357277  -0.15259720  1.0
  Te  Te16  1  0.75513697  0.05535906  -0.19321899  1.0
  Te  Te17  1  0.19321899  0.94464094  -0.75513697  1.0
  Te  Te18  1  0.94464094  0.24486303  -0.80678101  1.0
  Te  Te19  1  0.24486303  0.19321899  -0.05535906  1.0
  Te  Te20  1  0.80678101  -0.24486303  0.05535906  1.0
  Te  Te21  1  1.05535906  -0.19321899  -0.24486303  1.0
  Te  Te22  1  1.57786850  1.07751462  0.17293611  1.0
  Te  Te23  1  0.82706389  0.92248538  -0.57786850  1.0
  Te  Te24  1  0.92248538  0.42213150  -0.17293611  1.0
  Te  Te25  1  0.42213150  0.82706389  -0.07751462  1.0
  Te  Te26  1  1.17293611  1.57786850  0.07751462  1.0
  Te  Te27  1  1.07751462  1.17293611  0.57786850  1.0
  Te  Te28  1  0.31722443  0.50000000  -0.31722443  1.0
  Te  Te29  1  0.50000000  0.68277557  -0.68277557  1.0
  Te  Te30  1  0.68277557  0.31722443  -0.50000000  1.0
  Te  Te31  1  0.42828024  1.00000000  -0.42828024  1.0
  Te  Te32  1  -0.00000000  0.57171976  -0.57171976  1.0
  Te  Te33  1  0.57171976  -0.57171976  -0.00000000  1.0
  Te  Te34  1  0.67045371  0.67045371  -0.32954629  1.0
  Te  Te35  1  1.32954629  1.32954629  0.32954629  1.0
