# generated using pymatgen
data_Cu2H6C3(BrN3)2
_symmetry_space_group_name_H-M   'P 1'
_cell_length_a   3.98426184
_cell_length_b   16.37945932
_cell_length_c   7.84440615
_cell_angle_alpha   90.00000000
_cell_angle_beta   91.96877372
_cell_angle_gamma   90.00000000
_symmetry_Int_Tables_number   1
_chemical_formula_structural   Cu2H6C3(BrN3)2
_chemical_formula_sum   'Cu4 H12 C6 Br4 N12'
_cell_volume   511.62418400
_cell_formula_units_Z   2
loop_
 _symmetry_equiv_pos_site_id
 _symmetry_equiv_pos_as_xyz
  1  'x, y, z'
loop_
 _atom_site_type_symbol
 _atom_site_label
 _atom_site_symmetry_multiplicity
 _atom_site_fract_x
 _atom_site_fract_y
 _atom_site_fract_z
 _atom_site_occupancy
  Cu  Cu0  1  0.65585806  0.42953882  0.52199712  1.0
  Cu  Cu1  1  0.65585806  0.07046118  0.52199712  1.0
  Cu  Cu2  1  0.34414194  0.92953882  0.47800288  1.0
  Cu  Cu3  1  0.34414194  0.57046118  0.47800288  1.0
  H  H4  1  0.87326975  0.30358817  0.36344143  1.0
  H  H5  1  0.87326975  0.19641183  0.36344143  1.0
  H  H6  1  0.12673025  0.80358817  0.63655857  1.0
  H  H7  1  0.12673025  0.69641183  0.63655857  1.0
  H  H8  1  0.49884291  0.44379131  0.83367123  1.0
  H  H9  1  0.49884291  0.05620869  0.83367123  1.0
  H  H10  1  0.50115709  0.94379131  0.16632877  1.0
  H  H11  1  0.50115709  0.55620869  0.16632877  1.0
  H  H12  1  0.36460631  0.38834343  1.01129404  1.0
  H  H13  1  0.36460631  0.11165657  1.01129404  1.0
  H  H14  1  0.63539369  0.88834343  -0.01129404  1.0
  H  H15  1  0.63539369  0.61165657  -0.01129404  1.0
  C  C16  1  0.51199186  0.31920008  0.81077957  1.0
  C  C17  1  0.51199186  0.18079992  0.81077957  1.0
  C  C18  1  0.48800814  0.81920008  0.18922043  1.0
  C  C19  1  0.48800814  0.68079992  0.18922043  1.0
  C  C20  1  0.68297846  0.25000000  0.57401029  1.0
  C  C21  1  0.31702154  0.75000000  0.42598971  1.0
  Br  Br22  1  0.83729954  0.94289578  0.68450507  1.0
  Br  Br23  1  0.83729954  0.55710422  0.68450507  1.0
  Br  Br24  1  0.16270046  0.44289578  0.31549493  1.0
  Br  Br25  1  0.16270046  0.05710422  0.31549493  1.0
  N  N26  1  0.62597911  0.32330239  0.64855941  1.0
  N  N27  1  0.62597911  0.17669761  0.64855941  1.0
  N  N28  1  0.37402089  0.82330239  0.35144059  1.0
  N  N29  1  0.37402089  0.67669761  0.35144059  1.0
  N  N30  1  0.45245137  0.38961428  0.89135234  1.0
  N  N31  1  0.45245137  0.11038572  0.89135234  1.0
  N  N32  1  0.54754863  0.88961428  0.10864766  1.0
  N  N33  1  0.54754863  0.61038572  0.10864766  1.0
  N  N34  1  0.79721135  0.25000000  0.41523792  1.0
  N  N35  1  0.20278865  0.75000000  0.58476208  1.0
  N  N36  1  0.45407324  0.25000000  0.89519334  1.0
  N  N37  1  0.54592676  0.75000000  0.10480666  1.0
