# generated using pymatgen
data_BaS
_symmetry_space_group_name_H-M   'P 1'
_cell_length_a   9.09744652
_cell_length_b   4.55784002
_cell_length_c   6.44170825
_cell_angle_alpha   90.00000000
_cell_angle_beta   90.00000000
_cell_angle_gamma   90.00000000
_symmetry_Int_Tables_number   1
_chemical_formula_structural   BaS
_chemical_formula_sum   'Ba4 S4'
_cell_volume   267.10353704
_cell_formula_units_Z   4
loop_
 _symmetry_equiv_pos_site_id
 _symmetry_equiv_pos_as_xyz
  1  'x, y, z'
loop_
 _atom_site_type_symbol
 _atom_site_label
 _atom_site_symmetry_multiplicity
 _atom_site_fract_x
 _atom_site_fract_y
 _atom_site_fract_z
 _atom_site_occupancy
  Ba  Ba0  1  0.37501749  0.25000000  0.24990364  1.0
  Ba  Ba1  1  0.62498251  0.75000000  0.75009636  1.0
  Ba  Ba2  1  0.12498251  0.75000000  0.74990364  1.0
  Ba  Ba3  1  0.87501749  0.25000000  0.25009636  1.0
  S  S4  1  0.37487433  0.25000000  0.74987295  1.0
  S  S5  1  0.62512567  0.75000000  0.25012705  1.0
  S  S6  1  0.12512567  0.75000000  0.24987295  1.0
  S  S7  1  0.87487433  0.25000000  0.75012705  1.0
