# generated using pymatgen
data_CrFe(BiO3)2
_symmetry_space_group_name_H-M   'P 1'
_cell_length_a   5.49226689
_cell_length_b   5.49226689
_cell_length_c   5.49226689
_cell_angle_alpha   60.34242642
_cell_angle_beta   60.34242642
_cell_angle_gamma   60.34242642
_symmetry_Int_Tables_number   1
_chemical_formula_structural   CrFe(BiO3)2
_chemical_formula_sum   'Cr1 Fe1 Bi2 O6'
_cell_volume   118.05687872
_cell_formula_units_Z   1
loop_
 _symmetry_equiv_pos_site_id
 _symmetry_equiv_pos_as_xyz
  1  'x, y, z'
loop_
 _atom_site_type_symbol
 _atom_site_label
 _atom_site_symmetry_multiplicity
 _atom_site_fract_x
 _atom_site_fract_y
 _atom_site_fract_z
 _atom_site_occupancy
  Cr  Cr0  1  0.72599014  0.72599014  -0.27400986  1.0
  Fe  Fe1  1  1.22304764  1.22304764  0.22304764  1.0
  Bi  Bi2  1  -0.00359723  -0.00359723  -0.00359723  1.0
  Bi  Bi3  1  0.49718246  0.49718246  -0.50281754  1.0
  O  O4  1  0.40143379  0.94993087  -0.46336488  1.0
  O  O5  1  0.94993087  0.53663512  -0.59856621  1.0
  O  O6  1  0.53663512  0.40143379  -0.05006913  1.0
  O  O7  1  0.90601917  0.04126656  -0.55390852  1.0
  O  O8  1  1.04126656  -0.55390852  -0.09398083  1.0
  O  O9  1  0.44609148  -0.09398083  0.04126656  1.0
