# generated using pymatgen
data_Ga3Ni5Sn2
_symmetry_space_group_name_H-M   'P 1'
_cell_length_a   6.51481708
_cell_length_b   6.51481708
_cell_length_c   11.49091277
_cell_angle_alpha   90.00000000
_cell_angle_beta   90.00000000
_cell_angle_gamma   143.08117029
_symmetry_Int_Tables_number   1
_chemical_formula_structural   Ga3Ni5Sn2
_chemical_formula_sum   'Ga6 Ni10 Sn4'
_cell_volume   292.95729890
_cell_formula_units_Z   2
loop_
 _symmetry_equiv_pos_site_id
 _symmetry_equiv_pos_as_xyz
  1  'x, y, z'
loop_
 _atom_site_type_symbol
 _atom_site_label
 _atom_site_symmetry_multiplicity
 _atom_site_fract_x
 _atom_site_fract_y
 _atom_site_fract_z
 _atom_site_occupancy
  Ga  Ga0  1  0.33130311  0.66869689  0.47400389  1.0
  Ga  Ga1  1  0.33130311  0.66869689  0.02599611  1.0
  Ga  Ga2  1  -0.33130311  0.33130311  0.97400389  1.0
  Ga  Ga3  1  -0.33130311  0.33130311  0.52599611  1.0
  Ga  Ga4  1  0.00000000  0.00000000  0.00000000  1.0
  Ga  Ga5  1  0.00000000  0.00000000  0.50000000  1.0
  Ni  Ni6  1  0.15825873  0.84174127  0.37751299  1.0
  Ni  Ni7  1  0.15825873  0.84174127  0.12248701  1.0
  Ni  Ni8  1  -0.15825873  0.15825873  0.87751299  1.0
  Ni  Ni9  1  -0.15825873  0.15825873  0.62248701  1.0
  Ni  Ni10  1  0.48049323  0.51950677  0.88039955  1.0
  Ni  Ni11  1  0.48049323  0.51950677  0.61960045  1.0
  Ni  Ni12  1  -0.48049323  0.48049323  0.38039955  1.0
  Ni  Ni13  1  -0.48049323  0.48049323  0.11960045  1.0
  Ni  Ni14  1  -0.33809938  0.33809938  0.75000000  1.0
  Ni  Ni15  1  0.33809938  0.66190062  0.25000000  1.0
  Sn  Sn16  1  0.03391603  0.96608397  0.75000000  1.0
  Sn  Sn17  1  -0.03391603  0.03391603  0.25000000  1.0
  Sn  Sn18  1  0.29316716  0.70683284  0.75000000  1.0
  Sn  Sn19  1  -0.29316716  0.29316716  0.25000000  1.0
