# generated using pymatgen
data_Li(SbPt)2
_symmetry_space_group_name_H-M   'P 1'
_cell_length_a   5.75595989
_cell_length_b   5.75595989
_cell_length_c   5.75595989
_cell_angle_alpha   90.00000000
_cell_angle_beta   90.00000000
_cell_angle_gamma   90.00000000
_symmetry_Int_Tables_number   1
_chemical_formula_structural   Li(SbPt)2
_chemical_formula_sum   'Li2 Sb4 Pt4'
_cell_volume   190.70113407
_cell_formula_units_Z   2
loop_
 _symmetry_equiv_pos_site_id
 _symmetry_equiv_pos_as_xyz
  1  'x, y, z'
loop_
 _atom_site_type_symbol
 _atom_site_label
 _atom_site_symmetry_multiplicity
 _atom_site_fract_x
 _atom_site_fract_y
 _atom_site_fract_z
 _atom_site_occupancy
  Li  Li0  1  0.50000000  0.50000000  0.50000000  1.0
  Li  Li1  1  0.00000000  0.00000000  0.00000000  1.0
  Sb  Sb2  1  0.25000000  0.25000000  0.75000000  1.0
  Sb  Sb3  1  0.25000000  0.75000000  0.25000000  1.0
  Sb  Sb4  1  0.75000000  0.25000000  0.25000000  1.0
  Sb  Sb5  1  0.75000000  0.75000000  0.75000000  1.0
  Pt  Pt6  1  0.75000000  0.75000000  0.25000000  1.0
  Pt  Pt7  1  0.75000000  0.25000000  0.75000000  1.0
  Pt  Pt8  1  0.25000000  0.75000000  0.75000000  1.0
  Pt  Pt9  1  0.25000000  0.25000000  0.25000000  1.0
