# generated using pymatgen
data_ZnBi
_symmetry_space_group_name_H-M   'P 1'
_cell_length_a   4.50461632
_cell_length_b   4.50461632
_cell_length_c   7.21853252
_cell_angle_alpha   90.00000000
_cell_angle_beta   90.00000000
_cell_angle_gamma   120.00000000
_symmetry_Int_Tables_number   1
_chemical_formula_structural   ZnBi
_chemical_formula_sum   'Zn2 Bi2'
_cell_volume   126.85136982
_cell_formula_units_Z   2
loop_
 _symmetry_equiv_pos_site_id
 _symmetry_equiv_pos_as_xyz
  1  'x, y, z'
loop_
 _atom_site_type_symbol
 _atom_site_label
 _atom_site_symmetry_multiplicity
 _atom_site_fract_x
 _atom_site_fract_y
 _atom_site_fract_z
 _atom_site_occupancy
  Zn  Zn0  1  0.66666667  0.33333333  0.50115091  1.0
  Zn  Zn1  1  0.33333333  0.66666667  0.00115091  1.0
  Bi  Bi2  1  0.66666667  0.33333333  0.88084909  1.0
  Bi  Bi3  1  0.33333333  0.66666667  0.38084909  1.0
