# generated using pymatgen
data_TiHgO3
_symmetry_space_group_name_H-M   'P 1'
_cell_length_a   4.54806718
_cell_length_b   4.54806718
_cell_length_c   11.90748110
_cell_angle_alpha   90.00000000
_cell_angle_beta   90.00000000
_cell_angle_gamma   120.00000000
_symmetry_Int_Tables_number   1
_chemical_formula_structural   TiHgO3
_chemical_formula_sum   'Ti2 Hg2 O6'
_cell_volume   213.30659107
_cell_formula_units_Z   2
loop_
 _symmetry_equiv_pos_site_id
 _symmetry_equiv_pos_as_xyz
  1  'x, y, z'
loop_
 _atom_site_type_symbol
 _atom_site_label
 _atom_site_symmetry_multiplicity
 _atom_site_fract_x
 _atom_site_fract_y
 _atom_site_fract_z
 _atom_site_occupancy
  Ti  Ti0  1  -0.00000000  -0.00000000  0.02198690  1.0
  Ti  Ti1  1  0.00000000  -0.00000000  0.52198690  1.0
  Hg  Hg2  1  -0.00000000  -0.00000000  0.28572193  1.0
  Hg  Hg3  1  -0.00000000  -0.00000000  0.78572193  1.0
  O  O4  1  0.37684616  0.99999939  0.06406372  1.0
  O  O5  1  0.37684616  0.37684677  0.56406372  1.0
  O  O6  1  0.62315323  0.99999939  0.56406372  1.0
  O  O7  1  0.62315323  0.62315384  0.06406372  1.0
  O  O8  1  0.00000061  0.62315384  0.56406372  1.0
  O  O9  1  0.00000061  0.37684677  0.06406372  1.0
