# generated using pymatgen
data_NaEuCu2F8
_symmetry_space_group_name_H-M   'P 1'
_cell_length_a   6.55650017
_cell_length_b   6.55650017
_cell_length_c   6.55650017
_cell_angle_alpha   129.95467372
_cell_angle_beta   129.95467372
_cell_angle_gamma   73.47923658
_symmetry_Int_Tables_number   1
_chemical_formula_structural   NaEuCu2F8
_chemical_formula_sum   'Na1 Eu1 Cu2 F8'
_cell_volume   161.63596580
_cell_formula_units_Z   1
loop_
 _symmetry_equiv_pos_site_id
 _symmetry_equiv_pos_as_xyz
  1  'x, y, z'
loop_
 _atom_site_type_symbol
 _atom_site_label
 _atom_site_symmetry_multiplicity
 _atom_site_fract_x
 _atom_site_fract_y
 _atom_site_fract_z
 _atom_site_occupancy
  Na  Na0  1  0.50000000  0.50000000  1.00000000  1.0
  Eu  Eu1  1  0.00000000  0.00000000  0.00000000  1.0
  Cu  Cu2  1  0.75000000  0.25000000  0.50000000  1.0
  Cu  Cu3  1  0.25000000  0.75000000  0.50000000  1.0
  F  F4  1  0.80615918  0.95669704  1.51531868  1.0
  F  F5  1  1.19384082  0.70915950  1.15053787  1.0
  F  F6  1  0.70915950  0.55862163  0.51531868  1.0
  F  F7  1  0.29084050  0.80615918  0.84946213  1.0
  F  F8  1  0.55862163  1.04330296  0.84946213  1.0
  F  F9  1  0.44137837  0.29084050  0.48468132  1.0
  F  F10  1  0.95669704  0.44137837  1.15053787  1.0
  F  F11  1  1.04330296  1.19384082  1.48468132  1.0
