# generated using pymatgen
data_Pr2Pd2O5
_symmetry_space_group_name_H-M   'P 1'
_cell_length_a   6.59583434
_cell_length_b   6.59583434
_cell_length_c   5.62054088
_cell_angle_alpha   90.00000000
_cell_angle_beta   90.00000000
_cell_angle_gamma   90.00000000
_symmetry_Int_Tables_number   1
_chemical_formula_structural   Pr2Pd2O5
_chemical_formula_sum   'Pr4 Pd4 O10'
_cell_volume   244.52180329
_cell_formula_units_Z   2
loop_
 _symmetry_equiv_pos_site_id
 _symmetry_equiv_pos_as_xyz
  1  'x, y, z'
loop_
 _atom_site_type_symbol
 _atom_site_label
 _atom_site_symmetry_multiplicity
 _atom_site_fract_x
 _atom_site_fract_y
 _atom_site_fract_z
 _atom_site_occupancy
  Pr  Pr0  1  0.73729533  0.89125605  0.00000000  1.0
  Pr  Pr1  1  0.89125605  0.26270467  0.50000000  1.0
  Pr  Pr2  1  0.26270467  0.10874395  0.00000000  1.0
  Pr  Pr3  1  0.10874395  0.73729533  0.50000000  1.0
  Pd  Pd4  1  0.69931619  0.40347017  0.00000000  1.0
  Pd  Pd5  1  0.40347017  0.30068381  0.50000000  1.0
  Pd  Pd6  1  0.30068381  0.59652983  0.00000000  1.0
  Pd  Pd7  1  0.59652983  0.69931619  0.50000000  1.0
  O  O8  1  0.80861717  0.60005478  0.74104794  1.0
  O  O9  1  0.80861717  0.60005478  0.25895206  1.0
  O  O10  1  0.60005478  0.19138283  0.24104794  1.0
  O  O11  1  0.60005478  0.19138283  0.75895206  1.0
  O  O12  1  0.19138283  0.39994522  0.74104794  1.0
  O  O13  1  0.19138283  0.39994522  0.25895206  1.0
  O  O14  1  0.39994522  0.80861717  0.24104794  1.0
  O  O15  1  0.39994522  0.80861717  0.75895206  1.0
  O  O16  1  0.00000000  0.00000000  0.75000000  1.0
  O  O17  1  0.00000000  0.00000000  0.25000000  1.0
