# generated using pymatgen
data_KP15
_symmetry_space_group_name_H-M   'P 1'
_cell_length_a   12.67018579
_cell_length_b   9.55542830
_cell_length_c   7.47084909
_cell_angle_alpha   111.29346713
_cell_angle_beta   101.13875934
_cell_angle_gamma   89.88239883
_symmetry_Int_Tables_number   1
_chemical_formula_structural   KP15
_chemical_formula_sum   'K2 P30'
_cell_volume   824.56862902
_cell_formula_units_Z   2
loop_
 _symmetry_equiv_pos_site_id
 _symmetry_equiv_pos_as_xyz
  1  'x, y, z'
loop_
 _atom_site_type_symbol
 _atom_site_label
 _atom_site_symmetry_multiplicity
 _atom_site_fract_x
 _atom_site_fract_y
 _atom_site_fract_z
 _atom_site_occupancy
  K  K0  1  0.00024321  0.22005127  -0.77917539  1.0
  K  K1  1  -0.00024321  0.77994873  -0.22082461  1.0
  P  P2  1  0.39417548  0.33613377  -0.99046128  1.0
  P  P3  1  0.60582452  0.66386623  -0.00953872  1.0
  P  P4  1  0.82374789  0.43958265  -0.98127759  1.0
  P  P5  1  0.17625211  0.56041735  -0.01872241  1.0
  P  P6  1  0.66945978  0.89478398  -0.96743850  1.0
  P  P7  1  0.33054022  0.10521602  -0.03256150  1.0
  P  P8  1  0.29683894  0.75614414  -0.88598149  1.0
  P  P9  1  0.70316106  0.24385586  -0.11401851  1.0
  P  P10  1  0.84297250  0.90117500  -0.87661971  1.0
  P  P11  1  0.15702750  0.09882500  -0.12338029  1.0
  P  P12  1  0.72823290  0.59936380  -0.79370634  1.0
  P  P13  1  0.27176710  0.40063620  -0.20629366  1.0
  P  P14  1  0.35706956  0.46354541  -0.70069539  1.0
  P  P15  1  0.64293044  0.53645459  -0.29930461  1.0
  P  P16  1  0.17663405  0.86846700  -0.71243499  1.0
  P  P17  1  0.82336595  0.13153300  -0.28756501  1.0
  P  P18  1  0.60507715  0.98507293  -0.69115216  1.0
  P  P19  1  0.39492285  0.01492707  -0.30884784  1.0
  P  P20  1  0.42160279  0.68940999  -0.66435095  1.0
  P  P21  1  0.57839721  0.31059001  -0.33564905  1.0
  P  P22  1  0.84590575  0.80295711  -0.65679970  1.0
  P  P23  1  0.15409425  0.19704289  -0.34320030  1.0
  P  P24  1  0.82006327  0.26915382  -0.47677251  1.0
  P  P25  1  0.17993673  0.73084618  -0.52322749  1.0
  P  P26  1  0.72679347  0.91934547  -0.47560699  1.0
  P  P27  1  0.27320653  0.08065453  -0.52439301  1.0
  P  P28  1  0.35684254  0.77142317  -0.39247568  1.0
  P  P29  1  0.64315746  0.22857683  -0.60752432  1.0
  P  P30  1  0.82003572  0.50539453  -0.24178052  1.0
  P  P31  1  0.17996428  0.49460547  -0.75821948  1.0
