# generated using pymatgen
data_Cd2Sb2O7
_symmetry_space_group_name_H-M   'P 1'
_cell_length_a   7.37893495
_cell_length_b   7.37893495
_cell_length_c   7.37893495
_cell_angle_alpha   120.28987221
_cell_angle_beta   90.67315725
_cell_angle_gamma   118.93888736
_symmetry_Int_Tables_number   1
_chemical_formula_structural   Cd2Sb2O7
_chemical_formula_sum   'Cd4 Sb4 O14'
_cell_volume   285.68221995
_cell_formula_units_Z   2
loop_
 _symmetry_equiv_pos_site_id
 _symmetry_equiv_pos_as_xyz
  1  'x, y, z'
loop_
 _atom_site_type_symbol
 _atom_site_label
 _atom_site_symmetry_multiplicity
 _atom_site_fract_x
 _atom_site_fract_y
 _atom_site_fract_z
 _atom_site_occupancy
  Cd  Cd0  1  0.50000000  1.00000000  1.00000000  1.0
  Cd  Cd1  1  0.50000000  0.50000000  0.50000000  1.0
  Cd  Cd2  1  0.50000000  0.00000000  0.50000000  1.0
  Cd  Cd3  1  0.00000000  0.00000000  0.00000000  1.0
  Sb  Sb4  1  1.00000000  1.50000000  1.00000000  1.0
  Sb  Sb5  1  1.00000000  1.00000000  0.50000000  1.0
  Sb  Sb6  1  0.00000000  0.50000000  0.50000000  1.0
  Sb  Sb7  1  0.50000000  0.50000000  1.00000000  1.0
  O  O8  1  1.32018397  1.64583795  1.09034952  1.0
  O  O9  1  0.94451156  0.77016555  1.59034952  1.0
  O  O10  1  0.67981603  0.77016555  1.32565398  1.0
  O  O11  1  1.05548844  1.64583795  0.82565398  1.0
  O  O12  1  1.32018397  1.22983445  0.67434602  1.0
  O  O13  1  0.94451156  0.35416205  1.17434602  1.0
  O  O14  1  0.67981603  0.35416205  0.90965048  1.0
  O  O15  1  1.05548844  1.22983445  0.40965048  1.0
  O  O16  1  1.63965109  0.73720574  0.90244535  1.0
  O  O17  1  1.66523961  1.26279426  1.40244535  1.0
  O  O18  1  0.36034891  0.26279426  0.09755465  1.0
  O  O19  1  0.33476039  0.73720574  0.59755465  1.0
  O  O20  1  1.09804382  0.84804382  0.25000000  1.0
  O  O21  1  0.90195618  0.15195618  0.75000000  1.0
