# generated using pymatgen
data_Mn5VO8
_symmetry_space_group_name_H-M   'P 1'
_cell_length_a   10.28395797
_cell_length_b   10.28395797
_cell_length_c   5.43720476
_cell_angle_alpha   80.63589638
_cell_angle_beta   99.36410362
_cell_angle_gamma   144.71970461
_symmetry_Int_Tables_number   1
_chemical_formula_structural   Mn5VO8
_chemical_formula_sum   'Mn10 V2 O16'
_cell_volume   327.25175567
_cell_formula_units_Z   2
loop_
 _symmetry_equiv_pos_site_id
 _symmetry_equiv_pos_as_xyz
  1  'x, y, z'
loop_
 _atom_site_type_symbol
 _atom_site_label
 _atom_site_symmetry_multiplicity
 _atom_site_fract_x
 _atom_site_fract_y
 _atom_site_fract_z
 _atom_site_occupancy
  Mn  Mn0  1  0.86626778  0.13373222  0.23868716  1.0
  Mn  Mn1  1  0.13373222  -0.13373222  0.76131284  1.0
  Mn  Mn2  1  0.60957751  -0.12242057  0.74137711  1.0
  Mn  Mn3  1  1.12242057  0.39042249  0.74137711  1.0
  Mn  Mn4  1  0.87757943  0.60957751  0.25862289  1.0
  Mn  Mn5  1  0.39042249  0.12242057  0.25862289  1.0
  Mn  Mn6  1  0.74788263  0.74788263  0.50000000  1.0
  Mn  Mn7  1  0.25211737  0.25211737  0.50000000  1.0
  Mn  Mn8  1  0.50000000  0.50000000  -0.00000000  1.0
  Mn  Mn9  1  0.00000000  0.00000000  0.00000000  1.0
  O  O10  1  0.45501026  0.08971100  0.63424716  1.0
  O  O11  1  0.91028900  0.54498974  0.63424716  1.0
  O  O12  1  1.08971100  0.45501026  0.36575284  1.0
  O  O13  1  0.54498974  -0.08971100  0.36575284  1.0
  O  O14  1  0.80641930  0.19358070  0.86786813  1.0
  O  O15  1  0.19358070  -0.19358070  0.13213187  1.0
  O  O16  1  0.31744043  -0.31744043  0.91001774  1.0
  O  O17  1  0.68255957  0.31744043  0.08998226  1.0
  O  O18  1  0.92911378  0.07088622  0.60107373  1.0
  O  O19  1  0.07088622  -0.07088622  0.39892627  1.0
  O  O20  1  0.27854791  0.16242966  0.89643247  1.0
  O  O21  1  0.83757034  0.72145209  0.89643247  1.0
  O  O22  1  1.16242966  0.27854791  0.10356753  1.0
  O  O23  1  0.72145209  -0.16242966  0.10356753  1.0
  O  O24  1  0.44498146  -0.44498146  0.67234415  1.0
  O  O25  1  0.55501854  0.44498146  0.32765585  1.0
  V  V26  1  0.71289489  0.28710511  0.80492356  1.0
  V  V27  1  0.28710511  -0.28710511  0.19507644  1.0
