# generated using pymatgen
data_In2TeO6
_symmetry_space_group_name_H-M   'P 1'
_cell_length_a   9.13101456
_cell_length_b   9.13101456
_cell_length_c   4.92407369
_cell_angle_alpha   90.00000000
_cell_angle_beta   90.00000000
_cell_angle_gamma   120.00000000
_symmetry_Int_Tables_number   1
_chemical_formula_structural   In2TeO6
_chemical_formula_sum   'In6 Te3 O18'
_cell_volume   355.54391202
_cell_formula_units_Z   3
loop_
 _symmetry_equiv_pos_site_id
 _symmetry_equiv_pos_as_xyz
  1  'x, y, z'
loop_
 _atom_site_type_symbol
 _atom_site_label
 _atom_site_symmetry_multiplicity
 _atom_site_fract_x
 _atom_site_fract_y
 _atom_site_fract_z
 _atom_site_occupancy
  In  In0  1  0.70576427  0.70576427  0.50000000  1.0
  In  In1  1  -0.00000000  0.29423573  0.50000000  1.0
  In  In2  1  0.29423573  0.00000000  0.50000000  1.0
  In  In3  1  0.36789881  0.36789881  -0.00000000  1.0
  In  In4  1  -0.00000000  0.63210119  0.00000000  1.0
  In  In5  1  0.63210119  -0.00000000  -0.00000000  1.0
  Te  Te6  1  0.33333333  0.66666667  0.48853390  1.0
  Te  Te7  1  0.66666667  0.33333333  0.51146610  1.0
  Te  Te8  1  0.00000000  0.00000000  0.00000000  1.0
  O  O9  1  0.08667881  0.87735838  0.22326877  1.0
  O  O10  1  0.87735838  0.08667881  0.77673123  1.0
  O  O11  1  0.79067957  0.91332119  0.22326877  1.0
  O  O12  1  0.12264162  0.20932043  0.22326877  1.0
  O  O13  1  0.91332119  0.79067957  0.77673123  1.0
  O  O14  1  0.20932043  0.12264162  0.77673123  1.0
  O  O15  1  0.41148000  0.87513140  0.26158260  1.0
  O  O16  1  0.87513140  0.41148000  0.73841740  1.0
  O  O17  1  0.46365140  0.58852000  0.26158260  1.0
  O  O18  1  0.12486860  0.53634860  0.26158260  1.0
  O  O19  1  0.58852000  0.46365140  0.73841740  1.0
  O  O20  1  0.53634860  0.12486860  0.73841740  1.0
  O  O21  1  0.77949415  0.54338189  0.28359200  1.0
  O  O22  1  0.54338189  0.77949415  0.71640800  1.0
  O  O23  1  0.76388774  0.22050585  0.28359200  1.0
  O  O24  1  0.45661811  0.23611226  0.28359200  1.0
  O  O25  1  0.22050585  0.76388774  0.71640800  1.0
  O  O26  1  0.23611226  0.45661811  0.71640800  1.0
