# generated using pymatgen
data_NaSr3NbO6
_symmetry_space_group_name_H-M   'P 1'
_cell_length_a   6.89571464
_cell_length_b   6.89571464
_cell_length_c   6.89571464
_cell_angle_alpha   91.20524968
_cell_angle_beta   91.20524968
_cell_angle_gamma   91.20524968
_symmetry_Int_Tables_number   1
_chemical_formula_structural   NaSr3NbO6
_chemical_formula_sum   'Na2 Sr6 Nb2 O12'
_cell_volume   327.67656816
_cell_formula_units_Z   2
loop_
 _symmetry_equiv_pos_site_id
 _symmetry_equiv_pos_as_xyz
  1  'x, y, z'
loop_
 _atom_site_type_symbol
 _atom_site_label
 _atom_site_symmetry_multiplicity
 _atom_site_fract_x
 _atom_site_fract_y
 _atom_site_fract_z
 _atom_site_occupancy
  Na  Na0  1  0.25000000  0.25000000  0.25000000  1.0
  Na  Na1  1  0.75000000  0.75000000  0.75000000  1.0
  Sr  Sr2  1  0.60059234  0.89940766  0.25000000  1.0
  Sr  Sr3  1  0.89940766  1.25000000  -0.39940766  1.0
  Sr  Sr4  1  1.25000000  0.60059234  -0.10059234  1.0
  Sr  Sr5  1  1.10059234  -0.25000000  0.39940766  1.0
  Sr  Sr6  1  0.75000000  0.39940766  0.10059234  1.0
  Sr  Sr7  1  1.39940766  0.10059234  -0.25000000  1.0
  Nb  Nb8  1  0.00000000  0.00000000  0.00000000  1.0
  Nb  Nb9  1  0.50000000  0.50000000  0.50000000  1.0
  O  O10  1  1.27917754  -0.05409407  0.07208239  1.0
  O  O11  1  0.94590593  0.07208239  0.27917754  1.0
  O  O12  1  1.07208239  0.27917754  -0.05409407  1.0
  O  O13  1  0.77917754  0.57208239  0.44590593  1.0
  O  O14  1  1.57208239  0.44590593  -0.22082246  1.0
  O  O15  1  1.44590593  -0.22082246  0.57208239  1.0
  O  O16  1  0.72082246  1.05409407  -0.07208239  1.0
  O  O17  1  1.05409407  0.92791761  -0.27917754  1.0
  O  O18  1  0.92791761  0.72082246  0.05409407  1.0
  O  O19  1  1.22082246  0.42791761  -0.44590593  1.0
  O  O20  1  0.42791761  0.55409407  0.22082246  1.0
  O  O21  1  0.55409407  1.22082246  -0.57208239  1.0
