# generated using pymatgen
data_AgBi(WO4)2
_symmetry_space_group_name_H-M   'P 1'
_cell_length_a   7.70288354
_cell_length_b   7.70288354
_cell_length_c   7.35778995
_cell_angle_alpha   64.87901942
_cell_angle_beta   115.12098058
_cell_angle_gamma   84.77188534
_symmetry_Int_Tables_number   1
_chemical_formula_structural   AgBi(WO4)2
_chemical_formula_sum   'Ag2 Bi2 W4 O16'
_cell_volume   337.71427861
_cell_formula_units_Z   2
loop_
 _symmetry_equiv_pos_site_id
 _symmetry_equiv_pos_as_xyz
  1  'x, y, z'
loop_
 _atom_site_type_symbol
 _atom_site_label
 _atom_site_symmetry_multiplicity
 _atom_site_fract_x
 _atom_site_fract_y
 _atom_site_fract_z
 _atom_site_occupancy
  Ag  Ag0  1  0.70452578  -0.70452578  0.51607397  1.0
  Ag  Ag1  1  0.29547422  -0.29547422  0.48392603  1.0
  Bi  Bi2  1  0.72587276  -0.27412724  -0.00000000  1.0
  Bi  Bi3  1  1.27412724  0.27412724  -0.00000000  1.0
  W  W4  1  0.22273078  -0.22273078  0.98558435  1.0
  W  W5  1  0.77726922  -0.77726922  0.01441565  1.0
  W  W6  1  0.84615824  -0.15384176  0.50000000  1.0
  W  W7  1  1.15384176  0.15384176  0.50000000  1.0
  O  O8  1  0.69717462  -0.19548152  0.63770727  1.0
  O  O9  1  1.19548152  0.30282538  0.63770727  1.0
  O  O10  1  0.80451848  -0.30282538  0.36229273  1.0
  O  O11  1  1.30282538  0.19548152  0.36229273  1.0
  O  O12  1  1.70399738  0.05187507  0.90368776  1.0
  O  O13  1  0.94812493  -0.70399738  0.90368776  1.0
  O  O14  1  1.05187507  0.70399738  0.09631224  1.0
  O  O15  1  0.29600262  -0.05187507  0.09631224  1.0
  O  O16  1  0.34486456  -0.10608812  0.77183272  1.0
  O  O17  1  1.10608812  0.65513544  0.77183272  1.0
  O  O18  1  0.89391188  -0.65513544  0.22816728  1.0
  O  O19  1  1.65513544  0.10608812  0.22816728  1.0
  O  O20  1  0.98043205  -0.98043205  0.65733922  1.0
  O  O21  1  0.01956795  -0.01956795  0.34266078  1.0
  O  O22  1  0.55471338  -0.55471338  0.82159446  1.0
  O  O23  1  0.44528662  -0.44528662  0.17840554  1.0
