# generated using pymatgen
data_Cu10Sn3
_symmetry_space_group_name_H-M   'P 1'
_cell_length_a   7.37699759
_cell_length_b   7.37699759
_cell_length_c   7.98214645
_cell_angle_alpha   90.00000000
_cell_angle_beta   90.00000000
_cell_angle_gamma   120.00000000
_symmetry_Int_Tables_number   1
_chemical_formula_structural   Cu10Sn3
_chemical_formula_sum   'Cu20 Sn6'
_cell_volume   376.19204416
_cell_formula_units_Z   2
loop_
 _symmetry_equiv_pos_site_id
 _symmetry_equiv_pos_as_xyz
  1  'x, y, z'
loop_
 _atom_site_type_symbol
 _atom_site_label
 _atom_site_symmetry_multiplicity
 _atom_site_fract_x
 _atom_site_fract_y
 _atom_site_fract_z
 _atom_site_occupancy
  Cu  Cu0  1  0.66992720  0.64149715  0.06488116  1.0
  Cu  Cu1  1  0.64149715  0.97156995  0.56488116  1.0
  Cu  Cu2  1  0.97156995  0.33007280  0.06488116  1.0
  Cu  Cu3  1  0.35850285  0.02843005  0.06488116  1.0
  Cu  Cu4  1  0.33007280  0.35850285  0.56488116  1.0
  Cu  Cu5  1  0.02843005  0.66992720  0.56488116  1.0
  Cu  Cu6  1  0.67002073  0.64154849  0.39781761  1.0
  Cu  Cu7  1  0.64154849  0.97152776  0.89781761  1.0
  Cu  Cu8  1  0.97152776  0.32997927  0.39781761  1.0
  Cu  Cu9  1  0.35845151  0.02847224  0.39781761  1.0
  Cu  Cu10  1  0.32997927  0.35845151  0.89781761  1.0
  Cu  Cu11  1  0.02847224  0.67002073  0.89781761  1.0
  Cu  Cu12  1  0.33333333  0.66666667  0.05871228  1.0
  Cu  Cu13  1  0.66666667  0.33333333  0.55871228  1.0
  Cu  Cu14  1  0.33333333  0.66666667  0.40409441  1.0
  Cu  Cu15  1  0.66666667  0.33333333  0.90409441  1.0
  Cu  Cu16  1  0.33333333  0.66666667  0.73142538  1.0
  Cu  Cu17  1  0.66666667  0.33333333  0.23142538  1.0
  Cu  Cu18  1  0.00000000  0.00000000  -0.01844655  1.0
  Cu  Cu19  1  0.00000000  0.00000000  0.48155345  1.0
  Sn  Sn20  1  0.02304795  0.70770155  0.23133939  1.0
  Sn  Sn21  1  0.70770155  0.68465360  0.73133939  1.0
  Sn  Sn22  1  0.68465360  0.97695205  0.23133939  1.0
  Sn  Sn23  1  0.29229845  0.31534640  0.23133939  1.0
  Sn  Sn24  1  0.97695205  0.29229845  0.73133939  1.0
  Sn  Sn25  1  0.31534640  0.02304795  0.73133939  1.0
