# generated using pymatgen
data_InP2H6NO6
_symmetry_space_group_name_H-M   'P 1'
_cell_length_a   5.52106651
_cell_length_b   5.52106651
_cell_length_c   13.59268114
_cell_angle_alpha   90.00000000
_cell_angle_beta   90.00000000
_cell_angle_gamma   120.00000000
_symmetry_Int_Tables_number   1
_chemical_formula_structural   InP2H6NO6
_chemical_formula_sum   'In2 P4 H12 N2 O12'
_cell_volume   358.82419511
_cell_formula_units_Z   2
loop_
 _symmetry_equiv_pos_site_id
 _symmetry_equiv_pos_as_xyz
  1  'x, y, z'
loop_
 _atom_site_type_symbol
 _atom_site_label
 _atom_site_symmetry_multiplicity
 _atom_site_fract_x
 _atom_site_fract_y
 _atom_site_fract_z
 _atom_site_occupancy
  In  In0  1  0.33333333  0.66666667  0.06044683  1.0
  In  In1  1  0.66666667  0.33333333  0.56044683  1.0
  P  P2  1  0.33333333  0.66666667  0.68560662  1.0
  P  P3  1  0.66666667  0.33333333  0.18560662  1.0
  P  P4  1  -0.00000000  0.00000000  -0.00366595  1.0
  P  P5  1  0.00000000  -0.00000000  0.49633405  1.0
  H  H6  1  0.13055961  0.56527981  0.38421673  1.0
  H  H7  1  0.56527981  0.13055961  0.88421673  1.0
  H  H8  1  0.56527981  0.43472019  0.88421673  1.0
  H  H9  1  0.43472019  0.56527981  0.38421673  1.0
  H  H10  1  0.43472019  0.86944039  0.38421673  1.0
  H  H11  1  0.86944039  0.43472019  0.88421673  1.0
  H  H12  1  0.33333333  0.66666667  0.28221626  1.0
  H  H13  1  0.66666667  0.33333333  0.78221626  1.0
  H  H14  1  0.33333333  0.66666667  0.78955441  1.0
  H  H15  1  0.66666667  0.33333333  0.28955441  1.0
  H  H16  1  0.00000000  0.00000000  0.09990335  1.0
  H  H17  1  0.00000000  0.00000000  0.59990335  1.0
  N  N18  1  0.33333333  0.66666667  0.35807111  1.0
  N  N19  1  0.66666667  0.33333333  0.85807111  1.0
  O  O20  1  0.97812086  0.48906043  0.15704110  1.0
  O  O21  1  0.48906043  0.97812086  0.65704110  1.0
  O  O22  1  0.48906043  0.51093957  0.65704110  1.0
  O  O23  1  0.51093957  0.48906043  0.15704110  1.0
  O  O24  1  0.51093957  0.02187914  0.15704110  1.0
  O  O25  1  0.02187914  0.51093957  0.65704110  1.0
  O  O26  1  0.30872383  0.15436192  0.46063129  1.0
  O  O27  1  0.15436192  0.30872383  0.96063129  1.0
  O  O28  1  0.15436192  0.84563808  0.96063129  1.0
  O  O29  1  0.84563808  0.15436192  0.46063129  1.0
  O  O30  1  0.84563808  0.69127617  0.46063129  1.0
  O  O31  1  0.69127617  0.84563808  0.96063129  1.0
