# generated using pymatgen
data_Sr2MnWO6
_symmetry_space_group_name_H-M   'P 1'
_cell_length_a   5.72307225
_cell_length_b   5.72307225
_cell_length_c   5.72307225
_cell_angle_alpha   120.62892768
_cell_angle_beta   120.62892768
_cell_angle_gamma   88.91407396
_symmetry_Int_Tables_number   1
_chemical_formula_structural   Sr2MnWO6
_chemical_formula_sum   'Sr2 Mn1 W1 O6'
_cell_volume   131.26224935
_cell_formula_units_Z   1
loop_
 _symmetry_equiv_pos_site_id
 _symmetry_equiv_pos_as_xyz
  1  'x, y, z'
loop_
 _atom_site_type_symbol
 _atom_site_label
 _atom_site_symmetry_multiplicity
 _atom_site_fract_x
 _atom_site_fract_y
 _atom_site_fract_z
 _atom_site_occupancy
  Sr  Sr0  1  0.25000000  0.75000000  0.50000000  1.0
  Sr  Sr1  1  0.75000000  0.25000000  0.50000000  1.0
  Mn  Mn2  1  0.50000000  0.50000000  1.00000000  1.0
  W  W3  1  0.00000000  0.00000000  0.00000000  1.0
  O  O4  1  0.71151587  0.81517725  1.52669311  1.0
  O  O5  1  0.18482275  0.71151587  0.89633862  1.0
  O  O6  1  0.28848413  0.18482275  0.47330689  1.0
  O  O7  1  0.81517725  0.28848413  1.10366138  1.0
  O  O8  1  0.76214693  0.76214693  1.00000000  1.0
  O  O9  1  0.23785307  0.23785307  0.00000000  1.0
