# generated using pymatgen
data_TlAgTeO3
_symmetry_space_group_name_H-M   'P 1'
_cell_length_a   9.99522285
_cell_length_b   9.99522285
_cell_length_c   9.99522285
_cell_angle_alpha   109.34179400
_cell_angle_beta   79.23072890
_cell_angle_gamma   148.83180801
_symmetry_Int_Tables_number   1
_chemical_formula_structural   TlAgTeO3
_chemical_formula_sum   'Tl4 Ag4 Te4 O12'
_cell_volume   478.01797842
_cell_formula_units_Z   4
loop_
 _symmetry_equiv_pos_site_id
 _symmetry_equiv_pos_as_xyz
  1  'x, y, z'
loop_
 _atom_site_type_symbol
 _atom_site_label
 _atom_site_symmetry_multiplicity
 _atom_site_fract_x
 _atom_site_fract_y
 _atom_site_fract_z
 _atom_site_occupancy
  Tl  Tl0  1  0.59692744  0.87368461  0.46926378  1.0
  Tl  Tl1  1  0.90442082  0.37368461  1.27675717  1.0
  Tl  Tl2  1  0.09692744  0.62766366  0.72324283  1.0
  Tl  Tl3  1  1.40442082  1.12766366  1.53073622  1.0
  Ag  Ag4  1  0.78062398  0.63162146  1.36702720  1.0
  Ag  Ag5  1  0.76459426  1.13162146  0.85099748  1.0
  Ag  Ag6  1  1.28062398  0.91359678  1.14900252  1.0
  Ag  Ag7  1  0.26459426  0.41359678  0.63297280  1.0
  Te  Te8  1  0.92242420  0.89568965  1.75328385  1.0
  Te  Te9  1  0.64240580  1.39568965  0.97326545  1.0
  Te  Te10  1  1.42242420  0.66914035  1.02673455  1.0
  Te  Te11  1  0.14240580  0.16914035  0.24671615  1.0
  O  O12  1  0.74747266  0.87843646  0.66607920  1.0
  O  O13  1  0.71235726  0.37843646  1.13096380  1.0
  O  O14  1  0.24747266  0.58139347  0.86903620  1.0
  O  O15  1  1.21235726  1.08139347  1.33392080  1.0
  O  O16  1  1.28529844  1.24679049  1.74242819  1.0
  O  O17  1  1.00436230  1.74679049  0.96149205  1.0
  O  O18  1  1.78529844  1.04287026  1.03850795  1.0
  O  O19  1  0.50436230  0.54287026  0.25757181  1.0
  O  O20  1  0.84537858  0.65283108  1.58829682  1.0
  O  O21  1  0.56453426  1.15283108  0.80745250  1.0
  O  O22  1  1.34537858  0.75708175  1.19254750  1.0
  O  O23  1  0.06453426  0.25708175  0.41170318  1.0
