# generated using pymatgen
data_SrNb8O14
_symmetry_space_group_name_H-M   'P 1'
_cell_length_a   9.32483383
_cell_length_b   10.32854326
_cell_length_c   5.97908454
_cell_angle_alpha   90.00000000
_cell_angle_beta   90.00000000
_cell_angle_gamma   90.00000000
_symmetry_Int_Tables_number   1
_chemical_formula_structural   SrNb8O14
_chemical_formula_sum   'Sr2 Nb16 O28'
_cell_volume   575.85728887
_cell_formula_units_Z   2
loop_
 _symmetry_equiv_pos_site_id
 _symmetry_equiv_pos_as_xyz
  1  'x, y, z'
loop_
 _atom_site_type_symbol
 _atom_site_label
 _atom_site_symmetry_multiplicity
 _atom_site_fract_x
 _atom_site_fract_y
 _atom_site_fract_z
 _atom_site_occupancy
  Sr  Sr0  1  0.50000000  0.50000000  0.50000000  1.0
  Sr  Sr1  1  0.00000000  0.00000000  0.50000000  1.0
  Nb  Nb2  1  0.37464851  0.92327058  0.73208497  1.0
  Nb  Nb3  1  0.37464851  0.92327058  0.26791503  1.0
  Nb  Nb4  1  0.87464851  0.57672942  0.73208497  1.0
  Nb  Nb5  1  0.87464851  0.57672942  0.26791503  1.0
  Nb  Nb6  1  0.62535149  0.07672942  0.73208497  1.0
  Nb  Nb7  1  0.62535149  0.07672942  0.26791503  1.0
  Nb  Nb8  1  0.12535149  0.42327058  0.73208497  1.0
  Nb  Nb9  1  0.12535149  0.42327058  0.26791503  1.0
  Nb  Nb10  1  0.11964701  0.66514971  0.50000000  1.0
  Nb  Nb11  1  0.61964701  0.83485029  0.50000000  1.0
  Nb  Nb12  1  0.88035299  0.33485029  0.50000000  1.0
  Nb  Nb13  1  0.38035299  0.16514971  0.50000000  1.0
  Nb  Nb14  1  0.38377733  0.66350804  0.00000000  1.0
  Nb  Nb15  1  0.88377733  0.83649196  0.00000000  1.0
  Nb  Nb16  1  0.61622267  0.33649196  0.00000000  1.0
  Nb  Nb17  1  0.11622267  0.16350804  0.00000000  1.0
  O  O18  1  0.49484476  0.74642879  0.74605719  1.0
  O  O19  1  0.49484476  0.74642879  0.25394281  1.0
  O  O20  1  0.99484476  0.75357121  0.74605719  1.0
  O  O21  1  0.99484476  0.75357121  0.25394281  1.0
  O  O22  1  0.50515524  0.25357121  0.74605719  1.0
  O  O23  1  0.50515524  0.25357121  0.25394281  1.0
  O  O24  1  0.00515524  0.24642879  0.74605719  1.0
  O  O25  1  0.00515524  0.24642879  0.25394281  1.0
  O  O26  1  0.25984166  0.58658924  0.74640735  1.0
  O  O27  1  0.25984166  0.58658924  0.25359265  1.0
  O  O28  1  0.75984166  0.91341076  0.74640735  1.0
  O  O29  1  0.75984166  0.91341076  0.25359265  1.0
  O  O30  1  0.74015834  0.41341076  0.74640735  1.0
  O  O31  1  0.74015834  0.41341076  0.25359265  1.0
  O  O32  1  0.24015834  0.08658924  0.74640735  1.0
  O  O33  1  0.24015834  0.08658924  0.25359265  1.0
  O  O34  1  0.23733626  0.84867515  0.50000000  1.0
  O  O35  1  0.73733626  0.65132485  0.50000000  1.0
  O  O36  1  0.76266374  0.15132485  0.50000000  1.0
  O  O37  1  0.26266374  0.34867515  0.50000000  1.0
  O  O38  1  0.26668017  0.82068788  0.00000000  1.0
  O  O39  1  0.76668017  0.67931212  0.00000000  1.0
  O  O40  1  0.73331983  0.17931212  0.00000000  1.0
  O  O41  1  0.23331983  0.32068788  0.00000000  1.0
  O  O42  1  0.50000000  0.00000000  0.00000000  1.0
  O  O43  1  0.00000000  0.50000000  0.00000000  1.0
  O  O44  1  0.50000000  0.50000000  0.00000000  1.0
  O  O45  1  0.00000000  0.00000000  0.00000000  1.0
