# generated using pymatgen
data_Nb3S4
_symmetry_space_group_name_H-M   'P 1'
_cell_length_a   9.62861862
_cell_length_b   9.62861862
_cell_length_c   3.39317657
_cell_angle_alpha   90.00000000
_cell_angle_beta   90.00000000
_cell_angle_gamma   120.00000000
_symmetry_Int_Tables_number   1
_chemical_formula_structural   Nb3S4
_chemical_formula_sum   'Nb6 S8'
_cell_volume   272.43635488
_cell_formula_units_Z   2
loop_
 _symmetry_equiv_pos_site_id
 _symmetry_equiv_pos_as_xyz
  1  'x, y, z'
loop_
 _atom_site_type_symbol
 _atom_site_label
 _atom_site_symmetry_multiplicity
 _atom_site_fract_x
 _atom_site_fract_y
 _atom_site_fract_z
 _atom_site_occupancy
  Nb  Nb0  1  0.37105992  0.88482456  0.25000000  1.0
  Nb  Nb1  1  0.88482456  0.51376463  0.75000000  1.0
  Nb  Nb2  1  0.51376463  0.62894008  0.25000000  1.0
  Nb  Nb3  1  0.11517544  0.48623537  0.25000000  1.0
  Nb  Nb4  1  0.62894008  0.11517544  0.75000000  1.0
  Nb  Nb5  1  0.48623537  0.37105992  0.75000000  1.0
  S  S6  1  0.05702826  0.71096758  0.25000000  1.0
  S  S7  1  0.71096758  0.65393932  0.75000000  1.0
  S  S8  1  0.65393932  0.94297174  0.25000000  1.0
  S  S9  1  0.28903242  0.34606068  0.25000000  1.0
  S  S10  1  0.94297174  0.28903242  0.75000000  1.0
  S  S11  1  0.34606068  0.05702826  0.75000000  1.0
  S  S12  1  0.66666667  0.33333333  0.25000000  1.0
  S  S13  1  0.33333333  0.66666667  0.75000000  1.0
