# generated using pymatgen
data_PtC8(SF3)4
_symmetry_space_group_name_H-M   'P 1'
_cell_length_a   5.37894686
_cell_length_b   16.05484866
_cell_length_c   11.06138699
_cell_angle_alpha   90.00000000
_cell_angle_beta   106.05115228
_cell_angle_gamma   90.00000000
_symmetry_Int_Tables_number   1
_chemical_formula_structural   PtC8(SF3)4
_chemical_formula_sum   'Pt2 C16 S8 F24'
_cell_volume   918.00136550
_cell_formula_units_Z   2
loop_
 _symmetry_equiv_pos_site_id
 _symmetry_equiv_pos_as_xyz
  1  'x, y, z'
loop_
 _atom_site_type_symbol
 _atom_site_label
 _atom_site_symmetry_multiplicity
 _atom_site_fract_x
 _atom_site_fract_y
 _atom_site_fract_z
 _atom_site_occupancy
  Pt  Pt0  1  0.00000000  0.50000000  0.50000000  1.0
  Pt  Pt1  1  0.00000000  0.00000000  0.00000000  1.0
  C  C2  1  0.65655025  0.92281974  0.34813393  1.0
  C  C3  1  0.65655025  0.57718026  0.84813393  1.0
  C  C4  1  0.34344975  0.42281974  0.15186607  1.0
  C  C5  1  0.34344975  0.07718026  0.65186607  1.0
  C  C6  1  0.68611430  0.35309842  0.33539928  1.0
  C  C7  1  0.68611430  0.14690158  0.83539928  1.0
  C  C8  1  0.31388570  0.85309842  0.16460072  1.0
  C  C9  1  0.31388570  0.64690158  0.66460072  1.0
  C  C10  1  0.60603688  0.26362089  0.29718022  1.0
  C  C11  1  0.60603688  0.23637911  0.79718022  1.0
  C  C12  1  0.39396312  0.76362089  0.20281978  1.0
  C  C13  1  0.39396312  0.73637911  0.70281978  1.0
  C  C14  1  0.56677133  0.42372991  0.27215490  1.0
  C  C15  1  0.56677133  0.07627009  0.77215490  1.0
  C  C16  1  0.43322867  0.92372991  0.22784510  1.0
  C  C17  1  0.43322867  0.57627009  0.72784510  1.0
  S  S18  1  0.93601206  0.36178633  0.46901935  1.0
  S  S19  1  0.93601206  0.13821367  0.96901935  1.0
  S  S20  1  0.06398794  0.86178633  0.03098065  1.0
  S  S21  1  0.06398794  0.63821367  0.53098065  1.0
  S  S22  1  0.32976184  0.02094550  0.17465739  1.0
  S  S23  1  0.32976184  0.47905450  0.67465739  1.0
  S  S24  1  0.67023816  0.52094550  0.32534261  1.0
  S  S25  1  0.67023816  0.97905450  0.82534261  1.0
  F  F26  1  0.84114887  0.86594778  0.34268810  1.0
  F  F27  1  0.84114887  0.63405222  0.84268810  1.0
  F  F28  1  0.15885113  0.36594778  0.15731190  1.0
  F  F29  1  0.15885113  0.13405222  0.65731190  1.0
  F  F30  1  0.77557641  0.99828040  0.36914714  1.0
  F  F31  1  0.77557641  0.50171960  0.86914714  1.0
  F  F32  1  0.22442359  0.49828040  0.13085286  1.0
  F  F33  1  0.22442359  0.00171960  0.63085286  1.0
  F  F34  1  0.79384308  0.20880489  0.35482396  1.0
  F  F35  1  0.79384308  0.29119511  0.85482396  1.0
  F  F36  1  0.20615692  0.70880489  0.14517604  1.0
  F  F37  1  0.20615692  0.79119511  0.64517604  1.0
  F  F38  1  0.57354925  0.90474595  0.45067631  1.0
  F  F39  1  0.57354925  0.59525405  0.95067631  1.0
  F  F40  1  0.42645075  0.40474595  0.04932369  1.0
  F  F41  1  0.42645075  0.09525405  0.54932369  1.0
  F  F42  1  0.55853084  0.25139957  0.17100367  1.0
  F  F43  1  0.55853084  0.24860043  0.67100367  1.0
  F  F44  1  0.44146916  0.75139957  0.32899633  1.0
  F  F45  1  0.44146916  0.74860043  0.82899633  1.0
  F  F46  1  0.38802591  0.24186502  0.32970379  1.0
  F  F47  1  0.38802591  0.25813498  0.82970379  1.0
  F  F48  1  0.61197409  0.74186502  0.17029621  1.0
  F  F49  1  0.61197409  0.75813498  0.67029621  1.0
