# generated using pymatgen
data_VBiO4
_symmetry_space_group_name_H-M   'P 1'
_cell_length_a   5.07624518
_cell_length_b   12.07674029
_cell_length_c   5.38551589
_cell_angle_alpha   90.00000000
_cell_angle_beta   90.00000000
_cell_angle_gamma   90.00000000
_symmetry_Int_Tables_number   1
_chemical_formula_structural   VBiO4
_chemical_formula_sum   'V4 Bi4 O16'
_cell_volume   330.15633031
_cell_formula_units_Z   4
loop_
 _symmetry_equiv_pos_site_id
 _symmetry_equiv_pos_as_xyz
  1  'x, y, z'
loop_
 _atom_site_type_symbol
 _atom_site_label
 _atom_site_symmetry_multiplicity
 _atom_site_fract_x
 _atom_site_fract_y
 _atom_site_fract_z
 _atom_site_occupancy
  V  V0  1  0.50000000  0.39243229  0.25000000  1.0
  V  V1  1  0.50000000  0.60756771  0.75000000  1.0
  V  V2  1  0.00000000  0.89243229  0.25000000  1.0
  V  V3  1  0.00000000  0.10756771  0.75000000  1.0
  Bi  Bi4  1  0.50000000  0.11341438  0.25000000  1.0
  Bi  Bi5  1  0.50000000  0.88658562  0.75000000  1.0
  Bi  Bi6  1  0.00000000  0.61341438  0.25000000  1.0
  Bi  Bi7  1  0.00000000  0.38658562  0.75000000  1.0
  O  O8  1  0.35317348  0.30719323  0.04502876  1.0
  O  O9  1  0.35317348  0.69280677  0.54502876  1.0
  O  O10  1  0.85317348  0.80719323  0.45497124  1.0
  O  O11  1  0.85317348  0.19280677  0.95497124  1.0
  O  O12  1  0.64682652  0.30719323  0.45497124  1.0
  O  O13  1  0.64682652  0.69280677  0.95497124  1.0
  O  O14  1  0.14682652  0.80719323  0.04502876  1.0
  O  O15  1  0.14682652  0.19280677  0.54502876  1.0
  O  O16  1  0.24464193  0.46482076  0.41387517  1.0
  O  O17  1  0.24464193  0.53517924  0.91387517  1.0
  O  O18  1  0.74464193  0.96482076  0.08612483  1.0
  O  O19  1  0.74464193  0.03517924  0.58612483  1.0
  O  O20  1  0.75535807  0.46482076  0.08612483  1.0
  O  O21  1  0.75535807  0.53517924  0.58612483  1.0
  O  O22  1  0.25535807  0.96482076  0.41387517  1.0
  O  O23  1  0.25535807  0.03517924  0.91387517  1.0
