# generated using pymatgen
data_SnSO4
_symmetry_space_group_name_H-M   'P 1'
_cell_length_a   9.60495615
_cell_length_b   7.90890392
_cell_length_c   5.20259379
_cell_angle_alpha   89.98970989
_cell_angle_beta   88.93947043
_cell_angle_gamma   90.00981019
_symmetry_Int_Tables_number   1
_chemical_formula_structural   SnSO4
_chemical_formula_sum   'Sn4 S4 O16'
_cell_volume   395.14563561
_cell_formula_units_Z   4
loop_
 _symmetry_equiv_pos_site_id
 _symmetry_equiv_pos_as_xyz
  1  'x, y, z'
loop_
 _atom_site_type_symbol
 _atom_site_label
 _atom_site_symmetry_multiplicity
 _atom_site_fract_x
 _atom_site_fract_y
 _atom_site_fract_z
 _atom_site_occupancy
  Sn  Sn0  1  -0.67288782  -0.23634677  -0.82594314  1.0
  Sn  Sn1  1  -0.32711218  -0.76365323  -0.17405686  1.0
  Sn  Sn2  1  -0.82707386  -0.73634639  -0.17331794  1.0
  Sn  Sn3  1  -0.17292614  -0.26365361  -0.82668206  1.0
  S  S4  1  -0.60394126  -0.80835480  -0.72202847  1.0
  S  S5  1  -0.39605874  -0.19164520  -0.27797153  1.0
  S  S6  1  -0.89599258  -0.30847389  -0.27755578  1.0
  S  S7  1  -0.10400742  -0.69152611  -0.72244422  1.0
  O  O8  1  -0.15128134  -0.82696008  -0.90662870  1.0
  O  O9  1  -0.84871866  -0.17303992  -0.09337130  1.0
  O  O10  1  -0.65141989  -0.67268975  -0.90570369  1.0
  O  O11  1  -0.34858011  -0.32731025  -0.09429631  1.0
  O  O12  1  -0.45685461  -0.85522735  -0.78090745  1.0
  O  O13  1  -0.54314539  -0.14477265  -0.21909255  1.0
  O  O14  1  -0.95690848  -0.64438537  -0.78097700  1.0
  O  O15  1  -0.04309152  -0.35561463  -0.21902300  1.0
  O  O16  1  -0.70065181  -0.95740482  -0.76096230  1.0
  O  O17  1  -0.29934819  -0.04259518  -0.23903770  1.0
  O  O18  1  -0.61658477  -0.74714566  -0.45275686  1.0
  O  O19  1  -0.38341523  -0.25285434  -0.54724314  1.0
  O  O20  1  -0.88326175  -0.24676242  -0.54657522  1.0
  O  O21  1  -0.11673825  -0.75323758  -0.45342478  1.0
  O  O22  1  -0.79921527  -0.45747367  -0.23909474  1.0
  O  O23  1  -0.20078473  -0.54252633  -0.76090526  1.0
