# generated using pymatgen
data_FePH4(NO2)2
_symmetry_space_group_name_H-M   'P 1'
_cell_length_a   6.49914098
_cell_length_b   7.81821751
_cell_length_c   8.77346168
_cell_angle_alpha   90.00000000
_cell_angle_beta   90.00000000
_cell_angle_gamma   90.00000000
_symmetry_Int_Tables_number   1
_chemical_formula_structural   FePH4(NO2)2
_chemical_formula_sum   'Fe4 P4 H16 N8 O16'
_cell_volume   445.79448316
_cell_formula_units_Z   4
loop_
 _symmetry_equiv_pos_site_id
 _symmetry_equiv_pos_as_xyz
  1  'x, y, z'
loop_
 _atom_site_type_symbol
 _atom_site_label
 _atom_site_symmetry_multiplicity
 _atom_site_fract_x
 _atom_site_fract_y
 _atom_site_fract_z
 _atom_site_occupancy
  Fe  Fe0  1  0.50000000  0.50000000  0.00000000  1.0
  Fe  Fe1  1  0.50000000  0.00000000  0.50000000  1.0
  Fe  Fe2  1  0.00000000  0.00000000  0.00000000  1.0
  Fe  Fe3  1  0.00000000  0.50000000  0.50000000  1.0
  P  P4  1  0.25000000  0.25000000  0.24121623  1.0
  P  P5  1  0.25000000  0.25000000  0.74121623  1.0
  P  P6  1  0.75000000  0.75000000  0.75878377  1.0
  P  P7  1  0.75000000  0.75000000  0.25878377  1.0
  H  H8  1  0.38303800  0.86204677  -0.00158292  1.0
  H  H9  1  0.38303800  0.63795323  0.49841708  1.0
  H  H10  1  0.88303800  0.36204677  1.00158292  1.0
  H  H11  1  0.88303800  0.13795323  0.50158292  1.0
  H  H12  1  0.61696200  0.36204677  0.50158292  1.0
  H  H13  1  0.61696200  0.13795323  1.00158292  1.0
  H  H14  1  0.11696200  0.86204677  0.49841708  1.0
  H  H15  1  0.11696200  0.63795323  -0.00158292  1.0
  H  H16  1  0.31944221  0.87752504  0.18126043  1.0
  H  H17  1  0.31944221  0.62247496  0.68126043  1.0
  H  H18  1  0.81944221  0.37752504  0.81873957  1.0
  H  H19  1  0.81944221  0.12247496  0.31873957  1.0
  H  H20  1  0.68055779  0.37752504  0.31873957  1.0
  H  H21  1  0.68055779  0.12247496  0.81873957  1.0
  H  H22  1  0.18055779  0.87752504  0.68126043  1.0
  H  H23  1  0.18055779  0.62247496  0.18126043  1.0
  N  N24  1  0.26602962  0.84157246  0.07534274  1.0
  N  N25  1  0.26602962  0.65842754  0.57534274  1.0
  N  N26  1  0.76602962  0.34157246  0.92465726  1.0
  N  N27  1  0.76602962  0.15842754  0.42465726  1.0
  N  N28  1  0.73397038  0.34157246  0.42465726  1.0
  N  N29  1  0.73397038  0.15842754  0.92465726  1.0
  N  N30  1  0.23397038  0.84157246  0.57534274  1.0
  N  N31  1  0.23397038  0.65842754  0.07534274  1.0
  O  O32  1  0.43689430  0.30363315  0.14020614  1.0
  O  O33  1  0.43689430  0.19636685  0.64020614  1.0
  O  O34  1  0.93689430  0.80363315  0.85979386  1.0
  O  O35  1  0.93689430  0.69636685  0.35979386  1.0
  O  O36  1  0.56310570  0.80363315  0.35979386  1.0
  O  O37  1  0.56310570  0.69636685  0.85979386  1.0
  O  O38  1  0.06310570  0.30363315  0.64020614  1.0
  O  O39  1  0.06310570  0.19636685  0.14020614  1.0
  O  O40  1  0.18504044  0.40617585  0.33950718  1.0
  O  O41  1  0.18504044  0.09382415  0.83950718  1.0
  O  O42  1  0.68504044  0.90617585  0.66049282  1.0
  O  O43  1  0.68504044  0.59382415  0.16049282  1.0
  O  O44  1  0.81495956  0.90617585  0.16049282  1.0
  O  O45  1  0.81495956  0.59382415  0.66049282  1.0
  O  O46  1  0.31495956  0.40617585  0.83950718  1.0
  O  O47  1  0.31495956  0.09382415  0.33950718  1.0
