# generated using pymatgen
data_H3CSe
_symmetry_space_group_name_H-M   'P 1'
_cell_length_a   11.36980249
_cell_length_b   10.69013848
_cell_length_c   15.08645849
_cell_angle_alpha   48.76555968
_cell_angle_beta   44.99658691
_cell_angle_gamma   86.23785341
_symmetry_Int_Tables_number   1
_chemical_formula_structural   H3CSe
_chemical_formula_sum   'H24 C8 Se8'
_cell_volume   641.35551253
_cell_formula_units_Z   8
loop_
 _symmetry_equiv_pos_site_id
 _symmetry_equiv_pos_as_xyz
  1  'x, y, z'
loop_
 _atom_site_type_symbol
 _atom_site_label
 _atom_site_symmetry_multiplicity
 _atom_site_fract_x
 _atom_site_fract_y
 _atom_site_fract_z
 _atom_site_occupancy
  H  H0  1  -0.28645136  0.51953326  1.00499728  1.0
  H  H1  1  0.51953326  -0.28645136  0.76192083  1.0
  H  H2  1  0.24500272  0.48807917  0.53645136  1.0
  H  H3  1  0.48807917  0.24500272  0.73046674  1.0
  H  H4  1  0.40244327  0.30588522  0.31942355  1.0
  H  H5  1  0.30588522  0.40244327  0.97224796  1.0
  H  H6  1  -0.06942355  0.27775204  0.84755673  1.0
  H  H7  1  0.27775204  -0.06942355  0.94411478  1.0
  H  H8  1  0.50438994  0.52503719  0.07858743  1.0
  H  H9  1  0.52503719  0.50438994  0.89198544  1.0
  H  H10  1  0.17141257  0.35801456  0.74561006  1.0
  H  H11  1  0.35801456  0.17141257  0.72496281  1.0
  H  H12  1  1.10483804  0.72033403  -0.17543895  1.0
  H  H13  1  0.72033403  1.10483804  0.35026687  1.0
  H  H14  1  0.42543895  0.89973313  0.14516196  1.0
  H  H15  1  0.89973313  0.42543895  0.52966597  1.0
  H  H16  1  0.27044510  0.00965685  0.65855571  1.0
  H  H17  1  0.00965685  0.27044510  1.06134235  1.0
  H  H18  1  0.59144429  1.18865765  -0.02044510  1.0
  H  H19  1  1.18865765  0.59144429  0.24034315  1.0
  H  H20  1  1.19061367  0.76099907  -0.12566212  1.0
  H  H21  1  0.76099907  1.19061367  0.17404938  1.0
  H  H22  1  0.37566212  0.07595062  1.05938633  1.0
  H  H23  1  0.07595062  0.37566212  0.48900093  1.0
  C  C24  1  0.56513239  0.49413666  0.11691553  1.0
  C  C25  1  0.49413666  0.56513239  0.82381543  1.0
  C  C26  1  0.13308447  0.42618457  0.68486761  1.0
  C  C27  1  0.42618457  0.13308447  0.75586334  1.0
  C  C28  1  1.13112247  0.80467661  -0.16565146  1.0
  C  C29  1  0.80467661  1.13112247  0.22985238  1.0
  C  C30  1  0.41565146  1.02014762  0.11887753  1.0
  C  C31  1  1.02014762  0.41565146  0.44532339  1.0
  Se  Se32  1  0.70257939  0.75468671  0.01035556  1.0
  Se  Se33  1  0.75468671  0.70257939  0.53237835  1.0
  Se  Se34  1  0.23964444  0.71762165  0.54742061  1.0
  Se  Se35  1  0.71762165  0.23964444  0.49531329  1.0
  Se  Se36  1  0.80631165  0.65182985  0.12056000  1.0
  Se  Se37  1  0.65182985  0.80631165  0.42129849  1.0
  Se  Se38  1  0.12944000  0.82870151  0.44368835  1.0
  Se  Se39  1  0.82870151  0.12944000  0.59817015  1.0
