# generated using pymatgen
data_LaSiO3F
_symmetry_space_group_name_H-M   'P 1'
_cell_length_a   7.14444804
_cell_length_b   7.14444804
_cell_length_c   10.98907068
_cell_angle_alpha   90.00000000
_cell_angle_beta   90.00000000
_cell_angle_gamma   120.00000000
_symmetry_Int_Tables_number   1
_chemical_formula_structural   LaSiO3F
_chemical_formula_sum   'La6 Si6 O18 F6'
_cell_volume   485.76806777
_cell_formula_units_Z   6
loop_
 _symmetry_equiv_pos_site_id
 _symmetry_equiv_pos_as_xyz
  1  'x, y, z'
loop_
 _atom_site_type_symbol
 _atom_site_label
 _atom_site_symmetry_multiplicity
 _atom_site_fract_x
 _atom_site_fract_y
 _atom_site_fract_z
 _atom_site_occupancy
  La  La0  1  0.64264356  0.64264356  0.50000000  1.0
  La  La1  1  0.64264356  0.64264356  0.00000000  1.0
  La  La2  1  -0.00000000  0.35735644  0.50000000  1.0
  La  La3  1  -0.00000000  0.35735644  0.00000000  1.0
  La  La4  1  0.35735644  0.00000000  0.50000000  1.0
  La  La5  1  0.35735644  0.00000000  0.00000000  1.0
  Si  Si6  1  0.95156051  0.72790547  0.25000000  1.0
  Si  Si7  1  0.72790547  0.95156051  0.75000000  1.0
  Si  Si8  1  0.77634497  0.04843949  0.25000000  1.0
  Si  Si9  1  0.27209453  0.22365503  0.25000000  1.0
  Si  Si10  1  0.04843949  0.77634497  0.75000000  1.0
  Si  Si11  1  0.22365503  0.27209453  0.75000000  1.0
  O  O12  1  0.92030455  0.60325315  0.37693798  1.0
  O  O13  1  0.92030455  0.60325315  0.12306202  1.0
  O  O14  1  0.60325315  0.92030455  0.87693798  1.0
  O  O15  1  0.60325315  0.92030455  0.62306202  1.0
  O  O16  1  0.68294861  0.07969545  0.37693798  1.0
  O  O17  1  0.68294861  0.07969545  0.12306202  1.0
  O  O18  1  0.39674685  0.31705139  0.37693798  1.0
  O  O19  1  0.39674685  0.31705139  0.12306202  1.0
  O  O20  1  0.07969545  0.68294861  0.87693798  1.0
  O  O21  1  0.07969545  0.68294861  0.62306202  1.0
  O  O22  1  0.31705139  0.39674685  0.87693798  1.0
  O  O23  1  0.31705139  0.39674685  0.62306202  1.0
  O  O24  1  0.19369112  0.95696359  0.25000000  1.0
  O  O25  1  0.95696359  0.19369112  0.75000000  1.0
  O  O26  1  0.76327247  0.80630888  0.25000000  1.0
  O  O27  1  0.04303641  0.23672753  0.25000000  1.0
  O  O28  1  0.80630888  0.76327247  0.75000000  1.0
  O  O29  1  0.23672753  0.04303641  0.75000000  1.0
  F  F30  1  0.33333333  0.66666667  0.42573346  1.0
  F  F31  1  0.33333333  0.66666667  0.07426654  1.0
  F  F32  1  0.66666667  0.33333333  0.92573346  1.0
  F  F33  1  0.66666667  0.33333333  0.57426654  1.0
  F  F34  1  0.00000000  0.00000000  0.50000000  1.0
  F  F35  1  0.00000000  0.00000000  0.00000000  1.0
