# generated using pymatgen
data_SiO2
_symmetry_space_group_name_H-M   'P 1'
_cell_length_a   8.22698601
_cell_length_b   10.44794508
_cell_length_c   8.22692098
_cell_angle_alpha   89.99835304
_cell_angle_beta   120.00072286
_cell_angle_gamma   90.00189048
_symmetry_Int_Tables_number   1
_chemical_formula_structural   SiO2
_chemical_formula_sum   'Si18 O36'
_cell_volume   612.40176576
_cell_formula_units_Z   18
loop_
 _symmetry_equiv_pos_site_id
 _symmetry_equiv_pos_as_xyz
  1  'x, y, z'
loop_
 _atom_site_type_symbol
 _atom_site_label
 _atom_site_symmetry_multiplicity
 _atom_site_fract_x
 _atom_site_fract_y
 _atom_site_fract_z
 _atom_site_occupancy
  Si  Si0  1  -0.59907149  -0.38116074  -0.62853101  1.0
  Si  Si1  1  -0.93241670  -0.04783708  -0.29518386  1.0
  Si  Si2  1  -0.26572997  -0.71449512  -0.96186076  1.0
  Si  Si3  1  -0.98509555  -0.38117445  -0.38038995  1.0
  Si  Si4  1  -0.31841671  -0.04783815  -0.04704007  1.0
  Si  Si5  1  -0.65173437  -0.71450116  -0.71370268  1.0
  Si  Si6  1  -0.35095341  -0.38117037  0.00556390  1.0
  Si  Si7  1  -0.68428354  -0.04785196  -0.66108709  1.0
  Si  Si8  1  -1.01760061  -0.71451271  -0.32775120  1.0
  Si  Si9  1  -0.31843507  -0.54785461  -0.29524846  1.0
  Si  Si10  1  -0.65177418  -0.21451321  -0.96189473  1.0
  Si  Si11  1  -0.98510596  -0.88119847  -0.62856929  1.0
  Si  Si12  1  -0.93238625  -0.54785182  -0.66101330  1.0
  Si  Si13  1  -0.26573707  -0.21451984  -0.32768203  1.0
  Si  Si14  1  -0.59906459  -0.88116476  0.00564603  1.0
  Si  Si15  1  -0.68427231  -0.54784701  -0.04707699  1.0
  Si  Si16  1  -0.01760499  -0.21452872  -0.71374248  1.0
  Si  Si17  1  -0.35094117  -0.88118990  -0.38040992  1.0
  O  O18  1  -0.67957502  -0.59066729  -0.85171581  1.0
  O  O19  1  -1.01292599  -0.25733286  -0.51838352  1.0
  O  O20  1  -0.34625069  -0.92400519  -0.18504890  1.0
  O  O21  1  -0.12774697  -0.59066343  -0.29990912  1.0
  O  O22  1  -0.46112154  -0.25733340  0.03338849  1.0
  O  O23  1  -0.79444100  -0.92400935  -0.63326879  1.0
  O  O24  1  -0.12776935  -0.59064355  -0.85168578  1.0
  O  O25  1  -0.46111549  -0.25730529  -0.51836384  1.0
  O  O26  1  -0.79444993  -0.92398305  -0.18501290  1.0
  O  O27  1  -0.34626589  -0.42398996  -0.18511195  1.0
  O  O28  1  -0.67962396  -0.09064660  -0.85178371  1.0
  O  O29  1  -1.01291238  -0.75732311  -0.51843434  1.0
  O  O30  1  -0.79441814  -0.42399157  -0.63319611  1.0
  O  O31  1  -0.12777966  -0.09065656  -0.29986873  1.0
  O  O32  1  -0.46109293  -0.75730674  -0.96654286  1.0
  O  O33  1  -0.79445114  -0.42397719  -0.18499241  1.0
  O  O34  1  -0.12776606  -0.09065468  -0.85165243  1.0
  O  O35  1  -0.46108664  -0.75730275  -0.51830682  1.0
  O  O36  1  -0.12798953  -0.83806535  -0.84836450  1.0
  O  O37  1  -0.46131395  -0.50472037  -0.51504046  1.0
  O  O38  1  -0.79466841  -0.17139980  -0.18168754  1.0
  O  O39  1  -0.67590313  -0.83806052  -0.85141797  1.0
  O  O40  1  -1.00925032  -0.50473999  -0.51809712  1.0
  O  O41  1  -0.34258765  -0.17140497  -0.18475758  1.0
  O  O42  1  -0.13116604  -0.83807128  -0.30357860  1.0
  O  O43  1  -0.46450384  -0.50472406  -0.97024758  1.0
  O  O44  1  -0.79782529  -0.17140898  -0.63687925  1.0
  O  O45  1  -0.34258364  -0.67139282  -0.18164331  1.0
  O  O46  1  -0.67595134  -0.33804610  -0.84830707  1.0
  O  O47  1  -1.00928155  -0.00472956  -0.51496718  1.0
  O  O48  1  -0.79780719  -0.67139255  -0.18484619  1.0
  O  O49  1  -0.13116641  -0.33806735  -0.85150470  1.0
  O  O50  1  -0.46450201  -0.00471612  -0.51820372  1.0
  O  O51  1  -0.79464432  -0.67139212  -0.63683691  1.0
  O  O52  1  -0.12799903  -0.33805970  -0.30351633  1.0
  O  O53  1  -0.46130963  -0.00470575  -0.97016055  1.0
