# generated using pymatgen
data_Li2BeSiO4
_symmetry_space_group_name_H-M   'P 1'
_cell_length_a   4.74693954
_cell_length_b   4.98716198
_cell_length_c   7.75706751
_cell_angle_alpha   90.00000000
_cell_angle_beta   127.72306771
_cell_angle_gamma   90.00000000
_symmetry_Int_Tables_number   1
_chemical_formula_structural   Li2BeSiO4
_chemical_formula_sum   'Li4 Be2 Si2 O8'
_cell_volume   145.25421546
_cell_formula_units_Z   2
loop_
 _symmetry_equiv_pos_site_id
 _symmetry_equiv_pos_as_xyz
  1  'x, y, z'
loop_
 _atom_site_type_symbol
 _atom_site_label
 _atom_site_symmetry_multiplicity
 _atom_site_fract_x
 _atom_site_fract_y
 _atom_site_fract_z
 _atom_site_occupancy
  Li  Li0  1  0.46595661  0.17413920  0.04446814  1.0
  Li  Li1  1  0.46595661  0.82586080  0.54446814  1.0
  Li  Li2  1  0.21391143  0.33589735  0.29239890  1.0
  Li  Li3  1  0.21391143  0.66410265  0.79239890  1.0
  Be  Be4  1  0.70466422  0.68002216  0.29335349  1.0
  Be  Be5  1  0.70466422  0.31997784  0.79335349  1.0
  Si  Si6  1  0.95343413  0.82011617  0.04223320  1.0
  Si  Si7  1  0.95343413  0.17988383  0.54223320  1.0
  O  O8  1  0.01272226  0.86190900  0.51132411  1.0
  O  O9  1  0.01272226  0.13809100  0.01132411  1.0
  O  O10  1  0.82804078  0.35898252  0.32625883  1.0
  O  O11  1  0.82804078  0.64101748  0.82625883  1.0
  O  O12  1  0.63909799  0.79970366  0.07316635  1.0
  O  O13  1  0.63909799  0.20029634  0.57316635  1.0
  O  O14  1  0.32717257  0.69985650  0.26179698  1.0
  O  O15  1  0.32717257  0.30014350  0.76179698  1.0
