# generated using pymatgen
data_Cu4Ag(AsO4)3
_symmetry_space_group_name_H-M   'P 1'
_cell_length_a   8.80388917
_cell_length_b   8.80388917
_cell_length_c   7.65695875
_cell_angle_alpha   70.12362583
_cell_angle_beta   109.87637417
_cell_angle_gamma   88.86972450
_symmetry_Int_Tables_number   1
_chemical_formula_structural   Cu4Ag(AsO4)3
_chemical_formula_sum   'Cu8 Ag2 As6 O24'
_cell_volume   518.69588528
_cell_formula_units_Z   2
loop_
 _symmetry_equiv_pos_site_id
 _symmetry_equiv_pos_as_xyz
  1  'x, y, z'
loop_
 _atom_site_type_symbol
 _atom_site_label
 _atom_site_symmetry_multiplicity
 _atom_site_fract_x
 _atom_site_fract_y
 _atom_site_fract_z
 _atom_site_occupancy
  As  As0  1  0.39212899  -0.15319747  0.88251844  1.0
  As  As1  1  1.15319747  0.60787101  0.38251844  1.0
  As  As2  1  0.84680253  -0.60787101  0.61748156  1.0
  As  As3  1  1.60787101  0.15319747  0.11748156  1.0
  As  As4  1  0.77266233  -0.22733767  0.75000000  1.0
  As  As5  1  1.22733767  0.22733767  0.25000000  1.0
  Cu  Cu6  1  1.56570957  0.12069178  0.64136537  1.0
  Cu  Cu7  1  0.87930822  -0.56570957  0.14136537  1.0
  Cu  Cu8  1  1.12069178  0.56570957  0.85863463  1.0
  Cu  Cu9  1  0.43429043  -0.12069178  0.35863463  1.0
  Cu  Cu10  1  1.23581693  0.23581693  0.75000000  1.0
  Cu  Cu11  1  0.76418307  -0.23581693  0.25000000  1.0
  Cu  Cu12  1  0.99320325  -0.00679675  0.75000000  1.0
  Cu  Cu13  1  1.00679675  0.00679675  0.25000000  1.0
  Ag  Ag14  1  0.51048340  -0.48951660  0.75000000  1.0
  Ag  Ag15  1  1.48951660  0.48951660  0.25000000  1.0
  O  O16  1  0.47443356  -0.08445272  0.69666700  1.0
  O  O17  1  1.08445272  0.52556644  0.19666700  1.0
  O  O18  1  0.91554728  -0.52556644  0.80333300  1.0
  O  O19  1  1.52556644  0.08445272  0.30333300  1.0
  O  O20  1  1.66025306  0.32715015  0.61440495  1.0
  O  O21  1  0.67284985  -0.66025306  0.11440495  1.0
  O  O22  1  1.32715015  0.66025306  0.88559505  1.0
  O  O23  1  0.33974694  -0.32715015  0.38559505  1.0
  O  O24  1  1.47644052  0.18762929  0.87321137  1.0
  O  O25  1  0.81237071  -0.47644052  0.37321137  1.0
  O  O26  1  1.18762929  0.47644052  0.62678863  1.0
  O  O27  1  0.52355948  -0.18762929  0.12678863  1.0
  O  O28  1  0.22567111  -0.00306031  0.82390744  1.0
  O  O29  1  1.00306031  0.77432889  0.32390744  1.0
  O  O30  1  0.99693969  -0.77432889  0.67609256  1.0
  O  O31  1  1.77432889  0.00306031  0.17609256  1.0
  O  O32  1  0.65272456  -0.25476747  0.53467992  1.0
  O  O33  1  1.25476747  0.34727544  0.03467992  1.0
  O  O34  1  0.74523253  -0.34727544  0.96532008  1.0
  O  O35  1  1.34727544  0.25476747  0.46532008  1.0
  O  O36  1  0.77371382  -0.01847321  0.73823502  1.0
  O  O37  1  1.01847321  0.22628618  0.23823502  1.0
  O  O38  1  0.98152679  -0.22628618  0.76176498  1.0
  O  O39  1  1.22628618  0.01847321  0.26176498  1.0
