# generated using pymatgen
data_Y2HfS5
_symmetry_space_group_name_H-M   'P 1'
_cell_length_a   11.55341197
_cell_length_b   7.73973406
_cell_length_c   7.25805380
_cell_angle_alpha   90.00000000
_cell_angle_beta   90.00000000
_cell_angle_gamma   90.00000000
_symmetry_Int_Tables_number   1
_chemical_formula_structural   Y2HfS5
_chemical_formula_sum   'Y8 Hf4 S20'
_cell_volume   649.01761002
_cell_formula_units_Z   4
loop_
 _symmetry_equiv_pos_site_id
 _symmetry_equiv_pos_as_xyz
  1  'x, y, z'
loop_
 _atom_site_type_symbol
 _atom_site_label
 _atom_site_symmetry_multiplicity
 _atom_site_fract_x
 _atom_site_fract_y
 _atom_site_fract_z
 _atom_site_occupancy
  Y  Y0  1  0.67896008  0.49719104  0.02131920  1.0
  Y  Y1  1  0.67896008  0.00280896  0.02131920  1.0
  Y  Y2  1  0.17896008  0.49719104  0.47868080  1.0
  Y  Y3  1  0.17896008  0.00280896  0.47868080  1.0
  Y  Y4  1  0.32103992  0.99719104  0.97868080  1.0
  Y  Y5  1  0.32103992  0.50280896  0.97868080  1.0
  Y  Y6  1  0.82103992  0.99719104  0.52131920  1.0
  Y  Y7  1  0.82103992  0.50280896  0.52131920  1.0
  Hf  Hf8  1  0.99419227  0.25000000  0.07597548  1.0
  Hf  Hf9  1  0.49419227  0.25000000  0.42402452  1.0
  Hf  Hf10  1  0.00580773  0.75000000  0.92402452  1.0
  Hf  Hf11  1  0.50580773  0.75000000  0.57597548  1.0
  S  S12  1  0.90610882  0.96369697  0.16011428  1.0
  S  S13  1  0.90610882  0.53630303  0.16011428  1.0
  S  S14  1  0.40610882  0.96369697  0.33988572  1.0
  S  S15  1  0.40610882  0.53630303  0.33988572  1.0
  S  S16  1  0.09389118  0.46369697  0.83988572  1.0
  S  S17  1  0.09389118  0.03630303  0.83988572  1.0
  S  S18  1  0.59389118  0.46369697  0.66011428  1.0
  S  S19  1  0.59389118  0.03630303  0.66011428  1.0
  S  S20  1  0.99647467  0.25000000  0.44683141  1.0
  S  S21  1  0.49647467  0.25000000  0.05316859  1.0
  S  S22  1  0.00352533  0.75000000  0.55316859  1.0
  S  S23  1  0.50352533  0.75000000  0.94683141  1.0
  S  S24  1  0.81920742  0.25000000  0.83195601  1.0
  S  S25  1  0.31920742  0.25000000  0.66804399  1.0
  S  S26  1  0.18079258  0.75000000  0.16804399  1.0
  S  S27  1  0.68079258  0.75000000  0.33195601  1.0
  S  S28  1  0.70705959  0.25000000  0.31004997  1.0
  S  S29  1  0.20705959  0.25000000  0.18995003  1.0
  S  S30  1  0.29294041  0.75000000  0.68995003  1.0
  S  S31  1  0.79294041  0.75000000  0.81004997  1.0
