# generated using pymatgen
data_MnPO4
_symmetry_space_group_name_H-M   'P 1'
_cell_length_a   9.89692254
_cell_length_b   6.04188816
_cell_length_c   4.95977861
_cell_angle_alpha   90.00000000
_cell_angle_beta   90.00000000
_cell_angle_gamma   90.00000000
_symmetry_Int_Tables_number   1
_chemical_formula_structural   MnPO4
_chemical_formula_sum   'Mn4 P4 O16'
_cell_volume   296.57541295
_cell_formula_units_Z   4
loop_
 _symmetry_equiv_pos_site_id
 _symmetry_equiv_pos_as_xyz
  1  'x, y, z'
loop_
 _atom_site_type_symbol
 _atom_site_label
 _atom_site_symmetry_multiplicity
 _atom_site_fract_x
 _atom_site_fract_y
 _atom_site_fract_z
 _atom_site_occupancy
  Mn  Mn0  1  0.70619857  0.25000000  0.58612854  1.0
  Mn  Mn1  1  0.20619857  0.25000000  0.91387146  1.0
  Mn  Mn2  1  0.29380143  0.75000000  0.41387146  1.0
  Mn  Mn3  1  0.79380143  0.75000000  0.08612854  1.0
  P  P4  1  0.89594055  0.25000000  0.08154318  1.0
  P  P5  1  0.39594055  0.25000000  0.41845682  1.0
  P  P6  1  0.10405945  0.75000000  0.91845682  1.0
  P  P7  1  0.60405945  0.75000000  0.58154318  1.0
  O  O8  1  0.82759324  0.45115226  0.22632167  1.0
  O  O9  1  0.82759324  0.04884774  0.22632167  1.0
  O  O10  1  0.32759324  0.45115226  0.27367833  1.0
  O  O11  1  0.32759324  0.04884774  0.27367833  1.0
  O  O12  1  0.17240676  0.95115226  0.77367833  1.0
  O  O13  1  0.17240676  0.54884774  0.77367833  1.0
  O  O14  1  0.67240676  0.95115226  0.72632167  1.0
  O  O15  1  0.67240676  0.54884774  0.72632167  1.0
  O  O16  1  0.87068244  0.25000000  0.77336606  1.0
  O  O17  1  0.37068244  0.25000000  0.72663394  1.0
  O  O18  1  0.12931756  0.75000000  0.22663394  1.0
  O  O19  1  0.62931756  0.75000000  0.27336606  1.0
  O  O20  1  0.55061268  0.25000000  0.37082536  1.0
  O  O21  1  0.05061268  0.25000000  0.12917464  1.0
  O  O22  1  0.44938732  0.75000000  0.62917464  1.0
  O  O23  1  0.94938732  0.75000000  0.87082536  1.0
