# generated using pymatgen
data_B6Pb3O11F2
_symmetry_space_group_name_H-M   'P 1'
_cell_length_a   6.49833273
_cell_length_b   8.41416436
_cell_length_c   9.68425279
_cell_angle_alpha   90.00000000
_cell_angle_beta   101.48964672
_cell_angle_gamma   90.00000000
_symmetry_Int_Tables_number   1
_chemical_formula_structural   B6Pb3O11F2
_chemical_formula_sum   'B12 Pb6 O22 F4'
_cell_volume   518.90483672
_cell_formula_units_Z   2
loop_
 _symmetry_equiv_pos_site_id
 _symmetry_equiv_pos_as_xyz
  1  'x, y, z'
loop_
 _atom_site_type_symbol
 _atom_site_label
 _atom_site_symmetry_multiplicity
 _atom_site_fract_x
 _atom_site_fract_y
 _atom_site_fract_z
 _atom_site_occupancy
  B  B0  1  0.22373062  0.62161870  0.79271907  1.0
  B  B1  1  0.77626938  0.12161870  0.20728093  1.0
  B  B2  1  0.42728810  0.87381179  0.86282629  1.0
  B  B3  1  0.57271190  0.37381179  0.13717371  1.0
  B  B4  1  0.49545203  0.56446189  0.55131608  1.0
  B  B5  1  0.50454797  0.06446189  0.44868392  1.0
  B  B6  1  0.59569656  0.59829082  0.93060916  1.0
  B  B7  1  0.40430344  0.09829082  0.06939084  1.0
  B  B8  1  0.59843034  0.84344281  0.63469295  1.0
  B  B9  1  0.40156966  0.34344281  0.36530705  1.0
  B  B10  1  0.82276458  0.60042528  0.73019363  1.0
  B  B11  1  0.17723542  0.10042528  0.26980637  1.0
  Pb  Pb12  1  0.52137867  0.72291173  0.22267199  1.0
  Pb  Pb13  1  0.47862133  0.22291173  0.77732801  1.0
  Pb  Pb14  1  0.95539340  0.38507541  0.47048637  1.0
  Pb  Pb15  1  0.04460660  0.88507541  0.52951363  1.0
  Pb  Pb16  1  0.96272172  0.89663703  0.95478855  1.0
  Pb  Pb17  1  0.03727828  0.39663703  0.04521145  1.0
  O  O18  1  0.95794016  0.04459685  0.27085341  1.0
  O  O19  1  0.04205984  0.54459685  0.72914659  1.0
  O  O20  1  0.22432547  0.78504251  0.80899040  1.0
  O  O21  1  0.77567453  0.28504251  0.19100960  1.0
  O  O22  1  0.36714725  0.02023404  0.92908114  1.0
  O  O23  1  0.63285275  0.52023404  0.07091886  1.0
  O  O24  1  0.40215873  0.53474859  0.83790164  1.0
  O  O25  1  0.59784127  0.03474859  0.16209836  1.0
  O  O26  1  0.44490612  0.72228033  0.56207441  1.0
  O  O27  1  0.55509388  0.22228033  0.43792559  1.0
  O  O28  1  0.50916602  0.93022517  0.74013958  1.0
  O  O29  1  0.49083398  0.43022517  0.25986042  1.0
  O  O30  1  0.57090671  0.77071620  0.95949600  1.0
  O  O31  1  0.42909329  0.27071620  0.04050400  1.0
  O  O32  1  0.64719053  0.96511014  0.53219582  1.0
  O  O33  1  0.35280947  0.46511014  0.46780418  1.0
  O  O34  1  0.68429872  0.50369524  0.62170477  1.0
  O  O35  1  0.31570128  0.00369524  0.37829523  1.0
  O  O36  1  0.78263569  0.56699802  0.87114906  1.0
  O  O37  1  0.21736431  0.06699802  0.12885094  1.0
  O  O38  1  0.80116114  0.77031232  0.69474508  1.0
  O  O39  1  0.19883886  0.27031232  0.30525492  1.0
  F  F40  1  0.83923354  0.18068375  0.90264363  1.0
  F  F41  1  0.16076646  0.68068375  0.09735637  1.0
  F  F42  1  0.87964324  0.66578136  0.38138253  1.0
  F  F43  1  0.12035676  0.16578136  0.61861747  1.0
