# generated using pymatgen
data_La2Ga5Ru3
_symmetry_space_group_name_H-M   'P 1'
_cell_length_a   11.47149244
_cell_length_b   11.47149244
_cell_length_c   5.78675314
_cell_angle_alpha   90.00000000
_cell_angle_beta   90.00000000
_cell_angle_gamma   90.00000000
_symmetry_Int_Tables_number   1
_chemical_formula_structural   La2Ga5Ru3
_chemical_formula_sum   'La8 Ga20 Ru12'
_cell_volume   761.50858273
_cell_formula_units_Z   4
loop_
 _symmetry_equiv_pos_site_id
 _symmetry_equiv_pos_as_xyz
  1  'x, y, z'
loop_
 _atom_site_type_symbol
 _atom_site_label
 _atom_site_symmetry_multiplicity
 _atom_site_fract_x
 _atom_site_fract_y
 _atom_site_fract_z
 _atom_site_occupancy
  La  La0  1  0.23516221  0.91970070  0.50000000  1.0
  La  La1  1  0.73516221  0.58029930  0.00000000  1.0
  La  La2  1  0.08029930  0.23516221  0.50000000  1.0
  La  La3  1  0.58029930  0.26483779  0.00000000  1.0
  La  La4  1  0.76483779  0.08029930  0.50000000  1.0
  La  La5  1  0.26483779  0.41970070  0.00000000  1.0
  La  La6  1  0.91970070  0.76483779  0.50000000  1.0
  La  La7  1  0.41970070  0.73516221  0.00000000  1.0
  Ga  Ga8  1  0.47836781  0.81545098  0.50000000  1.0
  Ga  Ga9  1  0.97836781  0.68454902  0.00000000  1.0
  Ga  Ga10  1  0.18454902  0.47836781  0.50000000  1.0
  Ga  Ga11  1  0.68454902  0.02163219  0.00000000  1.0
  Ga  Ga12  1  0.52163219  0.18454902  0.50000000  1.0
  Ga  Ga13  1  0.02163219  0.31545098  0.00000000  1.0
  Ga  Ga14  1  0.81545098  0.52163219  0.50000000  1.0
  Ga  Ga15  1  0.31545098  0.97836781  0.00000000  1.0
  Ga  Ga16  1  0.32649050  0.17350950  0.25000000  1.0
  Ga  Ga17  1  0.32649050  0.17350950  0.75000000  1.0
  Ga  Ga18  1  0.82649050  0.32649050  0.75000000  1.0
  Ga  Ga19  1  0.82649050  0.32649050  0.25000000  1.0
  Ga  Ga20  1  0.67350950  0.82649050  0.25000000  1.0
  Ga  Ga21  1  0.67350950  0.82649050  0.75000000  1.0
  Ga  Ga22  1  0.17350950  0.67350950  0.75000000  1.0
  Ga  Ga23  1  0.17350950  0.67350950  0.25000000  1.0
  Ga  Ga24  1  0.50000000  0.50000000  0.26624880  1.0
  Ga  Ga25  1  0.50000000  0.50000000  0.73375120  1.0
  Ga  Ga26  1  0.00000000  0.00000000  0.76624880  1.0
  Ga  Ga27  1  0.00000000  0.00000000  0.23375120  1.0
  Ru  Ru28  1  0.35493170  0.62706544  0.50000000  1.0
  Ru  Ru29  1  0.85493170  0.87293456  0.00000000  1.0
  Ru  Ru30  1  0.37293456  0.35493170  0.50000000  1.0
  Ru  Ru31  1  0.87293456  0.14506830  0.00000000  1.0
  Ru  Ru32  1  0.64506830  0.37293456  0.50000000  1.0
  Ru  Ru33  1  0.14506830  0.12706544  0.00000000  1.0
  Ru  Ru34  1  0.62706544  0.64506830  0.50000000  1.0
  Ru  Ru35  1  0.12706544  0.85493170  0.00000000  1.0
  Ru  Ru36  1  0.50000000  0.00000000  0.25000000  1.0
  Ru  Ru37  1  0.50000000  0.00000000  0.75000000  1.0
  Ru  Ru38  1  0.00000000  0.50000000  0.75000000  1.0
  Ru  Ru39  1  0.00000000  0.50000000  0.25000000  1.0
