# generated using pymatgen
data_La2(Al3Rh)3
_symmetry_space_group_name_H-M   'P 1'
_cell_length_a   7.66258531
_cell_length_b   7.66258531
_cell_length_c   9.68599859
_cell_angle_alpha   90.00000000
_cell_angle_beta   90.00000000
_cell_angle_gamma   60.87167475
_symmetry_Int_Tables_number   1
_chemical_formula_structural   La2(Al3Rh)3
_chemical_formula_sum   'La4 Al18 Rh6'
_cell_volume   496.79098935
_cell_formula_units_Z   2
loop_
 _symmetry_equiv_pos_site_id
 _symmetry_equiv_pos_as_xyz
  1  'x, y, z'
loop_
 _atom_site_type_symbol
 _atom_site_label
 _atom_site_symmetry_multiplicity
 _atom_site_fract_x
 _atom_site_fract_y
 _atom_site_fract_z
 _atom_site_occupancy
  La  La0  1  -0.00468075  1.32816320  0.25000000  1.0
  La  La1  1  0.32816320  0.99531925  0.75000000  1.0
  La  La2  1  -0.32816320  1.00468075  0.25000000  1.0
  La  La3  1  0.00468075  0.67183680  0.75000000  1.0
  Al  Al4  1  0.00441521  0.66393829  0.42660488  1.0
  Al  Al5  1  0.00441521  0.66393829  0.07339512  1.0
  Al  Al6  1  -0.33606171  1.00441521  0.92660488  1.0
  Al  Al7  1  -0.33606171  1.00441521  0.57339512  1.0
  Al  Al8  1  0.33606171  0.99558479  0.42660488  1.0
  Al  Al9  1  0.33606171  0.99558479  0.07339512  1.0
  Al  Al10  1  -0.00441521  1.33606171  0.92660488  1.0
  Al  Al11  1  -0.00441521  1.33606171  0.57339512  1.0
  Al  Al12  1  0.34023982  0.45382504  0.25000000  1.0
  Al  Al13  1  -0.54617496  1.34023982  0.75000000  1.0
  Al  Al14  1  0.54617496  0.65976018  0.25000000  1.0
  Al  Al15  1  -0.34023982  1.54617496  0.75000000  1.0
  Al  Al16  1  0.33470296  0.66529704  0.95821606  1.0
  Al  Al17  1  0.33470296  0.66529704  0.54178394  1.0
  Al  Al18  1  -0.33470296  1.33470296  0.45821606  1.0
  Al  Al19  1  -0.33470296  1.33470296  0.04178394  1.0
  Al  Al20  1  0.13355060  0.86644940  0.25000000  1.0
  Al  Al21  1  -0.13355060  1.13355060  0.75000000  1.0
  Rh  Rh22  1  0.67052886  0.67052886  0.50000000  1.0
  Rh  Rh23  1  0.67052886  0.67052886  0.00000000  1.0
  Rh  Rh24  1  0.32947114  0.32947114  0.50000000  1.0
  Rh  Rh25  1  0.32947114  0.32947114  0.00000000  1.0
  Rh  Rh26  1  0.00000000  0.00000000  0.50000000  1.0
  Rh  Rh27  1  0.00000000  0.00000000  0.00000000  1.0
