# generated using pymatgen
data_ZnS
_symmetry_space_group_name_H-M   'P 1'
_cell_length_a   3.85024681
_cell_length_b   3.85024681
_cell_length_c   31.46645996
_cell_angle_alpha   90.00000000
_cell_angle_beta   90.00000000
_cell_angle_gamma   120.00000000
_symmetry_Int_Tables_number   1
_chemical_formula_structural   ZnS
_chemical_formula_sum   'Zn10 S10'
_cell_volume   403.97608754
_cell_formula_units_Z   10
loop_
 _symmetry_equiv_pos_site_id
 _symmetry_equiv_pos_as_xyz
  1  'x, y, z'
loop_
 _atom_site_type_symbol
 _atom_site_label
 _atom_site_symmetry_multiplicity
 _atom_site_fract_x
 _atom_site_fract_y
 _atom_site_fract_z
 _atom_site_occupancy
  Zn  Zn0  1  0.00000000  0.00000000  0.92493555  1.0
  Zn  Zn1  1  0.66666667  0.33333333  0.02499083  1.0
  Zn  Zn2  1  0.66666667  0.33333333  0.42502754  1.0
  Zn  Zn3  1  0.66666667  0.33333333  0.72500907  1.0
  Zn  Zn4  1  0.33333333  0.66666667  0.22502618  1.0
  Zn  Zn5  1  0.33333333  0.66666667  0.52501378  1.0
  Zn  Zn6  1  0.33333333  0.66666667  0.82499134  1.0
  Zn  Zn7  1  -0.00000000  -0.00000000  0.12502037  1.0
  Zn  Zn8  1  0.00000000  0.00000000  0.32509502  1.0
  Zn  Zn9  1  0.00000000  0.00000000  0.62501202  1.0
  S  S10  1  0.66666667  0.33333333  0.10004991  1.0
  S  S11  1  0.66666667  0.33333333  0.49999688  1.0
  S  S12  1  0.66666667  0.33333333  0.79998064  1.0
  S  S13  1  0.33333333  0.66666667  0.30009457  1.0
  S  S14  1  0.33333333  0.66666667  0.59998982  1.0
  S  S15  1  0.33333333  0.66666667  0.89995055  1.0
  S  S16  1  -0.00000000  -0.00000000  -0.00012468  1.0
  S  S17  1  0.00000000  0.00000000  0.19992318  1.0
  S  S18  1  -0.00000000  -0.00000000  0.40002902  1.0
  S  S19  1  0.00000000  0.00000000  0.69998842  1.0
