# generated using pymatgen
data_Lu2B6Mo
_symmetry_space_group_name_H-M   'P 1'
_cell_length_a   9.21244603
_cell_length_b   11.56925648
_cell_length_c   3.52767779
_cell_angle_alpha   90.00000000
_cell_angle_beta   90.00000000
_cell_angle_gamma   90.00000000
_symmetry_Int_Tables_number   1
_chemical_formula_structural   Lu2B6Mo
_chemical_formula_sum   'Lu8 B24 Mo4'
_cell_volume   375.98395906
_cell_formula_units_Z   4
loop_
 _symmetry_equiv_pos_site_id
 _symmetry_equiv_pos_as_xyz
  1  'x, y, z'
loop_
 _atom_site_type_symbol
 _atom_site_label
 _atom_site_symmetry_multiplicity
 _atom_site_fract_x
 _atom_site_fract_y
 _atom_site_fract_z
 _atom_site_occupancy
  Lu  Lu0  1  0.17961676  0.91394836  0.50000000  1.0
  Lu  Lu1  1  0.67961676  0.58605164  0.50000000  1.0
  Lu  Lu2  1  0.82038324  0.08605164  0.50000000  1.0
  Lu  Lu3  1  0.32038324  0.41394836  0.50000000  1.0
  Lu  Lu4  1  0.05619314  0.62823231  0.50000000  1.0
  Lu  Lu5  1  0.55619314  0.87176769  0.50000000  1.0
  Lu  Lu6  1  0.94380686  0.37176769  0.50000000  1.0
  Lu  Lu7  1  0.44380686  0.12823231  0.50000000  1.0
  B  B8  1  0.44838561  0.56451036  -0.00000000  1.0
  B  B9  1  0.94838561  0.93548964  -0.00000000  1.0
  B  B10  1  0.55161439  0.43548964  -0.00000000  1.0
  B  B11  1  0.05161439  0.06451036  -0.00000000  1.0
  B  B12  1  0.40040680  0.97220134  0.00000000  1.0
  B  B13  1  0.90040680  0.52779866  0.00000000  1.0
  B  B14  1  0.59959320  0.02779866  0.00000000  1.0
  B  B15  1  0.09959320  0.47220134  0.00000000  1.0
  B  B16  1  0.36889760  0.81818141  0.00000000  1.0
  B  B17  1  0.86889760  0.68181859  0.00000000  1.0
  B  B18  1  0.63110240  0.18181859  0.00000000  1.0
  B  B19  1  0.13110240  0.31818141  0.00000000  1.0
  B  B20  1  0.24694030  0.57749737  0.00000000  1.0
  B  B21  1  0.74694030  0.92250263  0.00000000  1.0
  B  B22  1  0.75305970  0.42250263  0.00000000  1.0
  B  B23  1  0.25305970  0.07749737  0.00000000  1.0
  B  B24  1  0.20432024  0.73718084  0.00000000  1.0
  B  B25  1  0.70432024  0.76281916  -0.00000000  1.0
  B  B26  1  0.79567976  0.26281916  0.00000000  1.0
  B  B27  1  0.29567976  0.23718084  -0.00000000  1.0
  B  B28  1  0.02220412  0.78787233  0.00000000  1.0
  B  B29  1  0.52220412  0.71212767  0.00000000  1.0
  B  B30  1  0.97779588  0.21212767  0.00000000  1.0
  B  B31  1  0.47779588  0.28787233  0.00000000  1.0
  Mo  Mo32  1  0.36014044  0.67986930  0.50000000  1.0
  Mo  Mo33  1  0.86014044  0.82013070  0.50000000  1.0
  Mo  Mo34  1  0.63985956  0.32013070  0.50000000  1.0
  Mo  Mo35  1  0.13985956  0.17986930  0.50000000  1.0
