# generated using pymatgen
data_CaH4Se2O9
_symmetry_space_group_name_H-M   'P 1'
_cell_length_a   5.88397824
_cell_length_b   15.64981062
_cell_length_c   8.23503528
_cell_angle_alpha   90.00000000
_cell_angle_beta   92.55929488
_cell_angle_gamma   90.00000000
_symmetry_Int_Tables_number   1
_chemical_formula_structural   CaH4Se2O9
_chemical_formula_sum   'Ca4 H16 Se8 O36'
_cell_volume   757.55157161
_cell_formula_units_Z   4
loop_
 _symmetry_equiv_pos_site_id
 _symmetry_equiv_pos_as_xyz
  1  'x, y, z'
loop_
 _atom_site_type_symbol
 _atom_site_label
 _atom_site_symmetry_multiplicity
 _atom_site_fract_x
 _atom_site_fract_y
 _atom_site_fract_z
 _atom_site_occupancy
  Ca  Ca0  1  0.78176278  0.60207657  0.42558028  1.0
  Ca  Ca1  1  0.21823722  0.10207657  0.07441972  1.0
  Ca  Ca2  1  0.21823722  0.39792343  0.57441972  1.0
  Ca  Ca3  1  0.78176278  0.89792343  0.92558028  1.0
  H  H4  1  0.50372329  0.70133827  0.89713628  1.0
  H  H5  1  0.49627671  0.20133827  0.60286372  1.0
  H  H6  1  0.49627671  0.29866173  0.10286372  1.0
  H  H7  1  0.50372329  0.79866173  0.39713628  1.0
  H  H8  1  0.25792724  0.51452392  -0.03310770  1.0
  H  H9  1  0.74207276  0.01452392  0.53310770  1.0
  H  H10  1  0.74207276  0.48547608  1.03310770  1.0
  H  H11  1  0.25792724  0.98547608  0.46689230  1.0
  H  H12  1  0.85527108  0.79126128  0.31155659  1.0
  H  H13  1  0.14472892  0.29126128  0.18844341  1.0
  H  H14  1  0.14472892  0.20873872  0.68844341  1.0
  H  H15  1  0.85527108  0.70873872  0.81155659  1.0
  H  H16  1  0.85810840  0.79628909  0.50027086  1.0
  H  H17  1  0.14189160  0.29628909  -0.00027086  1.0
  H  H18  1  0.14189160  0.20371091  0.49972914  1.0
  H  H19  1  0.85810840  0.70371091  1.00027086  1.0
  Se  Se20  1  0.28587603  0.62913319  0.70763715  1.0
  Se  Se21  1  0.71412397  0.12913319  0.79236285  1.0
  Se  Se22  1  0.71412397  0.37086681  0.29236285  1.0
  Se  Se23  1  0.28587603  0.87086681  0.20763715  1.0
  Se  Se24  1  0.23565958  0.57587940  0.22394952  1.0
  Se  Se25  1  0.76434042  0.07587940  0.27605048  1.0
  Se  Se26  1  0.76434042  0.42412060  0.77605048  1.0
  Se  Se27  1  0.23565958  0.92412060  0.72394952  1.0
  O  O28  1  0.27762422  0.52674824  0.76105847  1.0
  O  O29  1  0.72237578  0.02674824  0.73894153  1.0
  O  O30  1  0.72237578  0.47325176  0.23894153  1.0
  O  O31  1  0.27762422  0.97325176  0.26105847  1.0
  O  O32  1  0.49676781  0.65273915  0.59235439  1.0
  O  O33  1  0.50323219  0.15273915  0.90764561  1.0
  O  O34  1  0.50323219  0.34726085  0.40764561  1.0
  O  O35  1  0.49676781  0.84726085  0.09235439  1.0
  O  O36  1  0.03178162  0.66276483  0.64149912  1.0
  O  O37  1  0.96821838  0.16276483  0.85850088  1.0
  O  O38  1  0.96821838  0.33723517  0.35850088  1.0
  O  O39  1  0.03178162  0.83723517  0.14149912  1.0
  O  O40  1  0.33504819  0.68496371  0.88837561  1.0
  O  O41  1  0.66495181  0.18496371  0.61162439  1.0
  O  O42  1  0.66495181  0.31503629  0.11162439  1.0
  O  O43  1  0.33504819  0.81503629  0.38837561  1.0
  O  O44  1  0.00621347  0.63547115  0.18864247  1.0
  O  O45  1  0.99378653  0.13547115  0.31135753  1.0
  O  O46  1  0.99378653  0.36452885  0.81135753  1.0
  O  O47  1  0.00621347  0.86452885  0.68864247  1.0
  O  O48  1  0.47564917  0.62913119  0.22612911  1.0
  O  O49  1  0.52435083  0.12913119  0.27387089  1.0
  O  O50  1  0.52435083  0.37086881  0.77387089  1.0
  O  O51  1  0.47564917  0.87086881  0.72612911  1.0
  O  O52  1  0.19400519  0.52437198  0.39671106  1.0
  O  O53  1  0.80599481  0.02437198  0.10328894  1.0
  O  O54  1  0.80599481  0.47562802  0.60328894  1.0
  O  O55  1  0.19400519  0.97562802  0.89671106  1.0
  O  O56  1  0.24062061  0.49292627  0.08167105  1.0
  O  O57  1  0.75937939  0.99292627  0.41832895  1.0
  O  O58  1  0.75937939  0.50707373  0.91832895  1.0
  O  O59  1  0.24062061  0.00707373  0.58167105  1.0
  O  O60  1  0.77567808  0.76978922  0.40655126  1.0
  O  O61  1  0.22432192  0.26978922  0.09344874  1.0
  O  O62  1  0.22432192  0.23021078  0.59344874  1.0
  O  O63  1  0.77567808  0.73021078  0.90655126  1.0
