# generated using pymatgen
data_Ag2S
_symmetry_space_group_name_H-M   'P 1'
_cell_length_a   4.37769806
_cell_length_b   6.94971838
_cell_length_c   7.34944939
_cell_angle_alpha   90.00000000
_cell_angle_beta   90.00000000
_cell_angle_gamma   90.00000000
_symmetry_Int_Tables_number   1
_chemical_formula_structural   Ag2S
_chemical_formula_sum   'Ag8 S4'
_cell_volume   223.59794834
_cell_formula_units_Z   4
loop_
 _symmetry_equiv_pos_site_id
 _symmetry_equiv_pos_as_xyz
  1  'x, y, z'
loop_
 _atom_site_type_symbol
 _atom_site_label
 _atom_site_symmetry_multiplicity
 _atom_site_fract_x
 _atom_site_fract_y
 _atom_site_fract_z
 _atom_site_occupancy
  Ag  Ag0  1  0.01105645  0.77391437  0.85753935  1.0
  Ag  Ag1  1  0.51105645  0.72608563  0.14246065  1.0
  Ag  Ag2  1  0.98894355  0.27391437  0.64246065  1.0
  Ag  Ag3  1  0.48894355  0.22608563  0.35753935  1.0
  Ag  Ag4  1  0.34979793  0.61145504  0.54449493  1.0
  Ag  Ag5  1  0.84979793  0.88854496  0.45550507  1.0
  Ag  Ag6  1  0.65020207  0.11145504  0.95550507  1.0
  Ag  Ag7  1  0.15020207  0.38854496  0.04449493  1.0
  S  S8  1  0.37725422  -0.00335131  0.65525590  1.0
  S  S9  1  0.87725422  0.50335131  0.34474410  1.0
  S  S10  1  0.62274578  0.49664869  0.84474410  1.0
  S  S11  1  0.12274578  1.00335131  0.15525590  1.0
