# generated using pymatgen
data_CoSbS
_symmetry_space_group_name_H-M   'P 1'
_cell_length_a   5.84542279
_cell_length_b   5.84542279
_cell_length_c   5.84542279
_cell_angle_alpha   90.00000000
_cell_angle_beta   90.00000000
_cell_angle_gamma   90.00000000
_symmetry_Int_Tables_number   1
_chemical_formula_structural   CoSbS
_chemical_formula_sum   'Co4 Sb4 S4'
_cell_volume   199.73206206
_cell_formula_units_Z   4
loop_
 _symmetry_equiv_pos_site_id
 _symmetry_equiv_pos_as_xyz
  1  'x, y, z'
loop_
 _atom_site_type_symbol
 _atom_site_label
 _atom_site_symmetry_multiplicity
 _atom_site_fract_x
 _atom_site_fract_y
 _atom_site_fract_z
 _atom_site_occupancy
  Co  Co0  1  0.48006729  0.98006729  0.51993271  1.0
  Co  Co1  1  0.98006729  0.51993271  0.48006729  1.0
  Co  Co2  1  0.51993271  0.48006729  0.98006729  1.0
  Co  Co3  1  0.01993271  0.01993271  0.01993271  1.0
  Sb  Sb4  1  0.12838361  0.62838361  0.87161639  1.0
  Sb  Sb5  1  0.62838361  0.87161639  0.12838361  1.0
  Sb  Sb6  1  0.87161639  0.12838361  0.62838361  1.0
  Sb  Sb7  1  0.37161639  0.37161639  0.37161639  1.0
  S  S8  1  0.87740951  0.37740951  0.12259049  1.0
  S  S9  1  0.37740951  0.12259049  0.87740951  1.0
  S  S10  1  0.12259049  0.87740951  0.37740951  1.0
  S  S11  1  0.62259049  0.62259049  0.62259049  1.0
