# generated using pymatgen
data_Li2Sn2Au
_symmetry_space_group_name_H-M   'P 1'
_cell_length_a   10.50383570
_cell_length_b   10.50383570
_cell_length_c   10.50383570
_cell_angle_alpha   154.57293561
_cell_angle_beta   154.57293561
_cell_angle_gamma   36.26738407
_symmetry_Int_Tables_number   1
_chemical_formula_structural   Li2Sn2Au
_chemical_formula_sum   'Li4 Sn4 Au2'
_cell_volume   213.36699800
_cell_formula_units_Z   2
loop_
 _symmetry_equiv_pos_site_id
 _symmetry_equiv_pos_as_xyz
  1  'x, y, z'
loop_
 _atom_site_type_symbol
 _atom_site_label
 _atom_site_symmetry_multiplicity
 _atom_site_fract_x
 _atom_site_fract_y
 _atom_site_fract_z
 _atom_site_occupancy
  Li  Li0  1  0.82398437  0.82398437  -0.00000000  1.0
  Li  Li1  1  0.57398437  0.07398437  0.50000000  1.0
  Li  Li2  1  0.92601563  1.42601563  0.50000000  1.0
  Li  Li3  1  1.17601563  1.17601563  1.00000000  1.0
  Sn  Sn4  1  1.32707161  1.32707161  1.00000000  1.0
  Sn  Sn5  1  0.07707161  0.57707161  0.50000000  1.0
  Sn  Sn6  1  1.42292839  0.92292839  0.50000000  1.0
  Sn  Sn7  1  0.67292839  0.67292839  0.00000000  1.0
  Au  Au8  1  0.75000000  1.25000000  0.50000000  1.0
  Au  Au9  1  0.00000000  0.00000000  0.00000000  1.0
