# generated using pymatgen
data_CaCl2
_symmetry_space_group_name_H-M   'P 1'
_cell_length_a   7.14522266
_cell_length_b   4.13447272
_cell_length_c   13.18173940
_cell_angle_alpha   90.00000000
_cell_angle_beta   90.00000000
_cell_angle_gamma   90.00000000
_symmetry_Int_Tables_number   1
_chemical_formula_structural   CaCl2
_chemical_formula_sum   'Ca4 Cl8'
_cell_volume   389.41136216
_cell_formula_units_Z   4
loop_
 _symmetry_equiv_pos_site_id
 _symmetry_equiv_pos_as_xyz
  1  'x, y, z'
loop_
 _atom_site_type_symbol
 _atom_site_label
 _atom_site_symmetry_multiplicity
 _atom_site_fract_x
 _atom_site_fract_y
 _atom_site_fract_z
 _atom_site_occupancy
  Ca  Ca0  1  0.75002524  0.75000000  0.50000478  1.0
  Ca  Ca1  1  0.25002524  0.75000000  -0.00000478  1.0
  Ca  Ca2  1  0.24997476  0.25000000  0.49999522  1.0
  Ca  Ca3  1  0.74997476  0.25000000  1.00000478  1.0
  Cl  Cl4  1  1.08360296  0.75000000  0.60612853  1.0
  Cl  Cl5  1  0.58360296  0.75000000  0.89387147  1.0
  Cl  Cl6  1  -0.08360296  0.25000000  0.39387147  1.0
  Cl  Cl7  1  0.41639704  0.25000000  0.10612853  1.0
  Cl  Cl8  1  0.91643565  0.75000000  0.10611708  1.0
  Cl  Cl9  1  0.41643565  0.75000000  0.39388292  1.0
  Cl  Cl10  1  0.08356435  0.25000000  0.89388292  1.0
  Cl  Cl11  1  0.58356435  0.25000000  0.60611708  1.0
