# generated using pymatgen
data_KGeBiS4
_symmetry_space_group_name_H-M   'P 1'
_cell_length_a   6.71935025
_cell_length_b   6.88136547
_cell_length_c   17.62356009
_cell_angle_alpha   90.00000000
_cell_angle_beta   107.05945888
_cell_angle_gamma   90.00000000
_symmetry_Int_Tables_number   1
_chemical_formula_structural   KGeBiS4
_chemical_formula_sum   'K4 Ge4 Bi4 S16'
_cell_volume   779.02934449
_cell_formula_units_Z   4
loop_
 _symmetry_equiv_pos_site_id
 _symmetry_equiv_pos_as_xyz
  1  'x, y, z'
loop_
 _atom_site_type_symbol
 _atom_site_label
 _atom_site_symmetry_multiplicity
 _atom_site_fract_x
 _atom_site_fract_y
 _atom_site_fract_z
 _atom_site_occupancy
  K  K0  1  0.72424380  0.75638391  0.46569570  1.0
  K  K1  1  0.72424380  0.74361609  0.96569570  1.0
  K  K2  1  0.27575620  0.25638391  0.03430430  1.0
  K  K3  1  0.27575620  0.24361609  0.53430430  1.0
  Ge  Ge4  1  0.78582256  0.23856365  0.34235409  1.0
  Ge  Ge5  1  0.78582256  0.26143635  0.84235409  1.0
  Ge  Ge6  1  0.21417744  0.73856365  0.15764591  1.0
  Ge  Ge7  1  0.21417744  0.76143635  0.65764591  1.0
  Bi  Bi8  1  0.76248146  0.81197519  0.21979209  1.0
  Bi  Bi9  1  0.76248146  0.68802481  0.71979209  1.0
  Bi  Bi10  1  0.23751854  0.31197519  0.28020791  1.0
  Bi  Bi11  1  0.23751854  0.18802481  0.78020791  1.0
  S  S12  1  -0.00914951  0.50056102  0.35612256  1.0
  S  S13  1  -0.00914951  -0.00056102  0.85612256  1.0
  S  S14  1  1.00914951  1.00056102  0.14387744  1.0
  S  S15  1  1.00914951  0.49943898  0.64387744  1.0
  S  S16  1  0.99121678  0.49333253  0.13187505  1.0
  S  S17  1  0.99121678  0.00666747  0.63187505  1.0
  S  S18  1  0.00878322  0.99333253  0.36812495  1.0
  S  S19  1  0.00878322  0.50666747  0.86812495  1.0
  S  S20  1  0.58708562  0.17708485  0.21688084  1.0
  S  S21  1  0.58708562  0.32291515  0.71688084  1.0
  S  S22  1  0.41291438  0.67708485  0.28311916  1.0
  S  S23  1  0.41291438  0.82291515  0.78311916  1.0
  S  S24  1  0.57312743  0.26542854  0.41752739  1.0
  S  S25  1  0.57312743  0.23457146  0.91752739  1.0
  S  S26  1  0.42687257  0.76542854  0.08247261  1.0
  S  S27  1  0.42687257  0.73457146  0.58247261  1.0
