# generated using pymatgen
data_CaAl2O4
_symmetry_space_group_name_H-M   'P 1'
_cell_length_a   5.61131029
_cell_length_b   3.80932815
_cell_length_c   7.11124095
_cell_angle_alpha   90.00000000
_cell_angle_beta   101.39780416
_cell_angle_gamma   90.00000000
_symmetry_Int_Tables_number   1
_chemical_formula_structural   CaAl2O4
_chemical_formula_sum   'Ca2 Al4 O8'
_cell_volume   149.00733683
_cell_formula_units_Z   2
loop_
 _symmetry_equiv_pos_site_id
 _symmetry_equiv_pos_as_xyz
  1  'x, y, z'
loop_
 _atom_site_type_symbol
 _atom_site_label
 _atom_site_symmetry_multiplicity
 _atom_site_fract_x
 _atom_site_fract_y
 _atom_site_fract_z
 _atom_site_occupancy
  Ca  Ca0  1  0.76864908  0.25000000  0.07171368  1.0
  Ca  Ca1  1  0.23135092  0.75000000  0.92828632  1.0
  Al  Al2  1  0.65359074  0.25000000  0.62893280  1.0
  Al  Al3  1  0.34640926  0.75000000  0.37106720  1.0
  Al  Al4  1  0.15587630  0.25000000  0.61277724  1.0
  Al  Al5  1  0.84412370  0.75000000  0.38722276  1.0
  O  O6  1  0.95775208  0.25000000  0.80411660  1.0
  O  O7  1  0.04224792  0.75000000  0.19588340  1.0
  O  O8  1  0.85665035  0.25000000  0.42530028  1.0
  O  O9  1  0.14334965  0.75000000  0.57469972  1.0
  O  O10  1  0.44339039  0.25000000  0.80788707  1.0
  O  O11  1  0.55660961  0.75000000  0.19211293  1.0
  O  O12  1  0.35804538  0.25000000  0.42862324  1.0
  O  O13  1  0.64195462  0.75000000  0.57137676  1.0
