# generated using pymatgen
data_RbAu(CN)2
_symmetry_space_group_name_H-M   'P 1'
_cell_length_a   10.33294058
_cell_length_b   10.33294058
_cell_length_c   13.83915854
_cell_angle_alpha   76.44421983
_cell_angle_beta   103.55578017
_cell_angle_gamma   125.55997901
_symmetry_Int_Tables_number   1
_chemical_formula_structural   RbAu(CN)2
_chemical_formula_sum   'Rb8 Au8 C16 N16'
_cell_volume   1159.53235065
_cell_formula_units_Z   8
loop_
 _symmetry_equiv_pos_site_id
 _symmetry_equiv_pos_as_xyz
  1  'x, y, z'
loop_
 _atom_site_type_symbol
 _atom_site_label
 _atom_site_symmetry_multiplicity
 _atom_site_fract_x
 _atom_site_fract_y
 _atom_site_fract_z
 _atom_site_occupancy
  Rb  Rb0  1  0.47078292  -0.01628407  0.68456599  1.0
  Rb  Rb1  1  1.01628408  0.52921708  0.18456599  1.0
  Rb  Rb2  1  0.98371593  0.47078292  0.81543401  1.0
  Rb  Rb3  1  0.52921708  0.01628408  0.31543401  1.0
  Rb  Rb4  1  0.58802650  0.23090895  0.98491101  1.0
  Rb  Rb5  1  0.76909105  0.41197350  0.48491101  1.0
  Rb  Rb6  1  1.23090895  0.58802650  0.51508899  1.0
  Rb  Rb7  1  0.41197350  -0.23090895  0.01508899  1.0
  Au  Au8  1  0.83003202  -0.13782925  0.91593775  1.0
  Au  Au9  1  1.13782925  0.16996798  0.41593775  1.0
  Au  Au10  1  0.86217075  0.83003202  0.58406225  1.0
  Au  Au11  1  0.16996798  0.13782925  0.08406225  1.0
  Au  Au12  1  0.48358591  0.48358591  0.75000000  1.0
  Au  Au13  1  0.51641409  0.51641409  0.25000000  1.0
  Au  Au14  1  0.11353227  0.11353227  0.75000000  1.0
  Au  Au15  1  0.88646773  0.88646773  0.25000000  1.0
  C  C16  1  0.68557848  -0.13805326  0.56139504  1.0
  C  C17  1  1.13805326  0.31442152  0.06139504  1.0
  C  C18  1  0.86194674  0.68557848  0.93860496  1.0
  C  C19  1  0.31442152  0.13805326  0.43860496  1.0
  C  C20  1  0.77347453  0.02055421  0.89527732  1.0
  C  C21  1  0.97944579  0.22652547  0.39527732  1.0
  C  C22  1  1.02055421  0.77347453  0.60472268  1.0
  C  C23  1  0.22652547  -0.02055421  0.10472268  1.0
  C  C24  1  0.23093501  0.01279796  0.81797871  1.0
  C  C25  1  0.98720204  0.76906499  0.31797871  1.0
  C  C26  1  1.01279796  0.23093501  0.68202129  1.0
  C  C27  1  0.76906499  -0.01279796  0.18202129  1.0
  C  C28  1  0.58167080  0.39511393  0.70482419  1.0
  C  C29  1  0.60488607  0.41832920  0.20482419  1.0
  C  C30  1  1.39511393  0.58167080  0.79517581  1.0
  C  C31  1  0.41832920  -0.39511393  0.29517581  1.0
  N  N32  1  0.34540817  -0.35674881  0.82121975  1.0
  N  N33  1  1.35674881  0.65459183  0.32121975  1.0
  N  N34  1  0.64325119  0.34540817  0.67878025  1.0
  N  N35  1  0.65459183  0.35674881  0.17878025  1.0
  N  N36  1  0.57440573  -0.12927659  0.54786786  1.0
  N  N37  1  1.12927659  0.42559427  0.04786786  1.0
  N  N38  1  0.87072341  0.57440573  0.95213214  1.0
  N  N39  1  0.42559427  0.12927659  0.45213214  1.0
  N  N40  1  0.73078596  0.10696847  0.88380671  1.0
  N  N41  1  0.89303153  0.26921404  0.38380671  1.0
  N  N42  1  1.10696847  0.73078596  0.61619329  1.0
  N  N43  1  0.26921404  -0.10696847  0.11619329  1.0
  N  N44  1  0.30913138  -0.03749287  0.85808486  1.0
  N  N45  1  1.03749287  0.69086862  0.35808486  1.0
  N  N46  1  0.96250713  0.30913138  0.64191514  1.0
  N  N47  1  0.69086862  0.03749287  0.14191514  1.0
