# generated using pymatgen
data_Sr3NiPtO6
_symmetry_space_group_name_H-M   'P 1'
_cell_length_a   6.73014213
_cell_length_b   6.73014213
_cell_length_c   6.73014213
_cell_angle_alpha   91.38751953
_cell_angle_beta   91.38751953
_cell_angle_gamma   91.38751953
_symmetry_Int_Tables_number   1
_chemical_formula_structural   Sr3NiPtO6
_chemical_formula_sum   'Sr6 Ni2 Pt2 O12'
_cell_volume   304.56797038
_cell_formula_units_Z   2
loop_
 _symmetry_equiv_pos_site_id
 _symmetry_equiv_pos_as_xyz
  1  'x, y, z'
loop_
 _atom_site_type_symbol
 _atom_site_label
 _atom_site_symmetry_multiplicity
 _atom_site_fract_x
 _atom_site_fract_y
 _atom_site_fract_z
 _atom_site_occupancy
  Sr  Sr0  1  0.88782203  1.25000000  -0.38782203  1.0
  Sr  Sr1  1  1.38782203  0.11217797  -0.25000000  1.0
  Sr  Sr2  1  0.75000000  0.38782203  0.11217797  1.0
  Sr  Sr3  1  1.25000000  0.61217797  -0.11217797  1.0
  Sr  Sr4  1  1.11217797  -0.25000000  0.38782203  1.0
  Sr  Sr5  1  0.61217797  0.88782203  0.25000000  1.0
  Ni  Ni6  1  0.25000000  0.25000000  0.25000000  1.0
  Ni  Ni7  1  0.75000000  0.75000000  0.75000000  1.0
  Pt  Pt8  1  0.50000000  0.50000000  0.50000000  1.0
  Pt  Pt9  1  0.00000000  0.00000000  0.00000000  1.0
  O  O10  1  1.21268697  0.40944401  -0.46410068  1.0
  O  O11  1  0.71268697  1.03589932  -0.09055599  1.0
  O  O12  1  0.96410068  0.09055599  0.28731303  1.0
  O  O13  1  1.46410068  -0.21268697  0.59055599  1.0
  O  O14  1  1.59055599  0.46410068  -0.21268697  1.0
  O  O15  1  1.09055599  0.28731303  -0.03589932  1.0
  O  O16  1  0.78731303  0.59055599  0.46410068  1.0
  O  O17  1  1.28731303  -0.03589932  0.09055599  1.0
  O  O18  1  0.53589932  1.21268697  -0.59055599  1.0
  O  O19  1  1.03589932  0.90944401  -0.28731303  1.0
  O  O20  1  0.90944401  0.71268697  0.03589932  1.0
  O  O21  1  0.40944401  0.53589932  0.21268697  1.0
