# generated using pymatgen
data_Ag3AsS3
_symmetry_space_group_name_H-M   'P 1'
_cell_length_a   6.98139044
_cell_length_b   6.98139044
_cell_length_c   6.98139044
_cell_angle_alpha   100.93389743
_cell_angle_beta   100.93389743
_cell_angle_gamma   100.93389743
_symmetry_Int_Tables_number   1
_chemical_formula_structural   Ag3AsS3
_chemical_formula_sum   'Ag6 As2 S6'
_cell_volume   318.91653854
_cell_formula_units_Z   2
loop_
 _symmetry_equiv_pos_site_id
 _symmetry_equiv_pos_as_xyz
  1  'x, y, z'
loop_
 _atom_site_type_symbol
 _atom_site_label
 _atom_site_symmetry_multiplicity
 _atom_site_fract_x
 _atom_site_fract_y
 _atom_site_fract_z
 _atom_site_occupancy
  Ag  Ag0  1  1.01810440  0.23807413  -0.42361818  1.0
  Ag  Ag1  1  0.51810440  1.07638182  -0.26192587  1.0
  Ag  Ag2  1  0.73807413  0.51810440  0.07638182  1.0
  Ag  Ag3  1  1.23807413  -0.42361818  0.01810440  1.0
  Ag  Ag4  1  1.07638182  0.73807413  -0.48189560  1.0
  Ag  Ag5  1  0.57638182  0.01810440  0.23807413  1.0
  As  As6  1  -0.00173212  -0.00173212  -0.00173212  1.0
  As  As7  1  0.49826788  0.49826788  0.49826788  1.0
  S  S8  1  1.21988672  -0.10496700  0.22515205  1.0
  S  S9  1  0.71988672  0.72515205  0.39503300  1.0
  S  S10  1  1.39503300  0.71988672  -0.27484795  1.0
  S  S11  1  0.89503300  0.22515205  0.21988672  1.0
  S  S12  1  0.72515205  1.39503300  -0.28011328  1.0
  S  S13  1  1.22515205  0.21988672  -0.10496700  1.0
