# generated using pymatgen
data_Na2BSO4F3
_symmetry_space_group_name_H-M   'P 1'
_cell_length_a   6.74710346
_cell_length_b   6.78112864
_cell_length_c   6.75438900
_cell_angle_alpha   68.38665734
_cell_angle_beta   82.58529222
_cell_angle_gamma   83.08347924
_symmetry_Int_Tables_number   1
_chemical_formula_structural   Na2BSO4F3
_chemical_formula_sum   'Na4 B2 S2 O8 F6'
_cell_volume   284.01122776
_cell_formula_units_Z   2
loop_
 _symmetry_equiv_pos_site_id
 _symmetry_equiv_pos_as_xyz
  1  'x, y, z'
loop_
 _atom_site_type_symbol
 _atom_site_label
 _atom_site_symmetry_multiplicity
 _atom_site_fract_x
 _atom_site_fract_y
 _atom_site_fract_z
 _atom_site_occupancy
  Na  Na0  1  -0.34541563  -0.88508032  -0.72299637  1.0
  Na  Na1  1  -0.65458437  -0.11491968  -0.27700363  1.0
  Na  Na2  1  -0.92030780  -0.27069081  -0.74149475  1.0
  Na  Na3  1  -0.07969220  -0.72930919  -0.25850525  1.0
  B  B4  1  -0.38062711  -0.34713598  -0.85451824  1.0
  B  B5  1  -0.61937289  -0.65286402  -0.14548176  1.0
  S  S6  1  -0.85089248  -0.78050725  -0.75978731  1.0
  S  S7  1  -0.14910752  -0.21949275  -0.24021269  1.0
  O  O8  1  -0.74469096  -0.61389326  -0.96366187  1.0
  O  O9  1  -0.25530904  -0.38610674  -0.03633813  1.0
  O  O10  1  0.00458637  -0.88124714  -0.83369015  1.0
  O  O11  1  -1.00458637  -0.11875286  -0.16630985  1.0
  O  O12  1  -0.94925400  -0.65003946  -0.63736973  1.0
  O  O13  1  -0.05074600  -0.34996054  -0.36263027  1.0
  O  O14  1  -0.69515166  -0.94033161  -0.64696707  1.0
  O  O15  1  -0.30484834  -0.05966839  -0.35303293  1.0
  F  F16  1  -0.57099302  -0.24128023  -0.91797330  1.0
  F  F17  1  -0.42900698  -0.75871977  -0.08202670  1.0
  F  F18  1  -0.40882910  -0.54803792  -0.69801844  1.0
  F  F19  1  -0.59117090  -0.45196208  -0.30198156  1.0
  F  F20  1  -0.71577730  -0.77845989  -0.22616235  1.0
  F  F21  1  -0.28422270  -0.22154011  -0.77383765  1.0
