# generated using pymatgen
data_KNaS2O7
_symmetry_space_group_name_H-M   'P 1'
_cell_length_a   6.00070814
_cell_length_b   7.63047059
_cell_length_c   7.34787186
_cell_angle_alpha   101.65095703
_cell_angle_beta   95.01751891
_cell_angle_gamma   90.25533318
_symmetry_Int_Tables_number   1
_chemical_formula_structural   KNaS2O7
_chemical_formula_sum   'K2 Na2 S4 O14'
_cell_volume   328.16683612
_cell_formula_units_Z   2
loop_
 _symmetry_equiv_pos_site_id
 _symmetry_equiv_pos_as_xyz
  1  'x, y, z'
loop_
 _atom_site_type_symbol
 _atom_site_label
 _atom_site_symmetry_multiplicity
 _atom_site_fract_x
 _atom_site_fract_y
 _atom_site_fract_z
 _atom_site_occupancy
  K  K0  1  -0.72123720  -0.93420377  -0.27807843  1.0
  K  K1  1  -0.27876280  -0.06579623  -0.72192157  1.0
  Na  Na2  1  -0.30218831  -0.59935916  -0.84892071  1.0
  Na  Na3  1  -0.69781169  -0.40064084  -0.15107929  1.0
  S  S4  1  -0.79310624  -0.80051845  -0.77511435  1.0
  S  S5  1  -0.20689376  -0.19948155  -0.22488565  1.0
  S  S6  1  -0.78077718  -0.40166713  -0.67657201  1.0
  S  S7  1  -0.21922282  -0.59833287  -0.32342799  1.0
  O  O8  1  -0.99175098  -0.61262407  -0.23898647  1.0
  O  O9  1  -0.00824902  -0.38737593  -0.76101353  1.0
  O  O10  1  -0.76467868  -0.60525809  -0.62349062  1.0
  O  O11  1  -0.23532132  -0.39474191  -0.37650938  1.0
  O  O12  1  -0.76842971  -0.92576680  -0.64871806  1.0
  O  O13  1  -0.23157029  -0.07423320  -0.35128194  1.0
  O  O14  1  -0.72960707  -0.29178590  -0.49112770  1.0
  O  O15  1  -0.27039293  -0.70821410  -0.50887230  1.0
  O  O16  1  -0.60895209  -0.80516040  -0.89555349  1.0
  O  O17  1  -0.39104791  -0.19483960  -0.10444651  1.0
  O  O18  1  -0.60836735  -0.39479108  -0.80670232  1.0
  O  O19  1  -0.39163265  -0.60520892  -0.19329768  1.0
  O  O20  1  -0.01508365  -0.80405473  -0.87550536  1.0
  O  O21  1  -0.98491635  -0.19594527  -0.12449464  1.0
