# generated using pymatgen
data_Ni21(B3Sb)2
_symmetry_space_group_name_H-M   'P 1'
_cell_length_a   7.49916327
_cell_length_b   7.49916327
_cell_length_c   7.49916327
_cell_angle_alpha   60.00000000
_cell_angle_beta   60.00000000
_cell_angle_gamma   60.00000000
_symmetry_Int_Tables_number   1
_chemical_formula_structural   Ni21(B3Sb)2
_chemical_formula_sum   'Ni21 B6 Sb2'
_cell_volume   298.21084188
_cell_formula_units_Z   1
loop_
 _symmetry_equiv_pos_site_id
 _symmetry_equiv_pos_as_xyz
  1  'x, y, z'
loop_
 _atom_site_type_symbol
 _atom_site_label
 _atom_site_symmetry_multiplicity
 _atom_site_fract_x
 _atom_site_fract_y
 _atom_site_fract_z
 _atom_site_occupancy
  Ni  Ni0  1  1.66428672  0.00000000  -0.00000000  1.0
  Ni  Ni1  1  1.00000000  0.33571328  -0.33571328  1.0
  Ni  Ni2  1  1.00000000  0.66428672  -0.66428672  1.0
  Ni  Ni3  1  1.33571328  0.00000000  -0.00000000  1.0
  Ni  Ni4  1  0.00000000  1.66428672  -0.00000000  1.0
  Ni  Ni5  1  0.33571328  1.00000000  -0.33571328  1.0
  Ni  Ni6  1  -0.00000000  -0.00000000  0.66428672  1.0
  Ni  Ni7  1  0.33571328  -0.33571328  1.00000000  1.0
  Ni  Ni8  1  0.66428672  1.00000000  -0.66428672  1.0
  Ni  Ni9  1  0.00000000  1.33571328  -0.00000000  1.0
  Ni  Ni10  1  0.66428672  -0.66428672  1.00000000  1.0
  Ni  Ni11  1  -0.00000000  0.00000000  0.33571328  1.0
  Ni  Ni12  1  0.61544420  0.61544420  -0.38455580  1.0
  Ni  Ni13  1  0.38455580  1.38455580  -0.15366741  1.0
  Ni  Ni14  1  1.38455580  -0.15366741  0.38455580  1.0
  Ni  Ni15  1  1.15366741  0.61544420  0.61544420  1.0
  Ni  Ni16  1  -0.15366741  1.38455580  0.38455580  1.0
  Ni  Ni17  1  0.61544420  1.15366741  -0.38455580  1.0
  Ni  Ni18  1  0.61544420  0.61544420  1.15366741  1.0
  Ni  Ni19  1  1.38455580  0.38455580  0.38455580  1.0
  Ni  Ni20  1  0.00000000  0.00000000  0.00000000  1.0
  B  B21  1  -0.72822135  0.72822135  0.72822135  1.0
  B  B22  1  -0.27177865  0.27177865  0.72822135  1.0
  B  B23  1  0.72822135  0.72822135  -0.72822135  1.0
  B  B24  1  0.27177865  1.27177865  -0.27177865  1.0
  B  B25  1  0.27177865  -0.27177865  1.27177865  1.0
  B  B26  1  -0.27177865  0.27177865  0.27177865  1.0
  Sb  Sb27  1  0.75000000  0.75000000  -0.25000000  1.0
  Sb  Sb28  1  1.25000000  0.25000000  0.25000000  1.0
