# generated using pymatgen
data_RuC3SeO3
_symmetry_space_group_name_H-M   'P 1'
_cell_length_a   9.51110321
_cell_length_b   9.51110321
_cell_length_c   9.51110321
_cell_angle_alpha   109.47122063
_cell_angle_beta   109.47122063
_cell_angle_gamma   109.47122063
_symmetry_Int_Tables_number   1
_chemical_formula_structural   RuC3SeO3
_chemical_formula_sum   'Ru4 C12 Se4 O12'
_cell_volume   662.32445733
_cell_formula_units_Z   4
loop_
 _symmetry_equiv_pos_site_id
 _symmetry_equiv_pos_as_xyz
  1  'x, y, z'
loop_
 _atom_site_type_symbol
 _atom_site_label
 _atom_site_symmetry_multiplicity
 _atom_site_fract_x
 _atom_site_fract_y
 _atom_site_fract_z
 _atom_site_occupancy
  Ru  Ru0  1  0.75140108  0.75140108  0.75140108  1.0
  Ru  Ru1  1  1.00000000  1.00000000  0.24859892  1.0
  Ru  Ru2  1  1.00000000  0.24859892  1.00000000  1.0
  Ru  Ru3  1  0.24859892  1.00000000  1.00000000  1.0
  C  C4  1  0.76065981  0.58219709  0.58219709  1.0
  C  C5  1  0.58219709  0.76065981  0.58219709  1.0
  C  C6  1  1.00000000  1.17846272  0.41780291  1.0
  C  C7  1  1.17846272  1.00000000  0.41780291  1.0
  C  C8  1  0.58219709  0.58219709  0.76065981  1.0
  C  C9  1  0.82153728  0.82153728  0.23934019  1.0
  C  C10  1  1.00000000  0.41780291  1.17846272  1.0
  C  C11  1  0.82153728  0.23934019  0.82153728  1.0
  C  C12  1  0.23934019  0.82153728  0.82153728  1.0
  C  C13  1  0.41780291  1.00000000  1.17846272  1.0
  C  C14  1  1.17846272  0.41780291  1.00000000  1.0
  C  C15  1  0.41780291  1.17846272  1.00000000  1.0
  Se  Se16  1  0.22501504  0.22501504  0.22501504  1.0
  Se  Se17  1  1.00000000  1.00000000  0.77498496  1.0
  Se  Se18  1  1.00000000  0.77498496  1.00000000  1.0
  Se  Se19  1  0.77498496  1.00000000  1.00000000  1.0
  O  O20  1  0.76322694  0.47849158  0.47849158  1.0
  O  O21  1  0.47849158  0.76322694  0.47849158  1.0
  O  O22  1  1.00000000  1.28473536  0.52150842  1.0
  O  O23  1  1.28473536  1.00000000  0.52150842  1.0
  O  O24  1  0.47849158  0.47849158  0.76322694  1.0
  O  O25  1  0.71526464  0.71526464  0.23677306  1.0
  O  O26  1  1.00000000  0.52150842  1.28473536  1.0
  O  O27  1  0.71526464  0.23677306  0.71526464  1.0
  O  O28  1  0.23677306  0.71526464  0.71526464  1.0
  O  O29  1  0.52150842  1.00000000  1.28473536  1.0
  O  O30  1  1.28473536  0.52150842  1.00000000  1.0
  O  O31  1  0.52150842  1.28473536  1.00000000  1.0
