# generated using pymatgen
data_La7VSe5O7
_symmetry_space_group_name_H-M   'P 1'
_cell_length_a   6.79251316
_cell_length_b   6.79251316
_cell_length_c   32.41600836
_cell_angle_alpha   90.00000000
_cell_angle_beta   90.00000000
_cell_angle_gamma   145.64459538
_symmetry_Int_Tables_number   1
_chemical_formula_structural   La7VSe5O7
_chemical_formula_sum   'La14 V2 Se10 O14'
_cell_volume   844.01372288
_cell_formula_units_Z   2
loop_
 _symmetry_equiv_pos_site_id
 _symmetry_equiv_pos_as_xyz
  1  'x, y, z'
loop_
 _atom_site_type_symbol
 _atom_site_label
 _atom_site_symmetry_multiplicity
 _atom_site_fract_x
 _atom_site_fract_y
 _atom_site_fract_z
 _atom_site_occupancy
  La  La0  1  -0.05660865  0.05660865  0.25000000  1.0
  La  La1  1  0.05660865  0.94339135  0.75000000  1.0
  La  La2  1  -0.36574742  0.36574742  0.31315196  1.0
  La  La3  1  0.36574742  0.63425258  0.81315196  1.0
  La  La4  1  -0.36574742  0.36574742  0.18684804  1.0
  La  La5  1  0.36574742  0.63425258  0.68684804  1.0
  La  La6  1  -0.03556634  0.03556634  0.38605200  1.0
  La  La7  1  0.03556634  0.96443366  0.88605200  1.0
  La  La8  1  -0.03556634  0.03556634  0.11394800  1.0
  La  La9  1  0.03556634  0.96443366  0.61394800  1.0
  La  La10  1  -0.32301712  0.32301712  0.43734534  1.0
  La  La11  1  0.32301712  0.67698288  0.93734534  1.0
  La  La12  1  -0.32301712  0.32301712  0.06265466  1.0
  La  La13  1  0.32301712  0.67698288  0.56265466  1.0
  V  V14  1  0.00000000  0.00000000  0.50000000  1.0
  V  V15  1  0.00000000  0.00000000  0.00000000  1.0
  Se  Se16  1  0.27580562  0.72419438  0.36874525  1.0
  Se  Se17  1  -0.27580562  0.27580562  0.86874525  1.0
  Se  Se18  1  0.27580562  0.72419438  0.13125475  1.0
  Se  Se19  1  -0.27580562  0.27580562  0.63125475  1.0
  Se  Se20  1  0.25438842  0.74561158  0.25000000  1.0
  Se  Se21  1  -0.25438842  0.25438842  0.75000000  1.0
  Se  Se22  1  -0.38152337  0.38152337  0.52949371  1.0
  Se  Se23  1  0.38152337  0.61847663  0.02949371  1.0
  Se  Se24  1  -0.38152337  0.38152337  0.97050629  1.0
  Se  Se25  1  0.38152337  0.61847663  0.47050629  1.0
  O  O26  1  -0.46473528  0.46473528  0.25000000  1.0
  O  O27  1  0.46473528  0.53526472  0.75000000  1.0
  O  O28  1  -0.08095188  0.08095188  0.55145942  1.0
  O  O29  1  0.08095188  0.91904812  0.05145942  1.0
  O  O30  1  -0.08095188  0.08095188  0.94854058  1.0
  O  O31  1  0.08095188  0.91904812  0.44854058  1.0
  O  O32  1  -0.44119101  0.44119101  0.38259053  1.0
  O  O33  1  0.44119101  0.55880899  0.88259053  1.0
  O  O34  1  -0.44119101  0.44119101  0.11740947  1.0
  O  O35  1  0.44119101  0.55880899  0.61740947  1.0
  O  O36  1  0.02518303  0.97481697  0.31687845  1.0
  O  O37  1  -0.02518303  0.02518303  0.81687845  1.0
  O  O38  1  0.02518303  0.97481697  0.18312155  1.0
  O  O39  1  -0.02518303  0.02518303  0.68312155  1.0
