# generated using pymatgen
data_K3AsSe4
_symmetry_space_group_name_H-M   'P 1'
_cell_length_a   9.51517126
_cell_length_b   11.07805292
_cell_length_c   10.19735897
_cell_angle_alpha   90.00000000
_cell_angle_beta   90.00000000
_cell_angle_gamma   90.00000000
_symmetry_Int_Tables_number   1
_chemical_formula_structural   K3AsSe4
_chemical_formula_sum   'K12 As4 Se16'
_cell_volume   1074.89923204
_cell_formula_units_Z   4
loop_
 _symmetry_equiv_pos_site_id
 _symmetry_equiv_pos_as_xyz
  1  'x, y, z'
loop_
 _atom_site_type_symbol
 _atom_site_label
 _atom_site_symmetry_multiplicity
 _atom_site_fract_x
 _atom_site_fract_y
 _atom_site_fract_z
 _atom_site_occupancy
  K  K0  1  0.42384374  0.45436710  0.80574319  1.0
  K  K1  1  0.42384374  0.04563290  0.80574319  1.0
  K  K2  1  0.92384374  0.45436710  0.69425681  1.0
  K  K3  1  0.92384374  0.04563290  0.69425681  1.0
  K  K4  1  0.57615626  0.95436710  0.19425681  1.0
  K  K5  1  0.57615626  0.54563290  0.19425681  1.0
  K  K6  1  0.07615626  0.95436710  0.30574319  1.0
  K  K7  1  0.07615626  0.54563290  0.30574319  1.0
  K  K8  1  0.14318116  0.25000000  0.07802288  1.0
  K  K9  1  0.64318116  0.25000000  0.42197712  1.0
  K  K10  1  0.85681884  0.75000000  0.92197712  1.0
  K  K11  1  0.35681884  0.75000000  0.57802288  1.0
  As  As12  1  0.22748655  0.25000000  0.52346332  1.0
  As  As13  1  0.72748655  0.25000000  0.97653668  1.0
  As  As14  1  0.77251345  0.75000000  0.47653668  1.0
  As  As15  1  0.27251345  0.75000000  0.02346332  1.0
  Se  Se16  1  0.14094991  0.92712166  0.97577947  1.0
  Se  Se17  1  0.14094991  0.57287834  0.97577947  1.0
  Se  Se18  1  0.64094991  0.92712166  0.52422053  1.0
  Se  Se19  1  0.64094991  0.57287834  0.52422053  1.0
  Se  Se20  1  0.85905009  0.42712166  0.02422053  1.0
  Se  Se21  1  0.85905009  0.07287834  0.02422053  1.0
  Se  Se22  1  0.35905009  0.42712166  0.47577947  1.0
  Se  Se23  1  0.35905009  0.07287834  0.47577947  1.0
  Se  Se24  1  0.51672095  0.25000000  0.10177468  1.0
  Se  Se25  1  0.01672095  0.25000000  0.39822532  1.0
  Se  Se26  1  0.48327905  0.75000000  0.89822532  1.0
  Se  Se27  1  0.98327905  0.75000000  0.60177468  1.0
  Se  Se28  1  0.16828076  0.25000000  0.74789629  1.0
  Se  Se29  1  0.66828076  0.25000000  0.75210371  1.0
  Se  Se30  1  0.83171924  0.75000000  0.25210371  1.0
  Se  Se31  1  0.33171924  0.75000000  0.24789629  1.0
