# generated using pymatgen
data_BiI
_symmetry_space_group_name_H-M   'P 1'
_cell_length_a   8.06966429
_cell_length_b   8.06966429
_cell_length_c   10.99659716
_cell_angle_alpha   74.72061758
_cell_angle_beta   105.27938242
_cell_angle_gamma   148.21864229
_symmetry_Int_Tables_number   1
_chemical_formula_structural   BiI
_chemical_formula_sum   'Bi4 I4'
_cell_volume   362.71784935
_cell_formula_units_Z   4
loop_
 _symmetry_equiv_pos_site_id
 _symmetry_equiv_pos_as_xyz
  1  'x, y, z'
loop_
 _atom_site_type_symbol
 _atom_site_label
 _atom_site_symmetry_multiplicity
 _atom_site_fract_x
 _atom_site_fract_y
 _atom_site_fract_z
 _atom_site_occupancy
  Bi  Bi0  1  0.69523793  0.30476207  0.27558240  1.0
  Bi  Bi1  1  0.30476207  -0.30476207  0.72441760  1.0
  Bi  Bi2  1  0.68030275  0.31969725  0.98911514  1.0
  Bi  Bi3  1  0.31969725  -0.31969725  0.01088486  1.0
  I  I4  1  -0.04674708  0.04674708  0.78296724  1.0
  I  I5  1  0.04674708  -0.04674708  0.21703276  1.0
  I  I6  1  0.65701485  0.34298515  0.63207280  1.0
  I  I7  1  0.34298515  -0.34298515  0.36792720  1.0
