# generated using pymatgen
data_Ni3Sn2
_symmetry_space_group_name_H-M   'P 1'
_cell_length_a   7.16946847
_cell_length_b   5.22667703
_cell_length_c   8.21025609
_cell_angle_alpha   90.00000000
_cell_angle_beta   90.00000000
_cell_angle_gamma   90.00000000
_symmetry_Int_Tables_number   1
_chemical_formula_structural   Ni3Sn2
_chemical_formula_sum   'Ni12 Sn8'
_cell_volume   307.65878963
_cell_formula_units_Z   4
loop_
 _symmetry_equiv_pos_site_id
 _symmetry_equiv_pos_as_xyz
  1  'x, y, z'
loop_
 _atom_site_type_symbol
 _atom_site_label
 _atom_site_symmetry_multiplicity
 _atom_site_fract_x
 _atom_site_fract_y
 _atom_site_fract_z
 _atom_site_occupancy
  Ni  Ni0  1  0.59215371  0.75000000  0.12767663  1.0
  Ni  Ni1  1  0.09215371  0.75000000  0.37232337  1.0
  Ni  Ni2  1  0.40784629  0.25000000  0.87232337  1.0
  Ni  Ni3  1  0.90784629  0.25000000  0.62767663  1.0
  Ni  Ni4  1  0.76560910  0.99574854  0.37548658  1.0
  Ni  Ni5  1  0.76560910  0.50425146  0.37548658  1.0
  Ni  Ni6  1  0.26560910  0.99574854  0.12451342  1.0
  Ni  Ni7  1  0.26560910  0.50425146  0.12451342  1.0
  Ni  Ni8  1  0.23439090  0.49574854  0.62451342  1.0
  Ni  Ni9  1  0.23439090  0.00425146  0.62451342  1.0
  Ni  Ni10  1  0.73439090  0.49574854  0.87548658  1.0
  Ni  Ni11  1  0.73439090  0.00425146  0.87548658  1.0
  Sn  Sn12  1  0.94024776  0.75000000  0.09504295  1.0
  Sn  Sn13  1  0.44024776  0.75000000  0.40495705  1.0
  Sn  Sn14  1  0.05975224  0.25000000  0.90495705  1.0
  Sn  Sn15  1  0.55975224  0.25000000  0.59504295  1.0
  Sn  Sn16  1  0.90275442  0.75000000  0.64122908  1.0
  Sn  Sn17  1  0.40275442  0.75000000  0.85877092  1.0
  Sn  Sn18  1  0.09724558  0.25000000  0.35877092  1.0
  Sn  Sn19  1  0.59724558  0.25000000  0.14122908  1.0
