# generated using pymatgen
data_H8C3N2O
_symmetry_space_group_name_H-M   'P 1'
_cell_length_a   11.30091164
_cell_length_b   6.07564184
_cell_length_c   12.41125241
_cell_angle_alpha   65.20697773
_cell_angle_beta   29.21383729
_cell_angle_gamma   85.57918499
_symmetry_Int_Tables_number   1
_chemical_formula_structural   H8C3N2O
_chemical_formula_sum   'H16 C6 N4 O2'
_cell_volume   286.26480627
_cell_formula_units_Z   2
loop_
 _symmetry_equiv_pos_site_id
 _symmetry_equiv_pos_as_xyz
  1  'x, y, z'
loop_
 _atom_site_type_symbol
 _atom_site_label
 _atom_site_symmetry_multiplicity
 _atom_site_fract_x
 _atom_site_fract_y
 _atom_site_fract_z
 _atom_site_occupancy
  H  H0  1  0.31581597  0.52416190  0.62328402  1.0
  H  H1  1  -0.47583810  1.31581597  0.53673812  1.0
  H  H2  1  -0.28673812  0.62671598  0.72583810  1.0
  H  H3  1  -0.37328402  0.71326188  0.93418403  1.0
  H  H4  1  -0.08247966  0.54477949  0.89773135  1.0
  H  H5  1  -0.45522051  0.91752034  0.63996882  1.0
  H  H6  1  0.61003118  1.35226865  -0.29477949  1.0
  H  H7  1  0.35226865  1.61003118  0.33247966  1.0
  H  H8  1  0.70315718  1.16681965  0.08174046  1.0
  H  H9  1  0.16681965  1.70315718  0.04828271  1.0
  H  H10  1  0.20171729  1.16825954  0.08318035  1.0
  H  H11  1  0.16825954  1.20171729  0.54684282  1.0
  H  H12  1  0.64210405  1.18863825  0.26533619  1.0
  H  H13  1  0.18863825  1.64210405  -0.09607849  1.0
  H  H14  1  0.34607849  0.98466381  0.06136175  1.0
  H  H15  1  -0.01533619  1.34607849  0.60789595  1.0
  C  C16  1  1.04084305  0.04084305  -0.04084305  1.0
  C  C17  1  0.29084305  1.29084305  0.20915695  1.0
  C  C18  1  -0.17711850  0.29960506  1.03457104  1.0
  C  C19  1  -0.70039494  0.82288150  0.84294240  1.0
  C  C20  1  0.40705760  1.21542896  -0.04960506  1.0
  C  C21  1  0.21542896  1.40705760  0.42711850  1.0
  N  N22  1  0.08537124  0.31136959  0.85087255  1.0
  N  N23  1  -0.68863041  1.08537124  0.75238661  1.0
  N  N24  1  0.49761339  1.39912745  -0.06136959  1.0
  N  N25  1  0.39912745  1.49761339  0.16462876  1.0
  O  O26  1  0.76730272  -0.23269728  0.23269728  1.0
  O  O27  1  0.01730272  1.01730272  0.48269728  1.0
