# generated using pymatgen
data_Y3Sn3Au7
_symmetry_space_group_name_H-M   'P 1'
_cell_length_a   8.27768531
_cell_length_b   8.27768531
_cell_length_c   9.49023073
_cell_angle_alpha   90.00000000
_cell_angle_beta   90.00000000
_cell_angle_gamma   120.00000000
_symmetry_Int_Tables_number   1
_chemical_formula_structural   Y3Sn3Au7
_chemical_formula_sum   'Y6 Sn6 Au14'
_cell_volume   563.15147611
_cell_formula_units_Z   2
loop_
 _symmetry_equiv_pos_site_id
 _symmetry_equiv_pos_as_xyz
  1  'x, y, z'
loop_
 _atom_site_type_symbol
 _atom_site_label
 _atom_site_symmetry_multiplicity
 _atom_site_fract_x
 _atom_site_fract_y
 _atom_site_fract_z
 _atom_site_occupancy
  Y  Y0  1  0.01908097  0.69896030  0.25000000  1.0
  Y  Y1  1  0.69896030  0.67987933  0.75000000  1.0
  Y  Y2  1  0.67987933  0.98091903  0.25000000  1.0
  Y  Y3  1  0.30103970  0.32012067  0.25000000  1.0
  Y  Y4  1  0.98091903  0.30103970  0.75000000  1.0
  Y  Y5  1  0.32012067  0.01908097  0.75000000  1.0
  Sn  Sn6  1  0.33333333  0.66666667  0.45476904  1.0
  Sn  Sn7  1  0.33333333  0.66666667  0.04523096  1.0
  Sn  Sn8  1  0.66666667  0.33333333  0.95476904  1.0
  Sn  Sn9  1  0.66666667  0.33333333  0.54523096  1.0
  Sn  Sn10  1  0.00000000  0.00000000  0.50000000  1.0
  Sn  Sn11  1  0.00000000  0.00000000  0.00000000  1.0
  Au  Au12  1  0.66778168  0.65191718  0.40296198  1.0
  Au  Au13  1  0.66778168  0.65191718  0.09703802  1.0
  Au  Au14  1  0.65191718  0.98413550  0.90296198  1.0
  Au  Au15  1  0.65191718  0.98413550  0.59703802  1.0
  Au  Au16  1  0.98413550  0.33221832  0.40296198  1.0
  Au  Au17  1  0.98413550  0.33221832  0.09703802  1.0
  Au  Au18  1  0.34808282  0.01586450  0.40296198  1.0
  Au  Au19  1  0.34808282  0.01586450  0.09703802  1.0
  Au  Au20  1  0.33221832  0.34808282  0.90296198  1.0
  Au  Au21  1  0.33221832  0.34808282  0.59703802  1.0
  Au  Au22  1  0.01586450  0.66778168  0.90296198  1.0
  Au  Au23  1  0.01586450  0.66778168  0.59703802  1.0
  Au  Au24  1  0.66666667  0.33333333  0.25000000  1.0
  Au  Au25  1  0.33333333  0.66666667  0.75000000  1.0
