# generated using pymatgen
data_P4Ru
_symmetry_space_group_name_H-M   'P 1'
_cell_length_a   4.71349999
_cell_length_b   4.70572456
_cell_length_c   7.15261311
_cell_angle_alpha   90.00000000
_cell_angle_beta   99.44902235
_cell_angle_gamma   90.00000000
_symmetry_Int_Tables_number   1
_chemical_formula_structural   P4Ru
_chemical_formula_sum   'P8 Ru2'
_cell_volume   156.49552588
_cell_formula_units_Z   2
loop_
 _symmetry_equiv_pos_site_id
 _symmetry_equiv_pos_as_xyz
  1  'x, y, z'
loop_
 _atom_site_type_symbol
 _atom_site_label
 _atom_site_symmetry_multiplicity
 _atom_site_fract_x
 _atom_site_fract_y
 _atom_site_fract_z
 _atom_site_occupancy
  P  P0  1  0.78639606  0.19148858  0.25158597  1.0
  P  P1  1  0.78639606  0.30851142  0.75158597  1.0
  P  P2  1  0.21360394  0.69148858  0.24841403  1.0
  P  P3  1  0.21360394  0.80851142  0.74841403  1.0
  P  P4  1  0.62134928  0.84947729  0.41157782  1.0
  P  P5  1  0.62134928  0.65052271  0.91157782  1.0
  P  P6  1  0.37865072  0.34947729  0.08842218  1.0
  P  P7  1  0.37865072  0.15052271  0.58842218  1.0
  Ru  Ru8  1  -0.00000000  0.50000000  0.50000000  1.0
  Ru  Ru9  1  0.00000000  0.00000000  0.00000000  1.0
