# generated using pymatgen
data_K2H2Se(IO5)2
_symmetry_space_group_name_H-M   'P 1'
_cell_length_a   10.52625093
_cell_length_b   10.52625093
_cell_length_c   14.59826424
_cell_angle_alpha   49.04581321
_cell_angle_beta   130.95418679
_cell_angle_gamma   152.54277573
_symmetry_Int_Tables_number   1
_chemical_formula_structural   K2H2Se(IO5)2
_chemical_formula_sum   'K4 H4 Se2 I4 O20'
_cell_volume   550.45800337
_cell_formula_units_Z   2
loop_
 _symmetry_equiv_pos_site_id
 _symmetry_equiv_pos_as_xyz
  1  'x, y, z'
loop_
 _atom_site_type_symbol
 _atom_site_label
 _atom_site_symmetry_multiplicity
 _atom_site_fract_x
 _atom_site_fract_y
 _atom_site_fract_z
 _atom_site_occupancy
  K  K0  1  0.36317861  0.16167817  0.15370509  1.0
  K  K1  1  0.83832183  -0.36317861  0.65370509  1.0
  K  K2  1  1.16167817  0.36317861  0.34629491  1.0
  K  K3  1  1.63682139  -0.16167817  0.84629491  1.0
  H  H4  1  0.48865403  0.02022784  0.10708337  1.0
  H  H5  1  0.97977216  -0.48865403  0.60708337  1.0
  H  H6  1  1.02022784  0.48865403  0.39291663  1.0
  H  H7  1  1.51134597  -0.02022784  0.89291663  1.0
  Se  Se8  1  0.81202166  0.81202166  0.25000000  1.0
  Se  Se9  1  0.18797834  0.18797834  0.75000000  1.0
  I  I10  1  0.53865727  -0.14302968  0.50310701  1.0
  I  I11  1  1.14302968  -0.53865727  1.00310701  1.0
  I  I12  1  0.85697032  0.53865727  -0.00310701  1.0
  I  I13  1  1.46134273  0.14302968  0.49689299  1.0
  O  O14  1  1.60894739  -0.35945831  0.14211478  1.0
  O  O15  1  1.35945831  -0.60894739  0.64211478  1.0
  O  O16  1  0.64054169  0.60894739  0.35788522  1.0
  O  O17  1  0.39105261  0.35945831  0.85788522  1.0
  O  O18  1  0.72523632  -0.08928229  0.46775065  1.0
  O  O19  1  1.08928229  -0.72523632  0.96775065  1.0
  O  O20  1  0.91071771  0.72523632  0.03224935  1.0
  O  O21  1  1.27476368  0.08928229  0.53224935  1.0
  O  O22  1  0.68785078  0.19713283  0.41429118  1.0
  O  O23  1  0.80286717  -0.68785078  0.91429118  1.0
  O  O24  1  1.19713283  0.68785078  0.08570882  1.0
  O  O25  1  1.31214922  -0.19713283  0.58570882  1.0
  O  O26  1  0.64862627  0.19983206  0.13426421  1.0
  O  O27  1  0.80016794  -0.64862627  0.63426421  1.0
  O  O28  1  1.19983206  0.64862627  0.36573579  1.0
  O  O29  1  1.35137373  -0.19983206  0.86573579  1.0
  O  O30  1  0.09499384  -0.08358987  0.31509691  1.0
  O  O31  1  1.08358987  0.90500616  0.81509691  1.0
  O  O32  1  0.91641013  -0.90500616  0.18490309  1.0
  O  O33  1  1.90500616  0.08358987  0.68490309  1.0
