# generated using pymatgen
data_LaSi
_symmetry_space_group_name_H-M   'P 1'
_cell_length_a   8.45795224
_cell_length_b   4.01066967
_cell_length_c   6.06222458
_cell_angle_alpha   90.00000000
_cell_angle_beta   90.00000000
_cell_angle_gamma   90.00000000
_symmetry_Int_Tables_number   1
_chemical_formula_structural   LaSi
_chemical_formula_sum   'La4 Si4'
_cell_volume   205.64310076
_cell_formula_units_Z   4
loop_
 _symmetry_equiv_pos_site_id
 _symmetry_equiv_pos_as_xyz
  1  'x, y, z'
loop_
 _atom_site_type_symbol
 _atom_site_label
 _atom_site_symmetry_multiplicity
 _atom_site_fract_x
 _atom_site_fract_y
 _atom_site_fract_z
 _atom_site_occupancy
  La  La0  1  0.32038418  0.75000000  0.11333255  1.0
  La  La1  1  0.82038418  0.75000000  0.38666745  1.0
  La  La2  1  0.67961582  0.25000000  0.88666745  1.0
  La  La3  1  0.17961582  0.25000000  0.61333255  1.0
  Si  Si4  1  0.46660449  0.75000000  0.61682397  1.0
  Si  Si5  1  0.96660449  0.75000000  0.88317603  1.0
  Si  Si6  1  0.53339551  0.25000000  0.38317603  1.0
  Si  Si7  1  0.03339551  0.25000000  0.11682397  1.0
