# generated using pymatgen
data_Sr(In4Rh)2
_symmetry_space_group_name_H-M   'P 1'
_cell_length_a   14.09854142
_cell_length_b   16.42818190
_cell_length_c   4.44586228
_cell_angle_alpha   90.00000000
_cell_angle_beta   90.00000000
_cell_angle_gamma   90.00000000
_symmetry_Int_Tables_number   1
_chemical_formula_structural   Sr(In4Rh)2
_chemical_formula_sum   'Sr4 In32 Rh8'
_cell_volume   1029.72129215
_cell_formula_units_Z   4
loop_
 _symmetry_equiv_pos_site_id
 _symmetry_equiv_pos_as_xyz
  1  'x, y, z'
loop_
 _atom_site_type_symbol
 _atom_site_label
 _atom_site_symmetry_multiplicity
 _atom_site_fract_x
 _atom_site_fract_y
 _atom_site_fract_z
 _atom_site_occupancy
  Sr  Sr0  1  0.15746560  0.81933402  0.00000000  1.0
  Sr  Sr1  1  0.65746560  0.68066598  -0.00000000  1.0
  Sr  Sr2  1  0.84253440  0.18066598  0.00000000  1.0
  Sr  Sr3  1  0.34253440  0.31933402  -0.00000000  1.0
  In  In4  1  0.47975606  0.63345890  0.50000000  1.0
  In  In5  1  0.97975606  0.86654110  0.50000000  1.0
  In  In6  1  0.52024394  0.36654110  0.50000000  1.0
  In  In7  1  0.02024394  0.13345890  0.50000000  1.0
  In  In8  1  0.32960477  0.48956427  0.50000000  1.0
  In  In9  1  0.82960477  0.01043573  0.50000000  1.0
  In  In10  1  0.67039523  0.51043573  0.50000000  1.0
  In  In11  1  0.17039523  0.98956427  0.50000000  1.0
  In  In12  1  0.33398909  0.87784795  0.50000000  1.0
  In  In13  1  0.83398909  0.62215205  0.50000000  1.0
  In  In14  1  0.66601091  0.12215205  0.50000000  1.0
  In  In15  1  0.16601091  0.37784795  0.50000000  1.0
  In  In16  1  0.26025568  0.67673432  0.50000000  1.0
  In  In17  1  0.76025568  0.82326568  0.50000000  1.0
  In  In18  1  0.73974432  0.32326568  0.50000000  1.0
  In  In19  1  0.23974432  0.17673432  0.50000000  1.0
  In  In20  1  0.05028183  0.68267435  0.50000000  1.0
  In  In21  1  0.55028183  0.81732565  0.50000000  1.0
  In  In22  1  0.94971817  0.31732565  0.50000000  1.0
  In  In23  1  0.44971817  0.18267435  0.50000000  1.0
  In  In24  1  0.39967184  0.75350518  -0.00000000  1.0
  In  In25  1  0.89967184  0.74649482  0.00000000  1.0
  In  In26  1  0.60032816  0.24649482  -0.00000000  1.0
  In  In27  1  0.10032816  0.25350518  0.00000000  1.0
  In  In28  1  0.15970292  0.54433679  -0.00000000  1.0
  In  In29  1  0.65970292  0.95566321  -0.00000000  1.0
  In  In30  1  0.84029708  0.45566321  -0.00000000  1.0
  In  In31  1  0.34029708  0.04433679  -0.00000000  1.0
  In  In32  1  0.50000000  0.00000000  0.50000000  1.0
  In  In33  1  0.00000000  0.50000000  0.50000000  1.0
  In  In34  1  0.50000000  0.50000000  0.00000000  1.0
  In  In35  1  0.00000000  0.00000000  0.00000000  1.0
  Rh  Rh36  1  0.46554128  0.90479781  -0.00000000  1.0
  Rh  Rh37  1  0.96554128  0.59520219  0.00000000  1.0
  Rh  Rh38  1  0.53445872  0.09520219  -0.00000000  1.0
  Rh  Rh39  1  0.03445872  0.40479781  0.00000000  1.0
  Rh  Rh40  1  0.34603420  0.59657640  -0.00000000  1.0
  Rh  Rh41  1  0.84603420  0.90342360  0.00000000  1.0
  Rh  Rh42  1  0.65396580  0.40342360  -0.00000000  1.0
  Rh  Rh43  1  0.15396580  0.09657640  0.00000000  1.0
