# generated using pymatgen
data_FeAs2PbO8
_symmetry_space_group_name_H-M   'P 1'
_cell_length_a   4.83321291
_cell_length_b   8.71801404
_cell_length_c   16.31226025
_cell_angle_alpha   90.00000000
_cell_angle_beta   104.64041127
_cell_angle_gamma   90.00000000
_symmetry_Int_Tables_number   1
_chemical_formula_structural   FeAs2PbO8
_chemical_formula_sum   'Fe4 As8 Pb4 O32'
_cell_volume   665.01675244
_cell_formula_units_Z   4
loop_
 _symmetry_equiv_pos_site_id
 _symmetry_equiv_pos_as_xyz
  1  'x, y, z'
loop_
 _atom_site_type_symbol
 _atom_site_label
 _atom_site_symmetry_multiplicity
 _atom_site_fract_x
 _atom_site_fract_y
 _atom_site_fract_z
 _atom_site_occupancy
  Fe  Fe0  1  0.81799581  0.94272310  0.14658090  1.0
  Fe  Fe1  1  0.81799581  0.55727690  0.64658090  1.0
  Fe  Fe2  1  0.18200419  0.44272310  0.35341910  1.0
  Fe  Fe3  1  0.18200419  0.05727690  0.85341910  1.0
  Pb  Pb4  1  0.21270187  0.01941186  0.38474386  1.0
  Pb  Pb5  1  0.21270187  0.48058814  0.88474386  1.0
  Pb  Pb6  1  0.78729813  0.51941186  0.11525614  1.0
  Pb  Pb7  1  0.78729813  0.98058814  0.61525614  1.0
  O  O8  1  0.92702724  0.80293645  0.07342435  1.0
  O  O9  1  0.92702724  0.69706355  0.57342435  1.0
  O  O10  1  0.07297276  0.30293645  0.42657565  1.0
  O  O11  1  0.07297276  0.19706355  0.92657565  1.0
  O  O12  1  0.92637043  0.12437006  0.08102663  1.0
  O  O13  1  0.92637043  0.37562994  0.58102663  1.0
  O  O14  1  0.07362957  0.62437006  0.41897337  1.0
  O  O15  1  0.07362957  0.87562994  0.91897337  1.0
  O  O16  1  0.84609449  0.40236479  0.26966637  1.0
  O  O17  1  0.84609449  0.09763521  0.76966637  1.0
  O  O18  1  0.15390551  0.90236479  0.23033363  1.0
  O  O19  1  0.15390551  0.59763521  0.73033363  1.0
  O  O20  1  0.74159291  0.07855544  0.23076234  1.0
  O  O21  1  0.74159291  0.42144456  0.73076234  1.0
  O  O22  1  0.25840709  0.57855544  0.26923766  1.0
  O  O23  1  0.25840709  0.92144456  0.76923766  1.0
  O  O24  1  0.66823629  0.13056848  0.47464638  1.0
  O  O25  1  0.66823629  0.36943152  0.97464638  1.0
  O  O26  1  0.33176371  0.63056848  0.02535362  1.0
  O  O27  1  0.33176371  0.86943152  0.52535362  1.0
  O  O28  1  0.36160461  0.24038140  0.30129457  1.0
  O  O29  1  0.36160461  0.25961860  0.80129457  1.0
  O  O30  1  0.63839539  0.74038140  0.19870543  1.0
  O  O31  1  0.63839539  0.75961860  0.69870543  1.0
  O  O32  1  0.55348824  0.45825867  0.42165369  1.0
  O  O33  1  0.55348824  0.04174133  0.92165369  1.0
  O  O34  1  0.44651176  0.95825867  0.07834631  1.0
  O  O35  1  0.44651176  0.54174133  0.57834631  1.0
  O  O36  1  0.42405674  0.34021309  0.13580257  1.0
  O  O37  1  0.42405674  0.15978691  0.63580257  1.0
  O  O38  1  0.57594326  0.84021309  0.36419743  1.0
  O  O39  1  0.57594326  0.65978691  0.86419743  1.0
  As  As40  1  0.78591247  0.31779322  0.47791141  1.0
  As  As41  1  0.78591247  0.18220678  0.97791141  1.0
  As  As42  1  0.21408753  0.81779322  0.02208859  1.0
  As  As43  1  0.21408753  0.68220678  0.52208859  1.0
  As  As44  1  0.57523161  0.25864280  0.23182186  1.0
  As  As45  1  0.57523161  0.24135720  0.73182186  1.0
  As  As46  1  0.42476839  0.75864280  0.26817814  1.0
  As  As47  1  0.42476839  0.74135720  0.76817814  1.0
