# generated using pymatgen
data_Cs3Yb2Cl9
_symmetry_space_group_name_H-M   'P 1'
_cell_length_a   9.93123615
_cell_length_b   9.93123615
_cell_length_c   9.93123615
_cell_angle_alpha   83.33351656
_cell_angle_beta   83.33351656
_cell_angle_gamma   83.33351656
_symmetry_Int_Tables_number   1
_chemical_formula_structural   Cs3Yb2Cl9
_chemical_formula_sum   'Cs6 Yb4 Cl18'
_cell_volume   961.07014921
_cell_formula_units_Z   2
loop_
 _symmetry_equiv_pos_site_id
 _symmetry_equiv_pos_as_xyz
  1  'x, y, z'
loop_
 _atom_site_type_symbol
 _atom_site_label
 _atom_site_symmetry_multiplicity
 _atom_site_fract_x
 _atom_site_fract_y
 _atom_site_fract_z
 _atom_site_occupancy
  Cs  Cs0  1  0.59020193  0.25000000  -0.09020193  1.0
  Cs  Cs1  1  1.09020193  -0.59020193  -0.25000000  1.0
  Cs  Cs2  1  0.75000000  0.09020193  -0.59020193  1.0
  Cs  Cs3  1  0.25000000  0.90979807  -0.40979807  1.0
  Cs  Cs4  1  0.40979807  -0.25000000  0.09020193  1.0
  Cs  Cs5  1  0.90979807  -0.40979807  0.25000000  1.0
  Yb  Yb6  1  0.34681391  0.34681391  -0.65318609  1.0
  Yb  Yb7  1  0.84681391  0.84681391  -0.15318609  1.0
  Yb  Yb8  1  1.15318609  1.15318609  0.15318609  1.0
  Yb  Yb9  1  0.65318609  0.65318609  -0.34681391  1.0
  Cl  Cl10  1  0.23668249  0.57814261  -0.58549222  1.0
  Cl  Cl11  1  0.73668249  -0.08549222  0.07814261  1.0
  Cl  Cl12  1  1.08549222  -0.07814261  -0.73668249  1.0
  Cl  Cl13  1  0.58549222  0.76331751  -0.57814261  1.0
  Cl  Cl14  1  0.42185739  0.58549222  -0.23668249  1.0
  Cl  Cl15  1  0.92185739  -0.73668249  0.08549222  1.0
  Cl  Cl16  1  0.76331751  0.42185739  -0.41450778  1.0
  Cl  Cl17  1  0.26331751  0.08549222  -0.07814261  1.0
  Cl  Cl18  1  0.41450778  0.23668249  -0.42185739  1.0
  Cl  Cl19  1  0.91450778  0.07814261  -0.26331751  1.0
  Cl  Cl20  1  1.07814261  -0.26331751  -0.08549222  1.0
  Cl  Cl21  1  0.57814261  0.41450778  -0.76331751  1.0
  Cl  Cl22  1  1.09829485  1.25000000  0.40170515  1.0
  Cl  Cl23  1  0.59829485  0.90170515  -0.25000000  1.0
  Cl  Cl24  1  0.75000000  0.59829485  -0.09829485  1.0
  Cl  Cl25  1  1.25000000  1.40170515  0.09829485  1.0
  Cl  Cl26  1  0.90170515  0.75000000  -0.40170515  1.0
  Cl  Cl27  1  1.40170515  1.09829485  0.25000000  1.0
