# generated using pymatgen
data_Ba5Re3ClO15
_symmetry_space_group_name_H-M   'P 1'
_cell_length_a   11.08905679
_cell_length_b   11.08905679
_cell_length_c   7.94305376
_cell_angle_alpha   90.00000000
_cell_angle_beta   90.00000000
_cell_angle_gamma   120.00000000
_symmetry_Int_Tables_number   1
_chemical_formula_structural   Ba5Re3ClO15
_chemical_formula_sum   'Ba10 Re6 Cl2 O30'
_cell_volume   845.87725819
_cell_formula_units_Z   2
loop_
 _symmetry_equiv_pos_site_id
 _symmetry_equiv_pos_as_xyz
  1  'x, y, z'
loop_
 _atom_site_type_symbol
 _atom_site_label
 _atom_site_symmetry_multiplicity
 _atom_site_fract_x
 _atom_site_fract_y
 _atom_site_fract_z
 _atom_site_occupancy
  Ba  Ba0  1  0.26660054  0.26660054  0.22169220  1.0
  Ba  Ba1  1  0.26660054  0.00000000  0.72169220  1.0
  Ba  Ba2  1  -0.00000000  0.26660054  0.72169220  1.0
  Ba  Ba3  1  -0.00000000  0.73339946  0.22169220  1.0
  Ba  Ba4  1  0.73339946  0.73339946  0.72169220  1.0
  Ba  Ba5  1  0.73339946  0.00000000  0.22169220  1.0
  Ba  Ba6  1  0.33333333  0.66666667  0.46196898  1.0
  Ba  Ba7  1  0.33333333  0.66666667  0.96196898  1.0
  Ba  Ba8  1  0.66666667  0.33333333  0.46196898  1.0
  Ba  Ba9  1  0.66666667  0.33333333  0.96196898  1.0
  Re  Re10  1  0.60918521  0.60918521  0.16462298  1.0
  Re  Re11  1  0.60918521  0.00000000  0.66462298  1.0
  Re  Re12  1  0.00000000  0.60918521  0.66462298  1.0
  Re  Re13  1  0.00000000  0.39081479  0.16462298  1.0
  Re  Re14  1  0.39081479  0.39081479  0.66462298  1.0
  Re  Re15  1  0.39081479  0.00000000  0.16462298  1.0
  Cl  Cl16  1  0.00000000  0.00000000  0.04147021  1.0
  Cl  Cl17  1  0.00000000  0.00000000  0.54147021  1.0
  O  O18  1  0.44577080  0.86961847  0.20557836  1.0
  O  O19  1  0.44577080  0.57615232  0.70557836  1.0
  O  O20  1  0.86961847  0.44577080  0.20557836  1.0
  O  O21  1  0.86961847  0.42384768  0.70557836  1.0
  O  O22  1  0.42384768  0.86961847  0.70557836  1.0
  O  O23  1  0.42384768  0.55422920  0.20557836  1.0
  O  O24  1  0.13038153  0.55422920  0.70557836  1.0
  O  O25  1  0.13038153  0.57615232  0.20557836  1.0
  O  O26  1  0.55422920  0.42384768  0.20557836  1.0
  O  O27  1  0.55422920  0.13038153  0.70557836  1.0
  O  O28  1  0.57615232  0.44577080  0.70557836  1.0
  O  O29  1  0.57615232  0.13038153  0.20557836  1.0
  O  O30  1  0.25860739  0.86859318  0.02403162  1.0
  O  O31  1  0.25860739  0.39001421  0.52403162  1.0
  O  O32  1  0.86859318  0.25860739  0.02403162  1.0
  O  O33  1  0.86859318  0.60998579  0.52403162  1.0
  O  O34  1  0.60998579  0.86859318  0.52403162  1.0
  O  O35  1  0.60998579  0.74139261  0.02403162  1.0
  O  O36  1  0.13140682  0.74139261  0.52403162  1.0
  O  O37  1  0.13140682  0.39001421  0.02403162  1.0
  O  O38  1  0.74139261  0.60998579  0.02403162  1.0
  O  O39  1  0.74139261  0.13140682  0.52403162  1.0
  O  O40  1  0.39001421  0.25860739  0.52403162  1.0
  O  O41  1  0.39001421  0.13140682  0.02403162  1.0
  O  O42  1  0.70479510  0.70479510  0.34056215  1.0
  O  O43  1  0.70479510  0.00000000  0.84056215  1.0
  O  O44  1  0.00000000  0.70479510  0.84056215  1.0
  O  O45  1  -0.00000000  0.29520490  0.34056215  1.0
  O  O46  1  0.29520490  0.29520490  0.84056215  1.0
  O  O47  1  0.29520490  0.00000000  0.34056215  1.0
