# generated using pymatgen
data_Sr5P3ClO12
_symmetry_space_group_name_H-M   'P 1'
_cell_length_a   10.21063129
_cell_length_b   10.21063129
_cell_length_c   7.25743150
_cell_angle_alpha   90.00000000
_cell_angle_beta   90.00000000
_cell_angle_gamma   120.00000000
_symmetry_Int_Tables_number   1
_chemical_formula_structural   Sr5P3ClO12
_chemical_formula_sum   'Sr10 P6 Cl2 O24'
_cell_volume   655.26770631
_cell_formula_units_Z   2
loop_
 _symmetry_equiv_pos_site_id
 _symmetry_equiv_pos_as_xyz
  1  'x, y, z'
loop_
 _atom_site_type_symbol
 _atom_site_label
 _atom_site_symmetry_multiplicity
 _atom_site_fract_x
 _atom_site_fract_y
 _atom_site_fract_z
 _atom_site_occupancy
  Sr  Sr0  1  0.00275883  0.72977932  0.25000000  1.0
  Sr  Sr1  1  0.72977932  0.72702049  0.75000000  1.0
  Sr  Sr2  1  0.72702049  0.99724117  0.25000000  1.0
  Sr  Sr3  1  0.27022068  0.27297951  0.25000000  1.0
  Sr  Sr4  1  0.99724117  0.27022068  0.75000000  1.0
  Sr  Sr5  1  0.27297951  0.00275883  0.75000000  1.0
  Sr  Sr6  1  0.33333333  0.66666667  0.49791883  1.0
  Sr  Sr7  1  0.33333333  0.66666667  0.00208117  1.0
  Sr  Sr8  1  0.66666667  0.33333333  0.99791883  1.0
  Sr  Sr9  1  0.66666667  0.33333333  0.50208117  1.0
  P  P10  1  0.63098507  0.59246391  0.25000000  1.0
  P  P11  1  0.59246391  0.96147884  0.75000000  1.0
  P  P12  1  0.96147884  0.36901493  0.25000000  1.0
  P  P13  1  0.40753609  0.03852116  0.25000000  1.0
  P  P14  1  0.36901493  0.40753609  0.75000000  1.0
  P  P15  1  0.03852116  0.63098507  0.75000000  1.0
  Cl  Cl16  1  -0.00000000  -0.00000000  0.25000000  1.0
  Cl  Cl17  1  0.00000000  0.00000000  0.75000000  1.0
  O  O18  1  0.73355630  0.64414597  0.42484521  1.0
  O  O19  1  0.73355630  0.64414597  0.07515479  1.0
  O  O20  1  0.64414597  0.91058967  0.92484521  1.0
  O  O21  1  0.64414597  0.91058967  0.57515479  1.0
  O  O22  1  0.91058967  0.26644370  0.42484521  1.0
  O  O23  1  0.91058967  0.26644370  0.07515479  1.0
  O  O24  1  0.35585403  0.08941033  0.42484521  1.0
  O  O25  1  0.35585403  0.08941033  0.07515479  1.0
  O  O26  1  0.26644370  0.35585403  0.92484521  1.0
  O  O27  1  0.26644370  0.35585403  0.57515479  1.0
  O  O28  1  0.08941033  0.73355630  0.92484521  1.0
  O  O29  1  0.08941033  0.73355630  0.57515479  1.0
  O  O30  1  0.34987071  0.86447227  0.25000000  1.0
  O  O31  1  0.86447227  0.51460156  0.75000000  1.0
  O  O32  1  0.51460156  0.65012929  0.25000000  1.0
  O  O33  1  0.13552773  0.48539844  0.25000000  1.0
  O  O34  1  0.65012929  0.13552773  0.75000000  1.0
  O  O35  1  0.48539844  0.34987071  0.75000000  1.0
  O  O36  1  0.54459684  0.41427558  0.25000000  1.0
  O  O37  1  0.41427558  0.86967874  0.75000000  1.0
  O  O38  1  0.86967874  0.45540316  0.25000000  1.0
  O  O39  1  0.58572442  0.13032126  0.25000000  1.0
  O  O40  1  0.45540316  0.58572442  0.75000000  1.0
  O  O41  1  0.13032126  0.54459684  0.75000000  1.0
