# generated using pymatgen
data_NaBO2
_symmetry_space_group_name_H-M   'P 1'
_cell_length_a   7.27017655
_cell_length_b   7.27017655
_cell_length_c   7.27017655
_cell_angle_alpha   111.26477217
_cell_angle_beta   111.26477217
_cell_angle_gamma   111.26477217
_symmetry_Int_Tables_number   1
_chemical_formula_structural   NaBO2
_chemical_formula_sum   'Na6 B6 O12'
_cell_volume   274.41811212
_cell_formula_units_Z   6
loop_
 _symmetry_equiv_pos_site_id
 _symmetry_equiv_pos_as_xyz
  1  'x, y, z'
loop_
 _atom_site_type_symbol
 _atom_site_label
 _atom_site_symmetry_multiplicity
 _atom_site_fract_x
 _atom_site_fract_y
 _atom_site_fract_z
 _atom_site_occupancy
  Na  Na0  1  1.31307706  -0.25000000  0.18692294  1.0
  Na  Na1  1  0.81307706  0.68692294  0.25000000  1.0
  Na  Na2  1  1.25000000  0.81307706  0.68692294  1.0
  Na  Na3  1  0.75000000  1.18692294  0.31307706  1.0
  Na  Na4  1  0.68692294  0.25000000  -0.18692294  1.0
  Na  Na5  1  0.18692294  0.31307706  -0.25000000  1.0
  B  B6  1  0.62937500  0.75000000  -0.12937500  1.0
  B  B7  1  1.12937500  0.37062500  0.25000000  1.0
  B  B8  1  1.25000000  1.12937500  0.37062500  1.0
  B  B9  1  0.75000000  0.87062500  0.62937500  1.0
  B  B10  1  0.37062500  0.25000000  0.12937500  1.0
  B  B11  1  0.87062500  -0.37062500  -0.25000000  1.0
  O  O12  1  0.51967536  0.75000000  -0.01967536  1.0
  O  O13  1  1.01967536  0.48032464  0.25000000  1.0
  O  O14  1  1.25000000  1.01967536  0.48032464  1.0
  O  O15  1  0.75000000  0.98032464  0.51967536  1.0
  O  O16  1  0.48032464  0.25000000  0.01967536  1.0
  O  O17  1  0.98032464  -0.48032464  -0.25000000  1.0
  O  O18  1  0.86605428  0.75000000  0.63394572  1.0
  O  O19  1  1.36605428  0.13394572  0.25000000  1.0
  O  O20  1  0.25000000  0.36605428  0.13394572  1.0
  O  O21  1  0.75000000  0.63394572  -0.13394572  1.0
  O  O22  1  1.13394572  1.25000000  0.36605428  1.0
  O  O23  1  0.63394572  -0.13394572  -0.25000000  1.0
