# generated using pymatgen
data_KMoP2O7
_symmetry_space_group_name_H-M   'P 1'
_cell_length_a   7.52331412
_cell_length_b   10.49373205
_cell_length_c   8.48773053
_cell_angle_alpha   90.00000000
_cell_angle_beta   107.25974932
_cell_angle_gamma   90.00000000
_symmetry_Int_Tables_number   1
_chemical_formula_structural   KMoP2O7
_chemical_formula_sum   'K4 Mo4 P8 O28'
_cell_volume   639.91197472
_cell_formula_units_Z   4
loop_
 _symmetry_equiv_pos_site_id
 _symmetry_equiv_pos_as_xyz
  1  'x, y, z'
loop_
 _atom_site_type_symbol
 _atom_site_label
 _atom_site_symmetry_multiplicity
 _atom_site_fract_x
 _atom_site_fract_y
 _atom_site_fract_z
 _atom_site_occupancy
  Mo  Mo0  1  0.76484283  0.39913424  0.74018474  1.0
  Mo  Mo1  1  0.23515717  0.89913424  0.75981526  1.0
  Mo  Mo2  1  0.23515717  0.60086576  0.25981526  1.0
  Mo  Mo3  1  0.76484283  0.10086576  0.24018474  1.0
  K  K4  1  0.82401542  0.82514503  0.93817568  1.0
  K  K5  1  0.17598458  0.32514503  0.56182432  1.0
  K  K6  1  0.17598458  0.17485497  0.06182432  1.0
  K  K7  1  0.82401542  0.67485497  0.43817568  1.0
  P  P8  1  0.55791212  0.36255442  0.30490167  1.0
  P  P9  1  0.44208788  0.86255442  0.19509833  1.0
  P  P10  1  0.44208788  0.63744558  0.69509833  1.0
  P  P11  1  0.55791212  0.13744558  0.80490167  1.0
  P  P12  1  0.86936404  0.10006323  0.67382901  1.0
  P  P13  1  0.13063596  0.60006323  0.82617099  1.0
  P  P14  1  0.13063596  0.89993677  0.32617099  1.0
  P  P15  1  0.86936404  0.39993677  0.17382901  1.0
  O  O16  1  0.92577241  0.23238233  0.75392436  1.0
  O  O17  1  0.07422759  0.73238233  0.74607564  1.0
  O  O18  1  0.07422759  0.76761767  0.24607564  1.0
  O  O19  1  0.92577241  0.26761767  0.25392436  1.0
  O  O20  1  0.67958699  0.39484938  0.47916313  1.0
  O  O21  1  0.32041301  0.89484938  0.02083687  1.0
  O  O22  1  0.32041301  0.60515062  0.52083687  1.0
  O  O23  1  0.67958699  0.10515062  0.97916313  1.0
  O  O24  1  0.63898514  0.58108826  0.74078466  1.0
  O  O25  1  0.36101486  0.08108826  0.75921534  1.0
  O  O26  1  0.36101486  0.41891174  0.25921534  1.0
  O  O27  1  0.63898514  0.91891174  0.24078466  1.0
  O  O28  1  0.86571108  0.40310465  0.99489892  1.0
  O  O29  1  0.13428892  0.90310465  0.50510108  1.0
  O  O30  1  0.13428892  0.59689535  0.00510108  1.0
  O  O31  1  0.86571108  0.09689535  0.49489892  1.0
  O  O32  1  0.54237433  0.28054771  0.75896814  1.0
  O  O33  1  0.45762567  0.78054771  0.74103186  1.0
  O  O34  1  0.45762567  0.71945229  0.24103186  1.0
  O  O35  1  0.54237433  0.21945229  0.25896814  1.0
  O  O36  1  0.00297331  0.49827760  0.71840254  1.0
  O  O37  1  0.99702669  0.99827760  0.78159746  1.0
  O  O38  1  0.99702669  0.50172240  0.28159746  1.0
  O  O39  1  0.00297331  0.00172240  0.21840254  1.0
  O  O40  1  0.66043131  0.43263913  0.18196766  1.0
  O  O41  1  0.33956869  0.93263913  0.31803234  1.0
  O  O42  1  0.33956869  0.56736087  0.81803234  1.0
  O  O43  1  0.66043131  0.06736087  0.68196766  1.0
