# generated using pymatgen
data_RbP(HO2)2
_symmetry_space_group_name_H-M   'P 1'
_cell_length_a   6.55660539
_cell_length_b   6.69135348
_cell_length_c   7.77395260
_cell_angle_alpha   53.26933826
_cell_angle_beta   54.87779677
_cell_angle_gamma   71.85286497
_symmetry_Int_Tables_number   1
_chemical_formula_structural   RbP(HO2)2
_chemical_formula_sum   'Rb2 P2 H4 O8'
_cell_volume   223.30100457
_cell_formula_units_Z   2
loop_
 _symmetry_equiv_pos_site_id
 _symmetry_equiv_pos_as_xyz
  1  'x, y, z'
loop_
 _atom_site_type_symbol
 _atom_site_label
 _atom_site_symmetry_multiplicity
 _atom_site_fract_x
 _atom_site_fract_y
 _atom_site_fract_z
 _atom_site_occupancy
  Rb  Rb0  1  0.49658707  -0.50341293  0.50341293  1.0
  Rb  Rb1  1  0.74658707  -0.25341293  0.75341293  1.0
  P  P2  1  1.01478732  0.01478732  -0.01478732  1.0
  P  P3  1  0.26478732  0.26478732  1.23521268  1.0
  H  H4  1  -0.00376507  0.26611990  1.14566183  1.0
  H  H5  1  1.10433817  -0.34198334  0.25376507  1.0
  H  H6  1  1.26611990  -0.00376507  0.59198334  1.0
  H  H7  1  0.65801666  1.10433817  0.98388010  1.0
  O  O8  1  -0.02752644  0.79510660  1.25697262  1.0
  O  O9  1  -0.00697262  0.27455279  1.27752644  1.0
  O  O10  1  0.79510660  -0.02752644  0.97544721  1.0
  O  O11  1  0.27455279  -0.00697262  1.45489340  1.0
  O  O12  1  0.28895315  0.46243747  1.26387554  1.0
  O  O13  1  -0.01387554  0.26526616  0.96104685  1.0
  O  O14  1  0.46243747  0.28895315  0.98473384  1.0
  O  O15  1  0.26526616  -0.01387554  1.78756253  1.0
