# generated using pymatgen
data_LiN
_symmetry_space_group_name_H-M   'P 1'
_cell_length_a   5.84863513
_cell_length_b   5.84863513
_cell_length_c   5.84863513
_cell_angle_alpha   134.00533459
_cell_angle_beta   134.00533459
_cell_angle_gamma   67.07967628
_symmetry_Int_Tables_number   1
_chemical_formula_structural   LiN
_chemical_formula_sum   'Li4 N4'
_cell_volume   101.81010964
_cell_formula_units_Z   4
loop_
 _symmetry_equiv_pos_site_id
 _symmetry_equiv_pos_as_xyz
  1  'x, y, z'
loop_
 _atom_site_type_symbol
 _atom_site_label
 _atom_site_symmetry_multiplicity
 _atom_site_fract_x
 _atom_site_fract_y
 _atom_site_fract_z
 _atom_site_occupancy
  Li  Li0  1  0.74876691  0.74876691  1.00000000  1.0
  Li  Li1  1  0.25123309  0.25123309  -0.00000000  1.0
  Li  Li2  1  0.50023855  0.00023855  0.50000000  1.0
  Li  Li3  1  -0.00023855  0.49976145  0.50000000  1.0
  N  N4  1  1.12396245  1.12344536  1.49742284  1.0
  N  N5  1  0.62602252  0.62653961  0.50257716  1.0
  N  N6  1  0.37346039  0.87603755  0.99948291  1.0
  N  N7  1  0.87655464  0.37397748  1.00051709  1.0
