# generated using pymatgen
data_ZrAu2
_symmetry_space_group_name_H-M   'P 1'
_cell_length_a   5.09290996
_cell_length_b   5.09290996
_cell_length_c   5.09290996
_cell_angle_alpha   138.75045260
_cell_angle_beta   138.75045260
_cell_angle_gamma   59.75556769
_symmetry_Int_Tables_number   1
_chemical_formula_structural   ZrAu2
_chemical_formula_sum   'Zr1 Au2'
_cell_volume   56.84799544
_cell_formula_units_Z   1
loop_
 _symmetry_equiv_pos_site_id
 _symmetry_equiv_pos_as_xyz
  1  'x, y, z'
loop_
 _atom_site_type_symbol
 _atom_site_label
 _atom_site_symmetry_multiplicity
 _atom_site_fract_x
 _atom_site_fract_y
 _atom_site_fract_z
 _atom_site_occupancy
  Zr  Zr0  1  0.00000000  0.00000000  0.00000000  1.0
  Au  Au1  1  0.66800601  0.66800601  1.00000000  1.0
  Au  Au2  1  0.33199399  0.33199399  0.00000000  1.0
