# generated using pymatgen
data_V5As3
_symmetry_space_group_name_H-M   'P 1'
_cell_length_a   9.44973672
_cell_length_b   7.49240732
_cell_length_c   6.44594164
_cell_angle_alpha   90.00000000
_cell_angle_beta   90.00000000
_cell_angle_gamma   90.00000000
_symmetry_Int_Tables_number   1
_chemical_formula_structural   V5As3
_chemical_formula_sum   'V20 As12'
_cell_volume   456.38089753
_cell_formula_units_Z   4
loop_
 _symmetry_equiv_pos_site_id
 _symmetry_equiv_pos_as_xyz
  1  'x, y, z'
loop_
 _atom_site_type_symbol
 _atom_site_label
 _atom_site_symmetry_multiplicity
 _atom_site_fract_x
 _atom_site_fract_y
 _atom_site_fract_z
 _atom_site_occupancy
  V  V0  1  0.92183178  0.44153592  0.20399143  1.0
  V  V1  1  0.92183178  0.05846408  0.20399143  1.0
  V  V2  1  0.42183178  0.44153592  0.29600857  1.0
  V  V3  1  0.42183178  0.05846408  0.29600857  1.0
  V  V4  1  0.07816822  0.94153592  0.79600857  1.0
  V  V5  1  0.07816822  0.55846408  0.79600857  1.0
  V  V6  1  0.57816822  0.94153592  0.70399143  1.0
  V  V7  1  0.57816822  0.55846408  0.70399143  1.0
  V  V8  1  0.98872920  0.25000000  0.52548807  1.0
  V  V9  1  0.48872920  0.25000000  0.97451193  1.0
  V  V10  1  0.01127080  0.75000000  0.47451193  1.0
  V  V11  1  0.51127080  0.75000000  0.02548807  1.0
  V  V12  1  0.75061654  0.25000000  0.79885406  1.0
  V  V13  1  0.25061654  0.25000000  0.70114594  1.0
  V  V14  1  0.24938346  0.75000000  0.20114594  1.0
  V  V15  1  0.74938346  0.75000000  0.29885406  1.0
  V  V16  1  0.71813146  0.25000000  0.35353441  1.0
  V  V17  1  0.21813146  0.25000000  0.14646559  1.0
  V  V18  1  0.28186854  0.75000000  0.64646559  1.0
  V  V19  1  0.78186854  0.75000000  0.85353441  1.0
  As  As20  1  0.67157801  0.48375447  0.07363971  1.0
  As  As21  1  0.67157801  0.01624553  0.07363971  1.0
  As  As22  1  0.17157801  0.48375447  0.42636029  1.0
  As  As23  1  0.17157801  0.01624553  0.42636029  1.0
  As  As24  1  0.32842199  0.98375447  0.92636029  1.0
  As  As25  1  0.32842199  0.51624553  0.92636029  1.0
  As  As26  1  0.82842199  0.98375447  0.57363971  1.0
  As  As27  1  0.82842199  0.51624553  0.57363971  1.0
  As  As28  1  0.50761018  0.25000000  0.58489113  1.0
  As  As29  1  0.00761018  0.25000000  0.91510887  1.0
  As  As30  1  0.49238982  0.75000000  0.41510887  1.0
  As  As31  1  0.99238982  0.75000000  0.08489113  1.0
