# generated using pymatgen
data_CdH4(C2O3)2
_symmetry_space_group_name_H-M   'P 1'
_cell_length_a   8.58626532
_cell_length_b   8.58626532
_cell_length_c   8.58626532
_cell_angle_alpha   89.82768130
_cell_angle_beta   89.82768130
_cell_angle_gamma   89.82768130
_symmetry_Int_Tables_number   1
_chemical_formula_structural   CdH4(C2O3)2
_chemical_formula_sum   'Cd3 H12 C12 O18'
_cell_volume   633.00484209
_cell_formula_units_Z   3
loop_
 _symmetry_equiv_pos_site_id
 _symmetry_equiv_pos_as_xyz
  1  'x, y, z'
loop_
 _atom_site_type_symbol
 _atom_site_label
 _atom_site_symmetry_multiplicity
 _atom_site_fract_x
 _atom_site_fract_y
 _atom_site_fract_z
 _atom_site_occupancy
  Cd  Cd0  1  1.00000000  -0.00000000  -0.50000000  1.0
  Cd  Cd1  1  1.00000000  1.50000000  0.00000000  1.0
  Cd  Cd2  1  0.50000000  -0.00000000  0.00000000  1.0
  H  H3  1  0.74961607  -0.19576386  0.05374522  1.0
  H  H4  1  0.19576386  0.94625478  -0.74961607  1.0
  H  H5  1  0.94625478  0.25038393  -0.80423614  1.0
  H  H6  1  0.25038393  0.19576386  -0.05374522  1.0
  H  H7  1  0.80423614  0.05374522  -0.25038393  1.0
  H  H8  1  1.05374522  -0.25038393  -0.19576386  1.0
  H  H9  1  0.74745348  -0.07113865  0.19361393  1.0
  H  H10  1  0.07113865  0.80638607  -0.74745348  1.0
  H  H11  1  0.80638607  0.25254652  -0.92886135  1.0
  H  H12  1  0.25254652  0.07113865  -0.19361393  1.0
  H  H13  1  0.92886135  0.19361393  -0.25254652  1.0
  H  H14  1  1.19361393  -0.25254652  -0.07113865  1.0
  C  C15  1  0.61112024  0.54826363  0.00379893  1.0
  C  C16  1  1.45173637  0.99620107  0.38887976  1.0
  C  C17  1  0.99620107  1.38887976  0.45173637  1.0
  C  C18  1  1.38887976  1.45173637  -0.00379893  1.0
  C  C19  1  0.54826363  1.00379893  -0.38887976  1.0
  C  C20  1  1.00379893  0.61112024  -0.45173637  1.0
  C  C21  1  1.54788913  1.38907507  0.01401269  1.0
  C  C22  1  0.61092493  0.98598731  -0.54788913  1.0
  C  C23  1  0.98598731  0.45211087  -0.38907507  1.0
  C  C24  1  0.45211087  0.61092493  -0.01401269  1.0
  C  C25  1  1.38907507  1.01401269  0.54788913  1.0
  C  C26  1  1.01401269  1.54788913  0.38907507  1.0
  O  O27  1  0.74470686  0.60880899  0.00803911  1.0
  O  O28  1  1.39119101  0.99196089  0.25529314  1.0
  O  O29  1  0.99196089  1.25529314  0.39119101  1.0
  O  O30  1  1.25529314  1.39119101  -0.00803911  1.0
  O  O31  1  0.60880899  1.00803911  -0.25529314  1.0
  O  O32  1  1.00803911  0.74470686  -0.39119101  1.0
  O  O33  1  0.73221222  -0.08419436  0.07961089  1.0
  O  O34  1  1.08419436  -0.07961089  -0.73221222  1.0
  O  O35  1  0.92038911  -0.73221222  0.08419436  1.0
  O  O36  1  0.26778778  0.08419436  -0.07961089  1.0
  O  O37  1  0.91580564  0.07961089  -0.26778778  1.0
  O  O38  1  1.07961089  -0.26778778  -0.08419436  1.0
  O  O39  1  1.60750618  1.25580275  0.03232225  1.0
  O  O40  1  0.74419725  0.96767775  -0.60750618  1.0
  O  O41  1  0.96767775  0.39249382  -0.25580275  1.0
  O  O42  1  0.39249382  0.74419725  -0.03232225  1.0
  O  O43  1  1.25580275  1.03232225  0.60750618  1.0
  O  O44  1  1.03232225  1.60750618  0.25580275  1.0
