# generated using pymatgen
data_LaMoO5
_symmetry_space_group_name_H-M   'P 1'
_cell_length_a   5.45525432
_cell_length_b   13.25073656
_cell_length_c   7.23766587
_cell_angle_alpha   90.00000000
_cell_angle_beta   114.06077445
_cell_angle_gamma   90.00000000
_symmetry_Int_Tables_number   1
_chemical_formula_structural   LaMoO5
_chemical_formula_sum   'La4 Mo4 O20'
_cell_volume   477.72538754
_cell_formula_units_Z   4
loop_
 _symmetry_equiv_pos_site_id
 _symmetry_equiv_pos_as_xyz
  1  'x, y, z'
loop_
 _atom_site_type_symbol
 _atom_site_label
 _atom_site_symmetry_multiplicity
 _atom_site_fract_x
 _atom_site_fract_y
 _atom_site_fract_z
 _atom_site_occupancy
  La  La0  1  0.66028435  0.06489118  0.28533421  1.0
  La  La1  1  0.66028435  0.43510882  0.78533421  1.0
  La  La2  1  0.33971565  0.56489118  0.21466579  1.0
  La  La3  1  0.33971565  0.93510882  0.71466579  1.0
  O  O4  1  0.98770539  0.92274486  0.32695312  1.0
  O  O5  1  0.98770539  0.57725514  0.82695312  1.0
  O  O6  1  0.01229461  0.42274486  0.17304688  1.0
  O  O7  1  0.01229461  0.07725514  0.67304688  1.0
  O  O8  1  0.78748326  0.24282103  0.27969966  1.0
  O  O9  1  0.78748326  0.25717897  0.77969966  1.0
  O  O10  1  0.21251674  0.74282103  0.22030034  1.0
  O  O11  1  0.21251674  0.75717897  0.72030034  1.0
  O  O12  1  0.77159998  0.65599070  0.42390427  1.0
  O  O13  1  0.77159998  0.84400930  0.92390427  1.0
  O  O14  1  0.22840002  0.15599070  0.07609573  1.0
  O  O15  1  0.22840002  0.34400930  0.57609573  1.0
  O  O16  1  0.71223105  0.43806928  0.44785125  1.0
  O  O17  1  0.71223105  0.06193072  0.94785125  1.0
  O  O18  1  0.28776895  0.93806928  0.05214875  1.0
  O  O19  1  0.28776895  0.56193072  0.55214875  1.0
  O  O20  1  0.44337422  0.44915305  0.00595583  1.0
  O  O21  1  0.44337422  0.05084695  0.50595583  1.0
  O  O22  1  0.55662578  0.94915305  0.49404417  1.0
  O  O23  1  0.55662578  0.55084695  0.99404417  1.0
  Mo  Mo24  1  0.92756876  0.36294279  0.36364906  1.0
  Mo  Mo25  1  0.92756876  0.13705721  0.86364906  1.0
  Mo  Mo26  1  0.07243124  0.86294279  0.13635094  1.0
  Mo  Mo27  1  0.07243124  0.63705721  0.63635094  1.0
