# generated using pymatgen
data_Ca7Si6H4CO23
_symmetry_space_group_name_H-M   'P 1'
_cell_length_a   9.45710008
_cell_length_b   9.45710008
_cell_length_c   6.68249808
_cell_angle_alpha   75.40382371
_cell_angle_beta   104.59617629
_cell_angle_gamma   71.85074759
_symmetry_Int_Tables_number   1
_chemical_formula_structural   Ca7Si6H4CO23
_chemical_formula_sum   'Ca7 Si6 H4 C1 O23'
_cell_volume   512.87360181
_cell_formula_units_Z   1
loop_
 _symmetry_equiv_pos_site_id
 _symmetry_equiv_pos_as_xyz
  1  'x, y, z'
loop_
 _atom_site_type_symbol
 _atom_site_label
 _atom_site_symmetry_multiplicity
 _atom_site_fract_x
 _atom_site_fract_y
 _atom_site_fract_z
 _atom_site_occupancy
  Ca  Ca0  1  0.67081530  -0.40150281  0.14415801  1.0
  Ca  Ca1  1  1.40150281  0.32918470  0.14415801  1.0
  Ca  Ca2  1  0.96906818  -0.26200353  0.11871666  1.0
  Ca  Ca3  1  1.26200353  0.03093182  0.11871666  1.0
  Ca  Ca4  1  1.08366577  0.41644403  0.62969336  1.0
  Ca  Ca5  1  0.58355597  -0.08366577  0.62969336  1.0
  Ca  Ca6  1  0.34255886  -0.34255886  0.60443638  1.0
  Si  Si7  1  0.95662356  -0.16497391  0.56569692  1.0
  Si  Si8  1  1.16497391  0.04337644  0.56569692  1.0
  Si  Si9  1  0.71387193  -0.50442138  0.69805347  1.0
  Si  Si10  1  1.50442138  0.28612807  0.69805347  1.0
  Si  Si11  1  1.00741396  0.34560106  0.12689943  1.0
  Si  Si12  1  0.65439894  -0.00741396  0.12689943  1.0
  H  H13  1  0.00792390  -0.00792390  0.84977728  1.0
  H  H14  1  0.69282968  -0.69282968  0.43354490  1.0
  H  H15  1  0.77455044  -0.77455044  0.28779527  1.0
  H  H16  1  0.91798176  -0.91798176  0.98495338  1.0
  C  C17  1  0.34489179  -0.34489179  0.14341686  1.0
  O  O18  1  0.86881578  -0.19503818  0.73949829  1.0
  O  O19  1  1.19503818  0.13118422  0.73949829  1.0
  O  O20  1  0.79789351  -0.47218555  0.52023910  1.0
  O  O21  1  1.47218555  0.20210649  0.52023910  1.0
  O  O22  1  1.07199105  0.68547511  0.52459355  1.0
  O  O23  1  0.31452489  -0.07199105  0.52459355  1.0
  O  O24  1  0.96415549  -0.51054767  0.22119294  1.0
  O  O25  1  1.51054767  0.03584451  0.22119294  1.0
  O  O26  1  0.84796428  -0.64056175  0.93665064  1.0
  O  O27  1  1.64056175  0.15203572  0.93665064  1.0
  O  O28  1  1.24757164  0.60568841  0.21470892  1.0
  O  O29  1  0.39431159  -0.24757164  0.21470892  1.0
  O  O30  1  1.15304812  0.31987074  0.03270805  1.0
  O  O31  1  0.68012926  -0.15304812  0.03270805  1.0
  O  O32  1  1.04336532  0.17450799  0.31582074  1.0
  O  O33  1  0.82549201  -0.04336532  0.31582074  1.0
  O  O34  1  1.35521220  0.39155702  0.74944014  1.0
  O  O35  1  0.60844298  -0.35521220  0.74944014  1.0
  O  O36  1  0.01015976  -0.01015976  0.00147594  1.0
  O  O37  1  0.06315614  -0.06315614  0.64840838  1.0
  O  O38  1  0.40295023  -0.40295023  0.01044664  1.0
  O  O39  1  0.58960129  -0.58960129  0.60840297  1.0
  O  O40  1  0.68462964  -0.68462964  0.28090157  1.0
