# generated using pymatgen
data_Lu2MgSi2
_symmetry_space_group_name_H-M   'P 1'
_cell_length_a   7.03363270
_cell_length_b   7.03363270
_cell_length_c   4.10484431
_cell_angle_alpha   90.00000000
_cell_angle_beta   90.00000000
_cell_angle_gamma   90.00000000
_symmetry_Int_Tables_number   1
_chemical_formula_structural   Lu2MgSi2
_chemical_formula_sum   'Lu4 Mg2 Si4'
_cell_volume   203.07481192
_cell_formula_units_Z   2
loop_
 _symmetry_equiv_pos_site_id
 _symmetry_equiv_pos_as_xyz
  1  'x, y, z'
loop_
 _atom_site_type_symbol
 _atom_site_label
 _atom_site_symmetry_multiplicity
 _atom_site_fract_x
 _atom_site_fract_y
 _atom_site_fract_z
 _atom_site_occupancy
  Lu  Lu0  1  0.32216988  0.17783012  0.50000000  1.0
  Lu  Lu1  1  0.82216988  0.32216988  0.50000000  1.0
  Lu  Lu2  1  0.67783012  0.82216988  0.50000000  1.0
  Lu  Lu3  1  0.17783012  0.67783012  0.50000000  1.0
  Mg  Mg4  1  0.50000000  0.50000000  0.00000000  1.0
  Mg  Mg5  1  0.00000000  0.00000000  0.00000000  1.0
  Si  Si6  1  0.87999534  0.62000466  -0.00000000  1.0
  Si  Si7  1  0.37999534  0.87999534  -0.00000000  1.0
  Si  Si8  1  0.12000466  0.37999534  -0.00000000  1.0
  Si  Si9  1  0.62000466  0.12000466  -0.00000000  1.0
