# generated using pymatgen
data_AgSbH2C2(NF3)2
_symmetry_space_group_name_H-M   'P 1'
_cell_length_a   5.51218633
_cell_length_b   11.92071414
_cell_length_c   7.35865399
_cell_angle_alpha   90.00000000
_cell_angle_beta   90.00000000
_cell_angle_gamma   90.00000000
_symmetry_Int_Tables_number   1
_chemical_formula_structural   AgSbH2C2(NF3)2
_chemical_formula_sum   'Ag2 Sb2 H4 C4 N4 F12'
_cell_volume   483.53124891
_cell_formula_units_Z   2
loop_
 _symmetry_equiv_pos_site_id
 _symmetry_equiv_pos_as_xyz
  1  'x, y, z'
loop_
 _atom_site_type_symbol
 _atom_site_label
 _atom_site_symmetry_multiplicity
 _atom_site_fract_x
 _atom_site_fract_y
 _atom_site_fract_z
 _atom_site_occupancy
  Ag  Ag0  1  0.00000000  0.50000000  0.00000000  1.0
  Ag  Ag1  1  0.50000000  0.00000000  0.50000000  1.0
  Sb  Sb2  1  0.50000000  0.50000000  0.50000000  1.0
  Sb  Sb3  1  0.00000000  0.00000000  0.00000000  1.0
  H  H4  1  0.49607690  0.22361075  0.00000000  1.0
  H  H5  1  0.50392310  0.77638925  0.00000000  1.0
  H  H6  1  -0.00392310  0.27638925  0.50000000  1.0
  H  H7  1  1.00392310  0.72361075  0.50000000  1.0
  C  C8  1  0.62955803  0.29074637  0.00000000  1.0
  C  C9  1  0.37044197  0.70925363  0.00000000  1.0
  C  C10  1  0.12955803  0.20925363  0.50000000  1.0
  C  C11  1  0.87044197  0.79074637  0.50000000  1.0
  N  N12  1  0.77041270  0.36220001  0.00000000  1.0
  N  N13  1  0.22958730  0.63779999  0.00000000  1.0
  N  N14  1  0.27041270  0.13779999  0.50000000  1.0
  N  N15  1  0.72958730  0.86220001  0.50000000  1.0
  F  F16  1  0.71901852  0.37289796  0.50000000  1.0
  F  F17  1  0.28098148  0.62710204  0.50000000  1.0
  F  F18  1  0.21901852  0.12710204  0.00000000  1.0
  F  F19  1  0.78098148  0.87289796  0.00000000  1.0
  F  F20  1  0.69291224  0.57236654  0.68470371  1.0
  F  F21  1  0.30708776  0.42763346  0.68470371  1.0
  F  F22  1  0.19291224  0.92763346  0.81529629  1.0
  F  F23  1  0.80708776  0.07236654  0.81529629  1.0
  F  F24  1  0.30708776  0.42763346  0.31529629  1.0
  F  F25  1  0.69291224  0.57236654  0.31529629  1.0
  F  F26  1  0.80708776  0.07236654  0.18470371  1.0
  F  F27  1  0.19291224  0.92763346  0.18470371  1.0
