# generated using pymatgen
data_Rb2Si4O9
_symmetry_space_group_name_H-M   'P 1'
_cell_length_a   6.83305408
_cell_length_b   6.83305408
_cell_length_c   9.66056960
_cell_angle_alpha   90.00000000
_cell_angle_beta   90.00000000
_cell_angle_gamma   120.00000000
_symmetry_Int_Tables_number   1
_chemical_formula_structural   Rb2Si4O9
_chemical_formula_sum   'Rb4 Si8 O18'
_cell_volume   390.62774078
_cell_formula_units_Z   2
loop_
 _symmetry_equiv_pos_site_id
 _symmetry_equiv_pos_as_xyz
  1  'x, y, z'
loop_
 _atom_site_type_symbol
 _atom_site_label
 _atom_site_symmetry_multiplicity
 _atom_site_fract_x
 _atom_site_fract_y
 _atom_site_fract_z
 _atom_site_occupancy
  Rb  Rb0  1  0.33333333  0.66666667  0.43969529  1.0
  Rb  Rb1  1  0.33333333  0.66666667  0.06030471  1.0
  Rb  Rb2  1  0.66666667  0.33333333  0.93969529  1.0
  Rb  Rb3  1  0.66666667  0.33333333  0.56030471  1.0
  Si  Si4  1  0.77608389  0.63232255  0.25000000  1.0
  Si  Si5  1  0.63232255  0.85623866  0.75000000  1.0
  Si  Si6  1  0.85623866  0.22391611  0.25000000  1.0
  Si  Si7  1  0.36767745  0.14376134  0.25000000  1.0
  Si  Si8  1  0.22391611  0.36767745  0.75000000  1.0
  Si  Si9  1  0.14376134  0.77608389  0.75000000  1.0
  Si  Si10  1  0.00000000  0.00000000  0.50000000  1.0
  Si  Si11  1  0.00000000  0.00000000  0.00000000  1.0
  O  O12  1  0.80694143  0.76464772  0.39370194  1.0
  O  O13  1  0.80694143  0.76464772  0.10629806  1.0
  O  O14  1  0.76464772  0.95770628  0.89370194  1.0
  O  O15  1  0.76464772  0.95770628  0.60629806  1.0
  O  O16  1  0.95770628  0.19305857  0.39370194  1.0
  O  O17  1  0.95770628  0.19305857  0.10629806  1.0
  O  O18  1  0.23535228  0.04229372  0.39370194  1.0
  O  O19  1  0.23535228  0.04229372  0.10629806  1.0
  O  O20  1  0.19305857  0.23535228  0.89370194  1.0
  O  O21  1  0.19305857  0.23535228  0.60629806  1.0
  O  O22  1  0.04229372  0.80694143  0.89370194  1.0
  O  O23  1  0.04229372  0.80694143  0.60629806  1.0
  O  O24  1  0.50320692  0.42569809  0.25000000  1.0
  O  O25  1  0.42569809  0.92249117  0.75000000  1.0
  O  O26  1  0.92249117  0.49679308  0.25000000  1.0
  O  O27  1  0.57430191  0.07750883  0.25000000  1.0
  O  O28  1  0.49679308  0.57430191  0.75000000  1.0
  O  O29  1  0.07750883  0.50320692  0.75000000  1.0
