# generated using pymatgen
data_HfPbS3
_symmetry_space_group_name_H-M   'P 1'
_cell_length_a   9.27800857
_cell_length_b   3.77778553
_cell_length_c   14.14694695
_cell_angle_alpha   90.00000000
_cell_angle_beta   90.00000000
_cell_angle_gamma   90.00000000
_symmetry_Int_Tables_number   1
_chemical_formula_structural   HfPbS3
_chemical_formula_sum   'Hf4 Pb4 S12'
_cell_volume   495.85511065
_cell_formula_units_Z   4
loop_
 _symmetry_equiv_pos_site_id
 _symmetry_equiv_pos_as_xyz
  1  'x, y, z'
loop_
 _atom_site_type_symbol
 _atom_site_label
 _atom_site_symmetry_multiplicity
 _atom_site_fract_x
 _atom_site_fract_y
 _atom_site_fract_z
 _atom_site_occupancy
  Hf  Hf0  1  0.83697782  0.75000000  0.45154054  1.0
  Hf  Hf1  1  0.33697782  0.75000000  0.04845946  1.0
  Hf  Hf2  1  0.16302218  0.25000000  0.54845946  1.0
  Hf  Hf3  1  0.66302218  0.25000000  0.95154054  1.0
  Pb  Pb4  1  0.46974760  0.75000000  0.67167846  1.0
  Pb  Pb5  1  0.96974760  0.75000000  0.82832154  1.0
  Pb  Pb6  1  0.53025240  0.25000000  0.32832154  1.0
  Pb  Pb7  1  0.03025240  0.25000000  0.17167846  1.0
  S  S8  1  0.99000472  0.75000000  0.60370516  1.0
  S  S9  1  0.49000472  0.75000000  0.89629484  1.0
  S  S10  1  0.00999528  0.25000000  0.39629484  1.0
  S  S11  1  0.50999528  0.25000000  0.10370516  1.0
  S  S12  1  0.82550973  0.75000000  0.00991364  1.0
  S  S13  1  0.32550973  0.75000000  0.49008636  1.0
  S  S14  1  0.17449027  0.25000000  0.99008636  1.0
  S  S15  1  0.67449027  0.25000000  0.50991364  1.0
  S  S16  1  0.73453125  0.75000000  0.28753394  1.0
  S  S17  1  0.23453125  0.75000000  0.21246606  1.0
  S  S18  1  0.26546875  0.25000000  0.71246606  1.0
  S  S19  1  0.76546875  0.25000000  0.78753394  1.0
