# generated using pymatgen
data_LaNi3B
_symmetry_space_group_name_H-M   'P 1'
_cell_length_a   6.00505175
_cell_length_b   6.00505175
_cell_length_c   6.00505175
_cell_angle_alpha   131.28161434
_cell_angle_beta   107.04215024
_cell_angle_gamma   92.70331811
_symmetry_Int_Tables_number   1
_chemical_formula_structural   LaNi3B
_chemical_formula_sum   'La2 Ni6 B2'
_cell_volume   146.60650028
_cell_formula_units_Z   2
loop_
 _symmetry_equiv_pos_site_id
 _symmetry_equiv_pos_as_xyz
  1  'x, y, z'
loop_
 _atom_site_type_symbol
 _atom_site_label
 _atom_site_symmetry_multiplicity
 _atom_site_fract_x
 _atom_site_fract_y
 _atom_site_fract_z
 _atom_site_occupancy
  La  La0  1  1.67811200  1.42811200  1.25000000  1.0
  La  La1  1  0.32188800  0.57188800  0.75000000  1.0
  Ni  Ni2  1  1.17556595  0.50000000  1.17556595  1.0
  Ni  Ni3  1  1.17556595  1.00000000  1.67556595  1.0
  Ni  Ni4  1  0.82443405  1.00000000  0.32443405  1.0
  Ni  Ni5  1  0.82443405  1.50000000  0.82443405  1.0
  Ni  Ni6  1  0.50000000  0.00000000  0.50000000  1.0
  Ni  Ni7  1  0.00000000  0.00000000  0.00000000  1.0
  B  B8  1  1.11927949  0.86927949  0.25000000  1.0
  B  B9  1  0.88072051  0.13072051  0.75000000  1.0
