# generated using pymatgen
data_AgBO2
_symmetry_space_group_name_H-M   'P 1'
_cell_length_a   6.57896847
_cell_length_b   6.57896847
_cell_length_c   4.44670197
_cell_angle_alpha   86.38989694
_cell_angle_beta   93.61010306
_cell_angle_gamma   41.21012348
_symmetry_Int_Tables_number   1
_chemical_formula_structural   AgBO2
_chemical_formula_sum   'Ag2 B2 O4'
_cell_volume   124.75467915
_cell_formula_units_Z   2
loop_
 _symmetry_equiv_pos_site_id
 _symmetry_equiv_pos_as_xyz
  1  'x, y, z'
loop_
 _atom_site_type_symbol
 _atom_site_label
 _atom_site_symmetry_multiplicity
 _atom_site_fract_x
 _atom_site_fract_y
 _atom_site_fract_z
 _atom_site_occupancy
  Ag  Ag0  1  0.67834175  -0.16215361  0.70298794  1.0
  Ag  Ag1  1  1.16215361  -0.67834175  0.20298794  1.0
  B  B2  1  0.14182350  -0.03866682  0.82504160  1.0
  B  B3  1  1.03866682  -0.14182350  0.32504160  1.0
  O  O4  1  1.02475817  -0.32718016  0.43695336  1.0
  O  O5  1  0.32718016  -0.02475817  0.93695336  1.0
  O  O6  1  1.00981130  -0.08076469  0.00881710  1.0
  O  O7  1  0.08076469  -0.00981130  0.50881710  1.0
