# generated using pymatgen
data_Sn4P3NO12
_symmetry_space_group_name_H-M   'P 1'
_cell_length_a   10.26142833
_cell_length_b   10.26142833
_cell_length_c   10.26142833
_cell_angle_alpha   58.97862051
_cell_angle_beta   58.97862051
_cell_angle_gamma   58.97862051
_symmetry_Int_Tables_number   1
_chemical_formula_structural   Sn4P3NO12
_chemical_formula_sum   'Sn8 P6 N2 O24'
_cell_volume   746.22392806
_cell_formula_units_Z   2
loop_
 _symmetry_equiv_pos_site_id
 _symmetry_equiv_pos_as_xyz
  1  'x, y, z'
loop_
 _atom_site_type_symbol
 _atom_site_label
 _atom_site_symmetry_multiplicity
 _atom_site_fract_x
 _atom_site_fract_y
 _atom_site_fract_z
 _atom_site_occupancy
  Sn  Sn0  1  1.00245025  -0.59045685  -0.01696719  1.0
  Sn  Sn1  1  0.50245025  0.48303281  -0.09045685  1.0
  Sn  Sn2  1  0.48303281  0.90954315  -0.49754975  1.0
  Sn  Sn3  1  0.98303281  0.00245025  -0.59045685  1.0
  Sn  Sn4  1  0.90954315  0.50245025  -0.51696719  1.0
  Sn  Sn5  1  0.40954315  -0.01696719  0.00245025  1.0
  Sn  Sn6  1  -0.01019811  -0.01019811  -0.01019811  1.0
  Sn  Sn7  1  0.48980189  0.48980189  -0.51019811  1.0
  P  P8  1  1.10211963  -0.40300010  0.08444252  1.0
  P  P9  1  0.60211963  0.58444252  -0.90300010  1.0
  P  P10  1  0.58444252  0.09699990  -0.39788037  1.0
  P  P11  1  1.08444252  0.10211963  -0.40300010  1.0
  P  P12  1  0.09699990  0.60211963  -0.41555748  1.0
  P  P13  1  0.59699990  0.08444252  0.10211963  1.0
  N  N14  1  0.84441127  -0.15558873  -0.15558873  1.0
  N  N15  1  0.34441127  0.34441127  -0.65558873  1.0
  O  O16  1  0.76349192  -0.04780012  0.11106997  1.0
  O  O17  1  0.26349192  0.61106997  -0.54780012  1.0
  O  O18  1  0.61106997  0.45219988  -0.73650808  1.0
  O  O19  1  1.11106997  -0.23650808  -0.04780012  1.0
  O  O20  1  0.45219988  0.26349192  -0.38893003  1.0
  O  O21  1  0.95219988  0.11106997  -0.23650808  1.0
  O  O22  1  0.55338747  -0.24927604  0.10874932  1.0
  O  O23  1  1.05338747  -0.39125068  0.25072396  1.0
  O  O24  1  0.60874932  0.25072396  0.05338747  1.0
  O  O25  1  1.10874932  -0.44661253  -0.24927604  1.0
  O  O26  1  1.25072396  0.05338747  -0.39125068  1.0
  O  O27  1  0.75072396  0.10874932  -0.44661253  1.0
  O  O28  1  0.77051700  -0.45918031  -0.03553232  1.0
  O  O29  1  0.27051700  0.46446768  0.04081969  1.0
  O  O30  1  0.46446768  1.04081969  -0.72948300  1.0
  O  O31  1  0.96446768  -0.22948300  -0.45918031  1.0
  O  O32  1  1.04081969  0.27051700  -0.53553232  1.0
  O  O33  1  0.54081969  -0.03553232  -0.22948300  1.0
  O  O34  1  0.97356380  -0.45201826  0.09762614  1.0
  O  O35  1  0.47356380  0.59762614  -0.95201826  1.0
  O  O36  1  0.59762614  0.04798174  -0.52643620  1.0
  O  O37  1  1.09762614  -0.02643620  -0.45201826  1.0
  O  O38  1  0.04798174  0.47356380  -0.40237386  1.0
  O  O39  1  0.54798174  0.09762614  -0.02643620  1.0
