# generated using pymatgen
data_C6BrN(OF2)2
_symmetry_space_group_name_H-M   'P 1'
_cell_length_a   6.32466398
_cell_length_b   11.44694633
_cell_length_c   12.74482767
_cell_angle_alpha   90.00000000
_cell_angle_beta   90.00000000
_cell_angle_gamma   90.00000000
_symmetry_Int_Tables_number   1
_chemical_formula_structural   C6BrN(OF2)2
_chemical_formula_sum   'C24 Br4 N4 O8 F16'
_cell_volume   922.70116993
_cell_formula_units_Z   4
loop_
 _symmetry_equiv_pos_site_id
 _symmetry_equiv_pos_as_xyz
  1  'x, y, z'
loop_
 _atom_site_type_symbol
 _atom_site_label
 _atom_site_symmetry_multiplicity
 _atom_site_fract_x
 _atom_site_fract_y
 _atom_site_fract_z
 _atom_site_occupancy
  C  C0  1  0.42724144  0.55479833  0.56054628  1.0
  C  C1  1  0.92724144  0.94520167  0.56054628  1.0
  C  C2  1  0.57275856  0.44520167  0.06054628  1.0
  C  C3  1  0.07275856  0.05479833  0.06054628  1.0
  C  C4  1  0.39843274  0.94885618  0.17641104  1.0
  C  C5  1  0.89843274  0.55114382  0.17641104  1.0
  C  C6  1  0.60156726  0.05114382  0.67641104  1.0
  C  C7  1  0.10156726  0.44885618  0.67641104  1.0
  C  C8  1  0.37595580  0.59590790  0.66099356  1.0
  C  C9  1  0.87595580  0.90409210  0.66099356  1.0
  C  C10  1  0.62404420  0.40409210  0.16099356  1.0
  C  C11  1  0.12404420  0.09590790  0.16099356  1.0
  C  C12  1  0.34397201  0.90681287  0.07711412  1.0
  C  C13  1  0.84397201  0.59318713  0.07711412  1.0
  C  C14  1  0.65602799  0.09318713  0.57711412  1.0
  C  C15  1  0.15602799  0.40681287  0.57711412  1.0
  C  C16  1  0.21263020  0.54389937  0.71756873  1.0
  C  C17  1  0.71263020  0.95610063  0.71756873  1.0
  C  C18  1  0.78736980  0.45610063  0.21756873  1.0
  C  C19  1  0.28736980  0.04389937  0.21756873  1.0
  C  C20  1  0.18391039  0.95952214  0.01892749  1.0
  C  C21  1  0.68391039  0.54047786  0.01892749  1.0
  C  C22  1  0.81608961  0.04047786  0.51892749  1.0
  C  C23  1  0.31608961  0.45952214  0.51892749  1.0
  Br  Br24  1  0.38273222  0.12097325  0.75346963  1.0
  Br  Br25  1  0.88273222  0.37902675  0.75346963  1.0
  Br  Br26  1  0.61726778  0.87902675  0.25346963  1.0
  Br  Br27  1  0.11726778  0.62097325  0.25346963  1.0
  N  N28  1  0.09447013  0.88877216  0.49922824  1.0
  N  N29  1  0.59447013  0.61122784  0.49922824  1.0
  N  N30  1  0.90552987  0.11122784  -0.00077176  1.0
  N  N31  1  0.40552987  0.38877216  -0.00077176  1.0
  O  O32  1  0.44106255  0.37142975  0.90545759  1.0
  O  O33  1  0.94106255  0.12857025  0.90545759  1.0
  O  O34  1  0.55893745  0.62857025  0.40545759  1.0
  O  O35  1  0.05893745  0.87142975  0.40545759  1.0
  O  O36  1  0.25851099  0.86259787  0.54588433  1.0
  O  O37  1  0.75851099  0.63740213  0.54588433  1.0
  O  O38  1  0.74148901  0.13740213  0.04588433  1.0
  O  O39  1  0.24148901  0.36259787  0.04588433  1.0
  F  F40  1  0.47648775  0.68770638  0.70295647  1.0
  F  F41  1  0.97648775  0.81229362  0.70295647  1.0
  F  F42  1  0.52351225  0.31229362  0.20295647  1.0
  F  F43  1  0.02351225  0.18770638  0.20295647  1.0
  F  F44  1  0.44527599  0.81422169  0.03597143  1.0
  F  F45  1  0.94527599  0.68577831  0.03597143  1.0
  F  F46  1  0.55472401  0.18577831  0.53597143  1.0
  F  F47  1  0.05472401  0.31422169  0.53597143  1.0
  F  F48  1  0.16266533  0.58740428  0.81221665  1.0
  F  F49  1  0.66266533  0.91259572  0.81221665  1.0
  F  F50  1  0.83733467  0.41259572  0.31221665  1.0
  F  F51  1  0.33733467  0.08740428  0.31221665  1.0
  F  F52  1  0.13354925  0.91458884  0.92505445  1.0
  F  F53  1  0.63354925  0.58541116  0.92505445  1.0
  F  F54  1  0.86645075  0.08541116  0.42505445  1.0
  F  F55  1  0.36645075  0.41458884  0.42505445  1.0
