# generated using pymatgen
data_La3GeI3
_symmetry_space_group_name_H-M   'P 1'
_cell_length_a   11.06135332
_cell_length_b   11.06135332
_cell_length_c   11.06135332
_cell_angle_alpha   109.47122063
_cell_angle_beta   109.47122063
_cell_angle_gamma   109.47122063
_symmetry_Int_Tables_number   1
_chemical_formula_structural   La3GeI3
_chemical_formula_sum   'La12 Ge4 I12'
_cell_volume   1041.84450034
_cell_formula_units_Z   4
loop_
 _symmetry_equiv_pos_site_id
 _symmetry_equiv_pos_as_xyz
  1  'x, y, z'
loop_
 _atom_site_type_symbol
 _atom_site_label
 _atom_site_symmetry_multiplicity
 _atom_site_fract_x
 _atom_site_fract_y
 _atom_site_fract_z
 _atom_site_occupancy
  La  La0  1  1.75000000  1.23541818  1.26458182  1.0
  La  La1  1  0.75000000  1.01458182  0.48541818  1.0
  La  La2  1  1.02916365  0.26458182  1.01458182  1.0
  La  La3  1  0.47083635  0.48541818  0.23541818  1.0
  La  La4  1  1.26458182  1.01458182  1.02916365  1.0
  La  La5  1  1.23541818  1.26458182  0.75000000  1.0
  La  La6  1  1.01458182  1.02916365  0.26458182  1.0
  La  La7  1  1.48541818  0.75000000  1.01458182  1.0
  La  La8  1  1.01458182  1.48541818  0.75000000  1.0
  La  La9  1  1.48541818  1.23541818  1.47083635  1.0
  La  La10  1  0.23541818  0.47083635  0.48541818  1.0
  La  La11  1  1.26458182  0.75000000  1.23541818  1.0
  Ge  Ge12  1  1.50000000  1.00000000  1.25000000  1.0
  Ge  Ge13  1  1.00000000  1.25000000  0.50000000  1.0
  Ge  Ge14  1  0.25000000  0.25000000  0.25000000  1.0
  Ge  Ge15  1  1.25000000  0.50000000  1.00000000  1.0
  I  I16  1  0.51476324  0.50738162  0.75738162  1.0
  I  I17  1  0.98523676  0.74261838  0.99261838  1.0
  I  I18  1  1.25000000  0.75738162  0.74261838  1.0
  I  I19  1  1.25000000  0.99261838  0.50738162  1.0
  I  I20  1  0.99261838  1.50738162  1.25000000  1.0
  I  I21  1  1.50738162  1.75738162  1.51476324  1.0
  I  I22  1  0.74261838  0.25000000  0.75738162  1.0
  I  I23  1  0.75738162  0.51476324  0.50738162  1.0
  I  I24  1  0.99261838  0.98523676  0.74261838  1.0
  I  I25  1  1.50738162  1.25000000  0.99261838  1.0
  I  I26  1  0.75738162  0.74261838  0.25000000  1.0
  I  I27  1  1.74261838  0.99261838  0.98523676  1.0
