# generated using pymatgen
data_CsLaCr2O8
_symmetry_space_group_name_H-M   'P 1'
_cell_length_a   9.58730067
_cell_length_b   7.71110118
_cell_length_c   11.32455963
_cell_angle_alpha   90.00000000
_cell_angle_beta   91.85617224
_cell_angle_gamma   90.00000000
_symmetry_Int_Tables_number   1
_chemical_formula_structural   CsLaCr2O8
_chemical_formula_sum   'Cs4 La4 Cr8 O32'
_cell_volume   836.77005863
_cell_formula_units_Z   4
loop_
 _symmetry_equiv_pos_site_id
 _symmetry_equiv_pos_as_xyz
  1  'x, y, z'
loop_
 _atom_site_type_symbol
 _atom_site_label
 _atom_site_symmetry_multiplicity
 _atom_site_fract_x
 _atom_site_fract_y
 _atom_site_fract_z
 _atom_site_occupancy
  Cs  Cs0  1  0.06704338  0.65658337  0.34309704  1.0
  Cs  Cs1  1  0.93295662  0.15658337  0.15690296  1.0
  Cs  Cs2  1  0.93295662  0.34341663  0.65690296  1.0
  Cs  Cs3  1  0.06704338  0.84341663  0.84309704  1.0
  La  La4  1  0.44808853  0.33406474  0.15390594  1.0
  La  La5  1  0.55191147  0.83406474  0.34609406  1.0
  La  La6  1  0.55191147  0.66593526  0.84609406  1.0
  La  La7  1  0.44808853  0.16593526  0.65390594  1.0
  Cr  Cr8  1  0.67015609  0.16513983  0.88897979  1.0
  Cr  Cr9  1  0.32984391  0.66513983  0.61102021  1.0
  Cr  Cr10  1  0.32984391  0.83486017  0.11102021  1.0
  Cr  Cr11  1  0.67015609  0.33486017  0.38897979  1.0
  Cr  Cr12  1  0.24271101  0.16856513  0.41501949  1.0
  Cr  Cr13  1  0.75728899  0.66856513  0.08498051  1.0
  Cr  Cr14  1  0.75728899  0.83143487  0.58498051  1.0
  Cr  Cr15  1  0.24271101  0.33143487  0.91501949  1.0
  O  O16  1  0.61798925  0.18334642  0.02571658  1.0
  O  O17  1  0.38201075  0.68334642  0.47428342  1.0
  O  O18  1  0.38201075  0.81665358  0.97428342  1.0
  O  O19  1  0.61798925  0.31665358  0.52571658  1.0
  O  O20  1  0.58753581  1.00186412  0.81770400  1.0
  O  O21  1  0.41246419  0.50186412  0.68229600  1.0
  O  O22  1  0.41246419  -0.00186412  0.18229600  1.0
  O  O23  1  0.58753581  0.49813588  0.31770400  1.0
  O  O24  1  0.83800400  0.14148236  0.88943516  1.0
  O  O25  1  0.16199600  0.64148236  0.61056484  1.0
  O  O26  1  0.16199600  0.85851764  0.11056484  1.0
  O  O27  1  0.83800400  0.35851764  0.38943516  1.0
  O  O28  1  0.62449177  0.33929434  0.80831562  1.0
  O  O29  1  0.37550823  0.83929434  0.69168438  1.0
  O  O30  1  0.37550823  0.66070566  0.19168438  1.0
  O  O31  1  0.62449177  0.16070566  0.30831562  1.0
  O  O32  1  0.38461376  0.04673596  0.44201829  1.0
  O  O33  1  0.61538624  0.54673596  0.05798171  1.0
  O  O34  1  0.61538624  0.95326404  0.55798171  1.0
  O  O35  1  0.38461376  0.45326404  0.94201829  1.0
  O  O36  1  0.22443114  0.26546935  0.54418469  1.0
  O  O37  1  0.77556886  0.76546935  0.95581531  1.0
  O  O38  1  0.77556886  0.73453065  0.45581531  1.0
  O  O39  1  0.22443114  0.23453065  0.04418469  1.0
  O  O40  1  0.27202883  0.31223945  0.30855227  1.0
  O  O41  1  0.72797117  0.81223945  0.19144773  1.0
  O  O42  1  0.72797117  0.68776055  0.69144773  1.0
  O  O43  1  0.27202883  0.18776055  0.80855227  1.0
  O  O44  1  0.10776147  0.05127798  0.38007440  1.0
  O  O45  1  0.89223853  0.55127798  0.11992560  1.0
  O  O46  1  0.89223853  0.94872202  0.61992560  1.0
  O  O47  1  0.10776147  0.44872202  0.88007440  1.0
