# generated using pymatgen
data_MgBHO3
_symmetry_space_group_name_H-M   'P 1'
_cell_length_a   3.17646525
_cell_length_b   10.46051635
_cell_length_c   12.67380279
_cell_angle_alpha   90.00000000
_cell_angle_beta   96.04025797
_cell_angle_gamma   90.00000000
_symmetry_Int_Tables_number   1
_chemical_formula_structural   MgBHO3
_chemical_formula_sum   'Mg8 B8 H8 O24'
_cell_volume   418.78039762
_cell_formula_units_Z   8
loop_
 _symmetry_equiv_pos_site_id
 _symmetry_equiv_pos_as_xyz
  1  'x, y, z'
loop_
 _atom_site_type_symbol
 _atom_site_label
 _atom_site_symmetry_multiplicity
 _atom_site_fract_x
 _atom_site_fract_y
 _atom_site_fract_z
 _atom_site_occupancy
  Mg  Mg0  1  0.26890111  0.63749992  0.99476510  1.0
  Mg  Mg1  1  0.26890111  0.86250008  0.49476510  1.0
  Mg  Mg2  1  0.73109889  0.13749992  0.50523490  1.0
  Mg  Mg3  1  0.73109889  0.36250008  0.00523490  1.0
  Mg  Mg4  1  0.79643523  0.57991727  0.58755467  1.0
  Mg  Mg5  1  0.79643523  0.92008273  0.08755467  1.0
  Mg  Mg6  1  0.20356477  0.07991727  0.91244533  1.0
  Mg  Mg7  1  0.20356477  0.42008273  0.41244533  1.0
  B  B8  1  0.87057144  0.95243706  0.69300896  1.0
  B  B9  1  0.87057144  0.54756294  0.19300896  1.0
  B  B10  1  0.12942856  0.45243706  0.80699104  1.0
  B  B11  1  0.12942856  0.04756294  0.30699104  1.0
  B  B12  1  0.73975382  0.83261832  0.86163960  1.0
  B  B13  1  0.73975382  0.66738168  0.36163960  1.0
  B  B14  1  0.26024618  0.33261832  0.63836040  1.0
  B  B15  1  0.26024618  0.16738168  0.13836040  1.0
  H  H16  1  0.82069452  0.61879321  0.80592208  1.0
  H  H17  1  0.82069452  0.88120679  0.30592208  1.0
  H  H18  1  0.17930548  0.11879321  0.69407792  1.0
  H  H19  1  0.17930548  0.38120679  0.19407792  1.0
  H  H20  1  0.36918622  0.74298129  0.66101490  1.0
  H  H21  1  0.36918622  0.75701871  0.16101490  1.0
  H  H22  1  0.63081378  0.24298129  0.83898510  1.0
  H  H23  1  0.63081378  0.25701871  0.33898510  1.0
  O  O24  1  0.73258591  0.70905649  0.89875441  1.0
  O  O25  1  0.73258591  0.79094351  0.39875441  1.0
  O  O26  1  0.26741409  0.20905649  0.60124559  1.0
  O  O27  1  0.26741409  0.29094351  0.10124559  1.0
  O  O28  1  0.72107786  0.93841064  0.92354152  1.0
  O  O29  1  0.72107786  0.56158936  0.42354152  1.0
  O  O30  1  0.27892214  0.43841064  0.57645848  1.0
  O  O31  1  0.27892214  0.06158936  0.07645848  1.0
  O  O32  1  0.70013373  0.20507698  0.90918985  1.0
  O  O33  1  0.70013373  0.29492302  0.40918985  1.0
  O  O34  1  0.29986627  0.70507698  0.59081015  1.0
  O  O35  1  0.29986627  0.79492302  0.09081015  1.0
  O  O36  1  0.90319640  0.55075411  0.75309747  1.0
  O  O37  1  0.90319640  0.94924589  0.25309747  1.0
  O  O38  1  0.09680360  0.05075411  0.74690253  1.0
  O  O39  1  0.09680360  0.44924589  0.24690253  1.0
  O  O40  1  0.77948410  0.95667212  0.58540188  1.0
  O  O41  1  0.77948410  0.54332788  0.08540188  1.0
  O  O42  1  0.22051590  0.45667212  0.91459812  1.0
  O  O43  1  0.22051590  0.04332788  0.41459812  1.0
  O  O44  1  0.76586902  0.84634828  0.75131212  1.0
  O  O45  1  0.76586902  0.65365172  0.25131212  1.0
  O  O46  1  0.23413098  0.34634828  0.74868788  1.0
  O  O47  1  0.23413098  0.15365172  0.24868788  1.0
