# generated using pymatgen
data_Pt(BrN)4
_symmetry_space_group_name_H-M   'P 1'
_cell_length_a   6.77223306
_cell_length_b   6.77223306
_cell_length_c   6.77223306
_cell_angle_alpha   124.76461180
_cell_angle_beta   124.76461180
_cell_angle_gamma   81.92827955
_symmetry_Int_Tables_number   1
_chemical_formula_structural   Pt(BrN)4
_chemical_formula_sum   'Pt1 Br4 N4'
_cell_volume   201.60520629
_cell_formula_units_Z   1
loop_
 _symmetry_equiv_pos_site_id
 _symmetry_equiv_pos_as_xyz
  1  'x, y, z'
loop_
 _atom_site_type_symbol
 _atom_site_label
 _atom_site_symmetry_multiplicity
 _atom_site_fract_x
 _atom_site_fract_y
 _atom_site_fract_z
 _atom_site_occupancy
  Pt  Pt0  1  -0.00000000  -0.00000000  -0.00000000  1.0
  Br  Br1  1  0.75438927  0.75438927  0.00000000  1.0
  Br  Br2  1  0.24561073  0.24561073  0.00000000  1.0
  Br  Br3  1  0.50000000  -0.00000000  0.50000000  1.0
  Br  Br4  1  0.00000000  0.50000000  0.50000000  1.0
  N  N5  1  0.77361503  0.77361503  0.54723006  1.0
  N  N6  1  1.22638497  0.77361503  1.00000000  1.0
  N  N7  1  0.77361503  1.22638497  1.00000000  1.0
  N  N8  1  0.22638497  0.22638497  0.45276994  1.0
