# generated using pymatgen
data_BiOsO14
_symmetry_space_group_name_H-M   'P 1'
_cell_length_a   8.00098745
_cell_length_b   8.00098745
_cell_length_c   8.00098745
_cell_angle_alpha   60.00000000
_cell_angle_beta   60.00000000
_cell_angle_gamma   60.00000000
_symmetry_Int_Tables_number   1
_chemical_formula_structural   BiOsO14
_chemical_formula_sum   'Bi2 Os2 O28'
_cell_volume   362.17274914
_cell_formula_units_Z   2
loop_
 _symmetry_equiv_pos_site_id
 _symmetry_equiv_pos_as_xyz
  1  'x, y, z'
loop_
 _atom_site_type_symbol
 _atom_site_label
 _atom_site_symmetry_multiplicity
 _atom_site_fract_x
 _atom_site_fract_y
 _atom_site_fract_z
 _atom_site_occupancy
  O  O0  1  0.62500000  -0.37500000  1.12500000  1.0
  O  O1  1  0.62500000  0.12500000  0.62500000  1.0
  O  O2  1  0.62500000  -0.37500000  0.62500000  1.0
  O  O3  1  1.12500000  -0.37500000  0.62500000  1.0
  O  O4  1  1.00927441  -0.69539564  0.67684682  1.0
  O  O5  1  0.00927441  0.67684682  0.30460436  1.0
  O  O6  1  -0.05460436  0.24072559  0.24072559  1.0
  O  O7  1  0.57315318  0.24072559  0.24072559  1.0
  O  O8  1  -0.69539564  1.00927441  0.67684682  1.0
  O  O9  1  1.00927441  0.00927441  0.67684682  1.0
  O  O10  1  1.00927441  -0.32315318  1.00927441  1.0
  O  O11  1  -0.69539564  0.67684682  1.00927441  1.0
  O  O12  1  0.24072559  -0.05460436  0.24072559  1.0
  O  O13  1  0.24072559  0.24072559  -0.05460436  1.0
  O  O14  1  0.57315318  0.24072559  -0.05460436  1.0
  O  O15  1  0.57315318  -0.05460436  0.24072559  1.0
  O  O16  1  0.67684682  0.00927441  1.00927441  1.0
  O  O17  1  -0.69539564  1.00927441  1.00927441  1.0
  O  O18  1  0.24072559  0.57315318  -0.05460436  1.0
  O  O19  1  0.24072559  -0.05460436  0.57315318  1.0
  O  O20  1  -0.32315318  1.00927441  0.30460436  1.0
  O  O21  1  0.67684682  -0.69539564  1.00927441  1.0
  O  O22  1  1.00927441  -0.69539564  1.00927441  1.0
  O  O23  1  0.00927441  1.00927441  0.30460436  1.0
  O  O24  1  0.24072559  0.57315318  0.24072559  1.0
  O  O25  1  -0.05460436  0.57315318  0.24072559  1.0
  O  O26  1  -0.05460436  0.24072559  0.57315318  1.0
  O  O27  1  0.24072559  0.24072559  0.57315318  1.0
  Bi  Bi28  1  0.50000000  0.50000000  -0.50000000  1.0
  Bi  Bi29  1  0.75000000  -0.25000000  0.75000000  1.0
  Os  Os30  1  0.00000000  1.00000000  -0.00000000  1.0
  Os  Os31  1  0.25000000  0.25000000  0.25000000  1.0
