# generated using pymatgen
data_Rb2NbCuS4
_symmetry_space_group_name_H-M   'P 1'
_cell_length_a   14.00591884
_cell_length_b   12.49350181
_cell_length_c   7.46697065
_cell_angle_alpha   85.17993910
_cell_angle_beta   62.73049916
_cell_angle_gamma   32.08956174
_symmetry_Int_Tables_number   1
_chemical_formula_structural   Rb2NbCuS4
_chemical_formula_sum   'Rb4 Nb2 Cu2 S8'
_cell_volume   471.94690899
_cell_formula_units_Z   2
loop_
 _symmetry_equiv_pos_site_id
 _symmetry_equiv_pos_as_xyz
  1  'x, y, z'
loop_
 _atom_site_type_symbol
 _atom_site_label
 _atom_site_symmetry_multiplicity
 _atom_site_fract_x
 _atom_site_fract_y
 _atom_site_fract_z
 _atom_site_occupancy
  Rb  Rb0  1  1.42740537  0.42740537  0.07259463  1.0
  Rb  Rb1  1  0.07259463  0.07259463  1.42740537  1.0
  Rb  Rb2  1  0.82259463  0.82259463  -0.82259463  1.0
  Rb  Rb3  1  0.17740537  1.17740537  -0.17740537  1.0
  Nb  Nb4  1  0.00000000  0.00000000  0.00000000  1.0
  Nb  Nb5  1  1.25000000  0.25000000  0.25000000  1.0
  Cu  Cu6  1  -0.50000000  0.50000000  0.50000000  1.0
  Cu  Cu7  1  0.75000000  0.75000000  0.75000000  1.0
  S  S8  1  -0.60785233  0.71448306  0.79886521  1.0
  S  S9  1  1.09450406  0.79886521  0.71448306  1.0
  S  S10  1  0.79886521  1.09450406  -0.60785233  1.0
  S  S11  1  0.71448306  -0.60785233  1.09450406  1.0
  S  S12  1  0.85785233  0.53551694  0.45113479  1.0
  S  S13  1  1.15549594  0.45113479  0.53551694  1.0
  S  S14  1  1.45113479  0.15549594  -0.14214767  1.0
  S  S15  1  1.53551694  -0.14214767  0.15549594  1.0
