# generated using pymatgen
data_K2NiC4(SO)4
_symmetry_space_group_name_H-M   'P 1'
_cell_length_a   11.10260013
_cell_length_b   4.46854141
_cell_length_c   13.44236425
_cell_angle_alpha   90.00000000
_cell_angle_beta   117.02321108
_cell_angle_gamma   90.00000000
_symmetry_Int_Tables_number   1
_chemical_formula_structural   K2NiC4(SO)4
_chemical_formula_sum   'K4 Ni2 C8 S8 O8'
_cell_volume   594.09697349
_cell_formula_units_Z   2
loop_
 _symmetry_equiv_pos_site_id
 _symmetry_equiv_pos_as_xyz
  1  'x, y, z'
loop_
 _atom_site_type_symbol
 _atom_site_label
 _atom_site_symmetry_multiplicity
 _atom_site_fract_x
 _atom_site_fract_y
 _atom_site_fract_z
 _atom_site_occupancy
  K  K0  1  0.87492707  0.79094515  0.34200567  1.0
  K  K1  1  0.87492707  0.70905485  0.84200567  1.0
  K  K2  1  0.12507293  0.29094515  0.15799433  1.0
  K  K3  1  0.12507293  0.20905485  0.65799433  1.0
  Ni  Ni4  1  0.50000000  0.50000000  0.50000000  1.0
  Ni  Ni5  1  0.50000000  0.00000000  0.00000000  1.0
  C  C6  1  0.78355360  0.31952450  0.10353340  1.0
  C  C7  1  0.78355360  0.18047550  0.60353340  1.0
  C  C8  1  0.21644640  0.81952450  0.39646660  1.0
  C  C9  1  0.21644640  0.68047550  0.89646660  1.0
  C  C10  1  0.77049104  0.31718720  0.49457125  1.0
  C  C11  1  0.77049104  0.18281280  0.99457125  1.0
  C  C12  1  0.22950896  0.81718720  0.00542875  1.0
  C  C13  1  0.22950896  0.68281280  0.50542875  1.0
  S  S14  1  0.65103630  0.26122207  0.13547009  1.0
  S  S15  1  0.65103630  0.23877793  0.63547009  1.0
  S  S16  1  0.34896370  0.76122207  0.36452991  1.0
  S  S17  1  0.34896370  0.73877793  0.86452991  1.0
  S  S18  1  0.62524783  0.98692171  0.91413415  1.0
  S  S19  1  0.62524783  0.51307829  0.41413415  1.0
  S  S20  1  0.37475217  0.48692171  0.58586585  1.0
  S  S21  1  0.37475217  0.01307829  0.08586585  1.0
  O  O22  1  0.88715854  0.46230353  0.16490150  1.0
  O  O23  1  0.88715854  0.03769647  0.66490150  1.0
  O  O24  1  0.11284146  0.96230353  0.33509850  1.0
  O  O25  1  0.11284146  0.53769647  0.83509850  1.0
  O  O26  1  0.86539649  0.28414092  0.46945842  1.0
  O  O27  1  0.86539649  0.21585908  0.96945842  1.0
  O  O28  1  0.13460351  0.78414092  0.03054158  1.0
  O  O29  1  0.13460351  0.71585908  0.53054158  1.0
