# generated using pymatgen
data_LuAl2Ni
_symmetry_space_group_name_H-M   'P 1'
_cell_length_a   5.33540165
_cell_length_b   5.33540165
_cell_length_c   6.83931442
_cell_angle_alpha   90.00000000
_cell_angle_beta   90.00000000
_cell_angle_gamma   135.43376812
_symmetry_Int_Tables_number   1
_chemical_formula_structural   LuAl2Ni
_chemical_formula_sum   'Lu2 Al4 Ni2'
_cell_volume   136.62144874
_cell_formula_units_Z   2
loop_
 _symmetry_equiv_pos_site_id
 _symmetry_equiv_pos_as_xyz
  1  'x, y, z'
loop_
 _atom_site_type_symbol
 _atom_site_label
 _atom_site_symmetry_multiplicity
 _atom_site_fract_x
 _atom_site_fract_y
 _atom_site_fract_z
 _atom_site_occupancy
  Lu  Lu0  1  0.43592914  0.56407086  0.75000000  1.0
  Lu  Lu1  1  -0.43592914  0.43592914  0.25000000  1.0
  Al  Al2  1  0.15133425  0.84866575  0.94656872  1.0
  Al  Al3  1  0.15133425  0.84866575  0.55343128  1.0
  Al  Al4  1  -0.15133425  0.15133425  0.44656872  1.0
  Al  Al5  1  -0.15133425  0.15133425  0.05343128  1.0
  Ni  Ni6  1  -0.28541444  0.28541444  0.75000000  1.0
  Ni  Ni7  1  0.28541444  0.71458556  0.25000000  1.0
