# generated using pymatgen
data_KSr2I5
_symmetry_space_group_name_H-M   'P 1'
_cell_length_a   10.05750774
_cell_length_b   9.12301237
_cell_length_c   14.59653268
_cell_angle_alpha   90.00000000
_cell_angle_beta   90.04301326
_cell_angle_gamma   90.00000000
_symmetry_Int_Tables_number   1
_chemical_formula_structural   KSr2I5
_chemical_formula_sum   'K4 Sr8 I20'
_cell_volume   1339.30108483
_cell_formula_units_Z   4
loop_
 _symmetry_equiv_pos_site_id
 _symmetry_equiv_pos_as_xyz
  1  'x, y, z'
loop_
 _atom_site_type_symbol
 _atom_site_label
 _atom_site_symmetry_multiplicity
 _atom_site_fract_x
 _atom_site_fract_y
 _atom_site_fract_z
 _atom_site_occupancy
  K  K0  1  0.49475105  0.46509520  0.17408172  1.0
  K  K1  1  0.49475105  0.03490480  0.67408172  1.0
  K  K2  1  0.50524895  0.96509520  0.32591828  1.0
  K  K3  1  0.50524895  0.53490480  0.82591828  1.0
  Sr  Sr4  1  0.99655612  0.47944206  0.17982376  1.0
  Sr  Sr5  1  0.99655612  0.02055794  0.67982376  1.0
  Sr  Sr6  1  0.00344388  0.97944206  0.32017624  1.0
  Sr  Sr7  1  0.00344388  0.52055794  0.82017624  1.0
  Sr  Sr8  1  0.75026763  0.42877011  0.49497635  1.0
  Sr  Sr9  1  0.75026763  0.07122989  0.99497635  1.0
  Sr  Sr10  1  0.24973237  0.92877011  0.00502365  1.0
  Sr  Sr11  1  0.24973237  0.57122989  0.50502365  1.0
  I  I12  1  0.96010185  0.84015640  0.10135379  1.0
  I  I13  1  0.96010185  0.65984360  0.60135379  1.0
  I  I14  1  0.03989815  0.34015640  0.39864621  1.0
  I  I15  1  0.03989815  0.15984360  0.89864621  1.0
  I  I16  1  0.78125040  0.04387794  0.49702185  1.0
  I  I17  1  0.78125040  0.45612206  0.99702185  1.0
  I  I18  1  0.21874960  0.54387794  0.00297815  1.0
  I  I19  1  0.21874960  0.95612206  0.50297815  1.0
  I  I20  1  0.77974630  0.66965173  0.31908420  1.0
  I  I21  1  0.77974630  0.83034827  0.81908420  1.0
  I  I22  1  0.22025370  0.16965173  0.18091580  1.0
  I  I23  1  0.22025370  0.33034827  0.68091580  1.0
  I  I24  1  0.76851537  0.19396182  0.21488203  1.0
  I  I25  1  0.76851537  0.30603818  0.71488203  1.0
  I  I26  1  0.23148463  0.69396182  0.28511797  1.0
  I  I27  1  0.23148463  0.80603818  0.78511797  1.0
  I  I28  1  0.46386193  0.33253281  0.40822257  1.0
  I  I29  1  0.46386193  0.16746719  0.90822257  1.0
  I  I30  1  0.53613807  0.83253281  0.09177743  1.0
  I  I31  1  0.53613807  0.66746719  0.59177743  1.0
