# generated using pymatgen
data_TaNO
_symmetry_space_group_name_H-M   'P 1'
_cell_length_a   6.85830232
_cell_length_b   6.85830232
_cell_length_c   6.75099820
_cell_angle_alpha   73.09943265
_cell_angle_beta   106.90056735
_cell_angle_gamma   147.07805808
_symmetry_Int_Tables_number   1
_chemical_formula_structural   TaNO
_chemical_formula_sum   'Ta4 N4 O4'
_cell_volume   164.46231315
_cell_formula_units_Z   4
loop_
 _symmetry_equiv_pos_site_id
 _symmetry_equiv_pos_as_xyz
  1  'x, y, z'
loop_
 _atom_site_type_symbol
 _atom_site_label
 _atom_site_symmetry_multiplicity
 _atom_site_fract_x
 _atom_site_fract_y
 _atom_site_fract_z
 _atom_site_occupancy
  Ta  Ta0  1  0.68877917  -0.68877917  0.80591341  1.0
  Ta  Ta1  1  1.31122083  -0.31122083  0.19408659  1.0
  Ta  Ta2  1  1.39766506  -0.39766506  0.79300034  1.0
  Ta  Ta3  1  0.60233494  -0.60233494  0.20699966  1.0
  N  N4  1  0.75862046  -0.75862046  0.14773167  1.0
  N  N5  1  1.24137954  -0.24137954  0.85226833  1.0
  N  N6  1  0.55420515  -0.55420515  0.86271255  1.0
  N  N7  1  1.44579485  -0.44579485  0.13728745  1.0
  O  O8  1  0.86584086  -0.86584086  0.78975839  1.0
  O  O9  1  1.13415914  -0.13415914  0.21024161  1.0
  O  O10  1  0.64023589  -0.64023589  0.50679014  1.0
  O  O11  1  1.35976411  -0.35976411  0.49320986  1.0
