# generated using pymatgen
data_NaHCO2
_symmetry_space_group_name_H-M   'P 1'
_cell_length_a   4.69630356
_cell_length_b   4.69630356
_cell_length_c   6.25144523
_cell_angle_alpha   73.21466050
_cell_angle_beta   106.78533950
_cell_angle_gamma   83.10927400
_symmetry_Int_Tables_number   1
_chemical_formula_structural   NaHCO2
_chemical_formula_sum   'Na2 H2 C2 O4'
_cell_volume   123.22856393
_cell_formula_units_Z   2
loop_
 _symmetry_equiv_pos_site_id
 _symmetry_equiv_pos_as_xyz
  1  'x, y, z'
loop_
 _atom_site_type_symbol
 _atom_site_label
 _atom_site_symmetry_multiplicity
 _atom_site_fract_x
 _atom_site_fract_y
 _atom_site_fract_z
 _atom_site_occupancy
  Na  Na0  1  0.85894556  -0.14105444  0.25000000  1.0
  Na  Na1  1  1.14105444  0.14105444  0.75000000  1.0
  H  H2  1  1.42288130  0.42288130  0.25000000  1.0
  H  H3  1  0.57711870  -0.42288130  0.75000000  1.0
  C  C4  1  1.26448706  0.26448706  0.25000000  1.0
  C  C5  1  0.73551294  -0.26448706  0.75000000  1.0
  O  O6  1  1.03873089  0.32463730  0.31461600  1.0
  O  O7  1  0.96126911  -0.32463730  0.68538400  1.0
  O  O8  1  1.32463730  0.03873089  0.18538400  1.0
  O  O9  1  0.67536270  -0.03873089  0.81461600  1.0
