# generated using pymatgen
data_Sr4Rh
_symmetry_space_group_name_H-M   'P 1'
_cell_length_a   8.73676748
_cell_length_b   8.73676748
_cell_length_c   8.73676748
_cell_angle_alpha   60.00000000
_cell_angle_beta   60.00000000
_cell_angle_gamma   60.00000000
_symmetry_Int_Tables_number   1
_chemical_formula_structural   Sr4Rh
_chemical_formula_sum   'Sr8 Rh2'
_cell_volume   471.56040889
_cell_formula_units_Z   2
loop_
 _symmetry_equiv_pos_site_id
 _symmetry_equiv_pos_as_xyz
  1  'x, y, z'
loop_
 _atom_site_type_symbol
 _atom_site_label
 _atom_site_symmetry_multiplicity
 _atom_site_fract_x
 _atom_site_fract_y
 _atom_site_fract_z
 _atom_site_occupancy
  Sr  Sr0  1  -0.12229599  0.87770401  0.36688797  1.0
  Sr  Sr1  1  0.87770401  -0.63311203  0.87770401  1.0
  Sr  Sr2  1  0.37229599  0.37229599  0.37229599  1.0
  Sr  Sr3  1  -0.11688797  0.37229599  0.37229599  1.0
  Sr  Sr4  1  -0.63311203  0.87770401  0.87770401  1.0
  Sr  Sr5  1  0.87770401  -0.12229599  0.87770401  1.0
  Sr  Sr6  1  0.37229599  -0.11688797  0.37229599  1.0
  Sr  Sr7  1  0.37229599  0.37229599  -0.11688797  1.0
  Rh  Rh8  1  0.50000000  0.50000000  -0.50000000  1.0
  Rh  Rh9  1  0.75000000  -0.25000000  0.75000000  1.0
