# generated using pymatgen
data_La(LuS2)3
_symmetry_space_group_name_H-M   'P 1'
_cell_length_a   10.99394360
_cell_length_b   3.95784980
_cell_length_c   11.23699324
_cell_angle_alpha   90.00000000
_cell_angle_beta   109.00957750
_cell_angle_gamma   90.00000000
_symmetry_Int_Tables_number   1
_chemical_formula_structural   La(LuS2)3
_chemical_formula_sum   'La2 Lu6 S12'
_cell_volume   462.28307653
_cell_formula_units_Z   2
loop_
 _symmetry_equiv_pos_site_id
 _symmetry_equiv_pos_as_xyz
  1  'x, y, z'
loop_
 _atom_site_type_symbol
 _atom_site_label
 _atom_site_symmetry_multiplicity
 _atom_site_fract_x
 _atom_site_fract_y
 _atom_site_fract_z
 _atom_site_occupancy
  La  La0  1  0.94823659  0.25000000  0.30310464  1.0
  La  La1  1  0.05176341  0.75000000  0.69689536  1.0
  Lu  Lu2  1  0.83913394  0.25000000  0.91123503  1.0
  Lu  Lu3  1  0.16086606  0.75000000  0.08876497  1.0
  Lu  Lu4  1  0.55381421  0.25000000  0.16594270  1.0
  Lu  Lu5  1  0.44618579  0.75000000  0.83405730  1.0
  Lu  Lu6  1  0.32127110  0.25000000  0.50003833  1.0
  Lu  Lu7  1  0.67872890  0.75000000  0.49996167  1.0
  S  S8  1  0.87729700  0.25000000  0.53628314  1.0
  S  S9  1  0.12270300  0.75000000  0.46371686  1.0
  S  S10  1  0.60810977  0.25000000  0.94405327  1.0
  S  S11  1  0.39189023  0.75000000  0.05594673  1.0
  S  S12  1  0.52208466  0.25000000  0.38875584  1.0
  S  S13  1  0.47791534  0.75000000  0.61124416  1.0
  S  S14  1  0.27188015  0.25000000  0.73099450  1.0
  S  S15  1  0.72811985  0.75000000  0.26900550  1.0
  S  S16  1  0.20003500  0.25000000  0.24884809  1.0
  S  S17  1  0.79996500  0.75000000  0.75115191  1.0
  S  S18  1  0.08211873  0.25000000  0.90987802  1.0
  S  S19  1  0.91788127  0.75000000  0.09012198  1.0
