# generated using pymatgen
data_Cs3Nb2AsSe11
_symmetry_space_group_name_H-M   'P 1'
_cell_length_a   10.60960675
_cell_length_b   10.60960675
_cell_length_c   10.42371345
_cell_angle_alpha   85.16981742
_cell_angle_beta   94.83018258
_cell_angle_gamma   94.46952384
_symmetry_Int_Tables_number   1
_chemical_formula_structural   Cs3Nb2AsSe11
_chemical_formula_sum   'Cs6 Nb4 As2 Se22'
_cell_volume   1162.04451328
_cell_formula_units_Z   2
loop_
 _symmetry_equiv_pos_site_id
 _symmetry_equiv_pos_as_xyz
  1  'x, y, z'
loop_
 _atom_site_type_symbol
 _atom_site_label
 _atom_site_symmetry_multiplicity
 _atom_site_fract_x
 _atom_site_fract_y
 _atom_site_fract_z
 _atom_site_occupancy
  Cs  Cs0  1  0.93020893  0.92866641  0.50031216  1.0
  Cs  Cs1  1  0.07133359  0.06979107  0.00031216  1.0
  Cs  Cs2  1  0.53022608  0.30657035  0.76142261  1.0
  Cs  Cs3  1  0.69342965  0.46977392  0.26142261  1.0
  Cs  Cs4  1  1.17731410  -0.32759503  0.16362149  1.0
  Cs  Cs5  1  1.32759503  -0.17731410  0.66362149  1.0
  Nb  Nb6  1  0.96549230  0.56979249  0.77197697  1.0
  Nb  Nb7  1  0.43020751  0.03450770  0.27197697  1.0
  Nb  Nb8  1  1.07853410  -0.68347421  0.58863796  1.0
  Nb  Nb9  1  1.68347421  -0.07853410  0.08863796  1.0
  As  As10  1  1.29320036  -0.63577330  0.33019415  1.0
  As  As11  1  1.63577330  -0.29320036  0.83019415  1.0
  Se  Se12  1  0.78741334  0.60138284  0.58886281  1.0
  Se  Se13  1  0.39861716  0.21258666  0.08886281  1.0
  Se  Se14  1  0.77723297  0.55117572  0.92718380  1.0
  Se  Se15  1  0.44882428  0.22276703  0.42718380  1.0
  Se  Se16  1  1.04594992  -0.22543192  0.82753364  1.0
  Se  Se17  1  1.22543192  -0.04594992  0.32753364  1.0
  Se  Se18  1  0.99664908  0.57611935  0.52263356  1.0
  Se  Se19  1  0.42388065  0.00335092  0.02263356  1.0
  Se  Se20  1  0.84138923  0.24783124  0.53010907  1.0
  Se  Se21  1  0.75216876  0.15861077  0.03010907  1.0
  Se  Se22  1  0.89857867  0.29987175  0.74666722  1.0
  Se  Se23  1  0.70012825  0.10142133  0.24666722  1.0
  Se  Se24  1  1.05472750  -0.57898626  0.96708160  1.0
  Se  Se25  1  1.57898626  -0.05472750  0.46708160  1.0
  Se  Se26  1  1.18424204  -0.54335349  0.78725938  1.0
  Se  Se27  1  1.54335349  -0.18424204  0.28725938  1.0
  Se  Se28  1  1.72292441  -0.07777663  0.84077896  1.0
  Se  Se29  1  1.07777663  -0.72292441  0.34077896  1.0
  Se  Se30  1  1.26995132  -0.51227254  0.51769075  1.0
  Se  Se31  1  1.51227254  -0.26995132  0.01769075  1.0
  Se  Se32  1  0.19028458  0.13777217  0.66743386  1.0
  Se  Se33  1  0.86222783  0.80971542  0.16743386  1.0
