# generated using pymatgen
data_BaSi3GeO9
_symmetry_space_group_name_H-M   'P 1'
_cell_length_a   6.67025880
_cell_length_b   6.67025880
_cell_length_c   9.67977968
_cell_angle_alpha   90.00000000
_cell_angle_beta   90.00000000
_cell_angle_gamma   120.00000000
_symmetry_Int_Tables_number   1
_chemical_formula_structural   BaSi3GeO9
_chemical_formula_sum   'Ba2 Si6 Ge2 O18'
_cell_volume   372.97650322
_cell_formula_units_Z   2
loop_
 _symmetry_equiv_pos_site_id
 _symmetry_equiv_pos_as_xyz
  1  'x, y, z'
loop_
 _atom_site_type_symbol
 _atom_site_label
 _atom_site_symmetry_multiplicity
 _atom_site_fract_x
 _atom_site_fract_y
 _atom_site_fract_z
 _atom_site_occupancy
  Ba  Ba0  1  -0.00000000  -0.00000000  0.50000000  1.0
  Ba  Ba1  1  -0.00000000  -0.00000000  0.00000000  1.0
  Si  Si2  1  0.58609075  0.54662961  0.25000000  1.0
  Si  Si3  1  0.58609075  0.03946114  0.75000000  1.0
  Si  Si4  1  0.96053886  0.54662961  0.75000000  1.0
  Si  Si5  1  0.96053886  0.41390925  0.25000000  1.0
  Si  Si6  1  0.45337039  0.41390925  0.75000000  1.0
  Si  Si7  1  0.45337039  0.03946114  0.25000000  1.0
  Ge  Ge8  1  0.33333333  0.66666667  0.50000000  1.0
  Ge  Ge9  1  0.33333333  0.66666667  0.00000000  1.0
  O  O10  1  0.10003577  0.42637297  0.39037795  1.0
  O  O11  1  0.10003577  0.42637297  0.10962205  1.0
  O  O12  1  0.10003577  0.67366280  0.89037795  1.0
  O  O13  1  0.10003577  0.67366280  0.60962205  1.0
  O  O14  1  0.32633720  0.42637297  0.89037795  1.0
  O  O15  1  0.32633720  0.42637297  0.60962205  1.0
  O  O16  1  0.32633720  0.89996423  0.39037795  1.0
  O  O17  1  0.32633720  0.89996423  0.10962205  1.0
  O  O18  1  0.57362703  0.89996423  0.89037795  1.0
  O  O19  1  0.57362703  0.89996423  0.60962205  1.0
  O  O20  1  0.57362703  0.67366280  0.39037795  1.0
  O  O21  1  0.57362703  0.67366280  0.10962205  1.0
  O  O22  1  0.85603558  0.59264083  0.25000000  1.0
  O  O23  1  0.85603558  0.26339476  0.75000000  1.0
  O  O24  1  0.73660524  0.59264083  0.75000000  1.0
  O  O25  1  0.73660524  0.14396442  0.25000000  1.0
  O  O26  1  0.40735917  0.14396442  0.75000000  1.0
  O  O27  1  0.40735917  0.26339476  0.25000000  1.0
