# generated using pymatgen
data_Yb2Sn2O7
_symmetry_space_group_name_H-M   'P 1'
_cell_length_a   7.40054508
_cell_length_b   7.40054508
_cell_length_c   7.40054508
_cell_angle_alpha   60.00000000
_cell_angle_beta   60.00000000
_cell_angle_gamma   60.00000000
_symmetry_Int_Tables_number   1
_chemical_formula_structural   Yb2Sn2O7
_chemical_formula_sum   'Yb4 Sn4 O14'
_cell_volume   286.59996094
_cell_formula_units_Z   2
loop_
 _symmetry_equiv_pos_site_id
 _symmetry_equiv_pos_as_xyz
  1  'x, y, z'
loop_
 _atom_site_type_symbol
 _atom_site_label
 _atom_site_symmetry_multiplicity
 _atom_site_fract_x
 _atom_site_fract_y
 _atom_site_fract_z
 _atom_site_occupancy
  O  O0  1  0.71472559  0.71472559  -0.71472559  1.0
  O  O1  1  0.28527441  1.28527441  -0.28527441  1.0
  O  O2  1  0.71472559  -0.71472559  0.71472559  1.0
  O  O3  1  0.28527441  -0.28527441  0.28527441  1.0
  O  O4  1  -0.71472559  0.71472559  0.71472559  1.0
  O  O5  1  -0.28527441  0.28527441  0.28527441  1.0
  O  O6  1  -0.46472559  0.53527441  0.96472559  1.0
  O  O7  1  0.96472559  0.96472559  -0.46472559  1.0
  O  O8  1  0.53527441  0.96472559  0.53527441  1.0
  O  O9  1  0.96472559  0.53527441  0.96472559  1.0
  O  O10  1  0.96472559  0.53527441  -0.46472559  1.0
  O  O11  1  0.53527441  0.96472559  -0.03527441  1.0
  O  O12  1  0.25000000  1.25000000  0.25000000  1.0
  O  O13  1  0.00000000  0.00000000  0.00000000  1.0
  Yb  Yb14  1  0.62500000  1.12500000  0.12500000  1.0
  Yb  Yb15  1  0.12500000  1.62500000  0.12500000  1.0
  Yb  Yb16  1  0.12500000  0.12500000  1.62500000  1.0
  Yb  Yb17  1  0.12500000  0.12500000  0.12500000  1.0
  Sn  Sn18  1  1.12500000  0.62500000  0.62500000  1.0
  Sn  Sn19  1  0.62500000  1.12500000  -0.37500000  1.0
  Sn  Sn20  1  -0.37500000  0.62500000  1.12500000  1.0
  Sn  Sn21  1  -0.37500000  0.62500000  0.62500000  1.0
