# generated using pymatgen
data_SrVCuHO5
_symmetry_space_group_name_H-M   'P 1'
_cell_length_a   5.92426019
_cell_length_b   7.58132815
_cell_length_c   9.96098863
_cell_angle_alpha   90.00000000
_cell_angle_beta   90.00000000
_cell_angle_gamma   90.00000000
_symmetry_Int_Tables_number   1
_chemical_formula_structural   SrVCuHO5
_chemical_formula_sum   'Sr4 V4 Cu4 H4 O20'
_cell_volume   447.38545851
_cell_formula_units_Z   4
loop_
 _symmetry_equiv_pos_site_id
 _symmetry_equiv_pos_as_xyz
  1  'x, y, z'
loop_
 _atom_site_type_symbol
 _atom_site_label
 _atom_site_symmetry_multiplicity
 _atom_site_fract_x
 _atom_site_fract_y
 _atom_site_fract_z
 _atom_site_occupancy
  Sr  Sr0  1  0.02175975  0.36786640  0.82323075  1.0
  Sr  Sr1  1  0.52175975  0.13213360  0.17676925  1.0
  Sr  Sr2  1  0.97824025  0.86786640  0.67676925  1.0
  Sr  Sr3  1  0.47824025  0.63213360  0.32323075  1.0
  O  O4  1  0.94259057  0.20996969  0.05911742  1.0
  O  O5  1  0.44259057  0.29003031  0.94088258  1.0
  O  O6  1  0.05740943  0.70996969  0.44088258  1.0
  O  O7  1  0.55740943  0.79003031  0.55911742  1.0
  O  O8  1  0.26620429  0.63130074  0.74667553  1.0
  O  O9  1  0.76620429  0.86869926  0.25332447  1.0
  O  O10  1  0.73379571  0.13130074  0.75332447  1.0
  O  O11  1  0.23379571  0.36869926  0.24667553  1.0
  O  O12  1  0.73802818  0.60491902  0.76582931  1.0
  O  O13  1  0.23802818  0.89508098  0.23417069  1.0
  O  O14  1  0.26197182  0.10491902  0.73417069  1.0
  O  O15  1  0.76197182  0.39508098  0.26582931  1.0
  O  O16  1  0.99441042  0.89110212  0.93936017  1.0
  O  O17  1  0.49441042  0.60889788  0.06063983  1.0
  O  O18  1  0.00558958  0.39110212  0.56063983  1.0
  O  O19  1  0.50558958  0.10889788  0.43936017  1.0
  O  O20  1  -0.00046664  0.57262745  0.04396944  1.0
  O  O21  1  0.49953336  0.92737255  0.95603056  1.0
  O  O22  1  1.00046664  0.07262745  0.45603056  1.0
  O  O23  1  0.50046664  0.42737255  0.54396944  1.0
  Cu  Cu24  1  0.24600153  0.75420576  1.00293058  1.0
  Cu  Cu25  1  0.74600153  0.74579424  -0.00293058  1.0
  Cu  Cu26  1  0.75399847  0.25420576  0.49706942  1.0
  Cu  Cu27  1  0.25399847  0.24579424  0.50293058  1.0
  V  V28  1  0.98763501  0.38873232  0.15936817  1.0
  V  V29  1  0.48763501  0.11126768  0.84063183  1.0
  V  V30  1  0.01236499  0.88873232  0.34063183  1.0
  V  V31  1  0.51236499  0.61126768  0.65936817  1.0
  H  H32  1  0.98385696  1.00652873  0.98732360  1.0
  H  H33  1  0.48385696  0.49347127  0.01267640  1.0
  H  H34  1  0.01614304  0.50652873  0.51267640  1.0
  H  H35  1  0.51614304  -0.00652873  0.48732360  1.0
