# generated using pymatgen
data_K2(TeO4)3
_symmetry_space_group_name_H-M   'P 1'
_cell_length_a   10.84246316
_cell_length_b   8.31247452
_cell_length_c   12.80860533
_cell_angle_alpha   57.12123806
_cell_angle_beta   40.08000427
_cell_angle_gamma   82.79875767
_symmetry_Int_Tables_number   1
_chemical_formula_structural   K2(TeO4)3
_chemical_formula_sum   'K4 Te6 O24'
_cell_volume   526.83898654
_cell_formula_units_Z   2
loop_
 _symmetry_equiv_pos_site_id
 _symmetry_equiv_pos_as_xyz
  1  'x, y, z'
loop_
 _atom_site_type_symbol
 _atom_site_label
 _atom_site_symmetry_multiplicity
 _atom_site_fract_x
 _atom_site_fract_y
 _atom_site_fract_z
 _atom_site_occupancy
  O  O0  1  0.54038420  0.47398864  0.38591791  1.0
  O  O1  1  0.86408209  0.65029074  -0.29038420  1.0
  O  O2  1  0.47398864  0.54038420  -0.40029074  1.0
  O  O3  1  0.65029074  0.86408209  -0.22398864  1.0
  O  O4  1  0.04846881  0.07080936  0.56612152  1.0
  O  O5  1  0.68387848  -0.06460030  0.20153119  1.0
  O  O6  1  0.07080936  0.04846881  0.31460030  1.0
  O  O7  1  -0.06460030  0.68387848  0.17919064  1.0
  O  O8  1  0.06721757  -0.01038550  0.81244130  1.0
  O  O9  1  0.11927337  0.43755870  0.26038550  1.0
  O  O10  1  0.43755870  0.11927337  0.18278243  1.0
  O  O11  1  -0.01038550  0.06721757  0.13072663  1.0
  O  O12  1  -0.25540560  0.23951151  0.38981591  1.0
  O  O13  1  0.86018409  0.62392182  -0.49459440  1.0
  O  O14  1  0.23951151  -0.25540560  0.62607818  1.0
  O  O15  1  0.62392182  0.86018409  0.01048849  1.0
  O  O16  1  -0.30532947  0.32468663  0.61801775  1.0
  O  O17  1  0.32468663  -0.30532947  0.36262509  1.0
  O  O18  1  0.63198225  0.88737491  -0.44467053  1.0
  O  O19  1  0.88737491  0.63198225  -0.07468663  1.0
  O  O20  1  1.08311681  0.31789150  -0.21284734  1.0
  O  O21  1  0.43816096  0.46284734  -0.06789150  1.0
  O  O22  1  0.31789150  1.08311681  -0.18816096  1.0
  O  O23  1  0.46284734  0.43816096  0.16688319  1.0
  K  K24  1  0.51986528  0.16432054  0.36407524  1.0
  K  K25  1  0.88592476  0.29826106  -0.26986528  1.0
  K  K26  1  0.16432054  0.51986528  -0.04826106  1.0
  K  K27  1  0.29826106  0.88592476  0.08567946  1.0
  Te  Te28  1  0.38671523  -0.37267070  0.48763779  1.0
  Te  Te29  1  0.76236221  0.75168232  -0.13671523  1.0
  Te  Te30  1  -0.37267070  0.38671523  0.49831768  1.0
  Te  Te31  1  0.75168232  0.76236221  -0.37732930  1.0
  Te  Te32  1  1.00021519  0.00021519  -0.00021519  1.0
  Te  Te33  1  0.25021519  0.25021519  0.24978481  1.0
