# generated using pymatgen
data_La(NO2)3
_symmetry_space_group_name_H-M   'P 1'
_cell_length_a   6.21632117
_cell_length_b   6.21632117
_cell_length_c   6.21632117
_cell_angle_alpha   114.77837694
_cell_angle_beta   114.77837694
_cell_angle_gamma   114.77837694
_symmetry_Int_Tables_number   1
_chemical_formula_structural   La(NO2)3
_chemical_formula_sum   'La1 N3 O6'
_cell_volume   137.11345893
_cell_formula_units_Z   1
loop_
 _symmetry_equiv_pos_site_id
 _symmetry_equiv_pos_as_xyz
  1  'x, y, z'
loop_
 _atom_site_type_symbol
 _atom_site_label
 _atom_site_symmetry_multiplicity
 _atom_site_fract_x
 _atom_site_fract_y
 _atom_site_fract_z
 _atom_site_occupancy
  La  La0  1  -0.00684247  -0.00684247  -0.00684247  1.0
  N  N1  1  0.39577798  0.39577798  -0.14266650  1.0
  N  N2  1  0.39577798  0.85733350  -0.60422202  1.0
  N  N3  1  0.85733350  0.39577798  0.39577798  1.0
  O  O4  1  0.41353250  0.41353250  -0.33332260  1.0
  O  O5  1  0.41353250  0.66667740  -0.58646750  1.0
  O  O6  1  0.66667740  0.41353250  0.41353250  1.0
  O  O7  1  1.11651282  1.11651282  0.69288498  1.0
  O  O8  1  1.11651282  1.69288498  0.11651282  1.0
  O  O9  1  0.69288498  0.11651282  0.11651282  1.0
