# generated using pymatgen
data_GdMoBrO4
_symmetry_space_group_name_H-M   'P 1'
_cell_length_a   7.41893803
_cell_length_b   7.08501461
_cell_length_c   11.05668898
_cell_angle_alpha   107.60311745
_cell_angle_beta   103.86722065
_cell_angle_gamma   94.57239505
_symmetry_Int_Tables_number   1
_chemical_formula_structural   GdMoBrO4
_chemical_formula_sum   'Gd4 Mo4 Br4 O16'
_cell_volume   530.49188212
_cell_formula_units_Z   4
loop_
 _symmetry_equiv_pos_site_id
 _symmetry_equiv_pos_as_xyz
  1  'x, y, z'
loop_
 _atom_site_type_symbol
 _atom_site_label
 _atom_site_symmetry_multiplicity
 _atom_site_fract_x
 _atom_site_fract_y
 _atom_site_fract_z
 _atom_site_occupancy
  Gd  Gd0  1  -0.65924045  -0.87800711  -0.76861604  1.0
  Gd  Gd1  1  -0.34075955  -0.12199289  -0.23138396  1.0
  Gd  Gd2  1  -0.89938951  -0.83574270  -0.27128706  1.0
  Gd  Gd3  1  -0.10061049  -0.16425730  -0.72871294  1.0
  Mo  Mo4  1  -0.18133866  -0.77370162  -0.86496901  1.0
  Mo  Mo5  1  -0.81866134  -0.22629838  -0.13503099  1.0
  Mo  Mo6  1  -0.58214270  -0.27177941  -0.62828783  1.0
  Mo  Mo7  1  -0.41785730  -0.72822059  -0.37171217  1.0
  Br  Br8  1  -1.00680385  -0.76358678  -0.52155931  1.0
  Br  Br9  1  0.00680385  -0.23641322  -0.47844069  1.0
  Br  Br10  1  -0.71972615  -0.69346409  -0.98700465  1.0
  Br  Br11  1  -0.28027385  -0.30653591  -0.01299535  1.0
  O  O12  1  -0.98784935  -0.90122279  -0.81356021  1.0
  O  O13  1  -0.01215065  -0.09877721  -0.18643979  1.0
  O  O14  1  -0.36353594  -0.85297610  -0.80320746  1.0
  O  O15  1  -0.63646406  -0.14702390  -0.19679254  1.0
  O  O16  1  -0.49568958  -0.82355354  -0.54652395  1.0
  O  O17  1  -0.50431042  -0.17644646  -0.45347605  1.0
  O  O18  1  -0.60400729  -0.77975123  -0.30596546  1.0
  O  O19  1  -0.39599271  -0.22024877  -0.69403454  1.0
  O  O20  1  -0.64752953  -0.53320681  -0.67487561  1.0
  O  O21  1  -0.35247047  -0.46679319  -0.32512439  1.0
  O  O22  1  -0.88558289  -0.48902293  -0.20334469  1.0
  O  O23  1  -0.11441711  -0.51097707  -0.79665531  1.0
  O  O24  1  -0.74081129  -0.15706308  -0.96171613  1.0
  O  O25  1  -0.25918871  -0.84293692  -0.03828387  1.0
  O  O26  1  -0.77425240  -0.15653538  -0.69988767  1.0
  O  O27  1  -0.22574760  -0.84346462  -0.30011233  1.0
