# generated using pymatgen
data_CsBrF
_symmetry_space_group_name_H-M   'P 1'
_cell_length_a   10.49919540
_cell_length_b   10.49919540
_cell_length_c   10.49919540
_cell_angle_alpha   155.77163212
_cell_angle_beta   155.77163212
_cell_angle_gamma   34.52953641
_symmetry_Int_Tables_number   1
_chemical_formula_structural   CsBrF
_chemical_formula_sum   'Cs2 Br2 F2'
_cell_volume   194.70073358
_cell_formula_units_Z   2
loop_
 _symmetry_equiv_pos_site_id
 _symmetry_equiv_pos_as_xyz
  1  'x, y, z'
loop_
 _atom_site_type_symbol
 _atom_site_label
 _atom_site_symmetry_multiplicity
 _atom_site_fract_x
 _atom_site_fract_y
 _atom_site_fract_z
 _atom_site_occupancy
  Cs  Cs0  1  0.66867990  0.66867990  1.00000000  1.0
  Cs  Cs1  1  0.33132010  0.33132010  -0.00000000  1.0
  Br  Br2  1  0.93958715  0.93958715  1.00000000  1.0
  Br  Br3  1  0.06041285  0.06041285  -0.00000000  1.0
  F  F4  1  0.81590231  0.81590231  1.00000000  1.0
  F  F5  1  0.18409769  0.18409769  -0.00000000  1.0
