# generated using pymatgen
data_Ba3SrIr2O9
_symmetry_space_group_name_H-M   'P 1'
_cell_length_a   6.03522505
_cell_length_b   6.03522505
_cell_length_c   14.98996687
_cell_angle_alpha   88.34485811
_cell_angle_beta   91.65514189
_cell_angle_gamma   60.63697350
_symmetry_Int_Tables_number   1
_chemical_formula_structural   Ba3SrIr2O9
_chemical_formula_sum   'Ba6 Sr2 Ir4 O18'
_cell_volume   475.07053130
_cell_formula_units_Z   2
loop_
 _symmetry_equiv_pos_site_id
 _symmetry_equiv_pos_as_xyz
  1  'x, y, z'
loop_
 _atom_site_type_symbol
 _atom_site_label
 _atom_site_symmetry_multiplicity
 _atom_site_fract_x
 _atom_site_fract_y
 _atom_site_fract_z
 _atom_site_occupancy
  Ir  Ir0  1  0.63815931  -0.31093675  0.33418384  1.0
  Ir  Ir1  1  1.31093675  0.36184069  0.83418384  1.0
  Ir  Ir2  1  0.68906325  -0.36184069  0.16581616  1.0
  Ir  Ir3  1  1.36184069  0.31093675  0.66581616  1.0
  Ba  Ba4  1  1.32601847  0.34042728  0.41033431  1.0
  Ba  Ba5  1  0.65957272  -0.32601847  0.91033431  1.0
  Ba  Ba6  1  1.34042728  0.32601847  0.08966569  1.0
  Ba  Ba7  1  0.67398153  -0.34042728  0.58966569  1.0
  Ba  Ba8  1  0.98686069  -0.01313931  0.25000000  1.0
  Ba  Ba9  1  1.01313931  0.01313931  0.75000000  1.0
  Sr  Sr10  1  -0.00000000  0.00000000  0.50000000  1.0
  Sr  Sr11  1  0.00000000  0.00000000  0.00000000  1.0
  O  O12  1  0.50883648  -0.49116352  0.25000000  1.0
  O  O13  1  1.49116352  0.49116352  0.75000000  1.0
  O  O14  1  0.41776547  -0.23556794  0.07366724  1.0
  O  O15  1  1.23556794  0.58223453  0.57366724  1.0
  O  O16  1  0.76443206  -0.58223453  0.42633276  1.0
  O  O17  1  1.58223453  0.23556794  0.92633276  1.0
  O  O18  1  0.76805480  -0.13148991  0.40546912  1.0
  O  O19  1  1.13148991  0.23194520  0.90546912  1.0
  O  O20  1  0.86851009  -0.23194520  0.09453088  1.0
  O  O21  1  1.23194520  0.13148991  0.59453088  1.0
  O  O22  1  0.31644953  -0.13539634  0.39186543  1.0
  O  O23  1  1.13539634  0.68355047  0.89186543  1.0
  O  O24  1  0.86460366  -0.68355047  0.10813457  1.0
  O  O25  1  1.68355047  0.13539634  0.60813457  1.0
  O  O26  1  0.51169133  -0.03482139  0.23279578  1.0
  O  O27  1  1.03482139  0.48830867  0.73279578  1.0
  O  O28  1  0.96517861  -0.48830867  0.26720422  1.0
  O  O29  1  1.48830867  0.03482139  0.76720422  1.0
