# generated using pymatgen
data_Li4P2O7
_symmetry_space_group_name_H-M   'P 1'
_cell_length_a   9.12806041
_cell_length_b   5.14303025
_cell_length_c   14.07093623
_cell_angle_alpha   90.00000000
_cell_angle_beta   114.81027284
_cell_angle_gamma   90.00000000
_symmetry_Int_Tables_number   1
_chemical_formula_structural   Li4P2O7
_chemical_formula_sum   'Li16 P8 O28'
_cell_volume   599.60327305
_cell_formula_units_Z   4
loop_
 _symmetry_equiv_pos_site_id
 _symmetry_equiv_pos_as_xyz
  1  'x, y, z'
loop_
 _atom_site_type_symbol
 _atom_site_label
 _atom_site_symmetry_multiplicity
 _atom_site_fract_x
 _atom_site_fract_y
 _atom_site_fract_z
 _atom_site_occupancy
  Li  Li0  1  0.38192293  0.10870070  0.23521470  1.0
  Li  Li1  1  0.38192293  0.39129930  0.73521470  1.0
  Li  Li2  1  0.61807707  0.60870070  0.26478530  1.0
  Li  Li3  1  0.61807707  0.89129930  0.76478530  1.0
  Li  Li4  1  0.46208865  0.34272806  0.41935549  1.0
  Li  Li5  1  0.46208865  0.15727194  0.91935549  1.0
  Li  Li6  1  0.53791135  0.84272806  0.08064451  1.0
  Li  Li7  1  0.53791135  0.65727194  0.58064451  1.0
  Li  Li8  1  0.88187606  0.89119208  0.23522850  1.0
  Li  Li9  1  0.88187606  0.60880792  0.73522850  1.0
  Li  Li10  1  0.11812394  0.39119208  0.26477150  1.0
  Li  Li11  1  0.11812394  0.10880792  0.76477150  1.0
  Li  Li12  1  0.96208853  0.65715729  0.41933671  1.0
  Li  Li13  1  0.96208853  0.84284271  0.91933671  1.0
  Li  Li14  1  0.03791147  0.15715729  0.08066329  1.0
  Li  Li15  1  0.03791147  0.34284271  0.58066329  1.0
  P  P16  1  0.75348955  0.13123209  0.39498262  1.0
  P  P17  1  0.75348955  0.36876791  0.89498262  1.0
  P  P18  1  0.24651045  0.63123209  0.10501738  1.0
  P  P19  1  0.24651045  0.86876791  0.60501738  1.0
  P  P20  1  0.74653337  0.36868749  0.10505723  1.0
  P  P21  1  0.74653337  0.13131251  0.60505723  1.0
  P  P22  1  0.25346663  0.86868749  0.39494277  1.0
  P  P23  1  0.25346663  0.63131251  0.89494277  1.0
  O  O24  1  0.77569184  0.89197124  0.33660038  1.0
  O  O25  1  0.77569184  0.60802876  0.83660038  1.0
  O  O26  1  0.22430816  0.39197124  0.16339962  1.0
  O  O27  1  0.22430816  0.10802876  0.66339962  1.0
  O  O28  1  0.27570613  0.10790678  0.33655465  1.0
  O  O29  1  0.27570613  0.39209322  0.83655465  1.0
  O  O30  1  0.72429387  0.60790678  0.16344535  1.0
  O  O31  1  0.72429387  0.89209322  0.66344535  1.0
  O  O32  1  0.60352270  0.18235753  0.06819862  1.0
  O  O33  1  0.60352270  0.31764247  0.56819862  1.0
  O  O34  1  0.39647730  0.68235753  0.43180138  1.0
  O  O35  1  0.39647730  0.81764247  0.93180138  1.0
  O  O36  1  0.90966346  0.22800278  0.16629467  1.0
  O  O37  1  0.90966346  0.27199722  0.66629467  1.0
  O  O38  1  0.09033654  0.72800278  0.33370533  1.0
  O  O39  1  0.09033654  0.77199722  0.83370533  1.0
  O  O40  1  0.89650591  0.31754728  0.43181685  1.0
  O  O41  1  0.89650591  0.18245272  0.93181685  1.0
  O  O42  1  0.10349409  0.81754728  0.06818315  1.0
  O  O43  1  0.10349409  0.68245272  0.56818315  1.0
  O  O44  1  0.59035768  0.27191602  0.33374384  1.0
  O  O45  1  0.59035768  0.22808398  0.83374384  1.0
  O  O46  1  0.40964232  0.77191602  0.16625616  1.0
  O  O47  1  0.40964232  0.72808398  0.66625616  1.0
  O  O48  1  0.75002325  -0.00023808  0.50003029  1.0
  O  O49  1  0.75002325  0.50023808  1.00003029  1.0
  O  O50  1  0.24997675  0.49976192  -0.00003029  1.0
  O  O51  1  0.24997675  1.00023808  0.49996971  1.0
