# generated using pymatgen
data_NaFeSO4F
_symmetry_space_group_name_H-M   'P 1'
_cell_length_a   6.77379739
_cell_length_b   8.78168373
_cell_length_c   7.36603226
_cell_angle_alpha   90.00000000
_cell_angle_beta   113.65511866
_cell_angle_gamma   90.00000000
_symmetry_Int_Tables_number   1
_chemical_formula_structural   NaFeSO4F
_chemical_formula_sum   'Na4 Fe4 S4 O16 F4'
_cell_volume   401.35461370
_cell_formula_units_Z   4
loop_
 _symmetry_equiv_pos_site_id
 _symmetry_equiv_pos_as_xyz
  1  'x, y, z'
loop_
 _atom_site_type_symbol
 _atom_site_label
 _atom_site_symmetry_multiplicity
 _atom_site_fract_x
 _atom_site_fract_y
 _atom_site_fract_z
 _atom_site_occupancy
  Na  Na0  1  0.74932637  0.91208804  0.21436681  1.0
  Na  Na1  1  0.74932637  0.58791196  0.71436681  1.0
  Na  Na2  1  0.25067363  0.41208804  0.28563319  1.0
  Na  Na3  1  0.25067363  0.08791196  0.78563319  1.0
  Fe  Fe4  1  0.75282781  0.24500653  0.50073913  1.0
  Fe  Fe5  1  0.75282781  0.25499347  1.00073913  1.0
  Fe  Fe6  1  0.24717219  0.74500653  -0.00073913  1.0
  Fe  Fe7  1  0.24717219  0.75499347  0.49926087  1.0
  S  S8  1  0.25118315  0.06790259  0.24672738  1.0
  S  S9  1  0.25118315  0.43209741  0.74672738  1.0
  S  S10  1  0.74881685  0.56790259  0.25327262  1.0
  S  S11  1  0.74881685  0.93209741  0.75327262  1.0
  O  O12  1  0.90889577  0.67356913  0.39859516  1.0
  O  O13  1  0.90889577  0.82643087  0.89859516  1.0
  O  O14  1  0.09110423  0.17356913  0.10140484  1.0
  O  O15  1  0.09110423  0.32643087  0.60140484  1.0
  O  O16  1  0.85951381  0.46828344  0.15671470  1.0
  O  O17  1  0.85951381  0.03171656  0.65671470  1.0
  O  O18  1  0.14048619  0.96828344  0.34328530  1.0
  O  O19  1  0.14048619  0.53171656  0.84328530  1.0
  O  O20  1  0.64635262  0.47116345  0.36100809  1.0
  O  O21  1  0.64635262  0.02883655  0.86100809  1.0
  O  O22  1  0.35364738  0.97116345  0.13899191  1.0
  O  O23  1  0.35364738  0.52883655  0.63899191  1.0
  O  O24  1  0.41747596  0.16412890  0.40010041  1.0
  O  O25  1  0.41747596  0.33587110  0.90010041  1.0
  O  O26  1  0.58252404  0.66412890  0.09989959  1.0
  O  O27  1  0.58252404  0.83587110  0.59989959  1.0
  F  F28  1  0.75059664  0.16623668  0.24861512  1.0
  F  F29  1  0.75059664  0.33376332  0.74861512  1.0
  F  F30  1  0.24940336  0.66623668  0.25138488  1.0
  F  F31  1  0.24940336  0.83376332  0.75138488  1.0
