# generated using pymatgen
data_Zr6Ga16Fe7
_symmetry_space_group_name_H-M   'P 1'
_cell_length_a   8.59933434
_cell_length_b   8.59933434
_cell_length_c   8.59933434
_cell_angle_alpha   60.00000000
_cell_angle_beta   60.00000000
_cell_angle_gamma   60.00000000
_symmetry_Int_Tables_number   1
_chemical_formula_structural   Zr6Ga16Fe7
_chemical_formula_sum   'Zr6 Ga16 Fe7'
_cell_volume   449.65508183
_cell_formula_units_Z   1
loop_
 _symmetry_equiv_pos_site_id
 _symmetry_equiv_pos_as_xyz
  1  'x, y, z'
loop_
 _atom_site_type_symbol
 _atom_site_label
 _atom_site_symmetry_multiplicity
 _atom_site_fract_x
 _atom_site_fract_y
 _atom_site_fract_z
 _atom_site_occupancy
  Zr  Zr0  1  0.70682644  0.70682644  -0.70682644  1.0
  Zr  Zr1  1  0.29317356  -0.29317356  1.29317356  1.0
  Zr  Zr2  1  -0.29317356  0.29317356  0.29317356  1.0
  Zr  Zr3  1  0.29317356  1.29317356  -0.29317356  1.0
  Zr  Zr4  1  -0.29317356  0.29317356  0.70682644  1.0
  Zr  Zr5  1  -0.70682644  0.70682644  0.70682644  1.0
  Ga  Ga6  1  0.87732402  0.87732402  -0.63197206  1.0
  Ga  Ga7  1  0.87732402  0.36802794  -0.12267598  1.0
  Ga  Ga8  1  0.36802794  0.87732402  -0.12267598  1.0
  Ga  Ga9  1  0.87732402  0.87732402  -0.12267598  1.0
  Ga  Ga10  1  1.12267598  0.12267598  0.63197206  1.0
  Ga  Ga11  1  1.12267598  0.63197206  0.12267598  1.0
  Ga  Ga12  1  1.63197206  0.12267598  0.12267598  1.0
  Ga  Ga13  1  1.12267598  0.12267598  0.12267598  1.0
  Ga  Ga14  1  0.65803968  0.65803968  0.02588095  1.0
  Ga  Ga15  1  0.65803968  1.02588095  -0.34196032  1.0
  Ga  Ga16  1  1.02588095  0.65803968  -0.34196032  1.0
  Ga  Ga17  1  0.65803968  0.65803968  -0.34196032  1.0
  Ga  Ga18  1  1.34196032  0.34196032  -0.02588095  1.0
  Ga  Ga19  1  1.34196032  -0.02588095  0.34196032  1.0
  Ga  Ga20  1  0.97411905  0.34196032  0.34196032  1.0
  Ga  Ga21  1  1.34196032  0.34196032  0.34196032  1.0
  Fe  Fe22  1  0.00000000  0.00000000  0.00000000  1.0
  Fe  Fe23  1  0.00000000  -0.00000000  0.50000000  1.0
  Fe  Fe24  1  0.50000000  1.00000000  -0.50000000  1.0
  Fe  Fe25  1  1.00000000  0.50000000  -0.50000000  1.0
  Fe  Fe26  1  0.50000000  -0.50000000  1.00000000  1.0
  Fe  Fe27  1  -0.00000000  1.50000000  0.00000000  1.0
  Fe  Fe28  1  1.50000000  -0.00000000  0.00000000  1.0
