# generated using pymatgen
data_Eu2Mn5Al12
_symmetry_space_group_name_H-M   'P 1'
_cell_length_a   6.83931864
_cell_length_b   6.83931864
_cell_length_c   6.83931864
_cell_angle_alpha   83.21486517
_cell_angle_beta   83.21486517
_cell_angle_gamma   83.21486517
_symmetry_Int_Tables_number   1
_chemical_formula_structural   Eu2Mn5Al12
_chemical_formula_sum   'Eu2 Mn5 Al12'
_cell_volume   313.68639539
_cell_formula_units_Z   1
loop_
 _symmetry_equiv_pos_site_id
 _symmetry_equiv_pos_as_xyz
  1  'x, y, z'
loop_
 _atom_site_type_symbol
 _atom_site_label
 _atom_site_symmetry_multiplicity
 _atom_site_fract_x
 _atom_site_fract_y
 _atom_site_fract_z
 _atom_site_occupancy
  Eu  Eu0  1  0.65482791  0.65482791  -0.34517209  1.0
  Eu  Eu1  1  1.34517209  1.34517209  0.34517209  1.0
  Mn  Mn2  1  1.00000000  -0.00000000  -0.50000000  1.0
  Mn  Mn3  1  1.00000000  -0.50000000  0.00000000  1.0
  Mn  Mn4  1  1.50000000  1.00000000  0.00000000  1.0
  Mn  Mn5  1  0.90138568  0.90138568  -0.09861432  1.0
  Mn  Mn6  1  1.09861432  1.09861432  0.09861432  1.0
  Al  Al7  1  0.28077887  -0.28077887  -0.00000000  1.0
  Al  Al8  1  0.71922113  0.00000000  -0.71922113  1.0
  Al  Al9  1  1.00000000  0.28077887  -0.28077887  1.0
  Al  Al10  1  0.28077887  0.00000000  -0.28077887  1.0
  Al  Al11  1  1.00000000  -0.28077887  0.28077887  1.0
  Al  Al12  1  0.71922113  -0.71922113  -0.00000000  1.0
  Al  Al13  1  0.33651634  0.33651634  -0.11846311  1.0
  Al  Al14  1  0.33651634  0.88153689  -0.66348366  1.0
  Al  Al15  1  0.88153689  0.33651634  -0.66348366  1.0
  Al  Al16  1  0.66348366  -0.33651634  0.11846311  1.0
  Al  Al17  1  0.66348366  0.11846311  -0.33651634  1.0
  Al  Al18  1  1.11846311  -0.33651634  -0.33651634  1.0
