# generated using pymatgen
data_Na5Y(MoO4)4
_symmetry_space_group_name_H-M   'P 1'
_cell_length_a   10.00542163
_cell_length_b   10.00542163
_cell_length_c   10.00542163
_cell_angle_alpha   109.55815705
_cell_angle_beta   109.55815705
_cell_angle_gamma   109.29748738
_symmetry_Int_Tables_number   1
_chemical_formula_structural   Na5Y(MoO4)4
_chemical_formula_sum   'Na10 Y2 Mo8 O32'
_cell_volume   771.04779519
_cell_formula_units_Z   2
loop_
 _symmetry_equiv_pos_site_id
 _symmetry_equiv_pos_as_xyz
  1  'x, y, z'
loop_
 _atom_site_type_symbol
 _atom_site_label
 _atom_site_symmetry_multiplicity
 _atom_site_fract_x
 _atom_site_fract_y
 _atom_site_fract_z
 _atom_site_occupancy
  Na  Na0  1  0.50000000  0.50000000  0.00000000  1.0
  Na  Na1  1  0.25000000  0.75000000  0.50000000  1.0
  Na  Na2  1  1.17129208  1.34675553  1.58189856  1.0
  Na  Na3  1  0.76485698  0.58939353  0.41810145  1.0
  Na  Na4  1  1.09675553  1.01485698  1.67546345  1.0
  Na  Na5  1  1.33939353  1.42129208  1.32453655  1.0
  Na  Na6  1  0.57870792  0.90324447  0.91810145  1.0
  Na  Na7  1  0.98514302  0.66060647  1.08189856  1.0
  Na  Na8  1  0.65324447  1.23514302  0.82453655  1.0
  Na  Na9  1  0.41060647  0.82870792  1.17546345  1.0
  Y  Y10  1  0.75000000  0.25000000  0.50000000  1.0
  Y  Y11  1  1.00000000  1.00000000  1.00000000  1.0
  Mo  Mo12  1  1.08313590  1.35736711  0.91298045  1.0
  Mo  Mo13  1  0.44438666  1.17015545  1.08701955  1.0
  Mo  Mo14  1  0.10736711  0.69438666  0.77423121  1.0
  Mo  Mo15  1  0.92015545  0.33313590  1.22576879  1.0
  Mo  Mo16  1  1.66686410  1.89263289  1.58701955  1.0
  Mo  Mo17  1  1.30561334  1.07984455  1.41298045  1.0
  Mo  Mo18  1  1.64263289  1.55561334  1.72576879  1.0
  Mo  Mo19  1  0.82984455  0.91686410  0.27423121  1.0
  O  O20  1  1.20253050  1.32245573  1.82225971  1.0
  O  O21  1  0.50019602  0.38027079  0.17774029  1.0
  O  O22  1  1.07245573  0.75019602  1.61992522  1.0
  O  O23  1  0.13027079  0.45253050  0.38007478  1.0
  O  O24  1  0.54746950  0.92754427  0.67774029  1.0
  O  O25  1  1.24980398  0.86972921  1.32225971  1.0
  O  O26  1  0.67754427  1.49980398  0.88007478  1.0
  O  O27  1  1.61972921  0.79746950  1.11992522  1.0
  O  O28  1  1.02256914  1.47663217  0.67085085  1.0
  O  O29  1  0.80578132  1.35171829  1.32914915  1.0
  O  O30  1  0.22663217  1.05578132  0.95406303  1.0
  O  O31  1  1.10171829  1.27256914  1.04593697  1.0
  O  O32  1  1.72743086  1.77336783  1.82914915  1.0
  O  O33  1  0.94421868  0.89828171  1.17085085  1.0
  O  O34  1  1.52336783  1.19421868  1.54593697  1.0
  O  O35  1  0.64828171  0.97743086  1.45406303  1.0
  O  O36  1  0.87183996  1.27489186  0.76378318  1.0
  O  O37  1  0.51110868  1.10805677  1.23621682  1.0
  O  O38  1  1.02489186  0.76110868  0.90305191  1.0
  O  O39  1  0.85805677  1.12183996  1.09694809  1.0
  O  O40  1  0.87816004  0.97510814  1.73621682  1.0
  O  O41  1  1.23889132  1.14194323  1.26378318  1.0
  O  O42  1  0.72510814  0.48889132  0.59694809  1.0
  O  O43  1  0.89194323  1.12816004  1.40305191  1.0
  O  O44  1  1.17795242  1.56984405  1.04038023  1.0
  O  O45  1  0.52946381  1.13757219  0.95961977  1.0
  O  O46  1  0.31984405  0.77946381  0.89189162  1.0
  O  O47  1  0.88757219  0.42795242  1.10810838  1.0
  O  O48  1  1.57204758  1.68015595  1.45961977  1.0
  O  O49  1  1.22053619  1.11242781  1.54038023  1.0
  O  O50  1  1.43015595  1.47053619  1.60810838  1.0
  O  O51  1  0.86242781  0.82204758  0.39189162  1.0
