# generated using pymatgen
data_NaCr(WO4)2
_symmetry_space_group_name_H-M   'P 1'
_cell_length_a   9.92255842
_cell_length_b   5.81195751
_cell_length_c   4.99470803
_cell_angle_alpha   90.00000000
_cell_angle_beta   90.02195997
_cell_angle_gamma   90.00000000
_symmetry_Int_Tables_number   1
_chemical_formula_structural   NaCr(WO4)2
_chemical_formula_sum   'Na2 Cr2 W4 O16'
_cell_volume   288.04223322
_cell_formula_units_Z   2
loop_
 _symmetry_equiv_pos_site_id
 _symmetry_equiv_pos_as_xyz
  1  'x, y, z'
loop_
 _atom_site_type_symbol
 _atom_site_label
 _atom_site_symmetry_multiplicity
 _atom_site_fract_x
 _atom_site_fract_y
 _atom_site_fract_z
 _atom_site_occupancy
  Na  Na0  1  0.50000000  0.69371678  0.25000000  1.0
  Na  Na1  1  0.50000000  0.30628322  0.75000000  1.0
  Cr  Cr2  1  0.00000000  0.64883250  0.25000000  1.0
  Cr  Cr3  1  0.00000000  0.35116750  0.75000000  1.0
  W  W4  1  0.76805505  0.81840834  0.73770692  1.0
  W  W5  1  0.76805505  0.18159166  0.23770692  1.0
  W  W6  1  0.23194495  0.81840834  0.76229308  1.0
  W  W7  1  0.23194495  0.18159166  0.26229308  1.0
  O  O8  1  0.89380619  0.37975988  0.41192150  1.0
  O  O9  1  0.89380619  0.62024012  0.91192150  1.0
  O  O10  1  0.10619381  0.37975988  0.08807850  1.0
  O  O11  1  0.10619381  0.62024012  0.58807850  1.0
  O  O12  1  0.87902029  0.87251136  0.41964879  1.0
  O  O13  1  0.87902029  0.12748864  0.91964879  1.0
  O  O14  1  0.12097971  0.87251136  0.08035121  1.0
  O  O15  1  0.12097971  0.12748864  0.58035121  1.0
  O  O16  1  0.67463936  0.91270117  0.04730777  1.0
  O  O17  1  0.67463936  0.08729883  0.54730777  1.0
  O  O18  1  0.32536064  0.91270117  0.45269223  1.0
  O  O19  1  0.32536064  0.08729883  0.95269223  1.0
  O  O20  1  0.64884451  0.37770198  0.11985732  1.0
  O  O21  1  0.64884451  0.62229802  0.61985732  1.0
  O  O22  1  0.35115549  0.37770198  0.38014268  1.0
  O  O23  1  0.35115549  0.62229802  0.88014268  1.0
