# generated using pymatgen
data_TiAg2O3
_symmetry_space_group_name_H-M   'P 1'
_cell_length_a   9.87761469
_cell_length_b   9.87761469
_cell_length_c   5.04767479
_cell_angle_alpha   71.08935085
_cell_angle_beta   108.91064915
_cell_angle_gamma   133.08079571
_symmetry_Int_Tables_number   1
_chemical_formula_structural   TiAg2O3
_chemical_formula_sum   'Ti4 Ag8 O12'
_cell_volume   336.51172280
_cell_formula_units_Z   4
loop_
 _symmetry_equiv_pos_site_id
 _symmetry_equiv_pos_as_xyz
  1  'x, y, z'
loop_
 _atom_site_type_symbol
 _atom_site_label
 _atom_site_symmetry_multiplicity
 _atom_site_fract_x
 _atom_site_fract_y
 _atom_site_fract_z
 _atom_site_occupancy
  Ti  Ti0  1  0.54240231  -0.30412022  0.35316364  1.0
  Ti  Ti1  1  1.30412022  0.45759769  0.85316364  1.0
  Ti  Ti2  1  0.69587978  0.54240231  0.14683636  1.0
  Ti  Ti3  1  0.45759769  0.30412022  0.64683636  1.0
  Ag  Ag4  1  0.82998665  -0.00971822  0.87867842  1.0
  Ag  Ag5  1  1.00971822  0.17001335  0.37867842  1.0
  Ag  Ag6  1  0.99028178  0.82998665  0.62132158  1.0
  Ag  Ag7  1  0.17001335  0.00971822  0.12132158  1.0
  Ag  Ag8  1  0.62378072  0.11965650  0.24375759  1.0
  Ag  Ag9  1  0.88034350  0.37621928  0.74375759  1.0
  Ag  Ag10  1  1.11965650  0.62378072  0.25624241  1.0
  Ag  Ag11  1  0.37621928  -0.11965650  0.75624241  1.0
  O  O12  1  0.67960172  -0.06300493  0.41713471  1.0
  O  O13  1  1.06300493  0.32039828  0.91713471  1.0
  O  O14  1  0.93699507  0.67960172  0.08286529  1.0
  O  O15  1  0.32039828  0.06300493  0.58286529  1.0
  O  O16  1  0.43068989  -0.30061558  -0.03265392  1.0
  O  O17  1  1.30061558  0.56931011  0.46734608  1.0
  O  O18  1  0.69938442  0.43068989  0.53265392  1.0
  O  O19  1  0.56931011  0.30061558  1.03265392  1.0
  O  O20  1  0.75874360  0.75874360  0.25000000  1.0
  O  O21  1  0.24125640  0.24125640  0.75000000  1.0
  O  O22  1  0.42997455  0.42997455  0.25000000  1.0
  O  O23  1  0.57002545  0.57002545  0.75000000  1.0
