# generated using pymatgen
data_BaMg2
_symmetry_space_group_name_H-M   'P 1'
_cell_length_a   6.64498764
_cell_length_b   6.64498764
_cell_length_c   10.59010285
_cell_angle_alpha   90.00000000
_cell_angle_beta   90.00000000
_cell_angle_gamma   120.00000000
_symmetry_Int_Tables_number   1
_chemical_formula_structural   BaMg2
_chemical_formula_sum   'Ba4 Mg8'
_cell_volume   404.96656162
_cell_formula_units_Z   4
loop_
 _symmetry_equiv_pos_site_id
 _symmetry_equiv_pos_as_xyz
  1  'x, y, z'
loop_
 _atom_site_type_symbol
 _atom_site_label
 _atom_site_symmetry_multiplicity
 _atom_site_fract_x
 _atom_site_fract_y
 _atom_site_fract_z
 _atom_site_occupancy
  Ba  Ba0  1  0.33333333  0.66666667  0.94307365  1.0
  Ba  Ba1  1  0.33333333  0.66666667  0.55692635  1.0
  Ba  Ba2  1  0.66666667  0.33333333  0.44307365  1.0
  Ba  Ba3  1  0.66666667  0.33333333  0.05692635  1.0
  Mg  Mg4  1  0.16149747  0.83850253  0.25000000  1.0
  Mg  Mg5  1  0.16149747  0.32299494  0.25000000  1.0
  Mg  Mg6  1  0.83850253  0.16149747  0.75000000  1.0
  Mg  Mg7  1  0.83850253  0.67700506  0.75000000  1.0
  Mg  Mg8  1  0.67700506  0.83850253  0.25000000  1.0
  Mg  Mg9  1  0.32299494  0.16149747  0.75000000  1.0
  Mg  Mg10  1  0.00000000  0.00000000  0.50000000  1.0
  Mg  Mg11  1  0.00000000  0.00000000  0.00000000  1.0
