# generated using pymatgen
data_Rb2NaCo(CN)6
_symmetry_space_group_name_H-M   'P 1'
_cell_length_a   7.34067107
_cell_length_b   7.72562534
_cell_length_c   12.83403604
_cell_angle_alpha   90.00000000
_cell_angle_beta   124.29674555
_cell_angle_gamma   90.00000000
_symmetry_Int_Tables_number   1
_chemical_formula_structural   Rb2NaCo(CN)6
_chemical_formula_sum   'Rb4 Na2 Co2 C12 N12'
_cell_volume   601.28616868
_cell_formula_units_Z   2
loop_
 _symmetry_equiv_pos_site_id
 _symmetry_equiv_pos_as_xyz
  1  'x, y, z'
loop_
 _atom_site_type_symbol
 _atom_site_label
 _atom_site_symmetry_multiplicity
 _atom_site_fract_x
 _atom_site_fract_y
 _atom_site_fract_z
 _atom_site_occupancy
  Rb  Rb0  1  0.72780104  0.06528894  0.24907399  1.0
  Rb  Rb1  1  0.72780104  0.43471106  0.74907399  1.0
  Rb  Rb2  1  0.27219896  0.56528894  0.25092601  1.0
  Rb  Rb3  1  0.27219896  0.93471106  0.75092601  1.0
  Na  Na4  1  0.50000000  0.50000000  0.00000000  1.0
  Na  Na5  1  0.50000000  0.00000000  0.50000000  1.0
  Co  Co6  1  0.00000000  0.50000000  0.50000000  1.0
  Co  Co7  1  0.00000000  0.00000000  0.00000000  1.0
  C  C8  1  0.90048517  0.48033019  0.33012229  1.0
  C  C9  1  0.90048517  0.01966981  0.83012229  1.0
  C  C10  1  0.09951483  0.98033019  0.16987771  1.0
  C  C11  1  0.09951483  0.51966981  0.66987771  1.0
  C  C12  1  0.76154561  0.36459965  0.46834171  1.0
  C  C13  1  0.76154561  0.13540035  0.96834171  1.0
  C  C14  1  0.23845439  0.86459965  0.03165829  1.0
  C  C15  1  0.23845439  0.63540035  0.53165829  1.0
  C  C16  1  0.17193631  0.29960333  0.53910422  1.0
  C  C17  1  0.17193631  0.20039667  0.03910422  1.0
  C  C18  1  0.82806369  0.79960333  0.96089578  1.0
  C  C19  1  0.82806369  0.70039667  0.46089578  1.0
  N  N20  1  0.71831347  0.82428775  0.43561456  1.0
  N  N21  1  0.71831347  0.67571225  0.93561456  1.0
  N  N22  1  0.28168653  0.32428775  0.06438544  1.0
  N  N23  1  0.28168653  0.17571225  0.56438544  1.0
  N  N24  1  0.83687240  0.46561664  0.22378075  1.0
  N  N25  1  0.83687240  0.03438336  0.72378075  1.0
  N  N26  1  0.16312760  0.96561664  0.27621925  1.0
  N  N27  1  0.16312760  0.53438336  0.77621925  1.0
  N  N28  1  0.61103760  0.28037159  0.44677512  1.0
  N  N29  1  0.61103760  0.21962841  0.94677512  1.0
  N  N30  1  0.38896240  0.78037159  0.05322488  1.0
  N  N31  1  0.38896240  0.71962841  0.55322488  1.0
