# generated using pymatgen
data_Bi2Pd3Se2
_symmetry_space_group_name_H-M   'P 1'
_cell_length_a   7.34501314
_cell_length_b   7.34501314
_cell_length_c   8.51834830
_cell_angle_alpha   55.96893897
_cell_angle_beta   124.03106103
_cell_angle_gamma   108.92910376
_symmetry_Int_Tables_number   1
_chemical_formula_structural   Bi2Pd3Se2
_chemical_formula_sum   'Bi4 Pd6 Se4'
_cell_volume   315.58288342
_cell_formula_units_Z   2
loop_
 _symmetry_equiv_pos_site_id
 _symmetry_equiv_pos_as_xyz
  1  'x, y, z'
loop_
 _atom_site_type_symbol
 _atom_site_label
 _atom_site_symmetry_multiplicity
 _atom_site_fract_x
 _atom_site_fract_y
 _atom_site_fract_z
 _atom_site_occupancy
  Bi  Bi0  1  0.79234394  -0.79234394  0.80779051  1.0
  Bi  Bi1  1  1.20765606  -0.20765606  0.19220949  1.0
  Bi  Bi2  1  0.24991535  -0.24991535  0.76105767  1.0
  Bi  Bi3  1  0.75008465  0.24991535  0.23894233  1.0
  Pd  Pd4  1  0.97274113  0.02725887  0.69277038  1.0
  Pd  Pd5  1  0.02725887  -0.02725887  0.30722962  1.0
  Pd  Pd6  1  0.71754909  0.71754909  0.00000000  1.0
  Pd  Pd7  1  0.28245091  0.28245091  0.00000000  1.0
  Pd  Pd8  1  1.50000000  -0.00000000  -0.00000000  1.0
  Pd  Pd9  1  1.00000000  0.50000000  -0.00000000  1.0
  Se  Se10  1  1.68001613  -0.26051736  0.68155915  1.0
  Se  Se11  1  1.26051736  0.31998387  0.68155915  1.0
  Se  Se12  1  0.73948264  0.68001613  0.31844085  1.0
  Se  Se13  1  1.31998387  0.26051736  0.31844085  1.0
