# generated using pymatgen
data_Al20(CoB2)3
_symmetry_space_group_name_H-M   'P 1'
_cell_length_a   8.07504793
_cell_length_b   8.07504793
_cell_length_c   8.07504793
_cell_angle_alpha   60.00000000
_cell_angle_beta   60.00000000
_cell_angle_gamma   60.00000000
_symmetry_Int_Tables_number   1
_chemical_formula_structural   Al20(CoB2)3
_chemical_formula_sum   'Al20 Co3 B6'
_cell_volume   372.32339710
_cell_formula_units_Z   1
loop_
 _symmetry_equiv_pos_site_id
 _symmetry_equiv_pos_as_xyz
  1  'x, y, z'
loop_
 _atom_site_type_symbol
 _atom_site_label
 _atom_site_symmetry_multiplicity
 _atom_site_fract_x
 _atom_site_fract_y
 _atom_site_fract_z
 _atom_site_occupancy
  Al  Al0  1  1.66561239  -0.00000000  0.00000000  1.0
  Al  Al1  1  1.00000000  0.33438761  -0.33438761  1.0
  Al  Al2  1  1.00000000  0.66561239  -0.66561239  1.0
  Al  Al3  1  1.33438761  0.00000000  -0.00000000  1.0
  Al  Al4  1  -0.00000000  1.66561239  0.00000000  1.0
  Al  Al5  1  0.33438761  1.00000000  -0.33438761  1.0
  Al  Al6  1  -0.00000000  0.00000000  0.66561239  1.0
  Al  Al7  1  0.33438761  -0.33438761  1.00000000  1.0
  Al  Al8  1  0.66561239  1.00000000  -0.66561239  1.0
  Al  Al9  1  0.00000000  1.33438761  -0.00000000  1.0
  Al  Al10  1  0.66561239  -0.66561239  1.00000000  1.0
  Al  Al11  1  -0.00000000  0.00000000  0.33438761  1.0
  Al  Al12  1  0.62279998  0.62279998  -0.37720002  1.0
  Al  Al13  1  0.37720002  1.37720002  -0.13160005  1.0
  Al  Al14  1  1.37720002  -0.13160005  0.37720002  1.0
  Al  Al15  1  1.13160005  0.62279998  0.62279998  1.0
  Al  Al16  1  -0.13160005  1.37720002  0.37720002  1.0
  Al  Al17  1  0.62279998  1.13160005  -0.37720002  1.0
  Al  Al18  1  0.62279998  0.62279998  1.13160005  1.0
  Al  Al19  1  1.37720002  0.37720002  0.37720002  1.0
  Co  Co20  1  0.75000000  0.75000000  -0.25000000  1.0
  Co  Co21  1  1.25000000  0.25000000  0.25000000  1.0
  Co  Co22  1  -0.00000000  0.00000000  0.00000000  1.0
  B  B23  1  -0.71667642  0.71667642  0.71667642  1.0
  B  B24  1  -0.28332358  0.28332358  0.71667642  1.0
  B  B25  1  0.71667642  0.71667642  -0.71667642  1.0
  B  B26  1  0.28332358  1.28332358  -0.28332358  1.0
  B  B27  1  0.28332358  -0.28332358  1.28332358  1.0
  B  B28  1  -0.28332358  0.28332358  0.28332358  1.0
