# generated using pymatgen
data_NaB(H3N)2
_symmetry_space_group_name_H-M   'P 1'
_cell_length_a   5.08953890
_cell_length_b   7.94871758
_cell_length_c   10.32149130
_cell_angle_alpha   90.00000000
_cell_angle_beta   115.80175581
_cell_angle_gamma   90.00000000
_symmetry_Int_Tables_number   1
_chemical_formula_structural   NaB(H3N)2
_chemical_formula_sum   'Na4 B4 H24 N8'
_cell_volume   375.93072932
_cell_formula_units_Z   4
loop_
 _symmetry_equiv_pos_site_id
 _symmetry_equiv_pos_as_xyz
  1  'x, y, z'
loop_
 _atom_site_type_symbol
 _atom_site_label
 _atom_site_symmetry_multiplicity
 _atom_site_fract_x
 _atom_site_fract_y
 _atom_site_fract_z
 _atom_site_occupancy
  Na  Na0  1  0.86229816  0.91213620  0.17287889  1.0
  Na  Na1  1  0.86229816  0.58786380  0.67287889  1.0
  Na  Na2  1  0.13770184  0.41213620  0.32712111  1.0
  Na  Na3  1  0.13770184  0.08786380  0.82712111  1.0
  B  B4  1  0.84319537  0.23860661  0.03880188  1.0
  B  B5  1  0.84319537  0.26139339  0.53880188  1.0
  B  B6  1  0.15680463  0.73860661  0.46119812  1.0
  B  B7  1  0.15680463  0.76139339  0.96119812  1.0
  H  H8  1  0.55477680  0.05584417  0.34980388  1.0
  H  H9  1  0.55477680  0.44415583  0.84980388  1.0
  H  H10  1  0.44522320  0.55584417  0.15019612  1.0
  H  H11  1  0.44522320  0.94415583  0.65019612  1.0
  H  H12  1  0.93715576  0.68091666  0.36044519  1.0
  H  H13  1  0.93715576  0.81908334  0.86044519  1.0
  H  H14  1  0.06284424  0.18091666  0.13955481  1.0
  H  H15  1  0.06284424  0.31908334  0.63955481  1.0
  H  H16  1  0.73603345  0.35170477  0.08615749  1.0
  H  H17  1  0.73603345  0.14829523  0.58615749  1.0
  H  H18  1  0.26396655  0.85170477  0.41384251  1.0
  H  H19  1  0.26396655  0.64829523  0.91384251  1.0
  H  H20  1  0.65720627  0.37372587  0.48934945  1.0
  H  H21  1  0.65720627  0.12627413  0.98934945  1.0
  H  H22  1  0.34279373  0.87372587  0.01065055  1.0
  H  H23  1  0.34279373  0.62627413  0.51065055  1.0
  H  H24  1  0.56846441  0.18718209  0.23118253  1.0
  H  H25  1  0.56846441  0.31281791  0.73118253  1.0
  H  H26  1  0.43153559  0.68718209  0.26881747  1.0
  H  H27  1  0.43153559  0.81281791  0.76881747  1.0
  H  H28  1  0.09541166  0.11228885  0.46326067  1.0
  H  H29  1  0.09541166  0.38771115  0.96326067  1.0
  H  H30  1  0.90458834  0.61228885  0.03673933  1.0
  H  H31  1  0.90458834  0.88771115  0.53673933  1.0
  N  N32  1  0.92584851  0.19561990  0.42129482  1.0
  N  N33  1  0.92584851  0.30438010  0.92129482  1.0
  N  N34  1  0.07415149  0.69561990  0.07870518  1.0
  N  N35  1  0.07415149  0.80438010  0.57870518  1.0
  N  N36  1  0.69174676  0.10254723  0.30860674  1.0
  N  N37  1  0.69174676  0.39745277  0.80860674  1.0
  N  N38  1  0.30825324  0.60254723  0.19139326  1.0
  N  N39  1  0.30825324  0.89745277  0.69139326  1.0
