# generated using pymatgen
data_Na4V2(PO4)3
_symmetry_space_group_name_H-M   'P 1'
_cell_length_a   8.87043116
_cell_length_b   8.87043116
_cell_length_c   8.87043116
_cell_angle_alpha   61.32669045
_cell_angle_beta   61.32669045
_cell_angle_gamma   61.32669045
_symmetry_Int_Tables_number   1
_chemical_formula_structural   Na4V2(PO4)3
_chemical_formula_sum   'Na8 V4 P6 O24'
_cell_volume   508.25206618
_cell_formula_units_Z   2
loop_
 _symmetry_equiv_pos_site_id
 _symmetry_equiv_pos_as_xyz
  1  'x, y, z'
loop_
 _atom_site_type_symbol
 _atom_site_label
 _atom_site_symmetry_multiplicity
 _atom_site_fract_x
 _atom_site_fract_y
 _atom_site_fract_z
 _atom_site_occupancy
  Na  Na0  1  0.61352968  0.25000000  -0.11352968  1.0
  Na  Na1  1  0.11352968  0.38647032  -0.25000000  1.0
  Na  Na2  1  0.75000000  0.11352968  -0.61352968  1.0
  Na  Na3  1  0.25000000  0.88647032  -0.38647032  1.0
  Na  Na4  1  0.38647032  0.75000000  -0.88647032  1.0
  Na  Na5  1  0.88647032  -0.38647032  0.25000000  1.0
  Na  Na6  1  0.50000000  0.50000000  -0.50000000  1.0
  Na  Na7  1  0.00000000  0.00000000  0.00000000  1.0
  V  V8  1  0.35356945  0.35356945  -0.64643055  1.0
  V  V9  1  0.85356945  0.85356945  -0.14643055  1.0
  V  V10  1  1.14643055  1.14643055  0.14643055  1.0
  V  V11  1  0.64643055  0.64643055  -0.35356945  1.0
  P  P12  1  0.95422806  0.25000000  -0.45422806  1.0
  P  P13  1  0.45422806  0.04577194  -0.25000000  1.0
  P  P14  1  0.75000000  -0.54577194  0.04577194  1.0
  P  P15  1  0.25000000  0.54577194  -0.04577194  1.0
  P  P16  1  1.04577194  -0.25000000  -0.54577194  1.0
  P  P17  1  0.54577194  -0.04577194  0.25000000  1.0
  O  O18  1  1.29327575  1.51673903  0.11782232  1.0
  O  O19  1  0.79327575  -0.38217768  0.01673903  1.0
  O  O20  1  0.38217768  0.98326097  -0.79327575  1.0
  O  O21  1  0.88217768  0.70672425  -0.51673903  1.0
  O  O22  1  0.48326097  0.88217768  -0.29327575  1.0
  O  O23  1  0.98326097  0.20672425  -0.61782232  1.0
  O  O24  1  0.70672425  0.48326097  -0.11782232  1.0
  O  O25  1  0.20672425  0.38217768  -0.01673903  1.0
  O  O26  1  1.11782232  1.29327575  0.51673903  1.0
  O  O27  1  0.61782232  0.01673903  -0.20672425  1.0
  O  O28  1  1.01673903  -0.20672425  -0.38217768  1.0
  O  O29  1  1.51673903  1.11782232  0.29327575  1.0
  O  O30  1  0.22701006  0.58658194  -0.56665508  1.0
  O  O31  1  0.72701006  -0.06665508  0.08658194  1.0
  O  O32  1  1.06665508  -0.08658194  -0.72701006  1.0
  O  O33  1  0.56665508  0.77298994  -0.58658194  1.0
  O  O34  1  0.41341806  0.56665508  -0.22701006  1.0
  O  O35  1  0.91341806  -0.72701006  0.06665508  1.0
  O  O36  1  0.77298994  0.41341806  -0.43334492  1.0
  O  O37  1  0.27298994  0.06665508  -0.08658194  1.0
  O  O38  1  0.43334492  0.22701006  -0.41341806  1.0
  O  O39  1  0.93334492  0.08658194  -0.27298994  1.0
  O  O40  1  1.08658194  -0.27298994  -0.06665508  1.0
  O  O41  1  0.58658194  0.43334492  -0.77298994  1.0
