# generated using pymatgen
data_SiGeN2O
_symmetry_space_group_name_H-M   'P 1'
_cell_length_a   5.40761784
_cell_length_b   5.02573494
_cell_length_c   5.42476025
_cell_angle_alpha   90.00000000
_cell_angle_beta   116.67009628
_cell_angle_gamma   90.00000000
_symmetry_Int_Tables_number   1
_chemical_formula_structural   SiGeN2O
_chemical_formula_sum   'Si2 Ge2 N4 O2'
_cell_volume   131.74437675
_cell_formula_units_Z   2
loop_
 _symmetry_equiv_pos_site_id
 _symmetry_equiv_pos_as_xyz
  1  'x, y, z'
loop_
 _atom_site_type_symbol
 _atom_site_label
 _atom_site_symmetry_multiplicity
 _atom_site_fract_x
 _atom_site_fract_y
 _atom_site_fract_z
 _atom_site_occupancy
  Si  Si0  1  0.83296263  0.68550152  0.47728793  1.0
  Si  Si1  1  0.16703737  0.18550152  0.52271207  1.0
  Ge  Ge2  1  0.47544996  0.68389933  0.82284167  1.0
  Ge  Ge3  1  0.52455004  0.18389933  0.17715833  1.0
  N  N4  1  0.85022751  0.34755604  0.41938406  1.0
  N  N5  1  0.14977249  0.84755604  0.58061594  1.0
  N  N6  1  0.40575857  0.32754160  0.83022268  1.0
  N  N7  1  0.59424143  0.82754160  0.16977732  1.0
  O  O8  1  0.73649216  0.75150152  0.71765104  1.0
  O  O9  1  0.26350784  0.25150152  0.28234896  1.0
