# generated using pymatgen
data_Na7Zr6F31
_symmetry_space_group_name_H-M   'P 1'
_cell_length_a   8.68322837
_cell_length_b   8.68322837
_cell_length_c   8.68322837
_cell_angle_alpha   107.32234076
_cell_angle_beta   107.32234076
_cell_angle_gamma   107.32234076
_symmetry_Int_Tables_number   1
_chemical_formula_structural   Na7Zr6F31
_chemical_formula_sum   'Na7 Zr6 F31'
_cell_volume   540.37604745
_cell_formula_units_Z   1
loop_
 _symmetry_equiv_pos_site_id
 _symmetry_equiv_pos_as_xyz
  1  'x, y, z'
loop_
 _atom_site_type_symbol
 _atom_site_label
 _atom_site_symmetry_multiplicity
 _atom_site_fract_x
 _atom_site_fract_y
 _atom_site_fract_z
 _atom_site_occupancy
  Na  Na0  1  0.80966924  0.43041276  0.28218955  1.0
  Na  Na1  1  0.56958724  0.71781045  0.19033076  1.0
  Na  Na2  1  0.71781045  1.19033076  -0.43041276  1.0
  Na  Na3  1  1.19033076  0.56958724  -0.28218955  1.0
  Na  Na4  1  1.43041276  0.28218955  -0.19033076  1.0
  Na  Na5  1  1.28218955  -0.19033076  0.43041276  1.0
  Na  Na6  1  0.50000000  0.50000000  0.50000000  1.0
  Zr  Zr7  1  1.63523496  0.96043804  -0.12453935  1.0
  Zr  Zr8  1  1.03956196  0.12453935  -0.63523496  1.0
  Zr  Zr9  1  1.12453935  -0.63523496  0.03956196  1.0
  Zr  Zr10  1  0.36476504  0.03956196  0.12453935  1.0
  Zr  Zr11  1  0.96043804  0.87546065  0.63523496  1.0
  Zr  Zr12  1  0.87546065  1.63523496  -0.03956196  1.0
  F  F13  1  0.95169684  0.84157484  0.21249251  1.0
  F  F14  1  1.15842516  -0.21249251  0.04830316  1.0
  F  F15  1  0.78750749  0.04830316  0.15842516  1.0
  F  F16  1  1.04830316  0.15842516  -0.21249251  1.0
  F  F17  1  0.84157484  1.21249251  -0.04830316  1.0
  F  F18  1  1.21249251  0.95169684  -0.15842516  1.0
  F  F19  1  0.69893465  0.52339989  0.05284504  1.0
  F  F20  1  1.47660011  -0.05284504  0.30106535  1.0
  F  F21  1  0.94715496  0.30106535  0.47660011  1.0
  F  F22  1  1.30106535  0.47660011  -0.05284504  1.0
  F  F23  1  0.52339989  1.05284504  -0.30106535  1.0
  F  F24  1  1.05284504  0.69893465  -0.47660011  1.0
  F  F25  1  1.68513717  0.74026136  -0.10002071  1.0
  F  F26  1  0.25973864  1.10002071  -0.68513717  1.0
  F  F27  1  1.10002071  0.31486283  -0.74026136  1.0
  F  F28  1  0.31486283  0.25973864  0.10002071  1.0
  F  F29  1  1.74026136  -0.10002071  0.68513717  1.0
  F  F30  1  0.89997929  0.68513717  0.74026136  1.0
  F  F31  1  1.42520562  0.73499137  -0.33650533  1.0
  F  F32  1  1.26500863  0.33650533  -0.42520562  1.0
  F  F33  1  1.33650533  -0.42520562  0.26500863  1.0
  F  F34  1  0.57479438  0.26500863  0.33650533  1.0
  F  F35  1  0.73499137  0.66349467  0.42520562  1.0
  F  F36  1  0.66349467  1.42520562  -0.26500863  1.0
  F  F37  1  0.55184745  0.15212608  0.01932184  1.0
  F  F38  1  0.84787392  0.98067816  0.44815255  1.0
  F  F39  1  0.98067816  1.44815255  -0.15212608  1.0
  F  F40  1  1.44815255  0.84787392  -0.01932184  1.0
  F  F41  1  1.15212608  0.01932184  -0.44815255  1.0
  F  F42  1  1.01932184  -0.44815255  0.15212608  1.0
  F  F43  1  0.00000000  0.00000000  0.00000000  1.0
