# generated using pymatgen
data_KCu2BiS3
_symmetry_space_group_name_H-M   'P 1'
_cell_length_a   10.58824997
_cell_length_b   9.36888374
_cell_length_c   6.52869255
_cell_angle_alpha   90.80089064
_cell_angle_beta   90.52286074
_cell_angle_gamma   89.81321708
_symmetry_Int_Tables_number   1
_chemical_formula_structural   KCu2BiS3
_chemical_formula_sum   'K4 Cu8 Bi4 S12'
_cell_volume   647.55343080
_cell_formula_units_Z   4
loop_
 _symmetry_equiv_pos_site_id
 _symmetry_equiv_pos_as_xyz
  1  'x, y, z'
loop_
 _atom_site_type_symbol
 _atom_site_label
 _atom_site_symmetry_multiplicity
 _atom_site_fract_x
 _atom_site_fract_y
 _atom_site_fract_z
 _atom_site_occupancy
  K  K0  1  -0.62293500  -0.56442026  -0.79436289  1.0
  K  K1  1  -0.37706500  -0.43557974  -0.20563711  1.0
  K  K2  1  -0.86488491  -0.57650136  -0.30149211  1.0
  K  K3  1  -0.13511509  -0.42349864  -0.69850789  1.0
  Cu  Cu4  1  -0.86360322  -0.27713154  -0.97554973  1.0
  Cu  Cu5  1  -0.13639678  -0.72286846  -0.02445027  1.0
  Cu  Cu6  1  -0.53498961  -0.16148922  -0.92070908  1.0
  Cu  Cu7  1  -0.46501039  -0.83851078  -0.07929092  1.0
  Cu  Cu8  1  -0.67188811  -0.87070821  -0.51037937  1.0
  Cu  Cu9  1  -0.32811189  -0.12929179  -0.48962063  1.0
  Cu  Cu10  1  -0.95587468  -0.16132167  -0.41867790  1.0
  Cu  Cu11  1  -0.04412532  -0.83867833  -0.58132210  1.0
  Bi  Bi12  1  -0.84752036  -0.95982653  -0.97198981  1.0
  Bi  Bi13  1  -0.15247964  -0.04017347  -0.02801019  1.0
  Bi  Bi14  1  -0.34993078  -0.81655167  -0.53223973  1.0
  Bi  Bi15  1  -0.65006922  -0.18344833  -0.46776027  1.0
  S  S16  1  -0.61514118  -0.92884213  -0.84037473  1.0
  S  S17  1  -0.38485882  -0.07115787  -0.15962527  1.0
  S  S18  1  -0.95012529  -0.71655547  -0.84847121  1.0
  S  S19  1  -0.04987471  -0.28344453  -0.15152879  1.0
  S  S20  1  -0.33091507  -0.68788483  -0.88648392  1.0
  S  S21  1  -0.66908493  -0.31211517  -0.11351608  1.0
  S  S22  1  -0.84359586  -0.31679472  -0.63328834  1.0
  S  S23  1  -0.15640414  -0.68320528  -0.36671166  1.0
  S  S24  1  -0.55233414  -0.70536372  -0.34457537  1.0
  S  S25  1  -0.44766586  -0.29463628  -0.65542463  1.0
  S  S26  1  -0.86145445  -0.93204317  -0.37596895  1.0
  S  S27  1  -0.13854555  -0.06795683  -0.62403105  1.0
