# generated using pymatgen
data_SrN6
_symmetry_space_group_name_H-M   'P 1'
_cell_length_a   5.48782385
_cell_length_b   5.48782385
_cell_length_c   5.48782385
_cell_angle_alpha   109.47122171
_cell_angle_beta   109.47122171
_cell_angle_gamma   109.47122171
_symmetry_Int_Tables_number   1
_chemical_formula_structural   SrN6
_chemical_formula_sum   'Sr1 N6'
_cell_volume   127.22679332
_cell_formula_units_Z   1
loop_
 _symmetry_equiv_pos_site_id
 _symmetry_equiv_pos_as_xyz
  1  'x, y, z'
loop_
 _atom_site_type_symbol
 _atom_site_label
 _atom_site_symmetry_multiplicity
 _atom_site_fract_x
 _atom_site_fract_y
 _atom_site_fract_z
 _atom_site_occupancy
  Sr  Sr0  1  0.00000000  -0.00000000  0.00000000  1.0
  N  N1  1  0.00000000  0.58981129  0.58981129  1.0
  N  N2  1  0.58981129  0.00000000  0.58981129  1.0
  N  N3  1  0.58981129  0.58981129  0.00000000  1.0
  N  N4  1  0.41018871  0.41018871  -0.00000000  1.0
  N  N5  1  0.41018871  -0.00000000  0.41018871  1.0
  N  N6  1  -0.00000000  0.41018871  0.41018871  1.0
