# generated using pymatgen
data_GaS2NO8
_symmetry_space_group_name_H-M   'P 1'
_cell_length_a   4.90589804
_cell_length_b   4.90589804
_cell_length_c   8.64954832
_cell_angle_alpha   90.00000000
_cell_angle_beta   90.00000000
_cell_angle_gamma   120.00000000
_symmetry_Int_Tables_number   1
_chemical_formula_structural   GaS2NO8
_chemical_formula_sum   'Ga1 S2 N1 O8'
_cell_volume   180.28562357
_cell_formula_units_Z   1
loop_
 _symmetry_equiv_pos_site_id
 _symmetry_equiv_pos_as_xyz
  1  'x, y, z'
loop_
 _atom_site_type_symbol
 _atom_site_label
 _atom_site_symmetry_multiplicity
 _atom_site_fract_x
 _atom_site_fract_y
 _atom_site_fract_z
 _atom_site_occupancy
  S  S0  1  0.33333333  0.66666667  0.20288202  1.0
  S  S1  1  0.66666667  0.33333333  0.79711798  1.0
  O  O2  1  0.26431015  0.91334828  0.14339601  1.0
  O  O3  1  0.91334828  0.26431015  0.85660399  1.0
  O  O4  1  0.64903813  0.73568985  0.14339601  1.0
  O  O5  1  0.08665172  0.35096187  0.14339601  1.0
  O  O6  1  0.73568985  0.64903813  0.85660399  1.0
  O  O7  1  0.35096187  0.08665172  0.85660399  1.0
  O  O8  1  0.33333333  0.66666667  0.37141299  1.0
  O  O9  1  0.66666667  0.33333333  0.62858701  1.0
  Ga  Ga10  1  -0.00000000  -0.00000000  -0.00000000  1.0
  N  N11  1  -0.00000000  -0.00000000  0.50000000  1.0
