# generated using pymatgen
data_BW2
_symmetry_space_group_name_H-M   'P 1'
_cell_length_a   4.60317905
_cell_length_b   4.60317905
_cell_length_c   4.60317905
_cell_angle_alpha   105.61318921
_cell_angle_beta   105.61318921
_cell_angle_gamma   117.49795425
_symmetry_Int_Tables_number   1
_chemical_formula_structural   BW2
_chemical_formula_sum   'B2 W4'
_cell_volume   73.96516681
_cell_formula_units_Z   2
loop_
 _symmetry_equiv_pos_site_id
 _symmetry_equiv_pos_as_xyz
  1  'x, y, z'
loop_
 _atom_site_type_symbol
 _atom_site_label
 _atom_site_symmetry_multiplicity
 _atom_site_fract_x
 _atom_site_fract_y
 _atom_site_fract_z
 _atom_site_occupancy
  B  B0  1  0.25000000  0.25000000  0.00000000  1.0
  B  B1  1  0.75000000  0.75000000  0.00000000  1.0
  W  W2  1  0.82998163  0.32998163  1.15996325  1.0
  W  W3  1  0.67001837  0.82998163  0.50000000  1.0
  W  W4  1  0.32998163  0.17001837  0.50000000  1.0
  W  W5  1  1.17001837  0.67001837  0.84003675  1.0
