# generated using pymatgen
data_CaAgGe
_symmetry_space_group_name_H-M   'P 1'
_cell_length_a   21.68425435
_cell_length_b   4.59591117
_cell_length_c   7.92073760
_cell_angle_alpha   90.00000000
_cell_angle_beta   90.00000000
_cell_angle_gamma   90.00000000
_symmetry_Int_Tables_number   1
_chemical_formula_structural   CaAgGe
_chemical_formula_sum   'Ca12 Ag12 Ge12'
_cell_volume   789.37205024
_cell_formula_units_Z   12
loop_
 _symmetry_equiv_pos_site_id
 _symmetry_equiv_pos_as_xyz
  1  'x, y, z'
loop_
 _atom_site_type_symbol
 _atom_site_label
 _atom_site_symmetry_multiplicity
 _atom_site_fract_x
 _atom_site_fract_y
 _atom_site_fract_z
 _atom_site_occupancy
  Ca  Ca0  1  0.50038003  0.75000000  0.21899896  1.0
  Ca  Ca1  1  0.00038003  0.75000000  0.28100104  1.0
  Ca  Ca2  1  0.49961997  0.25000000  0.78100104  1.0
  Ca  Ca3  1  0.99961997  0.25000000  0.71899896  1.0
  Ca  Ca4  1  0.33385520  0.75000000  0.29227376  1.0
  Ca  Ca5  1  0.83385520  0.75000000  0.20772624  1.0
  Ca  Ca6  1  0.66614480  0.25000000  0.70772624  1.0
  Ca  Ca7  1  0.16614480  0.25000000  0.79227376  1.0
  Ca  Ca8  1  0.16710227  0.75000000  0.20821347  1.0
  Ca  Ca9  1  0.66710227  0.75000000  0.29178653  1.0
  Ca  Ca10  1  0.83289773  0.25000000  0.79178653  1.0
  Ca  Ca11  1  0.33289773  0.25000000  0.70821347  1.0
  Ag  Ag12  1  0.40425272  0.75000000  0.91924265  1.0
  Ag  Ag13  1  0.90425272  0.75000000  0.58075735  1.0
  Ag  Ag14  1  0.59574728  0.25000000  0.08075735  1.0
  Ag  Ag15  1  0.09574728  0.25000000  0.41924265  1.0
  Ag  Ag16  1  0.26350991  0.75000000  0.91216018  1.0
  Ag  Ag17  1  0.76350991  0.75000000  0.58783982  1.0
  Ag  Ag18  1  0.73649009  0.25000000  0.08783982  1.0
  Ag  Ag19  1  0.23649009  0.25000000  0.41216018  1.0
  Ag  Ag20  1  0.06427996  0.75000000  0.91829663  1.0
  Ag  Ag21  1  0.56427996  0.75000000  0.58170337  1.0
  Ag  Ag22  1  0.93572004  0.25000000  0.08170337  1.0
  Ag  Ag23  1  0.43572004  0.25000000  0.41829663  1.0
  Ge  Ge24  1  0.42711680  0.75000000  0.59214046  1.0
  Ge  Ge25  1  0.92711680  0.75000000  0.90785954  1.0
  Ge  Ge26  1  0.57288320  0.25000000  0.40785954  1.0
  Ge  Ge27  1  0.07288320  0.25000000  0.09214046  1.0
  Ge  Ge28  1  0.22844036  0.75000000  0.58343544  1.0
  Ge  Ge29  1  0.72844036  0.75000000  0.91656456  1.0
  Ge  Ge30  1  0.77155964  0.25000000  0.41656456  1.0
  Ge  Ge31  1  0.27155964  0.25000000  0.08343544  1.0
  Ge  Ge32  1  0.10261446  0.75000000  0.58937285  1.0
  Ge  Ge33  1  0.60261446  0.75000000  0.91062715  1.0
  Ge  Ge34  1  0.89738554  0.25000000  0.41062715  1.0
  Ge  Ge35  1  0.39738554  0.25000000  0.08937285  1.0
