# generated using pymatgen
data_Co3BPO7
_symmetry_space_group_name_H-M   'P 1'
_cell_length_a   8.00309935
_cell_length_b   8.00309935
_cell_length_c   4.94014914
_cell_angle_alpha   72.19801415
_cell_angle_beta   107.80198585
_cell_angle_gamma   75.58610350
_symmetry_Int_Tables_number   1
_chemical_formula_structural   Co3BPO7
_chemical_formula_sum   'Co6 B2 P2 O14'
_cell_volume   265.59284940
_cell_formula_units_Z   2
loop_
 _symmetry_equiv_pos_site_id
 _symmetry_equiv_pos_as_xyz
  1  'x, y, z'
loop_
 _atom_site_type_symbol
 _atom_site_label
 _atom_site_symmetry_multiplicity
 _atom_site_fract_x
 _atom_site_fract_y
 _atom_site_fract_z
 _atom_site_occupancy
  Co  Co0  1  1.21093437  0.28886450  0.03158633  1.0
  Co  Co1  1  0.71113550  -0.21093437  0.03158633  1.0
  Co  Co2  1  0.75791930  -0.54694953  0.72501513  1.0
  Co  Co3  1  1.54694953  0.24208070  0.72501513  1.0
  Co  Co4  1  0.98604364  -0.27746466  0.62462636  1.0
  Co  Co5  1  1.27746466  0.01395636  0.62462636  1.0
  B  B6  1  1.00822154  0.41491343  0.36979652  1.0
  B  B7  1  0.58508657  -0.00822154  0.36979652  1.0
  P  P8  1  0.00745713  -0.00745713  -0.01745960  1.0
  P  P9  1  0.45606735  -0.45606735  0.03128122  1.0
  O  O10  1  1.16504128  0.27142664  0.62346476  1.0
  O  O11  1  0.72857336  -0.16504128  0.62346476  1.0
  O  O12  1  1.25654850  0.53869323  0.87645371  1.0
  O  O13  1  0.46130677  -0.25654850  0.87645371  1.0
  O  O14  1  0.98455277  -0.56288454  0.07103858  1.0
  O  O15  1  1.56288454  0.01544723  0.07103858  1.0
  O  O16  1  0.87687214  -0.45843408  0.41710913  1.0
  O  O17  1  1.45843408  0.12312786  0.41710913  1.0
  O  O18  1  0.96694713  -0.16772873  0.19182310  1.0
  O  O19  1  1.16772873  0.03305287  0.19182310  1.0
  O  O20  1  0.82422459  -0.82422459  0.79210738  1.0
  O  O21  1  0.60489194  -0.60489194  0.99408349  1.0
  O  O22  1  0.50444139  -0.50444139  0.38388347  1.0
  O  O23  1  0.07397320  -0.07397320  0.75517678  1.0
