# generated using pymatgen
data_BaEu2CoO5
_symmetry_space_group_name_H-M   'P 1'
_cell_length_a   6.86240777
_cell_length_b   6.86240777
_cell_length_c   6.86240777
_cell_angle_alpha   148.63162372
_cell_angle_beta   128.74120200
_cell_angle_gamma   61.33798066
_symmetry_Int_Tables_number   1
_chemical_formula_structural   BaEu2CoO5
_chemical_formula_sum   'Ba1 Eu2 Co1 O5'
_cell_volume   130.01381675
_cell_formula_units_Z   1
loop_
 _symmetry_equiv_pos_site_id
 _symmetry_equiv_pos_as_xyz
  1  'x, y, z'
loop_
 _atom_site_type_symbol
 _atom_site_label
 _atom_site_symmetry_multiplicity
 _atom_site_fract_x
 _atom_site_fract_y
 _atom_site_fract_z
 _atom_site_occupancy
  Ba  Ba0  1  0.50000000  0.00000000  0.50000000  1.0
  O  O1  1  0.38030880  0.63965053  0.74065828  1.0
  O  O2  1  1.10100775  0.36034947  0.74065828  1.0
  O  O3  1  0.89899225  0.63965053  1.25934172  1.0
  O  O4  1  0.61969120  0.36034947  0.25934172  1.0
  O  O5  1  0.00000000  0.00000000  0.00000000  1.0
  Co  Co6  1  0.00000000  0.50000000  0.50000000  1.0
  Eu  Eu7  1  0.79291820  0.79291820  1.00000000  1.0
  Eu  Eu8  1  0.20708180  0.20708180  0.00000000  1.0
