# generated using pymatgen
data_Sc2SiNi3
_symmetry_space_group_name_H-M   'P 1'
_cell_length_a   5.00506676
_cell_length_b   5.00506676
_cell_length_c   7.72114431
_cell_angle_alpha   90.00000000
_cell_angle_beta   90.00000000
_cell_angle_gamma   120.00000000
_symmetry_Int_Tables_number   1
_chemical_formula_structural   Sc2SiNi3
_chemical_formula_sum   'Sc4 Si2 Ni6'
_cell_volume   167.50664887
_cell_formula_units_Z   2
loop_
 _symmetry_equiv_pos_site_id
 _symmetry_equiv_pos_as_xyz
  1  'x, y, z'
loop_
 _atom_site_type_symbol
 _atom_site_label
 _atom_site_symmetry_multiplicity
 _atom_site_fract_x
 _atom_site_fract_y
 _atom_site_fract_z
 _atom_site_occupancy
  Sc  Sc0  1  0.33333333  0.66666667  0.94109272  1.0
  Sc  Sc1  1  0.33333333  0.66666667  0.55890728  1.0
  Sc  Sc2  1  0.66666667  0.33333333  0.44109272  1.0
  Sc  Sc3  1  0.66666667  0.33333333  0.05890728  1.0
  Si  Si4  1  0.00000000  0.00000000  0.50000000  1.0
  Si  Si5  1  0.00000000  0.00000000  0.00000000  1.0
  Ni  Ni6  1  0.16809791  0.83190209  0.25000000  1.0
  Ni  Ni7  1  0.16809791  0.33619582  0.25000000  1.0
  Ni  Ni8  1  0.83190209  0.16809791  0.75000000  1.0
  Ni  Ni9  1  0.83190209  0.66380418  0.75000000  1.0
  Ni  Ni10  1  0.66380418  0.83190209  0.25000000  1.0
  Ni  Ni11  1  0.33619582  0.16809791  0.75000000  1.0
