# generated using pymatgen
data_YbTlSe2
_symmetry_space_group_name_H-M   'P 1'
_cell_length_a   7.91516615
_cell_length_b   7.91516615
_cell_length_c   7.91516615
_cell_angle_alpha   30.76848217
_cell_angle_beta   30.76848217
_cell_angle_gamma   30.76848217
_symmetry_Int_Tables_number   1
_chemical_formula_structural   YbTlSe2
_chemical_formula_sum   'Yb1 Tl1 Se2'
_cell_volume   115.08487073
_cell_formula_units_Z   1
loop_
 _symmetry_equiv_pos_site_id
 _symmetry_equiv_pos_as_xyz
  1  'x, y, z'
loop_
 _atom_site_type_symbol
 _atom_site_label
 _atom_site_symmetry_multiplicity
 _atom_site_fract_x
 _atom_site_fract_y
 _atom_site_fract_z
 _atom_site_occupancy
  Yb  Yb0  1  1.50000000  0.50000000  0.50000000  1.0
  Tl  Tl1  1  -0.00000000  -0.00000000  0.00000000  1.0
  Se  Se2  1  0.76489547  0.76489547  0.76489547  1.0
  Se  Se3  1  1.23510453  1.23510453  0.23510453  1.0
