# generated using pymatgen
data_Sc7NCl12
_symmetry_space_group_name_H-M   'P 1'
_cell_length_a   8.14103787
_cell_length_b   8.14103787
_cell_length_c   8.14103787
_cell_angle_alpha   107.66778718
_cell_angle_beta   107.66778718
_cell_angle_gamma   107.66778718
_symmetry_Int_Tables_number   1
_chemical_formula_structural   Sc7NCl12
_chemical_formula_sum   'Sc7 N1 Cl12'
_cell_volume   440.90866739
_cell_formula_units_Z   1
loop_
 _symmetry_equiv_pos_site_id
 _symmetry_equiv_pos_as_xyz
  1  'x, y, z'
loop_
 _atom_site_type_symbol
 _atom_site_label
 _atom_site_symmetry_multiplicity
 _atom_site_fract_x
 _atom_site_fract_y
 _atom_site_fract_z
 _atom_site_occupancy
  Sc  Sc0  1  0.50000000  0.50000000  0.50000000  1.0
  Sc  Sc1  1  1.70178110  0.90069618  -0.02849770  1.0
  Sc  Sc2  1  1.09930382  0.02849770  -0.70178110  1.0
  Sc  Sc3  1  1.02849770  -0.70178110  0.09930382  1.0
  Sc  Sc4  1  0.29821890  0.09930382  0.02849770  1.0
  Sc  Sc5  1  0.90069618  0.97150230  0.70178110  1.0
  Sc  Sc6  1  0.97150230  1.70178110  -0.09930382  1.0
  N  N7  1  0.00000000  0.00000000  0.00000000  1.0
  Cl  Cl8  1  1.61899980  0.54148211  -0.15537018  1.0
  Cl  Cl9  1  0.45851789  1.15537018  -0.61899980  1.0
  Cl  Cl10  1  1.15537018  0.38100020  -0.54148211  1.0
  Cl  Cl11  1  0.38100020  0.45851789  0.15537018  1.0
  Cl  Cl12  1  1.54148211  -0.15537018  0.61899980  1.0
  Cl  Cl13  1  0.84462982  0.61899980  0.54148211  1.0
  Cl  Cl14  1  0.69013517  0.22117654  0.07643804  1.0
  Cl  Cl15  1  0.77882346  0.92356196  0.30986483  1.0
  Cl  Cl16  1  0.92356196  1.30986483  -0.22117654  1.0
  Cl  Cl17  1  1.30986483  0.77882346  -0.07643804  1.0
  Cl  Cl18  1  1.22117654  0.07643804  -0.30986483  1.0
  Cl  Cl19  1  1.07643804  -0.30986483  0.22117654  1.0
