# generated using pymatgen
data_EuAg2
_symmetry_space_group_name_H-M   'P 1'
_cell_length_a   6.04576418
_cell_length_b   6.04576418
_cell_length_c   6.04576418
_cell_angle_alpha   133.12972745
_cell_angle_beta   104.40770232
_cell_angle_gamma   93.87198077
_symmetry_Int_Tables_number   1
_chemical_formula_structural   EuAg2
_chemical_formula_sum   'Eu2 Ag4'
_cell_volume   147.10953405
_cell_formula_units_Z   2
loop_
 _symmetry_equiv_pos_site_id
 _symmetry_equiv_pos_as_xyz
  1  'x, y, z'
loop_
 _atom_site_type_symbol
 _atom_site_label
 _atom_site_symmetry_multiplicity
 _atom_site_fract_x
 _atom_site_fract_y
 _atom_site_fract_z
 _atom_site_occupancy
  Eu  Eu0  1  1.70777117  1.45777117  1.25000000  1.0
  Eu  Eu1  1  0.29222883  0.54222883  0.75000000  1.0
  Ag  Ag2  1  1.28729510  0.83633471  1.45096039  1.0
  Ag  Ag3  1  1.11462568  0.16366529  0.95096039  1.0
  Ag  Ag4  1  0.71270490  1.16366529  0.54903961  1.0
  Ag  Ag5  1  0.88537432  0.83633471  0.04903961  1.0
