# generated using pymatgen
data_RbGeBr3
_symmetry_space_group_name_H-M   'P 1'
_cell_length_a   5.73662508
_cell_length_b   5.73662508
_cell_length_c   5.73662508
_cell_angle_alpha   86.25698073
_cell_angle_beta   86.25698073
_cell_angle_gamma   86.25698073
_symmetry_Int_Tables_number   1
_chemical_formula_structural   RbGeBr3
_chemical_formula_sum   'Rb1 Ge1 Br3'
_cell_volume   187.62798721
_cell_formula_units_Z   1
loop_
 _symmetry_equiv_pos_site_id
 _symmetry_equiv_pos_as_xyz
  1  'x, y, z'
loop_
 _atom_site_type_symbol
 _atom_site_label
 _atom_site_symmetry_multiplicity
 _atom_site_fract_x
 _atom_site_fract_y
 _atom_site_fract_z
 _atom_site_occupancy
  Rb  Rb0  1  -0.00369428  -0.00369428  -0.00369428  1.0
  Ge  Ge1  1  0.51533144  0.51533144  -0.48466856  1.0
  Br  Br2  1  0.06592280  0.55357002  -0.44642998  1.0
  Br  Br3  1  0.55357002  0.06592280  -0.44642998  1.0
  Br  Br4  1  0.55357002  0.55357002  -0.93407720  1.0
