# generated using pymatgen
data_SiO2
_symmetry_space_group_name_H-M   'P 1'
_cell_length_a   7.24936294
_cell_length_b   7.24936294
_cell_length_c   7.24670679
_cell_angle_alpha   75.50774541
_cell_angle_beta   104.49225459
_cell_angle_gamma   60.15245487
_symmetry_Int_Tables_number   1
_chemical_formula_structural   SiO2
_chemical_formula_sum   'Si8 O16'
_cell_volume   286.19057921
_cell_formula_units_Z   8
loop_
 _symmetry_equiv_pos_site_id
 _symmetry_equiv_pos_as_xyz
  1  'x, y, z'
loop_
 _atom_site_type_symbol
 _atom_site_label
 _atom_site_symmetry_multiplicity
 _atom_site_fract_x
 _atom_site_fract_y
 _atom_site_fract_z
 _atom_site_occupancy
  Si  Si0  1  0.67666136  0.03856402  0.92682607  1.0
  Si  Si1  1  0.96143598  -0.67666136  0.42682607  1.0
  Si  Si2  1  1.03856402  -0.32333864  0.57317393  1.0
  Si  Si3  1  0.32333864  -0.03856402  0.07317393  1.0
  Si  Si4  1  0.62601205  0.19171154  0.46109895  1.0
  Si  Si5  1  0.80828846  -0.62601205  0.96109895  1.0
  Si  Si6  1  1.19171154  -0.37398795  0.03890105  1.0
  Si  Si7  1  0.37398795  -0.19171154  0.53890105  1.0
  O  O8  1  0.79292485  -0.05283035  0.44458459  1.0
  O  O9  1  1.05283035  -0.79292485  0.94458459  1.0
  O  O10  1  0.94716965  -0.20707515  0.05541541  1.0
  O  O11  1  0.20707515  0.05283035  0.55541541  1.0
  O  O12  1  0.58363200  0.12627856  0.67077862  1.0
  O  O13  1  0.87372144  -0.58363200  0.17077862  1.0
  O  O14  1  1.12627856  -0.41636800  0.82922138  1.0
  O  O15  1  0.41636800  -0.12627856  0.32922138  1.0
  O  O16  1  0.67975666  0.24279000  0.98273387  1.0
  O  O17  1  0.75721000  -0.67975666  0.48273387  1.0
  O  O18  1  1.24279000  -0.32024334  0.51726613  1.0
  O  O19  1  0.32024334  -0.24279000  0.01726613  1.0
  O  O20  1  0.63022141  -0.36977859  0.75000000  1.0
  O  O21  1  0.36977859  0.36977859  0.25000000  1.0
  O  O22  1  0.50000000  -0.00000000  0.00000000  1.0
  O  O23  1  1.00000000  -0.50000000  0.50000000  1.0
