# generated using pymatgen
data_Nb2O5
_symmetry_space_group_name_H-M   'P 1'
_cell_length_a   6.77195512
_cell_length_b   6.77195512
_cell_length_c   4.02362343
_cell_angle_alpha   89.37920842
_cell_angle_beta   90.62079158
_cell_angle_gamma   147.00650959
_symmetry_Int_Tables_number   1
_chemical_formula_structural   Nb2O5
_chemical_formula_sum   'Nb2 O5'
_cell_volume   100.47326557
_cell_formula_units_Z   1
loop_
 _symmetry_equiv_pos_site_id
 _symmetry_equiv_pos_as_xyz
  1  'x, y, z'
loop_
 _atom_site_type_symbol
 _atom_site_label
 _atom_site_symmetry_multiplicity
 _atom_site_fract_x
 _atom_site_fract_y
 _atom_site_fract_z
 _atom_site_occupancy
  Nb  Nb0  1  0.85387294  -0.85387294  0.93322744  1.0
  Nb  Nb1  1  1.14612706  -0.14612706  0.06677256  1.0
  O  O2  1  0.85231464  -0.85231464  0.49014123  1.0
  O  O3  1  1.14768536  -0.14768536  0.50985877  1.0
  O  O4  1  0.68469209  -0.68469209  0.00390261  1.0
  O  O5  1  1.31530791  -0.31530791  -0.00390261  1.0
  O  O6  1  0.00000000  0.00000000  0.00000000  1.0
