# generated using pymatgen
data_NiPb(SeO3)2
_symmetry_space_group_name_H-M   'P 1'
_cell_length_a   12.94925266
_cell_length_b   5.51567805
_cell_length_c   8.05515061
_cell_angle_alpha   90.00000000
_cell_angle_beta   90.00000000
_cell_angle_gamma   90.00000000
_symmetry_Int_Tables_number   1
_chemical_formula_structural   NiPb(SeO3)2
_chemical_formula_sum   'Ni4 Pb4 Se8 O24'
_cell_volume   575.33034086
_cell_formula_units_Z   4
loop_
 _symmetry_equiv_pos_site_id
 _symmetry_equiv_pos_as_xyz
  1  'x, y, z'
loop_
 _atom_site_type_symbol
 _atom_site_label
 _atom_site_symmetry_multiplicity
 _atom_site_fract_x
 _atom_site_fract_y
 _atom_site_fract_z
 _atom_site_occupancy
  Ni  Ni0  1  0.39977279  0.75000000  0.80046993  1.0
  Ni  Ni1  1  0.89977279  0.75000000  0.69953007  1.0
  Ni  Ni2  1  0.60022721  0.25000000  0.19953007  1.0
  Ni  Ni3  1  0.10022721  0.25000000  0.30046993  1.0
  Pb  Pb4  1  0.12049341  0.75000000  -0.00706357  1.0
  Pb  Pb5  1  0.62049341  0.75000000  0.50706357  1.0
  Pb  Pb6  1  0.87950659  0.25000000  1.00706357  1.0
  Pb  Pb7  1  0.37950659  0.25000000  0.49293643  1.0
  Se  Se8  1  0.43118277  0.75000000  0.20060862  1.0
  Se  Se9  1  0.93118277  0.75000000  0.29939138  1.0
  Se  Se10  1  0.56881723  0.25000000  0.79939138  1.0
  Se  Se11  1  0.06881723  0.25000000  0.70060862  1.0
  Se  Se12  1  0.20850702  0.75000000  0.50171121  1.0
  Se  Se13  1  0.70850702  0.75000000  0.99828879  1.0
  Se  Se14  1  0.79149298  0.25000000  0.49828879  1.0
  Se  Se15  1  0.29149298  0.25000000  0.00171121  1.0
  O  O16  1  0.50470736  0.49181607  0.69833100  1.0
  O  O17  1  0.50470736  0.00818393  0.69833100  1.0
  O  O18  1  0.00470736  0.49181607  0.80166900  1.0
  O  O19  1  0.00470736  0.00818393  0.80166900  1.0
  O  O20  1  0.49529264  0.99181607  0.30166900  1.0
  O  O21  1  0.49529264  0.50818393  0.30166900  1.0
  O  O22  1  0.99529264  0.99181607  0.19833100  1.0
  O  O23  1  0.99529264  0.50818393  0.19833100  1.0
  O  O24  1  0.28790232  0.49617890  0.86758202  1.0
  O  O25  1  0.28790232  0.00382110  0.86758202  1.0
  O  O26  1  0.78790232  0.49617890  0.63241798  1.0
  O  O27  1  0.78790232  0.00382110  0.63241798  1.0
  O  O28  1  0.71209768  0.99617890  0.13241798  1.0
  O  O29  1  0.71209768  0.50382110  0.13241798  1.0
  O  O30  1  0.21209768  0.99617890  0.36758202  1.0
  O  O31  1  0.21209768  0.50382110  0.36758202  1.0
  O  O32  1  0.48541707  0.75000000  0.01068524  1.0
  O  O33  1  0.98541707  0.75000000  0.48931476  1.0
  O  O34  1  0.51458293  0.25000000  0.98931476  1.0
  O  O35  1  0.01458293  0.25000000  0.51068524  1.0
  O  O36  1  0.33917470  0.75000000  0.55717813  1.0
  O  O37  1  0.83917470  0.75000000  0.94282187  1.0
  O  O38  1  0.66082530  0.25000000  0.44282187  1.0
  O  O39  1  0.16082530  0.25000000  0.05717813  1.0
