# generated using pymatgen
data_Cr(AgO2)2
_symmetry_space_group_name_H-M   'P 1'
_cell_length_a   10.22440540
_cell_length_b   7.01906539
_cell_length_c   5.64456971
_cell_angle_alpha   90.00000000
_cell_angle_beta   90.00000000
_cell_angle_gamma   90.00000000
_symmetry_Int_Tables_number   1
_chemical_formula_structural   Cr(AgO2)2
_chemical_formula_sum   'Cr4 Ag8 O16'
_cell_volume   405.08689211
_cell_formula_units_Z   4
loop_
 _symmetry_equiv_pos_site_id
 _symmetry_equiv_pos_as_xyz
  1  'x, y, z'
loop_
 _atom_site_type_symbol
 _atom_site_label
 _atom_site_symmetry_multiplicity
 _atom_site_fract_x
 _atom_site_fract_y
 _atom_site_fract_z
 _atom_site_occupancy
  Cr  Cr0  1  0.68137764  0.25000000  1.03986569  1.0
  Cr  Cr1  1  0.18137764  0.25000000  0.46013431  1.0
  Cr  Cr2  1  0.31862236  0.75000000  -0.03986569  1.0
  Cr  Cr3  1  0.81862236  0.75000000  0.53986569  1.0
  Ag  Ag4  1  0.85909855  0.25000000  0.52142933  1.0
  Ag  Ag5  1  0.35909855  0.25000000  -0.02142933  1.0
  Ag  Ag6  1  0.14090145  0.75000000  0.47857067  1.0
  Ag  Ag7  1  0.64090145  0.75000000  1.02142933  1.0
  Ag  Ag8  1  0.00000000  0.50000000  0.00000000  1.0
  Ag  Ag9  1  0.00000000  0.00000000  0.00000000  1.0
  Ag  Ag10  1  0.50000000  0.50000000  0.50000000  1.0
  Ag  Ag11  1  0.50000000  0.00000000  0.50000000  1.0
  O  O12  1  0.61313230  0.44375510  0.15974605  1.0
  O  O13  1  0.61313230  0.05624490  0.15974605  1.0
  O  O14  1  0.11313230  0.44375510  0.34025395  1.0
  O  O15  1  0.11313230  0.05624490  0.34025395  1.0
  O  O16  1  0.38686770  0.94375510  0.84025395  1.0
  O  O17  1  0.38686770  0.55624490  0.84025395  1.0
  O  O18  1  0.88686770  0.94375510  0.65974605  1.0
  O  O19  1  0.88686770  0.55624490  0.65974605  1.0
  O  O20  1  0.84326993  0.25000000  1.10004053  1.0
  O  O21  1  0.34326993  0.25000000  0.39995947  1.0
  O  O22  1  0.15673007  0.75000000  -0.10004053  1.0
  O  O23  1  0.65673007  0.75000000  0.60004053  1.0
  O  O24  1  0.65410659  0.25000000  0.75073430  1.0
  O  O25  1  0.15410659  0.25000000  0.74926570  1.0
  O  O26  1  0.34589341  0.75000000  0.24926570  1.0
  O  O27  1  0.84589341  0.75000000  0.25073430  1.0
