# generated using pymatgen
data_La3SiN4F
_symmetry_space_group_name_H-M   'P 1'
_cell_length_a   9.97861999
_cell_length_b   7.75650146
_cell_length_c   6.94357909
_cell_angle_alpha   90.00000000
_cell_angle_beta   90.00000000
_cell_angle_gamma   90.00000000
_symmetry_Int_Tables_number   1
_chemical_formula_structural   La3SiN4F
_chemical_formula_sum   'La12 Si4 N16 F4'
_cell_volume   537.42733161
_cell_formula_units_Z   4
loop_
 _symmetry_equiv_pos_site_id
 _symmetry_equiv_pos_as_xyz
  1  'x, y, z'
loop_
 _atom_site_type_symbol
 _atom_site_label
 _atom_site_symmetry_multiplicity
 _atom_site_fract_x
 _atom_site_fract_y
 _atom_site_fract_z
 _atom_site_occupancy
  La  La0  1  0.66197743  0.47491056  0.09935731  1.0
  La  La1  1  0.66197743  0.02508944  0.09935731  1.0
  La  La2  1  0.16197743  0.47491056  0.40064269  1.0
  La  La3  1  0.16197743  0.02508944  0.40064269  1.0
  La  La4  1  0.33802257  0.97491056  0.90064269  1.0
  La  La5  1  0.33802257  0.52508944  0.90064269  1.0
  La  La6  1  0.83802257  0.97491056  0.59935731  1.0
  La  La7  1  0.83802257  0.52508944  0.59935731  1.0
  La  La8  1  0.53357219  0.25000000  0.58413077  1.0
  La  La9  1  0.03357219  0.25000000  0.91586923  1.0
  La  La10  1  0.46642781  0.75000000  0.41586923  1.0
  La  La11  1  0.96642781  0.75000000  0.08413077  1.0
  Si  Si12  1  0.89378675  0.25000000  0.30853927  1.0
  Si  Si13  1  0.39378675  0.25000000  0.19146073  1.0
  Si  Si14  1  0.10621325  0.75000000  0.69146073  1.0
  Si  Si15  1  0.60621325  0.75000000  0.80853927  1.0
  N  N16  1  0.92297287  0.44454059  0.19047554  1.0
  N  N17  1  0.92297287  0.05545941  0.19047554  1.0
  N  N18  1  0.42297287  0.44454059  0.30952446  1.0
  N  N19  1  0.42297287  0.05545941  0.30952446  1.0
  N  N20  1  0.07702713  0.94454059  0.80952446  1.0
  N  N21  1  0.07702713  0.55545941  0.80952446  1.0
  N  N22  1  0.57702713  0.94454059  0.69047554  1.0
  N  N23  1  0.57702713  0.55545941  0.69047554  1.0
  N  N24  1  0.99301979  0.25000000  0.52006509  1.0
  N  N25  1  0.49301979  0.25000000  0.97993491  1.0
  N  N26  1  0.00698021  0.75000000  0.47993491  1.0
  N  N27  1  0.50698021  0.75000000  0.02006509  1.0
  N  N28  1  0.72281239  0.25000000  0.37220071  1.0
  N  N29  1  0.22281239  0.25000000  0.12779929  1.0
  N  N30  1  0.27718761  0.75000000  0.62779929  1.0
  N  N31  1  0.77718761  0.75000000  0.87220071  1.0
  F  F32  1  0.77494169  0.25000000  0.83852281  1.0
  F  F33  1  0.27494169  0.25000000  0.66147719  1.0
  F  F34  1  0.22505831  0.75000000  0.16147719  1.0
  F  F35  1  0.72505831  0.75000000  0.33852281  1.0
