# generated using pymatgen
data_MnBiPO5
_symmetry_space_group_name_H-M   'P 1'
_cell_length_a   5.42033146
_cell_length_b   11.48970170
_cell_length_c   7.72481033
_cell_angle_alpha   90.00000000
_cell_angle_beta   112.42769433
_cell_angle_gamma   90.00000000
_symmetry_Int_Tables_number   1
_chemical_formula_structural   MnBiPO5
_chemical_formula_sum   'Mn4 Bi4 P4 O20'
_cell_volume   444.69718621
_cell_formula_units_Z   4
loop_
 _symmetry_equiv_pos_site_id
 _symmetry_equiv_pos_as_xyz
  1  'x, y, z'
loop_
 _atom_site_type_symbol
 _atom_site_label
 _atom_site_symmetry_multiplicity
 _atom_site_fract_x
 _atom_site_fract_y
 _atom_site_fract_z
 _atom_site_occupancy
  Mn  Mn0  1  0.94371879  0.91072120  0.31469340  1.0
  Mn  Mn1  1  0.94371879  0.58927880  0.81469340  1.0
  Mn  Mn2  1  0.05628121  0.41072120  0.18530660  1.0
  Mn  Mn3  1  0.05628121  0.08927880  0.68530660  1.0
  Bi  Bi4  1  0.43727018  0.09681416  0.31399591  1.0
  Bi  Bi5  1  0.43727018  0.40318584  0.81399591  1.0
  Bi  Bi6  1  0.56272982  0.59681416  0.18600409  1.0
  Bi  Bi7  1  0.56272982  0.90318584  0.68600409  1.0
  P  P8  1  0.68328355  0.34945278  0.47531933  1.0
  P  P9  1  0.68328355  0.15054722  0.97531933  1.0
  P  P10  1  0.31671645  0.84945278  0.02468067  1.0
  P  P11  1  0.31671645  0.65054722  0.52468067  1.0
  O  O12  1  0.81546854  0.27388068  0.00730256  1.0
  O  O13  1  0.81546854  0.22611932  0.50730256  1.0
  O  O14  1  0.18453146  0.77388068  0.49269744  1.0
  O  O15  1  0.18453146  0.72611932  0.99269744  1.0
  O  O16  1  0.77397359  0.42126303  0.33750338  1.0
  O  O17  1  0.77397359  0.07873697  0.83750338  1.0
  O  O18  1  0.22602641  0.92126303  0.16249662  1.0
  O  O19  1  0.22602641  0.57873697  0.66249662  1.0
  O  O20  1  0.76053760  0.08227742  0.16301064  1.0
  O  O21  1  0.76053760  0.41772258  0.66301064  1.0
  O  O22  1  0.23946240  0.58227742  0.33698936  1.0
  O  O23  1  0.23946240  0.91772258  0.83698936  1.0
  O  O24  1  0.73987984  0.97747799  0.48687626  1.0
  O  O25  1  0.73987984  0.52252201  0.98687626  1.0
  O  O26  1  0.26012016  0.47747799  0.01312374  1.0
  O  O27  1  0.26012016  0.02252201  0.51312374  1.0
  O  O28  1  0.37543783  0.32627686  0.38986443  1.0
  O  O29  1  0.37543783  0.17372314  0.88986443  1.0
  O  O30  1  0.62456217  0.82627686  0.11013557  1.0
  O  O31  1  0.62456217  0.67372314  0.61013557  1.0
