# generated using pymatgen
data_NaCo3As3(HO6)2
_symmetry_space_group_name_H-M   'P 1'
_cell_length_a   8.68151466
_cell_length_b   8.68151466
_cell_length_c   6.89298069
_cell_angle_alpha   74.83439660
_cell_angle_beta   105.16560340
_cell_angle_gamma   88.73442977
_symmetry_Int_Tables_number   1
_chemical_formula_structural   NaCo3As3(HO6)2
_chemical_formula_sum   'Na2 Co6 As6 H4 O24'
_cell_volume   481.66900343
_cell_formula_units_Z   2
loop_
 _symmetry_equiv_pos_site_id
 _symmetry_equiv_pos_as_xyz
  1  'x, y, z'
loop_
 _atom_site_type_symbol
 _atom_site_label
 _atom_site_symmetry_multiplicity
 _atom_site_fract_x
 _atom_site_fract_y
 _atom_site_fract_z
 _atom_site_occupancy
  H  H0  1  1.60680055  0.38168361  0.80715914  1.0
  H  H1  1  0.61831639  -0.60680055  0.30715914  1.0
  H  H2  1  1.38168361  0.60680055  0.69284086  1.0
  H  H3  1  0.39319945  -0.38168361  0.19284086  1.0
  Co  Co4  1  0.37358794  -0.04344668  0.60883150  1.0
  Co  Co5  1  1.04344668  0.62641206  0.10883150  1.0
  Co  Co6  1  0.95655332  -0.62641206  0.89116850  1.0
  Co  Co7  1  1.62641206  0.04344668  0.39116850  1.0
  Co  Co8  1  1.28250213  0.28250213  0.75000000  1.0
  Co  Co9  1  0.71749787  -0.28250213  0.25000000  1.0
  O  O10  1  0.48360947  -0.27789906  0.72595341  1.0
  O  O11  1  1.27789906  0.51639053  0.22595341  1.0
  O  O12  1  0.72210094  -0.51639053  0.77404659  1.0
  O  O13  1  1.51639053  0.27789906  0.27404659  1.0
  O  O14  1  1.84544685  0.13838424  0.41203984  1.0
  O  O15  1  0.86161576  -0.84544685  0.91203984  1.0
  O  O16  1  1.13838424  0.84544685  0.08796016  1.0
  O  O17  1  0.15455315  -0.13838424  0.58796016  1.0
  O  O18  1  1.53463905  0.28129401  0.83866861  1.0
  O  O19  1  0.71870599  -0.53463905  0.33866861  1.0
  O  O20  1  1.28129401  0.53463905  0.66133139  1.0
  O  O21  1  0.46536095  -0.28129401  0.16133139  1.0
  O  O22  1  1.60233438  0.02054075  0.68664872  1.0
  O  O23  1  0.97945925  -0.60233438  0.18664872  1.0
  O  O24  1  1.02054075  0.60233438  0.81335128  1.0
  O  O25  1  0.39766562  -0.02054075  0.31335128  1.0
  O  O26  1  0.73095690  -0.19874308  0.52109587  1.0
  O  O27  1  1.19874308  0.26904310  0.02109587  1.0
  O  O28  1  0.80125692  -0.26904310  0.97890413  1.0
  O  O29  1  1.26904310  0.19874308  0.47890413  1.0
  O  O30  1  1.33425091  0.02655220  0.86520314  1.0
  O  O31  1  0.97344780  -0.33425091  0.36520314  1.0
  O  O32  1  1.02655220  0.33425091  0.63479686  1.0
  O  O33  1  0.66574909  -0.02655220  0.13479686  1.0
  As  As34  1  1.66727654  0.10390015  0.89540380  1.0
  As  As35  1  0.89609985  -0.66727654  0.39540380  1.0
  As  As36  1  1.10390015  0.66727654  0.60459620  1.0
  As  As37  1  0.33272346  -0.10390015  0.10459620  1.0
  As  As38  1  0.68779095  -0.31220905  0.75000000  1.0
  As  As39  1  1.31220905  0.31220905  0.25000000  1.0
  Na  Na40  1  0.99742336  -0.00257664  0.75000000  1.0
  Na  Na41  1  1.00257664  0.00257664  0.25000000  1.0
