# generated using pymatgen
data_Cd(NO3)2
_symmetry_space_group_name_H-M   'P 1'
_cell_length_a   7.89724596
_cell_length_b   7.89724596
_cell_length_c   7.89724596
_cell_angle_alpha   90.00000000
_cell_angle_beta   90.00000000
_cell_angle_gamma   90.00000000
_symmetry_Int_Tables_number   1
_chemical_formula_structural   Cd(NO3)2
_chemical_formula_sum   'Cd4 N8 O24'
_cell_volume   492.52354001
_cell_formula_units_Z   4
loop_
 _symmetry_equiv_pos_site_id
 _symmetry_equiv_pos_as_xyz
  1  'x, y, z'
loop_
 _atom_site_type_symbol
 _atom_site_label
 _atom_site_symmetry_multiplicity
 _atom_site_fract_x
 _atom_site_fract_y
 _atom_site_fract_z
 _atom_site_occupancy
  Cd  Cd0  1  0.50000000  0.00000000  0.50000000  1.0
  Cd  Cd1  1  0.50000000  0.50000000  -0.00000000  1.0
  Cd  Cd2  1  0.00000000  -0.00000000  -0.00000000  1.0
  Cd  Cd3  1  -0.00000000  0.50000000  0.50000000  1.0
  N  N4  1  0.16900026  0.66900026  0.83099974  1.0
  N  N5  1  0.16900026  0.83099974  0.33099974  1.0
  N  N6  1  0.66900026  0.66900026  0.66900026  1.0
  N  N7  1  0.66900026  0.83099974  0.16900026  1.0
  N  N8  1  0.83099974  0.16900026  0.66900026  1.0
  N  N9  1  0.83099974  0.33099974  0.16900026  1.0
  N  N10  1  0.33099974  0.16900026  0.83099974  1.0
  N  N11  1  0.33099974  0.33099974  0.33099974  1.0
  O  O12  1  0.27143858  0.68762343  0.95205583  1.0
  O  O13  1  0.27143858  0.81237657  0.45205583  1.0
  O  O14  1  0.77143858  0.68762343  0.54794417  1.0
  O  O15  1  0.77143858  0.81237657  0.04794417  1.0
  O  O16  1  0.18762343  0.54794417  0.72856142  1.0
  O  O17  1  0.18762343  0.95205583  0.22856142  1.0
  O  O18  1  0.68762343  0.54794417  0.77143858  1.0
  O  O19  1  0.68762343  0.95205583  0.27143858  1.0
  O  O20  1  0.04794417  0.77143858  0.81237657  1.0
  O  O21  1  0.04794417  0.72856142  0.31237657  1.0
  O  O22  1  0.54794417  0.77143858  0.68762343  1.0
  O  O23  1  0.54794417  0.72856142  0.18762343  1.0
  O  O24  1  0.72856142  0.18762343  0.54794417  1.0
  O  O25  1  0.72856142  0.31237657  0.04794417  1.0
  O  O26  1  0.22856142  0.18762343  0.95205583  1.0
  O  O27  1  0.22856142  0.31237657  0.45205583  1.0
  O  O28  1  0.81237657  0.04794417  0.77143858  1.0
  O  O29  1  0.81237657  0.45205583  0.27143858  1.0
  O  O30  1  0.31237657  0.04794417  0.72856142  1.0
  O  O31  1  0.31237657  0.45205583  0.22856142  1.0
  O  O32  1  0.95205583  0.27143858  0.68762343  1.0
  O  O33  1  0.95205583  0.22856142  0.18762343  1.0
  O  O34  1  0.45205583  0.27143858  0.81237657  1.0
  O  O35  1  0.45205583  0.22856142  0.31237657  1.0
