# generated using pymatgen
data_Cu2CO5
_symmetry_space_group_name_H-M   'P 1'
_cell_length_a   2.97903397
_cell_length_b   12.74175818
_cell_length_c   8.96194675
_cell_angle_alpha   90.00000000
_cell_angle_beta   95.01018077
_cell_angle_gamma   90.00000000
_symmetry_Int_Tables_number   1
_chemical_formula_structural   Cu2CO5
_chemical_formula_sum   'Cu8 C4 O20'
_cell_volume   338.87898774
_cell_formula_units_Z   4
loop_
 _symmetry_equiv_pos_site_id
 _symmetry_equiv_pos_as_xyz
  1  'x, y, z'
loop_
 _atom_site_type_symbol
 _atom_site_label
 _atom_site_symmetry_multiplicity
 _atom_site_fract_x
 _atom_site_fract_y
 _atom_site_fract_z
 _atom_site_occupancy
  C  C0  1  0.47001593  0.12860946  0.27589726  1.0
  C  C1  1  0.47001593  0.37139054  0.77589726  1.0
  C  C2  1  0.52998407  0.62860946  0.22410274  1.0
  C  C3  1  0.52998407  0.87139054  0.72410274  1.0
  O  O4  1  0.61548831  0.04617546  0.33634358  1.0
  O  O5  1  0.61548831  0.45382454  0.83634358  1.0
  O  O6  1  0.38451169  0.54617546  0.16365642  1.0
  O  O7  1  0.38451169  0.95382454  0.66365642  1.0
  O  O8  1  0.50315432  0.22013712  0.34627792  1.0
  O  O9  1  0.50315432  0.27986288  0.84627792  1.0
  O  O10  1  0.49684568  0.72013712  0.15372208  1.0
  O  O11  1  0.49684568  0.77986288  0.65372208  1.0
  O  O12  1  0.28380936  0.12977163  0.13849672  1.0
  O  O13  1  0.28380936  0.37022837  0.63849672  1.0
  O  O14  1  0.71619064  0.62977163  0.36150328  1.0
  O  O15  1  0.71619064  0.87022837  0.86150328  1.0
  O  O16  1  0.95525125  0.39371864  0.37096114  1.0
  O  O17  1  0.95525125  0.10628136  0.87096114  1.0
  O  O18  1  0.04474875  0.89371864  0.12903886  1.0
  O  O19  1  0.04474875  0.60628136  0.62903886  1.0
  O  O20  1  0.91140438  0.34833200  0.11010694  1.0
  O  O21  1  0.91140438  0.15166800  0.61010694  1.0
  O  O22  1  0.08859562  0.84833200  0.38989306  1.0
  O  O23  1  0.08859562  0.65166800  0.88989306  1.0
  Cu  Cu24  1  0.43096981  0.37979003  0.23668287  1.0
  Cu  Cu25  1  0.43096981  0.12020997  0.73668287  1.0
  Cu  Cu26  1  0.56903019  0.87979003  0.26331713  1.0
  Cu  Cu27  1  0.56903019  0.62020997  0.76331713  1.0
  Cu  Cu28  1  0.93717859  0.27603975  0.50344334  1.0
  Cu  Cu29  1  0.93717859  0.22396025  1.00344334  1.0
  Cu  Cu30  1  0.06282141  0.77603975  -0.00344334  1.0
  Cu  Cu31  1  0.06282141  0.72396025  0.49655666  1.0
