# generated using pymatgen
data_ReH6CN3O4
_symmetry_space_group_name_H-M   'P 1'
_cell_length_a   5.39078512
_cell_length_b   8.47368703
_cell_length_c   8.17190635
_cell_angle_alpha   103.16476959
_cell_angle_beta   94.15307635
_cell_angle_gamma   89.91276503
_symmetry_Int_Tables_number   1
_chemical_formula_structural   ReH6CN3O4
_chemical_formula_sum   'Re2 H12 C2 N6 O8'
_cell_volume   362.48330324
_cell_formula_units_Z   2
loop_
 _symmetry_equiv_pos_site_id
 _symmetry_equiv_pos_as_xyz
  1  'x, y, z'
loop_
 _atom_site_type_symbol
 _atom_site_label
 _atom_site_symmetry_multiplicity
 _atom_site_fract_x
 _atom_site_fract_y
 _atom_site_fract_z
 _atom_site_occupancy
  Re  Re0  1  1.01462990  0.81592029  -0.25434654  1.0
  Re  Re1  1  -0.01462990  0.18407971  -0.74565346  1.0
  H  H2  1  0.81037432  0.73824588  -0.88360415  1.0
  H  H3  1  0.18962568  0.26175412  -0.11639585  1.0
  H  H4  1  0.79530210  0.53101359  -0.88021144  1.0
  H  H5  1  0.20469790  0.46898641  -0.11978856  1.0
  H  H6  1  0.53312498  0.91819134  -0.73707303  1.0
  H  H7  1  0.46687502  0.08180866  -0.26292697  1.0
  H  H8  1  0.48391654  0.43666913  -0.73772053  1.0
  H  H9  1  0.51608346  0.56333087  -0.26227947  1.0
  H  H10  1  0.32065705  0.84442386  -0.61643804  1.0
  H  H11  1  0.67934295  0.15557614  -0.38356196  1.0
  H  H12  1  0.30578781  0.58210352  -0.60935636  1.0
  H  H13  1  0.69421219  0.41789648  -0.39064364  1.0
  C  C14  1  0.54143582  0.67449758  -0.74816636  1.0
  C  C15  1  0.45856418  0.32550242  -0.25183364  1.0
  N  N16  1  0.71814751  0.64341522  -0.85710916  1.0
  N  N17  1  0.28185249  0.35658478  -0.14289084  1.0
  N  N18  1  0.46170810  0.82548298  -0.69430761  1.0
  N  N19  1  0.53829190  0.17451702  -0.30569239  1.0
  N  N20  1  0.43947235  0.55422905  -0.69279089  1.0
  N  N21  1  0.56052765  0.44577095  -0.30720911  1.0
  O  O22  1  0.89562230  0.25466282  -0.54045804  1.0
  O  O23  1  0.10437770  0.74533718  -0.45954196  1.0
  O  O24  1  0.86916696  0.98737493  -0.82537114  1.0
  O  O25  1  0.13083304  0.01262507  -0.17462886  1.0
  O  O26  1  0.87246019  0.31353298  -0.87157234  1.0
  O  O27  1  0.12753981  0.68646702  -0.12842766  1.0
  O  O28  1  0.69132897  0.81595448  -0.26074438  1.0
  O  O29  1  0.30867103  0.18404552  -0.73925562  1.0
