# generated using pymatgen
data_Y2(SO4)3
_symmetry_space_group_name_H-M   'P 1'
_cell_length_a   9.62272510
_cell_length_b   9.62272510
_cell_length_c   9.62272510
_cell_angle_alpha   57.54212594
_cell_angle_beta   57.54212594
_cell_angle_gamma   57.54212594
_symmetry_Int_Tables_number   1
_chemical_formula_structural   Y2(SO4)3
_chemical_formula_sum   'Y4 S6 O24'
_cell_volume   594.44694740
_cell_formula_units_Z   2
loop_
 _symmetry_equiv_pos_site_id
 _symmetry_equiv_pos_as_xyz
  1  'x, y, z'
loop_
 _atom_site_type_symbol
 _atom_site_label
 _atom_site_symmetry_multiplicity
 _atom_site_fract_x
 _atom_site_fract_y
 _atom_site_fract_z
 _atom_site_occupancy
  Y  Y0  1  0.14403588  0.14403588  0.14403588  1.0
  Y  Y1  1  0.85596412  -0.14403588  -0.14403588  1.0
  Y  Y2  1  0.35598275  0.35598275  -0.64401725  1.0
  Y  Y3  1  0.64401725  0.64401725  -0.35598275  1.0
  S  S4  1  0.53480060  0.24996912  -0.03482952  1.0
  S  S5  1  1.03482952  -0.53480060  -0.24996912  1.0
  S  S6  1  0.75003088  0.03482952  -0.53480060  1.0
  S  S7  1  0.46519940  -0.24996912  0.03482952  1.0
  S  S8  1  0.96517048  -0.46519940  0.24996912  1.0
  S  S9  1  1.24996912  -0.03482952  -0.46519940  1.0
  O  O10  1  0.23037584  0.99186727  -0.62188287  1.0
  O  O11  1  0.62188287  -0.23037584  0.00813273  1.0
  O  O12  1  1.00813273  -0.37811713  -0.23037584  1.0
  O  O13  1  0.76962416  0.00813273  -0.37811713  1.0
  O  O14  1  0.37811713  0.23037584  -0.00813273  1.0
  O  O15  1  0.99186727  0.37811713  -0.76962416  1.0
  O  O16  1  0.59214981  0.19285021  -0.56281426  1.0
  O  O17  1  0.56281426  0.40785019  -0.19285021  1.0
  O  O18  1  0.80714979  0.56281426  -0.59214981  1.0
  O  O19  1  0.40785019  0.80714979  -0.43718574  1.0
  O  O20  1  0.43718574  0.59214981  -0.80714979  1.0
  O  O21  1  0.19285021  0.43718574  -0.40785019  1.0
  O  O22  1  0.30744174  0.90827414  -0.93776673  1.0
  O  O23  1  0.93776673  -0.30744174  0.09172586  1.0
  O  O24  1  1.09172586  -0.06223327  -0.30744174  1.0
  O  O25  1  0.69255826  0.09172586  -0.06223327  1.0
  O  O26  1  0.06223327  0.30744174  -0.09172586  1.0
  O  O27  1  0.90827414  0.06223327  -0.69255826  1.0
  O  O28  1  0.50789053  0.26992887  0.12173184  1.0
  O  O29  1  0.87826816  -0.50789053  -0.26992887  1.0
  O  O30  1  0.73007113  -0.12173184  -0.50789053  1.0
  O  O31  1  0.49210947  -0.26992887  -0.12173184  1.0
  O  O32  1  1.12173184  -0.49210947  0.26992887  1.0
  O  O33  1  1.26992887  0.12173184  -0.49210947  1.0
