# generated using pymatgen
data_SrSi2O5
_symmetry_space_group_name_H-M   'P 1'
_cell_length_a   5.39049191
_cell_length_b   5.39049191
_cell_length_c   13.69590426
_cell_angle_alpha   90.00000000
_cell_angle_beta   90.00000000
_cell_angle_gamma   121.27882192
_symmetry_Int_Tables_number   1
_chemical_formula_structural   SrSi2O5
_chemical_formula_sum   'Sr4 Si8 O20'
_cell_volume   340.12316511
_cell_formula_units_Z   4
loop_
 _symmetry_equiv_pos_site_id
 _symmetry_equiv_pos_as_xyz
  1  'x, y, z'
loop_
 _atom_site_type_symbol
 _atom_site_label
 _atom_site_symmetry_multiplicity
 _atom_site_fract_x
 _atom_site_fract_y
 _atom_site_fract_z
 _atom_site_occupancy
  Sr  Sr0  1  0.15709368  0.84290632  0.58560954  1.0
  Sr  Sr1  1  -0.34290632  0.34290632  0.91439046  1.0
  Sr  Sr2  1  -0.15709368  0.15709368  0.41439046  1.0
  Sr  Sr3  1  0.34290632  0.65709368  0.08560954  1.0
  Si  Si4  1  -0.01062028  0.01062028  0.86098735  1.0
  Si  Si5  1  0.48937972  0.51062028  0.63901265  1.0
  Si  Si6  1  0.01062028  0.98937972  0.13901265  1.0
  Si  Si7  1  -0.48937972  0.48937972  0.36098735  1.0
  Si  Si8  1  0.32150604  0.67849396  0.81669860  1.0
  Si  Si9  1  -0.17849396  0.17849396  0.68330140  1.0
  Si  Si10  1  -0.32150604  0.32150604  0.18330140  1.0
  Si  Si11  1  0.17849396  0.82150604  0.31669860  1.0
  O  O12  1  -0.01653432  0.01653432  0.74280386  1.0
  O  O13  1  0.48346568  0.51653432  0.75719614  1.0
  O  O14  1  0.01653432  0.98346568  0.25719614  1.0
  O  O15  1  -0.48346568  0.48346568  0.24280386  1.0
  O  O16  1  0.15979213  0.84020787  0.89653402  1.0
  O  O17  1  -0.34020787  0.34020787  0.60346598  1.0
  O  O18  1  -0.15979213  0.15979213  0.10346598  1.0
  O  O19  1  0.34020787  0.65979213  0.39653402  1.0
  O  O20  1  0.15989500  0.34936466  0.90601050  1.0
  O  O21  1  0.65989500  0.84936466  0.59398950  1.0
  O  O22  1  0.34936466  1.15989500  0.09398950  1.0
  O  O23  1  -0.15063534  0.65989500  0.40601050  1.0
  O  O24  1  0.65063534  0.84010500  0.90601050  1.0
  O  O25  1  0.15063534  0.34010500  0.59398950  1.0
  O  O26  1  -0.15989500  0.65063534  0.09398950  1.0
  O  O27  1  0.34010500  1.15063534  0.40601050  1.0
  O  O28  1  -0.00094085  0.50094085  0.75000000  1.0
  O  O29  1  0.49905915  1.00094085  0.75000000  1.0
  O  O30  1  0.50094085  0.99905915  0.25000000  1.0
  O  O31  1  0.00094085  0.49905915  0.25000000  1.0
