# generated using pymatgen
data_FeCu2GeS4
_symmetry_space_group_name_H-M   'P 1'
_cell_length_a   6.49167740
_cell_length_b   6.49167740
_cell_length_c   6.49167740
_cell_angle_alpha   131.48849722
_cell_angle_beta   131.48849722
_cell_angle_gamma   71.03809961
_symmetry_Int_Tables_number   1
_chemical_formula_structural   FeCu2GeS4
_chemical_formula_sum   'Fe1 Cu2 Ge1 S4'
_cell_volume   150.31301484
_cell_formula_units_Z   1
loop_
 _symmetry_equiv_pos_site_id
 _symmetry_equiv_pos_as_xyz
  1  'x, y, z'
loop_
 _atom_site_type_symbol
 _atom_site_label
 _atom_site_symmetry_multiplicity
 _atom_site_fract_x
 _atom_site_fract_y
 _atom_site_fract_z
 _atom_site_occupancy
  Fe  Fe0  1  0.00000000  0.00000000  0.00000000  1.0
  Cu  Cu1  1  0.25000000  0.75000000  0.50000000  1.0
  Cu  Cu2  1  0.75000000  0.25000000  0.50000000  1.0
  Ge  Ge3  1  0.50000000  0.50000000  1.00000000  1.0
  S  S4  1  0.37501649  0.87652647  1.00000000  1.0
  S  S5  1  1.12347353  1.12347353  1.49849002  1.0
  S  S6  1  0.62498351  0.62498351  0.50150998  1.0
  S  S7  1  0.87652647  0.37501649  1.00000000  1.0
