# generated using pymatgen
data_K3Mn2O8
_symmetry_space_group_name_H-M   'P 1'
_cell_length_a   7.94543919
_cell_length_b   7.94543919
_cell_length_c   7.94543919
_cell_angle_alpha   43.30996201
_cell_angle_beta   43.30996201
_cell_angle_gamma   43.30996201
_symmetry_Int_Tables_number   1
_chemical_formula_structural   K3Mn2O8
_chemical_formula_sum   'K3 Mn2 O8'
_cell_volume   214.05649937
_cell_formula_units_Z   1
loop_
 _symmetry_equiv_pos_site_id
 _symmetry_equiv_pos_as_xyz
  1  'x, y, z'
loop_
 _atom_site_type_symbol
 _atom_site_label
 _atom_site_symmetry_multiplicity
 _atom_site_fract_x
 _atom_site_fract_y
 _atom_site_fract_z
 _atom_site_occupancy
  K  K0  1  0.79566330  0.79566330  0.79566330  1.0
  K  K1  1  1.20433670  1.20433670  0.20433670  1.0
  K  K2  1  0.00000000  0.00000000  0.00000000  1.0
  Mn  Mn3  1  1.59265495  0.59265495  0.59265495  1.0
  Mn  Mn4  1  1.40734505  0.40734505  0.40734505  1.0
  O  O5  1  1.28125865  0.28125865  0.73605142  1.0
  O  O6  1  1.28125865  0.73605142  0.28125865  1.0
  O  O7  1  1.26394858  0.71874135  0.71874135  1.0
  O  O8  1  1.71874135  0.26394858  0.71874135  1.0
  O  O9  1  1.71874135  0.71874135  0.26394858  1.0
  O  O10  1  1.73605142  0.28125865  0.28125865  1.0
  O  O11  1  1.66793986  0.66793986  0.66793986  1.0
  O  O12  1  1.33206014  0.33206014  0.33206014  1.0
