# generated using pymatgen
data_Fe(C4N3)2
_symmetry_space_group_name_H-M   'P 1'
_cell_length_a   7.44339460
_cell_length_b   5.35485162
_cell_length_c   10.58676124
_cell_angle_alpha   90.00000000
_cell_angle_beta   90.00000000
_cell_angle_gamma   90.00000000
_symmetry_Int_Tables_number   1
_chemical_formula_structural   Fe(C4N3)2
_chemical_formula_sum   'Fe2 C16 N12'
_cell_volume   421.97002605
_cell_formula_units_Z   2
loop_
 _symmetry_equiv_pos_site_id
 _symmetry_equiv_pos_as_xyz
  1  'x, y, z'
loop_
 _atom_site_type_symbol
 _atom_site_label
 _atom_site_symmetry_multiplicity
 _atom_site_fract_x
 _atom_site_fract_y
 _atom_site_fract_z
 _atom_site_occupancy
  Fe  Fe0  1  0.00000000  0.00000000  0.00000000  1.0
  Fe  Fe1  1  0.50000000  0.00000000  0.50000000  1.0
  C  C2  1  0.66060090  0.69201472  0.11568505  1.0
  C  C3  1  0.66060090  0.30798528  0.88431495  1.0
  C  C4  1  0.16060090  0.69201472  0.38431495  1.0
  C  C5  1  0.16060090  0.30798528  0.61568505  1.0
  C  C6  1  0.33939910  0.69201472  0.11568505  1.0
  C  C7  1  0.33939910  0.30798528  0.88431495  1.0
  C  C8  1  0.83939910  0.69201472  0.38431495  1.0
  C  C9  1  0.83939910  0.30798528  0.61568505  1.0
  C  C10  1  0.00000000  0.58572091  0.34088197  1.0
  C  C11  1  0.00000000  0.41427909  0.65911803  1.0
  C  C12  1  0.50000000  0.58572091  0.15911803  1.0
  C  C13  1  0.50000000  0.41427909  0.84088197  1.0
  C  C14  1  0.00000000  0.39264555  0.25063203  1.0
  C  C15  1  0.00000000  0.60735445  0.74936797  1.0
  C  C16  1  0.50000000  0.39264555  0.24936797  1.0
  C  C17  1  0.50000000  0.60735445  0.75063203  1.0
  N  N18  1  0.79135981  0.78593984  0.07661453  1.0
  N  N19  1  0.79135981  0.21406016  0.92338547  1.0
  N  N20  1  0.29135981  0.78593984  0.42338547  1.0
  N  N21  1  0.29135981  0.21406016  0.57661453  1.0
  N  N22  1  0.20864019  0.78593984  0.07661453  1.0
  N  N23  1  0.20864019  0.21406016  0.92338547  1.0
  N  N24  1  0.70864019  0.78593984  0.42338547  1.0
  N  N25  1  0.70864019  0.21406016  0.57661453  1.0
  N  N26  1  0.00000000  0.23445206  0.17438574  1.0
  N  N27  1  0.00000000  0.76554794  0.82561426  1.0
  N  N28  1  0.50000000  0.23445206  0.32561426  1.0
  N  N29  1  0.50000000  0.76554794  0.67438574  1.0
