# generated using pymatgen
data_Sr(BeN)2
_symmetry_space_group_name_H-M   'P 1'
_cell_length_a   5.50275172
_cell_length_b   5.50275172
_cell_length_c   5.50275172
_cell_angle_alpha   118.53002080
_cell_angle_beta   118.53002080
_cell_angle_gamma   92.56551240
_symmetry_Int_Tables_number   1
_chemical_formula_structural   Sr(BeN)2
_chemical_formula_sum   'Sr2 Be4 N4'
_cell_volume   120.30892835
_cell_formula_units_Z   2
loop_
 _symmetry_equiv_pos_site_id
 _symmetry_equiv_pos_as_xyz
  1  'x, y, z'
loop_
 _atom_site_type_symbol
 _atom_site_label
 _atom_site_symmetry_multiplicity
 _atom_site_fract_x
 _atom_site_fract_y
 _atom_site_fract_z
 _atom_site_occupancy
  Sr  Sr0  1  0.25000000  0.25000000  0.00000000  1.0
  Sr  Sr1  1  0.75000000  0.75000000  0.00000000  1.0
  Be  Be2  1  0.87283007  0.37283007  1.24566014  1.0
  Be  Be3  1  0.62716993  0.87283007  0.50000000  1.0
  Be  Be4  1  0.37283007  0.12716993  0.50000000  1.0
  Be  Be5  1  1.12716993  0.62716993  0.75433986  1.0
  N  N6  1  0.33209681  0.83209681  1.16419363  1.0
  N  N7  1  0.16790319  0.33209681  0.50000000  1.0
  N  N8  1  0.83209681  0.66790319  0.50000000  1.0
  N  N9  1  0.66790319  1.16790319  0.83580637  1.0
