# generated using pymatgen
data_HgH12(ClO7)2
_symmetry_space_group_name_H-M   'P 1'
_cell_length_a   7.88634621
_cell_length_b   7.88634621
_cell_length_c   6.17291870
_cell_angle_alpha   90.00000000
_cell_angle_beta   90.00000000
_cell_angle_gamma   120.00000000
_symmetry_Int_Tables_number   1
_chemical_formula_structural   HgH12(ClO7)2
_chemical_formula_sum   'Hg1 H12 Cl2 O14'
_cell_volume   332.48561939
_cell_formula_units_Z   1
loop_
 _symmetry_equiv_pos_site_id
 _symmetry_equiv_pos_as_xyz
  1  'x, y, z'
loop_
 _atom_site_type_symbol
 _atom_site_label
 _atom_site_symmetry_multiplicity
 _atom_site_fract_x
 _atom_site_fract_y
 _atom_site_fract_z
 _atom_site_occupancy
  Hg  Hg0  1  -0.00000000  -0.00000000  0.00000000  1.0
  H  H1  1  0.34805824  0.27397296  0.24622349  1.0
  H  H2  1  0.92591472  0.65194176  0.24622349  1.0
  H  H3  1  0.72602704  0.07408528  0.24622349  1.0
  H  H4  1  0.34805824  0.07408528  0.24622349  1.0
  H  H5  1  0.72602704  0.65194176  0.24622349  1.0
  H  H6  1  0.92591472  0.27397296  0.24622349  1.0
  H  H7  1  0.65194176  0.72602704  0.75377651  1.0
  H  H8  1  0.07408528  0.34805824  0.75377651  1.0
  H  H9  1  0.27397296  0.92591472  0.75377651  1.0
  H  H10  1  0.65194176  0.92591472  0.75377651  1.0
  H  H11  1  0.27397296  0.34805824  0.75377651  1.0
  H  H12  1  0.07408528  0.72602704  0.75377651  1.0
  Cl  Cl13  1  0.66666667  0.33333333  0.81494759  1.0
  Cl  Cl14  1  0.33333333  0.66666667  0.18505241  1.0
  O  O15  1  0.26362511  0.13181255  0.25520235  1.0
  O  O16  1  0.86818745  0.73637489  0.25520235  1.0
  O  O17  1  0.86818745  0.13181255  0.25520235  1.0
  O  O18  1  0.73637489  0.86818745  0.74479765  1.0
  O  O19  1  0.13181255  0.26362511  0.74479765  1.0
  O  O20  1  0.13181255  0.86818745  0.74479765  1.0
  O  O21  1  0.86946829  0.43473414  0.73394725  1.0
  O  O22  1  0.56526586  0.13053171  0.73394725  1.0
  O  O23  1  0.56526586  0.43473414  0.73394725  1.0
  O  O24  1  0.13053171  0.56526586  0.26605275  1.0
  O  O25  1  0.43473414  0.86946829  0.26605275  1.0
  O  O26  1  0.43473414  0.56526586  0.26605275  1.0
  O  O27  1  0.66666667  0.33333333  0.05195664  1.0
  O  O28  1  0.33333333  0.66666667  0.94804336  1.0
