# generated using pymatgen
data_Ti4Bi2O11
_symmetry_space_group_name_H-M   'P 1'
_cell_length_a   7.67736812
_cell_length_b   7.67736812
_cell_length_c   15.17552151
_cell_angle_alpha   92.74564232
_cell_angle_beta   87.25435768
_cell_angle_gamma   151.21929084
_symmetry_Int_Tables_number   1
_chemical_formula_structural   Ti4Bi2O11
_chemical_formula_sum   'Ti8 Bi4 O22'
_cell_volume   430.12589041
_cell_formula_units_Z   2
loop_
 _symmetry_equiv_pos_site_id
 _symmetry_equiv_pos_as_xyz
  1  'x, y, z'
loop_
 _atom_site_type_symbol
 _atom_site_label
 _atom_site_symmetry_multiplicity
 _atom_site_fract_x
 _atom_site_fract_y
 _atom_site_fract_z
 _atom_site_occupancy
  Ti  Ti0  1  1.20029284  0.29973554  0.13984233  1.0
  Ti  Ti1  1  0.70026446  -0.20029284  0.63984233  1.0
  Ti  Ti2  1  0.29973554  0.20029284  0.36015767  1.0
  Ti  Ti3  1  0.79970716  0.70026446  0.86015767  1.0
  Ti  Ti4  1  1.09048207  0.38377986  0.51738739  1.0
  Ti  Ti5  1  0.61622014  -0.09048207  0.01738739  1.0
  Ti  Ti6  1  0.38377986  0.09048207  0.98261261  1.0
  Ti  Ti7  1  0.90951793  0.61622014  0.48261261  1.0
  Bi  Bi8  1  0.85628053  0.49583446  0.17994842  1.0
  Bi  Bi9  1  0.50416554  0.14371947  0.67994842  1.0
  Bi  Bi10  1  0.49583446  -0.14371947  0.32005158  1.0
  Bi  Bi11  1  1.14371947  0.50416554  0.82005158  1.0
  O  O12  1  1.19500830  0.30641339  0.42414163  1.0
  O  O13  1  0.69358661  -0.19500830  0.92414163  1.0
  O  O14  1  0.30641339  0.19500830  0.07585837  1.0
  O  O15  1  0.80499170  0.69358661  0.57585837  1.0
  O  O16  1  1.11625711  0.38866948  0.03450717  1.0
  O  O17  1  0.61133052  -0.11625711  0.53450717  1.0
  O  O18  1  0.38866948  0.11625711  0.46549283  1.0
  O  O19  1  0.88374289  0.61133052  0.96549283  1.0
  O  O20  1  1.05430319  0.42021808  0.22367642  1.0
  O  O21  1  0.57978192  -0.05430319  0.72367642  1.0
  O  O22  1  0.42021808  0.05430319  0.27632358  1.0
  O  O23  1  0.94569681  0.57978192  0.77632358  1.0
  O  O24  1  1.03292348  0.49617886  0.41816004  1.0
  O  O25  1  0.50382114  -0.03292348  0.91816004  1.0
  O  O26  1  0.49617886  0.03292348  0.08183996  1.0
  O  O27  1  0.96707652  0.50382114  0.58183996  1.0
  O  O28  1  0.82904698  0.67417979  0.37263600  1.0
  O  O29  1  0.32582021  0.17095302  0.87263600  1.0
  O  O30  1  0.67417979  -0.17095302  0.12736400  1.0
  O  O31  1  1.17095302  0.32582021  0.62736400  1.0
  O  O32  1  0.27032053  0.27032053  0.25000000  1.0
  O  O33  1  0.72967947  0.72967947  0.75000000  1.0
