# generated using pymatgen
data_Mn6Ni16P7
_symmetry_space_group_name_H-M   'P 1'
_cell_length_a   7.77547600
_cell_length_b   7.77547600
_cell_length_c   7.77547600
_cell_angle_alpha   60.00000000
_cell_angle_beta   60.00000000
_cell_angle_gamma   60.00000000
_symmetry_Int_Tables_number   1
_chemical_formula_structural   Mn6Ni16P7
_chemical_formula_sum   'Mn6 Ni16 P7'
_cell_volume   332.40378329
_cell_formula_units_Z   1
loop_
 _symmetry_equiv_pos_site_id
 _symmetry_equiv_pos_as_xyz
  1  'x, y, z'
loop_
 _atom_site_type_symbol
 _atom_site_label
 _atom_site_symmetry_multiplicity
 _atom_site_fract_x
 _atom_site_fract_y
 _atom_site_fract_z
 _atom_site_occupancy
  Mn  Mn0  1  -0.69139066  0.69139066  0.69139066  1.0
  Mn  Mn1  1  -0.30860934  0.30860934  0.69139066  1.0
  Mn  Mn2  1  0.69139066  0.69139066  -0.69139066  1.0
  Mn  Mn3  1  0.30860934  1.30860934  -0.30860934  1.0
  Mn  Mn4  1  0.30860934  -0.30860934  1.30860934  1.0
  Mn  Mn5  1  -0.30860934  0.30860934  0.30860934  1.0
  Ni  Ni6  1  0.88326083  0.88326083  -0.11673917  1.0
  Ni  Ni7  1  1.11673917  0.11673917  0.64978249  1.0
  Ni  Ni8  1  1.11673917  0.64978249  0.11673917  1.0
  Ni  Ni9  1  0.35021751  0.88326083  -0.11673917  1.0
  Ni  Ni10  1  1.64978249  0.11673917  0.11673917  1.0
  Ni  Ni11  1  0.88326083  0.35021751  -0.11673917  1.0
  Ni  Ni12  1  0.88326083  0.88326083  -0.64978249  1.0
  Ni  Ni13  1  1.11673917  0.11673917  0.11673917  1.0
  Ni  Ni14  1  0.66415460  0.66415460  -0.33584540  1.0
  Ni  Ni15  1  1.33584540  0.33584540  -0.00753619  1.0
  Ni  Ni16  1  1.33584540  -0.00753619  0.33584540  1.0
  Ni  Ni17  1  1.00753619  0.66415460  -0.33584540  1.0
  Ni  Ni18  1  0.99246381  0.33584540  0.33584540  1.0
  Ni  Ni19  1  0.66415460  1.00753619  -0.33584540  1.0
  Ni  Ni20  1  0.66415460  0.66415460  0.00753619  1.0
  Ni  Ni21  1  1.33584540  0.33584540  0.33584540  1.0
  P  P22  1  1.50000000  -0.00000000  0.00000000  1.0
  P  P23  1  1.00000000  0.50000000  -0.50000000  1.0
  P  P24  1  -0.00000000  1.50000000  0.00000000  1.0
  P  P25  1  0.50000000  1.00000000  -0.50000000  1.0
  P  P26  1  0.00000000  0.00000000  0.50000000  1.0
  P  P27  1  0.50000000  -0.50000000  1.00000000  1.0
  P  P28  1  0.00000000  0.00000000  0.00000000  1.0
