# generated using pymatgen
data_TaO2
_symmetry_space_group_name_H-M   'P 1'
_cell_length_a   10.21750002
_cell_length_b   10.21750002
_cell_length_c   10.21750002
_cell_angle_alpha   94.96227826
_cell_angle_beta   94.96227826
_cell_angle_gamma   145.79181595
_symmetry_Int_Tables_number   1
_chemical_formula_structural   TaO2
_chemical_formula_sum   'Ta16 O32'
_cell_volume   573.16578794
_cell_formula_units_Z   16
loop_
 _symmetry_equiv_pos_site_id
 _symmetry_equiv_pos_as_xyz
  1  'x, y, z'
loop_
 _atom_site_type_symbol
 _atom_site_label
 _atom_site_symmetry_multiplicity
 _atom_site_fract_x
 _atom_site_fract_y
 _atom_site_fract_z
 _atom_site_occupancy
  Ta  Ta0  1  0.23567015  0.22302201  0.75866195  1.0
  Ta  Ta1  1  1.28563994  1.77299180  1.25866195  1.0
  Ta  Ta2  1  1.52299180  0.76432985  0.98735186  1.0
  Ta  Ta3  1  0.97302201  0.71436006  0.48735186  1.0
  Ta  Ta4  1  0.46436006  0.47700820  1.24133805  1.0
  Ta  Ta5  1  1.51432985  1.02697799  0.74133805  1.0
  Ta  Ta6  1  0.77697799  1.53563994  1.01264814  1.0
  Ta  Ta7  1  1.22700820  1.48567015  1.51264814  1.0
  Ta  Ta8  1  1.76865199  1.77551053  1.74335951  1.0
  Ta  Ta9  1  0.71784898  1.22470752  1.24335951  1.0
  Ta  Ta10  1  0.97470752  1.23134801  1.00685854  1.0
  Ta  Ta11  1  0.52551053  0.28215102  0.50685854  1.0
  Ta  Ta12  1  1.03215102  1.02529248  0.25664049  1.0
  Ta  Ta13  1  0.98134801  0.47448947  0.75664049  1.0
  Ta  Ta14  1  1.22448947  0.96784898  0.99314146  1.0
  Ta  Ta15  1  0.77529248  1.01865199  1.49314146  1.0
  O  O16  1  0.49974610  0.39810088  0.64926254  1.0
  O  O17  1  1.00116166  1.39951644  1.14926254  1.0
  O  O18  1  1.14951644  0.50025390  0.89835478  1.0
  O  O19  1  1.14810088  0.99883834  0.39835478  1.0
  O  O20  1  0.74883834  0.85048356  1.35073746  1.0
  O  O21  1  1.25025390  0.85189912  0.85073746  1.0
  O  O22  1  0.60189912  1.25116166  1.10164522  1.0
  O  O23  1  1.60048356  1.74974610  1.60164522  1.0
  O  O24  1  0.48538361  1.09542124  1.36382105  1.0
  O  O25  1  1.01839980  1.12843743  1.86382105  1.0
  O  O26  1  0.87843743  0.51461639  0.61003763  1.0
  O  O27  1  0.84542124  0.98160020  1.11003763  1.0
  O  O28  1  0.73160020  0.12156257  0.63617895  1.0
  O  O29  1  0.26461639  0.15457876  0.13617895  1.0
  O  O30  1  0.90457876  1.26839980  1.38996237  1.0
  O  O31  1  0.87156257  0.73538361  0.88996237  1.0
  O  O32  1  1.63170501  1.99532762  1.88794129  1.0
  O  O33  1  0.64261367  1.50623628  1.38794129  1.0
  O  O34  1  1.25623628  1.36829499  1.36362261  1.0
  O  O35  1  1.74532762  1.35738633  0.86362261  1.0
  O  O36  1  1.10738633  0.74376372  0.11205871  1.0
  O  O37  1  1.11829499  0.25467238  0.61205871  1.0
  O  O38  1  1.00467238  0.89261367  0.63637739  1.0
  O  O39  1  1.49376372  1.88170501  1.13637739  1.0
  O  O40  1  1.39553696  1.74156872  1.40082699  1.0
  O  O41  1  1.40925827  1.25529003  0.90082699  1.0
  O  O42  1  1.00529003  1.60446304  1.34603176  1.0
  O  O43  1  1.49156872  1.59074173  1.84603176  1.0
  O  O44  1  1.34074173  0.99470997  0.59917301  1.0
  O  O45  1  1.35446304  1.50843128  1.09917301  1.0
  O  O46  1  1.25843128  0.65925827  0.65396824  1.0
  O  O47  1  0.74470997  0.64553696  0.15396824  1.0
