# generated using pymatgen
data_Tl3AsO4
_symmetry_space_group_name_H-M   'P 1'
_cell_length_a   9.23690291
_cell_length_b   9.23690291
_cell_length_c   5.38027421
_cell_angle_alpha   90.00000000
_cell_angle_beta   90.00000000
_cell_angle_gamma   120.00000000
_symmetry_Int_Tables_number   1
_chemical_formula_structural   Tl3AsO4
_chemical_formula_sum   'Tl6 As2 O8'
_cell_volume   397.54637684
_cell_formula_units_Z   2
loop_
 _symmetry_equiv_pos_site_id
 _symmetry_equiv_pos_as_xyz
  1  'x, y, z'
loop_
 _atom_site_type_symbol
 _atom_site_label
 _atom_site_symmetry_multiplicity
 _atom_site_fract_x
 _atom_site_fract_y
 _atom_site_fract_z
 _atom_site_occupancy
  Tl  Tl0  1  0.70932206  0.62122466  0.01390297  1.0
  Tl  Tl1  1  0.62122466  0.91190260  0.51390297  1.0
  Tl  Tl2  1  0.91190260  0.29067794  0.01390297  1.0
  Tl  Tl3  1  0.37877534  0.08809740  0.01390297  1.0
  Tl  Tl4  1  0.29067794  0.37877534  0.51390297  1.0
  Tl  Tl5  1  0.08809740  0.70932206  0.51390297  1.0
  As  As6  1  0.33333333  0.66666667  -0.00056057  1.0
  As  As7  1  0.66666667  0.33333333  0.49943943  1.0
  O  O8  1  0.47054530  0.86986485  0.09875996  1.0
  O  O9  1  0.86986485  0.39931955  0.59875996  1.0
  O  O10  1  0.39931955  0.52945470  0.09875996  1.0
  O  O11  1  0.13013515  0.60068045  0.09875996  1.0
  O  O12  1  0.52945470  0.13013515  0.59875996  1.0
  O  O13  1  0.60068045  0.47054530  0.59875996  1.0
  O  O14  1  0.33333333  0.66666667  0.67147177  1.0
  O  O15  1  0.66666667  0.33333333  0.17147177  1.0
