# generated using pymatgen
data_Cs2VAgS4
_symmetry_space_group_name_H-M   'P 1'
_cell_length_a   14.32911740
_cell_length_b   12.74819100
_cell_length_c   7.74544504
_cell_angle_alpha   85.00783466
_cell_angle_beta   62.41136842
_cell_angle_gamma   32.58079693
_symmetry_Int_Tables_number   1
_chemical_formula_structural   Cs2VAgS4
_chemical_formula_sum   'Cs4 V2 Ag2 S8'
_cell_volume   521.45734522
_cell_formula_units_Z   2
loop_
 _symmetry_equiv_pos_site_id
 _symmetry_equiv_pos_as_xyz
  1  'x, y, z'
loop_
 _atom_site_type_symbol
 _atom_site_label
 _atom_site_symmetry_multiplicity
 _atom_site_fract_x
 _atom_site_fract_y
 _atom_site_fract_z
 _atom_site_occupancy
  Cs  Cs0  1  0.67793250  0.67793250  -0.67793250  1.0
  Cs  Cs1  1  0.32206750  1.32206750  -0.32206750  1.0
  Cs  Cs2  1  0.57206750  -0.42793250  0.92793250  1.0
  Cs  Cs3  1  0.92793250  0.92793250  0.57206750  1.0
  V  V4  1  -0.50000000  0.50000000  0.50000000  1.0
  V  V5  1  0.75000000  0.75000000  0.75000000  1.0
  Ag  Ag6  1  0.00000000  0.00000000  0.00000000  1.0
  Ag  Ag7  1  1.25000000  0.25000000  0.25000000  1.0
  S  S8  1  0.40434357  0.99198956  0.91401531  1.0
  S  S9  1  0.68965155  0.91401531  0.99198956  1.0
  S  S10  1  0.91401531  0.68965155  0.40434357  1.0
  S  S11  1  0.99198956  0.40434357  0.68965155  1.0
  S  S12  1  -0.15434357  0.25801044  0.33598469  1.0
  S  S13  1  1.56034845  0.33598469  0.25801044  1.0
  S  S14  1  0.33598469  1.56034845  -0.15434357  1.0
  S  S15  1  0.25801044  -0.15434357  1.56034845  1.0
