# generated using pymatgen
data_Sr(BO2)2
_symmetry_space_group_name_H-M   'P 1'
_cell_length_a   12.05738543
_cell_length_b   4.37826782
_cell_length_c   6.75319799
_cell_angle_alpha   90.00000000
_cell_angle_beta   90.00000000
_cell_angle_gamma   90.00000000
_symmetry_Int_Tables_number   1
_chemical_formula_structural   Sr(BO2)2
_chemical_formula_sum   'Sr4 B8 O16'
_cell_volume   356.50444550
_cell_formula_units_Z   4
loop_
 _symmetry_equiv_pos_site_id
 _symmetry_equiv_pos_as_xyz
  1  'x, y, z'
loop_
 _atom_site_type_symbol
 _atom_site_label
 _atom_site_symmetry_multiplicity
 _atom_site_fract_x
 _atom_site_fract_y
 _atom_site_fract_z
 _atom_site_occupancy
  Sr  Sr0  1  0.50000000  0.23534043  0.75000000  1.0
  Sr  Sr1  1  0.50000000  0.76465957  0.25000000  1.0
  Sr  Sr2  1  0.00000000  0.73534043  0.75000000  1.0
  Sr  Sr3  1  0.00000000  0.26465957  0.25000000  1.0
  B  B4  1  0.19400321  0.17226827  0.62350756  1.0
  B  B5  1  0.19400321  0.82773173  0.12350756  1.0
  B  B6  1  0.69400321  0.67226827  0.87649244  1.0
  B  B7  1  0.69400321  0.32773173  0.37649244  1.0
  B  B8  1  0.80599679  0.17226827  0.87649244  1.0
  B  B9  1  0.80599679  0.82773173  0.37649244  1.0
  B  B10  1  0.30599679  0.67226827  0.62350756  1.0
  B  B11  1  0.30599679  0.32773173  0.12350756  1.0
  O  O12  1  0.28861790  0.35385424  0.64504137  1.0
  O  O13  1  0.28861790  0.64614576  0.14504137  1.0
  O  O14  1  0.78861790  0.85385424  0.85495863  1.0
  O  O15  1  0.78861790  0.14614576  0.35495863  1.0
  O  O16  1  0.71138210  0.35385424  0.85495863  1.0
  O  O17  1  0.71138210  0.64614576  0.35495863  1.0
  O  O18  1  0.21138210  0.85385424  0.64504137  1.0
  O  O19  1  0.21138210  0.14614576  0.14504137  1.0
  O  O20  1  0.09021354  0.26469199  0.59099052  1.0
  O  O21  1  0.09021354  0.73530801  0.09099052  1.0
  O  O22  1  0.59021354  0.76469199  0.90900948  1.0
  O  O23  1  0.59021354  0.23530801  0.40900948  1.0
  O  O24  1  0.90978646  0.26469199  0.90900948  1.0
  O  O25  1  0.90978646  0.73530801  0.40900948  1.0
  O  O26  1  0.40978646  0.76469199  0.59099052  1.0
  O  O27  1  0.40978646  0.23530801  0.09099052  1.0
