# generated using pymatgen
data_Ba8Ni6N7
_symmetry_space_group_name_H-M   'P 1'
_cell_length_a   9.65392253
_cell_length_b   9.65392253
_cell_length_c   12.07300043
_cell_angle_alpha   81.60795447
_cell_angle_beta   98.39204553
_cell_angle_gamma   59.51277659
_symmetry_Int_Tables_number   1
_chemical_formula_structural   Ba8Ni6N7
_chemical_formula_sum   'Ba16 Ni12 N14'
_cell_volume   926.74748058
_cell_formula_units_Z   2
loop_
 _symmetry_equiv_pos_site_id
 _symmetry_equiv_pos_as_xyz
  1  'x, y, z'
loop_
 _atom_site_type_symbol
 _atom_site_label
 _atom_site_symmetry_multiplicity
 _atom_site_fract_x
 _atom_site_fract_y
 _atom_site_fract_z
 _atom_site_occupancy
  Ba  Ba0  1  0.25283521  0.25283521  0.75000000  1.0
  Ba  Ba1  1  0.74716479  -0.25283521  0.25000000  1.0
  Ba  Ba2  1  0.58266529  -0.41733471  0.75000000  1.0
  Ba  Ba3  1  0.41733471  0.41733471  0.25000000  1.0
  Ba  Ba4  1  0.61734277  0.20318834  0.59919456  1.0
  Ba  Ba5  1  0.79681166  -0.61734277  0.09919456  1.0
  Ba  Ba6  1  1.20318834  -0.38265723  0.90080544  1.0
  Ba  Ba7  1  0.38265723  -0.20318834  0.40080544  1.0
  Ba  Ba8  1  0.88276026  0.05325583  0.35731811  1.0
  Ba  Ba9  1  0.94674417  -0.88276026  0.85731811  1.0
  Ba  Ba10  1  1.05325583  -0.11723974  0.14268189  1.0
  Ba  Ba11  1  0.11723974  -0.05325583  0.64268189  1.0
  Ba  Ba12  1  0.73203788  -0.13631473  0.89618017  1.0
  Ba  Ba13  1  1.13631473  -0.73203788  0.39618017  1.0
  Ba  Ba14  1  0.86368527  -0.26796212  0.60381983  1.0
  Ba  Ba15  1  0.26796212  0.13631473  0.10381983  1.0
  Ni  Ni16  1  0.55933404  0.28222101  0.88587883  1.0
  Ni  Ni17  1  0.71777899  -0.55933404  0.38587883  1.0
  Ni  Ni18  1  1.28222101  -0.44066596  0.61412117  1.0
  Ni  Ni19  1  0.44066596  -0.28222101  0.11412117  1.0
  Ni  Ni20  1  0.45905514  -0.04281025  0.63252670  1.0
  Ni  Ni21  1  1.04281025  -0.45905514  0.13252670  1.0
  Ni  Ni22  1  0.95718975  -0.54094486  0.86747330  1.0
  Ni  Ni23  1  0.54094486  0.04281025  0.36747330  1.0
  Ni  Ni24  1  0.37204253  -0.13434939  0.89921957  1.0
  Ni  Ni25  1  1.13434939  -0.37204253  0.39921957  1.0
  Ni  Ni26  1  0.86565061  -0.62795747  0.60078043  1.0
  Ni  Ni27  1  0.62795747  0.13434939  0.10078043  1.0
  N  N28  1  0.74693374  0.13753479  0.99982160  1.0
  N  N29  1  0.86246521  -0.74693374  0.49982160  1.0
  N  N30  1  1.13753479  -0.25306626  0.50017840  1.0
  N  N31  1  0.25306626  -0.13753479  0.00017840  1.0
  N  N32  1  0.50000000  0.00000000  0.50000000  1.0
  N  N33  1  1.00000000  -0.50000000  -0.00000000  1.0
  N  N34  1  0.41500903  0.41500903  0.75000000  1.0
  N  N35  1  0.58499097  -0.41500903  0.25000000  1.0
  N  N36  1  0.90707201  -0.09292799  0.75000000  1.0
  N  N37  1  0.09292799  0.09292799  0.25000000  1.0
  N  N38  1  0.43080014  -0.09268801  0.77135352  1.0
  N  N39  1  1.09268801  -0.43080014  0.27135352  1.0
  N  N40  1  0.90731199  -0.56919986  0.72864648  1.0
  N  N41  1  0.56919986  0.09268801  0.22864648  1.0
