# generated using pymatgen
data_Ba4Y2Fe2O11
_symmetry_space_group_name_H-M   'P 1'
_cell_length_a   8.16056602
_cell_length_b   12.23868175
_cell_length_c   6.10927923
_cell_angle_alpha   90.00000000
_cell_angle_beta   90.00000000
_cell_angle_gamma   90.00000000
_symmetry_Int_Tables_number   1
_chemical_formula_structural   Ba4Y2Fe2O11
_chemical_formula_sum   'Ba8 Y4 Fe4 O22'
_cell_volume   610.16163793
_cell_formula_units_Z   2
loop_
 _symmetry_equiv_pos_site_id
 _symmetry_equiv_pos_as_xyz
  1  'x, y, z'
loop_
 _atom_site_type_symbol
 _atom_site_label
 _atom_site_symmetry_multiplicity
 _atom_site_fract_x
 _atom_site_fract_y
 _atom_site_fract_z
 _atom_site_occupancy
  O  O0  1  0.50000000  0.51990199  0.59571080  1.0
  O  O1  1  0.50000000  0.48009801  0.09571080  1.0
  O  O2  1  0.77243914  0.36963926  0.81373339  1.0
  O  O3  1  0.77243914  0.63036074  0.31373339  1.0
  O  O4  1  0.22756086  0.36963926  0.81373339  1.0
  O  O5  1  0.22756086  0.63036074  0.31373339  1.0
  O  O6  1  0.00000000  0.98469323  0.49483847  1.0
  O  O7  1  0.00000000  0.01530677  -0.00516153  1.0
  O  O8  1  0.00000000  0.73620145  0.53477985  1.0
  O  O9  1  0.00000000  0.26379855  0.03477985  1.0
  O  O10  1  0.00000000  0.47679192  0.60301535  1.0
  O  O11  1  0.00000000  0.52320808  0.10301535  1.0
  O  O12  1  0.50000000  0.75217022  0.01852798  1.0
  O  O13  1  0.50000000  0.24782978  0.51852798  1.0
  O  O14  1  0.50000000  0.79174002  0.50074968  1.0
  O  O15  1  0.50000000  0.20825998  0.00074968  1.0
  O  O16  1  0.70668006  0.89246291  0.79454914  1.0
  O  O17  1  0.70668006  0.10753709  0.29454914  1.0
  O  O18  1  0.29331994  0.89246291  0.79454914  1.0
  O  O19  1  0.29331994  0.10753709  0.29454914  1.0
  O  O20  1  0.00000000  0.75614167  0.05176759  1.0
  O  O21  1  0.00000000  0.24385833  0.55176759  1.0
  Ba  Ba22  1  0.77365658  0.60702733  0.80262201  1.0
  Ba  Ba23  1  0.77365658  0.39297267  0.30262201  1.0
  Ba  Ba24  1  0.22634342  0.60702733  0.80262201  1.0
  Ba  Ba25  1  0.22634342  0.39297267  0.30262201  1.0
  Ba  Ba26  1  0.76100137  0.86800770  0.27548040  1.0
  Ba  Ba27  1  0.76100137  0.13199230  0.77548040  1.0
  Ba  Ba28  1  0.23899863  0.86800770  0.27548040  1.0
  Ba  Ba29  1  0.23899863  0.13199230  0.77548040  1.0
  Fe  Fe30  1  0.50000000  0.83932099  0.77917548  1.0
  Fe  Fe31  1  0.50000000  0.16067901  0.27917548  1.0
  Fe  Fe32  1  0.00000000  0.35999766  0.78883752  1.0
  Fe  Fe33  1  0.00000000  0.64000234  0.28883752  1.0
  Y  Y34  1  0.50000000  0.37536822  0.80676481  1.0
  Y  Y35  1  0.50000000  0.62463178  0.30676481  1.0
  Y  Y36  1  0.00000000  0.87512684  0.77626259  1.0
  Y  Y37  1  0.00000000  0.12487316  0.27626259  1.0
