# generated using pymatgen
data_NaSr3YP3O12F
_symmetry_space_group_name_H-M   'P 1'
_cell_length_a   9.64941517
_cell_length_b   9.64941517
_cell_length_c   7.17747867
_cell_angle_alpha   90.00000000
_cell_angle_beta   90.00000000
_cell_angle_gamma   120.00000000
_symmetry_Int_Tables_number   1
_chemical_formula_structural   NaSr3YP3O12F
_chemical_formula_sum   'Na2 Sr6 Y2 P6 O24 F2'
_cell_volume   578.76802229
_cell_formula_units_Z   2
loop_
 _symmetry_equiv_pos_site_id
 _symmetry_equiv_pos_as_xyz
  1  'x, y, z'
loop_
 _atom_site_type_symbol
 _atom_site_label
 _atom_site_symmetry_multiplicity
 _atom_site_fract_x
 _atom_site_fract_y
 _atom_site_fract_z
 _atom_site_occupancy
  Na  Na0  1  0.33333333  0.66666667  -0.02319503  1.0
  Na  Na1  1  0.66666667  0.33333333  1.02319503  1.0
  Sr  Sr2  1  0.98261267  0.74274347  0.23995880  1.0
  Sr  Sr3  1  0.74274347  0.76013080  0.76004120  1.0
  Sr  Sr4  1  0.76013080  0.01738733  0.23995880  1.0
  Sr  Sr5  1  0.25725653  0.23986920  0.23995880  1.0
  Sr  Sr6  1  0.01738733  0.25725653  0.76004120  1.0
  Sr  Sr7  1  0.23986920  0.98261267  0.76004120  1.0
  Y  Y8  1  0.33333333  0.66666667  0.47564352  1.0
  Y  Y9  1  0.66666667  0.33333333  0.52435648  1.0
  P  P10  1  0.37622227  0.96990581  0.26348777  1.0
  P  P11  1  0.96990581  0.59368354  0.73651223  1.0
  P  P12  1  0.59368354  0.62377773  0.26348777  1.0
  P  P13  1  0.03009419  0.40631646  0.26348777  1.0
  P  P14  1  0.62377773  0.03009419  0.73651223  1.0
  P  P15  1  0.40631646  0.37622227  0.73651223  1.0
  O  O16  1  0.27110079  0.89296314  0.44148658  1.0
  O  O17  1  0.89296314  0.62186235  0.55851342  1.0
  O  O18  1  0.62186235  0.72889921  0.44148658  1.0
  O  O19  1  0.10703686  0.37813765  0.44148658  1.0
  O  O20  1  0.72889921  0.10703686  0.55851342  1.0
  O  O21  1  0.37813765  0.27110079  0.55851342  1.0
  O  O22  1  0.26200913  0.95855385  0.10413695  1.0
  O  O23  1  0.95855385  0.69654472  0.89586305  1.0
  O  O24  1  0.69654472  0.73799087  0.10413695  1.0
  O  O25  1  0.04144615  0.30345528  0.10413695  1.0
  O  O26  1  0.73799087  0.04144615  0.89586305  1.0
  O  O27  1  0.30345528  0.26200913  0.89586305  1.0
  O  O28  1  0.45710348  0.86694218  0.22675315  1.0
  O  O29  1  0.86694218  0.40983871  0.77324685  1.0
  O  O30  1  0.40983871  0.54289652  0.22675315  1.0
  O  O31  1  0.13305782  0.59016129  0.22675315  1.0
  O  O32  1  0.54289652  0.13305782  0.77324685  1.0
  O  O33  1  0.59016129  0.45710348  0.77324685  1.0
  O  O34  1  0.64410924  0.49473194  0.28969189  1.0
  O  O35  1  0.49473194  0.85062271  0.71030811  1.0
  O  O36  1  0.85062271  0.35589076  0.28969189  1.0
  O  O37  1  0.50526806  0.14937729  0.28969189  1.0
  O  O38  1  0.35589076  0.50526806  0.71030811  1.0
  O  O39  1  0.14937729  0.64410924  0.71030811  1.0
  F  F40  1  0.00000000  0.00000000  0.28392147  1.0
  F  F41  1  0.00000000  0.00000000  0.71607853  1.0
