# generated using pymatgen
data_Cs2Cr4Cd(HO4)4
_symmetry_space_group_name_H-M   'P 1'
_cell_length_a   8.11261845
_cell_length_b   8.13195215
_cell_length_c   7.79518542
_cell_angle_alpha   118.36320979
_cell_angle_beta   97.01961876
_cell_angle_gamma   91.10005338
_symmetry_Int_Tables_number   1
_chemical_formula_structural   Cs2Cr4Cd(HO4)4
_chemical_formula_sum   'Cs2 Cr4 Cd1 H4 O16'
_cell_volume   447.37201281
_cell_formula_units_Z   1
loop_
 _symmetry_equiv_pos_site_id
 _symmetry_equiv_pos_as_xyz
  1  'x, y, z'
loop_
 _atom_site_type_symbol
 _atom_site_label
 _atom_site_symmetry_multiplicity
 _atom_site_fract_x
 _atom_site_fract_y
 _atom_site_fract_z
 _atom_site_occupancy
  Cs  Cs0  1  -0.16554446  -0.74300640  0.24612734  1.0
  Cs  Cs1  1  -0.83445554  -0.25699360  0.75387266  1.0
  Cr  Cr2  1  -0.66545382  -0.50799015  0.23627751  1.0
  Cr  Cr3  1  -0.33454618  -0.49200985  0.76372249  1.0
  Cr  Cr4  1  -0.14829421  -0.24248822  0.20841825  1.0
  Cr  Cr5  1  -0.85170579  -0.75751178  0.79158175  1.0
  Cd  Cd6  1  -0.50000000  0.00000000  0.50000000  1.0
  H  H7  1  -0.29493680  -0.16389601  0.69634326  1.0
  H  H8  1  -0.70506320  -0.83610399  0.30365674  1.0
  H  H9  1  -0.20131470  0.02824682  0.74585609  1.0
  H  H10  1  -0.79868530  -1.02824682  0.25414391  1.0
  O  O11  1  -0.21516048  -0.45454946  -0.01237047  1.0
  O  O12  1  -0.78483952  -0.54545054  1.01237047  1.0
  O  O13  1  -0.00689326  -0.12411024  0.16875066  1.0
  O  O14  1  -0.99310674  -0.87588976  0.83124934  1.0
  O  O15  1  -0.48754800  -0.58595241  0.19144478  1.0
  O  O16  1  -0.51245200  -0.41404759  0.80855522  1.0
  O  O17  1  -0.30622513  -0.11581069  0.27663327  1.0
  O  O18  1  -0.69377487  -0.88418931  0.72336673  1.0
  O  O19  1  -0.64544388  -0.28268894  0.39479343  1.0
  O  O20  1  -0.35455612  -0.71731106  0.60520657  1.0
  O  O21  1  -0.07257423  -0.29842965  0.37170932  1.0
  O  O22  1  -0.92742577  -0.70157035  0.62829068  1.0
  O  O23  1  -0.23800993  -0.37787927  0.67569327  1.0
  O  O24  1  -0.76199007  -0.62212073  0.32430673  1.0
  O  O25  1  -0.31410573  -0.03266253  0.72763867  1.0
  O  O26  1  -0.68589427  -0.96733747  0.27236133  1.0
