# generated using pymatgen
data_SrMg2Pt
_symmetry_space_group_name_H-M   'P 1'
_cell_length_a   6.05039355
_cell_length_b   6.05039355
_cell_length_c   8.16714960
_cell_angle_alpha   90.00000000
_cell_angle_beta   90.00000000
_cell_angle_gamma   137.75991596
_symmetry_Int_Tables_number   1
_chemical_formula_structural   SrMg2Pt
_chemical_formula_sum   'Sr2 Mg4 Pt2'
_cell_volume   200.98389749
_cell_formula_units_Z   2
loop_
 _symmetry_equiv_pos_site_id
 _symmetry_equiv_pos_as_xyz
  1  'x, y, z'
loop_
 _atom_site_type_symbol
 _atom_site_label
 _atom_site_symmetry_multiplicity
 _atom_site_fract_x
 _atom_site_fract_y
 _atom_site_fract_z
 _atom_site_occupancy
  Sr  Sr0  1  0.44737664  0.55262336  0.75000000  1.0
  Sr  Sr1  1  -0.44737664  0.44737664  0.25000000  1.0
  Mg  Mg2  1  0.16748445  0.83251555  0.93937062  1.0
  Mg  Mg3  1  0.16748445  0.83251555  0.56062938  1.0
  Mg  Mg4  1  -0.16748445  0.16748445  0.43937062  1.0
  Mg  Mg5  1  -0.16748445  0.16748445  0.06062938  1.0
  Pt  Pt6  1  -0.26951049  0.26951049  0.75000000  1.0
  Pt  Pt7  1  0.26951049  0.73048951  0.25000000  1.0
