# generated using pymatgen
data_KNO3
_symmetry_space_group_name_H-M   'P 1'
_cell_length_a   8.30015759
_cell_length_b   5.64166942
_cell_length_c   7.25531206
_cell_angle_alpha   90.00000000
_cell_angle_beta   90.00000000
_cell_angle_gamma   90.00000000
_symmetry_Int_Tables_number   1
_chemical_formula_structural   KNO3
_chemical_formula_sum   'K4 N4 O12'
_cell_volume   339.74264946
_cell_formula_units_Z   4
loop_
 _symmetry_equiv_pos_site_id
 _symmetry_equiv_pos_as_xyz
  1  'x, y, z'
loop_
 _atom_site_type_symbol
 _atom_site_label
 _atom_site_symmetry_multiplicity
 _atom_site_fract_x
 _atom_site_fract_y
 _atom_site_fract_z
 _atom_site_occupancy
  K  K0  1  0.83985939  0.75000000  0.63833606  1.0
  K  K1  1  0.33985939  0.75000000  -0.13833606  1.0
  K  K2  1  0.16014061  0.25000000  0.36166394  1.0
  K  K3  1  0.66014061  0.25000000  0.13833606  1.0
  N  N4  1  0.37699061  0.75000000  0.31342557  1.0
  N  N5  1  -0.12300939  0.75000000  0.18657443  1.0
  N  N6  1  0.62300939  0.25000000  0.68657443  1.0
  N  N7  1  0.12300939  0.25000000  0.81342558  1.0
  O  O8  1  0.30476156  0.75000000  0.46565783  1.0
  O  O9  1  0.80476156  0.75000000  0.03434217  1.0
  O  O10  1  0.69523844  0.25000000  0.53434217  1.0
  O  O11  1  0.19523844  0.25000000  0.96565783  1.0
  O  O12  1  1.08863992  0.44403351  0.73454445  1.0
  O  O13  1  0.58863992  0.05596649  0.76545555  1.0
  O  O14  1  -0.08863992  0.94403351  0.26545555  1.0
  O  O15  1  0.41136008  0.55596649  0.23454445  1.0
  O  O16  1  -0.08863992  0.55596649  0.26545555  1.0
  O  O17  1  0.41136008  0.94403351  0.23454445  1.0
  O  O18  1  1.08863992  0.05596649  0.73454445  1.0
  O  O19  1  0.58863992  0.44403351  0.76545555  1.0
