# generated using pymatgen
data_RbSF5
_symmetry_space_group_name_H-M   'P 1'
_cell_length_a   10.45551006
_cell_length_b   6.27155628
_cell_length_c   7.86758076
_cell_angle_alpha   90.00000000
_cell_angle_beta   90.00000000
_cell_angle_gamma   90.00000000
_symmetry_Int_Tables_number   1
_chemical_formula_structural   RbSF5
_chemical_formula_sum   'Rb4 S4 F20'
_cell_volume   515.89552174
_cell_formula_units_Z   4
loop_
 _symmetry_equiv_pos_site_id
 _symmetry_equiv_pos_as_xyz
  1  'x, y, z'
loop_
 _atom_site_type_symbol
 _atom_site_label
 _atom_site_symmetry_multiplicity
 _atom_site_fract_x
 _atom_site_fract_y
 _atom_site_fract_z
 _atom_site_occupancy
  Rb  Rb0  1  0.34655815  0.75000000  0.15383470  1.0
  Rb  Rb1  1  0.84655815  0.75000000  0.34616530  1.0
  Rb  Rb2  1  0.65344185  0.25000000  0.84616530  1.0
  Rb  Rb3  1  0.15344185  0.25000000  0.65383470  1.0
  S  S4  1  0.40337394  0.75000000  0.65579947  1.0
  S  S5  1  0.90337394  0.75000000  0.84420053  1.0
  S  S6  1  0.59662606  0.25000000  0.34420053  1.0
  S  S7  1  0.09662606  0.25000000  0.15579947  1.0
  F  F8  1  0.43275108  0.95133568  0.81245983  1.0
  F  F9  1  0.43275108  0.54866432  0.81245983  1.0
  F  F10  1  0.93275108  0.95133568  0.68754017  1.0
  F  F11  1  0.93275108  0.54866432  0.68754017  1.0
  F  F12  1  0.56724892  0.45133568  0.18754017  1.0
  F  F13  1  0.56724892  0.04866432  0.18754017  1.0
  F  F14  1  0.06724892  0.45133568  0.31245983  1.0
  F  F15  1  0.06724892  0.04866432  0.31245983  1.0
  F  F16  1  0.84876527  0.94818359  0.98726470  1.0
  F  F17  1  0.84876527  0.55181641  0.98726470  1.0
  F  F18  1  0.34876527  0.94818359  0.51273530  1.0
  F  F19  1  0.34876527  0.55181641  0.51273530  1.0
  F  F20  1  0.15123473  0.44818359  0.01273530  1.0
  F  F21  1  0.15123473  0.05181641  0.01273530  1.0
  F  F22  1  0.65123473  0.44818359  0.48726470  1.0
  F  F23  1  0.65123473  0.05181641  0.48726470  1.0
  F  F24  1  0.25750331  0.75000000  0.72954640  1.0
  F  F25  1  0.75750331  0.75000000  0.77045360  1.0
  F  F26  1  0.74249669  0.25000000  0.27045360  1.0
  F  F27  1  0.24249669  0.25000000  0.22954640  1.0
