# generated using pymatgen
data_Ba3LaRu2O9
_symmetry_space_group_name_H-M   'P 1'
_cell_length_a   5.99877078
_cell_length_b   5.99877078
_cell_length_c   15.10565498
_cell_angle_alpha   90.00000000
_cell_angle_beta   90.00000000
_cell_angle_gamma   120.00000000
_symmetry_Int_Tables_number   1
_chemical_formula_structural   Ba3LaRu2O9
_chemical_formula_sum   'Ba6 La2 Ru4 O18'
_cell_volume   470.75476754
_cell_formula_units_Z   2
loop_
 _symmetry_equiv_pos_site_id
 _symmetry_equiv_pos_as_xyz
  1  'x, y, z'
loop_
 _atom_site_type_symbol
 _atom_site_label
 _atom_site_symmetry_multiplicity
 _atom_site_fract_x
 _atom_site_fract_y
 _atom_site_fract_z
 _atom_site_occupancy
  Ba  Ba0  1  0.33333333  0.66666667  0.39079110  1.0
  Ba  Ba1  1  0.33333333  0.66666667  0.10920890  1.0
  Ba  Ba2  1  0.66666667  0.33333333  0.89079110  1.0
  Ba  Ba3  1  0.66666667  0.33333333  0.60920890  1.0
  Ba  Ba4  1  0.00000000  0.00000000  0.25000000  1.0
  Ba  Ba5  1  0.00000000  0.00000000  0.75000000  1.0
  La  La6  1  0.00000000  0.00000000  0.50000000  1.0
  La  La7  1  0.00000000  0.00000000  0.00000000  1.0
  Ru  Ru8  1  0.33333333  0.66666667  0.83202669  1.0
  Ru  Ru9  1  0.33333333  0.66666667  0.66797331  1.0
  Ru  Ru10  1  0.66666667  0.33333333  0.33202669  1.0
  Ru  Ru11  1  0.66666667  0.33333333  0.16797331  1.0
  O  O12  1  0.17862829  0.82137171  0.90399010  1.0
  O  O13  1  0.17862829  0.82137171  0.59600990  1.0
  O  O14  1  0.17862829  0.35725659  0.90399010  1.0
  O  O15  1  0.17862829  0.35725659  0.59600990  1.0
  O  O16  1  0.82137171  0.17862829  0.40399010  1.0
  O  O17  1  0.82137171  0.17862829  0.09600990  1.0
  O  O18  1  0.82137171  0.64274341  0.40399010  1.0
  O  O19  1  0.82137171  0.64274341  0.09600990  1.0
  O  O20  1  0.64274341  0.82137171  0.90399010  1.0
  O  O21  1  0.64274341  0.82137171  0.59600990  1.0
  O  O22  1  0.35725659  0.17862829  0.40399010  1.0
  O  O23  1  0.35725659  0.17862829  0.09600990  1.0
  O  O24  1  0.50831537  0.49168463  0.25000000  1.0
  O  O25  1  0.50831537  0.01663073  0.25000000  1.0
  O  O26  1  0.49168463  0.50831537  0.75000000  1.0
  O  O27  1  0.49168463  0.98336927  0.75000000  1.0
  O  O28  1  0.98336927  0.49168463  0.25000000  1.0
  O  O29  1  0.01663073  0.50831537  0.75000000  1.0
