# generated using pymatgen
data_CaMo2(PO4)3
_symmetry_space_group_name_H-M   'P 1'
_cell_length_a   9.00079065
_cell_length_b   9.00079065
_cell_length_c   9.00079065
_cell_angle_alpha   58.60256961
_cell_angle_beta   58.60256961
_cell_angle_gamma   58.60256961
_symmetry_Int_Tables_number   1
_chemical_formula_structural   CaMo2(PO4)3
_chemical_formula_sum   'Ca2 Mo4 P6 O24'
_cell_volume   499.14329928
_cell_formula_units_Z   2
loop_
 _symmetry_equiv_pos_site_id
 _symmetry_equiv_pos_as_xyz
  1  'x, y, z'
loop_
 _atom_site_type_symbol
 _atom_site_label
 _atom_site_symmetry_multiplicity
 _atom_site_fract_x
 _atom_site_fract_y
 _atom_site_fract_z
 _atom_site_occupancy
  Ca  Ca0  1  1.00000000  0.00000000  -0.00000000  1.0
  Ca  Ca1  1  0.50000000  0.50000000  0.50000000  1.0
  Mo  Mo2  1  0.85568895  -0.14431105  -0.14431105  1.0
  Mo  Mo3  1  0.35568895  0.35568895  0.35568895  1.0
  Mo  Mo4  1  0.64431105  0.64431105  -0.35568895  1.0
  Mo  Mo5  1  1.14431105  0.14431105  0.14431105  1.0
  P  P6  1  0.45971886  0.75000000  0.04028114  1.0
  P  P7  1  0.95971886  -0.45971886  0.25000000  1.0
  P  P8  1  0.25000000  0.95971886  -0.45971886  1.0
  P  P9  1  0.75000000  1.04028115  -0.54028115  1.0
  P  P10  1  0.54028114  0.25000000  -0.04028114  1.0
  P  P11  1  1.04028114  0.45971886  -0.25000000  1.0
  O  O12  1  0.79813883  1.00847602  -0.38286338  1.0
  O  O13  1  1.29813883  0.11713662  -0.49152398  1.0
  O  O14  1  0.88286338  0.49152398  -0.29813883  1.0
  O  O15  1  0.38286338  0.20186117  -0.00847602  1.0
  O  O16  1  0.99152398  0.38286338  -0.79813883  1.0
  O  O17  1  0.49152398  0.70186117  -0.11713662  1.0
  O  O18  1  0.20186117  0.99152398  -0.61713662  1.0
  O  O19  1  0.70186117  0.88286338  -0.50847602  1.0
  O  O20  1  0.61713662  0.79813883  0.00847602  1.0
  O  O21  1  1.11713662  -0.49152398  0.29813883  1.0
  O  O22  1  0.50847602  0.29813883  0.11713662  1.0
  O  O23  1  1.00847602  0.61713662  -0.20186117  1.0
  O  O24  1  0.72914384  0.08533045  -0.06129386  1.0
  O  O25  1  1.22914384  0.43870614  -0.41466955  1.0
  O  O26  1  0.56129386  0.41466955  -0.22914384  1.0
  O  O27  1  1.06129386  0.27085616  -0.08533045  1.0
  O  O28  1  0.91466955  0.06129386  0.27085616  1.0
  O  O29  1  0.41466955  0.77085616  -0.43870614  1.0
  O  O30  1  1.27085616  -0.08533045  0.06129386  1.0
  O  O31  1  0.77085616  0.56129386  -0.58533045  1.0
  O  O32  1  0.93870614  -0.27085616  0.08533045  1.0
  O  O33  1  0.43870614  0.58533045  0.22914384  1.0
  O  O34  1  0.58533045  1.22914384  -0.56129386  1.0
  O  O35  1  1.08533045  -0.06129386  -0.27085616  1.0
