# generated using pymatgen
data_Gd2ReO5
_symmetry_space_group_name_H-M   'P 1'
_cell_length_a   8.63645432
_cell_length_b   8.63645432
_cell_length_c   5.78278827
_cell_angle_alpha   90.00000000
_cell_angle_beta   90.00000000
_cell_angle_gamma   90.00000000
_symmetry_Int_Tables_number   1
_chemical_formula_structural   Gd2ReO5
_chemical_formula_sum   'Gd8 Re4 O20'
_cell_volume   431.32859595
_cell_formula_units_Z   4
loop_
 _symmetry_equiv_pos_site_id
 _symmetry_equiv_pos_as_xyz
  1  'x, y, z'
loop_
 _atom_site_type_symbol
 _atom_site_label
 _atom_site_symmetry_multiplicity
 _atom_site_fract_x
 _atom_site_fract_y
 _atom_site_fract_z
 _atom_site_occupancy
  Gd  Gd0  1  0.64126491  0.34941689  0.75018902  1.0
  Gd  Gd1  1  0.35873509  0.65058311  0.75018902  1.0
  Gd  Gd2  1  0.84941689  0.85873509  0.75018902  1.0
  Gd  Gd3  1  0.15058311  0.14126491  0.75018902  1.0
  Gd  Gd4  1  0.85873509  0.15058311  0.24981098  1.0
  Gd  Gd5  1  0.14126491  0.84941689  0.24981098  1.0
  Gd  Gd6  1  0.65058311  0.64126491  0.24981098  1.0
  Gd  Gd7  1  0.34941689  0.35873509  0.24981098  1.0
  Re  Re8  1  0.00000000  0.50000000  0.85207620  1.0
  Re  Re9  1  0.50000000  0.00000000  0.14792380  1.0
  Re  Re10  1  0.00000000  0.50000000  0.46176597  1.0
  Re  Re11  1  0.50000000  0.00000000  0.53823403  1.0
  O  O12  1  0.09179842  0.30009854  0.40042437  1.0
  O  O13  1  0.90820158  0.69990146  0.40042437  1.0
  O  O14  1  0.80009854  0.40820158  0.40042437  1.0
  O  O15  1  0.19990146  0.59179842  0.40042437  1.0
  O  O16  1  0.40820158  0.19990146  0.59957563  1.0
  O  O17  1  0.59179842  0.80009854  0.59957563  1.0
  O  O18  1  0.69990146  0.09179842  0.59957563  1.0
  O  O19  1  0.30009854  0.90820158  0.59957563  1.0
  O  O20  1  0.19940874  0.40573043  0.90505613  1.0
  O  O21  1  0.80059126  0.59426957  0.90505613  1.0
  O  O22  1  0.90573043  0.30059126  0.90505613  1.0
  O  O23  1  0.09426957  0.69940874  0.90505613  1.0
  O  O24  1  0.30059126  0.09426957  0.09494387  1.0
  O  O25  1  0.69940874  0.90573043  0.09494387  1.0
  O  O26  1  0.59426957  0.19940874  0.09494387  1.0
  O  O27  1  0.40573043  0.80059126  0.09494387  1.0
  O  O28  1  0.50000000  0.50000000  0.50000000  1.0
  O  O29  1  0.00000000  0.00000000  0.50000000  1.0
  O  O30  1  0.50000000  0.50000000  0.00000000  1.0
  O  O31  1  0.00000000  0.00000000  0.00000000  1.0
