# generated using pymatgen
data_Si3Mo5
_symmetry_space_group_name_H-M   'P 1'
_cell_length_a   7.29585242
_cell_length_b   7.29585242
_cell_length_c   5.06169168
_cell_angle_alpha   90.00000000
_cell_angle_beta   90.00000000
_cell_angle_gamma   120.00000000
_symmetry_Int_Tables_number   1
_chemical_formula_structural   Si3Mo5
_chemical_formula_sum   'Si6 Mo10'
_cell_volume   233.33420131
_cell_formula_units_Z   2
loop_
 _symmetry_equiv_pos_site_id
 _symmetry_equiv_pos_as_xyz
  1  'x, y, z'
loop_
 _atom_site_type_symbol
 _atom_site_label
 _atom_site_symmetry_multiplicity
 _atom_site_fract_x
 _atom_site_fract_y
 _atom_site_fract_z
 _atom_site_occupancy
  Si  Si0  1  0.39436938  0.39436938  0.25000000  1.0
  Si  Si1  1  0.39436938  -0.00000000  0.75000000  1.0
  Si  Si2  1  -0.00000000  0.39436938  0.75000000  1.0
  Si  Si3  1  0.00000000  0.60563062  0.25000000  1.0
  Si  Si4  1  0.60563062  0.60563062  0.75000000  1.0
  Si  Si5  1  0.60563062  0.00000000  0.25000000  1.0
  Mo  Mo6  1  0.75998299  0.75998299  0.25000000  1.0
  Mo  Mo7  1  0.75998299  0.00000000  0.75000000  1.0
  Mo  Mo8  1  0.00000000  0.75998299  0.75000000  1.0
  Mo  Mo9  1  -0.00000000  0.24001701  0.25000000  1.0
  Mo  Mo10  1  0.24001701  0.24001701  0.75000000  1.0
  Mo  Mo11  1  0.24001701  -0.00000000  0.25000000  1.0
  Mo  Mo12  1  0.33333333  0.66666667  0.50000000  1.0
  Mo  Mo13  1  0.33333333  0.66666667  0.00000000  1.0
  Mo  Mo14  1  0.66666667  0.33333333  0.50000000  1.0
  Mo  Mo15  1  0.66666667  0.33333333  -0.00000000  1.0
