# generated using pymatgen
data_LiH2N
_symmetry_space_group_name_H-M   'P 1'
_cell_length_a   8.10951066
_cell_length_b   5.04461586
_cell_length_c   3.50628061
_cell_angle_alpha   90.00000000
_cell_angle_beta   90.00000000
_cell_angle_gamma   90.00000000
_symmetry_Int_Tables_number   1
_chemical_formula_structural   LiH2N
_chemical_formula_sum   'Li4 H8 N4'
_cell_volume   143.43971683
_cell_formula_units_Z   4
loop_
 _symmetry_equiv_pos_site_id
 _symmetry_equiv_pos_as_xyz
  1  'x, y, z'
loop_
 _atom_site_type_symbol
 _atom_site_label
 _atom_site_symmetry_multiplicity
 _atom_site_fract_x
 _atom_site_fract_y
 _atom_site_fract_z
 _atom_site_occupancy
  Li  Li0  1  0.00000000  -0.00000000  0.00000000  1.0
  Li  Li1  1  0.00000000  0.50000000  0.00000000  1.0
  Li  Li2  1  0.50000000  0.50000000  0.50000000  1.0
  Li  Li3  1  0.50000000  0.00000000  0.50000000  1.0
  H  H4  1  0.32903412  0.25000000  0.99990818  1.0
  H  H5  1  0.67096588  0.75000000  0.00009182  1.0
  H  H6  1  0.17096588  0.75000000  0.49990818  1.0
  H  H7  1  0.82903412  0.25000000  0.50009182  1.0
  H  H8  1  0.50000000  0.50000000  0.00000000  1.0
  H  H9  1  0.50000000  0.00000000  -0.00000000  1.0
  H  H10  1  0.00000000  0.00000000  0.50000000  1.0
  H  H11  1  -0.00000000  0.50000000  0.50000000  1.0
  N  N12  1  0.45633098  0.25000000  0.00029026  1.0
  N  N13  1  0.54366902  0.75000000  0.99970974  1.0
  N  N14  1  0.04366902  0.75000000  0.50029026  1.0
  N  N15  1  0.95633098  0.25000000  0.49970974  1.0
