# generated using pymatgen
data_Ba3Nb2CoO9
_symmetry_space_group_name_H-M   'P 1'
_cell_length_a   5.80806782
_cell_length_b   5.80806782
_cell_length_c   7.13019099
_cell_angle_alpha   90.00000000
_cell_angle_beta   90.00000000
_cell_angle_gamma   120.00000000
_symmetry_Int_Tables_number   1
_chemical_formula_structural   Ba3Nb2CoO9
_chemical_formula_sum   'Ba3 Nb2 Co1 O9'
_cell_volume   208.30282116
_cell_formula_units_Z   1
loop_
 _symmetry_equiv_pos_site_id
 _symmetry_equiv_pos_as_xyz
  1  'x, y, z'
loop_
 _atom_site_type_symbol
 _atom_site_label
 _atom_site_symmetry_multiplicity
 _atom_site_fract_x
 _atom_site_fract_y
 _atom_site_fract_z
 _atom_site_occupancy
  Ba  Ba0  1  0.33333333  0.66666667  0.66484636  1.0
  Ba  Ba1  1  0.66666667  0.33333333  0.33515364  1.0
  Ba  Ba2  1  0.00000000  0.00000000  0.00000000  1.0
  Nb  Nb3  1  0.33333333  0.66666667  0.17826984  1.0
  Nb  Nb4  1  0.66666667  0.33333333  0.82173016  1.0
  Co  Co5  1  0.00000000  0.00000000  0.50000000  1.0
  O  O6  1  0.65787199  0.82893599  0.32671026  1.0
  O  O7  1  0.82893599  0.65787199  0.67328974  1.0
  O  O8  1  0.82893599  0.17106401  0.67328974  1.0
  O  O9  1  0.17106401  0.82893599  0.32671026  1.0
  O  O10  1  0.17106401  0.34212801  0.32671026  1.0
  O  O11  1  0.34212801  0.17106401  0.67328974  1.0
  O  O12  1  0.50000000  0.50000000  0.00000000  1.0
  O  O13  1  0.50000000  0.00000000  0.00000000  1.0
  O  O14  1  0.00000000  0.50000000  0.00000000  1.0
