# generated using pymatgen
data_NiBiPO5
_symmetry_space_group_name_H-M   'P 1'
_cell_length_a   5.23892082
_cell_length_b   11.32828586
_cell_length_c   7.63197623
_cell_angle_alpha   90.00000000
_cell_angle_beta   113.90919292
_cell_angle_gamma   90.00000000
_symmetry_Int_Tables_number   1
_chemical_formula_structural   NiBiPO5
_chemical_formula_sum   'Ni4 Bi4 P4 O20'
_cell_volume   414.07499575
_cell_formula_units_Z   4
loop_
 _symmetry_equiv_pos_site_id
 _symmetry_equiv_pos_as_xyz
  1  'x, y, z'
loop_
 _atom_site_type_symbol
 _atom_site_label
 _atom_site_symmetry_multiplicity
 _atom_site_fract_x
 _atom_site_fract_y
 _atom_site_fract_z
 _atom_site_occupancy
  P  P0  1  0.69132380  0.34816086  0.47565173  1.0
  P  P1  1  0.69132380  0.15183914  0.97565173  1.0
  P  P2  1  0.30867620  0.84816086  0.02434827  1.0
  P  P3  1  0.30867620  0.65183915  0.52434827  1.0
  O  O4  1  0.82040232  0.27872069  0.01221643  1.0
  O  O5  1  0.82040232  0.22127931  0.51221643  1.0
  O  O6  1  0.17959768  0.77872069  0.48778357  1.0
  O  O7  1  0.17959768  0.72127931  0.98778357  1.0
  O  O8  1  0.79098274  0.41927784  0.34028656  1.0
  O  O9  1  0.79098274  0.08072216  0.84028656  1.0
  O  O10  1  0.20901726  0.91927784  0.15971344  1.0
  O  O11  1  0.20901726  0.58072216  0.65971344  1.0
  O  O12  1  0.77156508  0.08304680  0.16837386  1.0
  O  O13  1  0.77156508  0.41695320  0.66837386  1.0
  O  O14  1  0.22843492  0.58304680  0.33162614  1.0
  O  O15  1  0.22843492  0.91695320  0.83162614  1.0
  O  O16  1  0.36787159  0.32691345  0.38281054  1.0
  O  O17  1  0.36787159  0.17308655  0.88281054  1.0
  O  O18  1  0.63212841  0.82691345  0.11718946  1.0
  O  O19  1  0.63212841  0.67308655  0.61718946  1.0
  O  O20  1  0.74306106  0.97610070  0.48473271  1.0
  O  O21  1  0.74306106  0.52389930  0.98473271  1.0
  O  O22  1  0.25693894  0.47610070  0.01526729  1.0
  O  O23  1  0.25693894  0.02389930  0.51526729  1.0
  Ni  Ni24  1  0.94387966  0.92295550  0.31582685  1.0
  Ni  Ni25  1  0.94387966  0.57704450  0.81582685  1.0
  Ni  Ni26  1  0.05612034  0.42295550  0.18417315  1.0
  Ni  Ni27  1  0.05612034  0.07704450  0.68417315  1.0
  Bi  Bi28  1  0.42211619  0.10170370  0.30990109  1.0
  Bi  Bi29  1  0.42211619  0.39829630  0.80990109  1.0
  Bi  Bi30  1  0.57788381  0.60170370  0.19009891  1.0
  Bi  Bi31  1  0.57788381  0.89829630  0.69009891  1.0
