# generated using pymatgen
data_BaLaCuBO5
_symmetry_space_group_name_H-M   'P 1'
_cell_length_a   5.59732413
_cell_length_b   5.59732413
_cell_length_c   7.68039965
_cell_angle_alpha   90.00000000
_cell_angle_beta   90.00000000
_cell_angle_gamma   90.00000000
_symmetry_Int_Tables_number   1
_chemical_formula_structural   BaLaCuBO5
_chemical_formula_sum   'Ba2 La2 Cu2 B2 O10'
_cell_volume   240.62720860
_cell_formula_units_Z   2
loop_
 _symmetry_equiv_pos_site_id
 _symmetry_equiv_pos_as_xyz
  1  'x, y, z'
loop_
 _atom_site_type_symbol
 _atom_site_label
 _atom_site_symmetry_multiplicity
 _atom_site_fract_x
 _atom_site_fract_y
 _atom_site_fract_z
 _atom_site_occupancy
  Ba  Ba0  1  0.50000000  0.50000000  0.00576949  1.0
  Ba  Ba1  1  0.00000000  0.00000000  0.00576949  1.0
  La  La2  1  0.50000000  0.50000000  0.51192589  1.0
  La  La3  1  0.00000000  0.00000000  0.51192589  1.0
  Cu  Cu4  1  0.00000000  0.50000000  0.73972188  1.0
  Cu  Cu5  1  0.50000000  0.00000000  0.73972188  1.0
  B  B6  1  0.00000000  0.50000000  0.24661541  1.0
  B  B7  1  0.50000000  0.00000000  0.24661541  1.0
  O  O8  1  0.34618529  0.15381471  0.33381113  1.0
  O  O9  1  0.84618529  0.34618529  0.33381113  1.0
  O  O10  1  0.65381471  0.84618529  0.33381113  1.0
  O  O11  1  0.15381471  0.65381471  0.33381113  1.0
  O  O12  1  0.24815428  0.25184572  0.72305978  1.0
  O  O13  1  0.74815428  0.24815428  0.72305978  1.0
  O  O14  1  0.75184572  0.74815428  0.72305978  1.0
  O  O15  1  0.25184572  0.75184572  0.72305978  1.0
  O  O16  1  0.00000000  0.50000000  0.06522551  1.0
  O  O17  1  0.50000000  0.00000000  0.06522551  1.0
