# generated using pymatgen
data_IrO2
_symmetry_space_group_name_H-M   'P 1'
_cell_length_a   5.46209088
_cell_length_b   9.15727007
_cell_length_c   5.56365304
_cell_angle_alpha   90.00000000
_cell_angle_beta   90.00000000
_cell_angle_gamma   90.00000000
_symmetry_Int_Tables_number   1
_chemical_formula_structural   IrO2
_chemical_formula_sum   'Ir8 O16'
_cell_volume   278.28191522
_cell_formula_units_Z   8
loop_
 _symmetry_equiv_pos_site_id
 _symmetry_equiv_pos_as_xyz
  1  'x, y, z'
loop_
 _atom_site_type_symbol
 _atom_site_label
 _atom_site_symmetry_multiplicity
 _atom_site_fract_x
 _atom_site_fract_y
 _atom_site_fract_z
 _atom_site_occupancy
  Ir  Ir0  1  0.37290906  0.63129692  0.88292941  1.0
  Ir  Ir1  1  0.62709094  0.13129692  0.61707059  1.0
  Ir  Ir2  1  0.12709094  0.36870308  0.38292941  1.0
  Ir  Ir3  1  0.87290906  0.86870308  0.11707059  1.0
  Ir  Ir4  1  0.62709094  0.36870308  0.11707059  1.0
  Ir  Ir5  1  0.37290906  0.86870308  0.38292941  1.0
  Ir  Ir6  1  0.87290906  0.63129692  0.61707059  1.0
  Ir  Ir7  1  0.12709094  0.13129692  0.88292941  1.0
  O  O8  1  0.68059139  0.51437122  0.85315915  1.0
  O  O9  1  0.31940861  0.01437122  0.64684085  1.0
  O  O10  1  0.81940861  0.48562878  0.35315915  1.0
  O  O11  1  0.18059139  0.98562878  0.14684085  1.0
  O  O12  1  0.31940861  0.48562878  0.14684085  1.0
  O  O13  1  0.68059139  0.98562878  0.35315915  1.0
  O  O14  1  0.18059139  0.51437122  0.64684085  1.0
  O  O15  1  0.81940861  0.01437122  0.85315915  1.0
  O  O16  1  0.03542356  0.73887552  0.88111301  1.0
  O  O17  1  0.96457644  0.23887552  0.61888699  1.0
  O  O18  1  0.46457644  0.26112448  0.38111301  1.0
  O  O19  1  0.53542356  0.76112448  0.11888699  1.0
  O  O20  1  0.96457644  0.26112448  0.11888699  1.0
  O  O21  1  0.03542356  0.76112448  0.38111301  1.0
  O  O22  1  0.53542356  0.73887552  0.61888699  1.0
  O  O23  1  0.46457644  0.23887552  0.88111301  1.0
