# generated using pymatgen
data_K2Na2Eu4Ta2O13
_symmetry_space_group_name_H-M   'P 1'
_cell_length_a   12.56134705
_cell_length_b   12.56134705
_cell_length_c   11.33658224
_cell_angle_alpha   64.21153965
_cell_angle_beta   115.78846035
_cell_angle_gamma   153.67528177
_symmetry_Int_Tables_number   1
_chemical_formula_structural   K2Na2Eu4Ta2O13
_chemical_formula_sum   'K4 Na4 Eu8 Ta4 O26'
_cell_volume   709.66821573
_cell_formula_units_Z   2
loop_
 _symmetry_equiv_pos_site_id
 _symmetry_equiv_pos_as_xyz
  1  'x, y, z'
loop_
 _atom_site_type_symbol
 _atom_site_label
 _atom_site_symmetry_multiplicity
 _atom_site_fract_x
 _atom_site_fract_y
 _atom_site_fract_z
 _atom_site_occupancy
  K  K0  1  1.70295887  0.20406265  0.63206708  1.0
  K  K1  1  0.79593735  -0.70295887  0.13206708  1.0
  K  K2  1  1.20406265  -0.29704113  0.86793292  1.0
  K  K3  1  1.29704113  -0.20406265  0.36793292  1.0
  Eu  Eu4  1  1.47883089  -0.39633482  0.55218658  1.0
  Eu  Eu5  1  1.39633482  -0.47883089  0.05218658  1.0
  Eu  Eu6  1  0.60366518  -0.52116911  0.94781342  1.0
  Eu  Eu7  1  1.52116911  0.39633482  0.44781342  1.0
  Eu  Eu8  1  1.90452830  0.02904526  0.82607150  1.0
  Eu  Eu9  1  0.97095474  -0.90452830  0.32607150  1.0
  Eu  Eu10  1  1.02904526  -0.09547170  0.67392850  1.0
  Eu  Eu11  1  1.09547170  -0.02904526  0.17392850  1.0
  O  O12  1  1.56144648  -0.17901176  0.86307434  1.0
  O  O13  1  1.17901176  -0.56144648  0.36307434  1.0
  O  O14  1  0.82098824  -0.43855352  0.63692566  1.0
  O  O15  1  1.43855352  0.17901176  0.13692566  1.0
  O  O16  1  1.59292134  -0.14017707  0.62527979  1.0
  O  O17  1  1.14017707  -0.59292134  0.12527979  1.0
  O  O18  1  0.85982293  -0.40707866  0.87472021  1.0
  O  O19  1  1.40707866  0.14017707  0.37472021  1.0
  O  O20  1  1.67656067  0.20722963  0.87428232  1.0
  O  O21  1  0.79277037  -0.67656067  0.37428232  1.0
  O  O22  1  1.20722963  -0.32343933  0.62571768  1.0
  O  O23  1  1.32343933  -0.20722963  0.12571768  1.0
  O  O24  1  1.35880795  0.09594081  0.64147988  1.0
  O  O25  1  0.90405919  -0.35880795  0.14147988  1.0
  O  O26  1  1.09594081  -0.64119205  0.85852012  1.0
  O  O27  1  1.64119205  -0.09594081  0.35852012  1.0
  O  O28  1  1.37279160  0.16866795  0.84125712  1.0
  O  O29  1  0.83133205  -0.37279160  0.34125712  1.0
  O  O30  1  1.16866795  -0.62720840  0.65874288  1.0
  O  O31  1  1.62720840  -0.16866795  0.15874288  1.0
  O  O32  1  1.24982156  0.24809685  0.97864529  1.0
  O  O33  1  0.75190315  -0.24982156  0.47864529  1.0
  O  O34  1  1.24809685  -0.75017844  0.52135471  1.0
  O  O35  1  1.75017844  -0.24809685  0.02135471  1.0
  O  O36  1  0.75927752  0.75927752  0.75000000  1.0
  O  O37  1  0.24072248  0.24072248  0.25000000  1.0
  Ta  Ta38  1  1.61906419  0.31855912  0.78055498  1.0
  Ta  Ta39  1  0.68144088  -0.61906419  0.28055498  1.0
  Ta  Ta40  1  1.31855912  -0.38093581  0.71944502  1.0
  Ta  Ta41  1  1.38093581  -0.31855912  0.21944502  1.0
  Na  Na42  1  1.80648692  0.12395871  0.97629274  1.0
  Na  Na43  1  0.87604129  -0.80648692  0.47629274  1.0
  Na  Na44  1  1.12395871  -0.19351308  0.52370726  1.0
  Na  Na45  1  1.19351308  -0.12395871  0.02370726  1.0
