# generated using pymatgen
data_Gd2B6Os
_symmetry_space_group_name_H-M   'P 1'
_cell_length_a   9.23647150
_cell_length_b   11.59079180
_cell_length_c   3.68618524
_cell_angle_alpha   90.00000000
_cell_angle_beta   90.00000000
_cell_angle_gamma   90.00000000
_symmetry_Int_Tables_number   1
_chemical_formula_structural   Gd2B6Os
_chemical_formula_sum   'Gd8 B24 Os4'
_cell_volume   394.63568550
_cell_formula_units_Z   4
loop_
 _symmetry_equiv_pos_site_id
 _symmetry_equiv_pos_as_xyz
  1  'x, y, z'
loop_
 _atom_site_type_symbol
 _atom_site_label
 _atom_site_symmetry_multiplicity
 _atom_site_fract_x
 _atom_site_fract_y
 _atom_site_fract_z
 _atom_site_occupancy
  Os  Os0  1  0.36221374  0.67831186  0.50000000  1.0
  Os  Os1  1  0.86221374  0.82168814  0.50000000  1.0
  Os  Os2  1  0.63778626  0.32168814  0.50000000  1.0
  Os  Os3  1  0.13778626  0.17831186  0.50000000  1.0
  B  B4  1  0.44610809  0.56784869  0.00000000  1.0
  B  B5  1  0.94610809  0.93215131  0.00000000  1.0
  B  B6  1  0.55389191  0.43215131  0.00000000  1.0
  B  B7  1  0.05389191  0.06784869  0.00000000  1.0
  B  B8  1  0.36714836  0.81344363  0.00000000  1.0
  B  B9  1  0.86714836  0.68655637  0.00000000  1.0
  B  B10  1  0.63285164  0.18655637  0.00000000  1.0
  B  B11  1  0.13285164  0.31344363  0.00000000  1.0
  B  B12  1  0.25350489  0.57996786  0.00000000  1.0
  B  B13  1  0.75350489  0.92003214  0.00000000  1.0
  B  B14  1  0.74649511  0.42003214  0.00000000  1.0
  B  B15  1  0.24649511  0.07996786  0.00000000  1.0
  B  B16  1  0.20994221  0.73185317  0.00000000  1.0
  B  B17  1  0.70994221  0.76814683  0.00000000  1.0
  B  B18  1  0.79005779  0.26814683  0.00000000  1.0
  B  B19  1  0.29005779  0.23185317  0.00000000  1.0
  B  B20  1  0.01492632  0.78683044  0.00000000  1.0
  B  B21  1  0.51492632  0.71316956  0.00000000  1.0
  B  B22  1  0.98507368  0.21316956  0.00000000  1.0
  B  B23  1  0.48507368  0.28683044  0.00000000  1.0
  B  B24  1  0.38593104  0.96825647  0.00000000  1.0
  B  B25  1  0.88593104  0.53174353  0.00000000  1.0
  B  B26  1  0.61406896  0.03174353  0.00000000  1.0
  B  B27  1  0.11406896  0.46825647  0.00000000  1.0
  Gd  Gd28  1  0.17651897  0.91307044  0.50000000  1.0
  Gd  Gd29  1  0.67651897  0.58692956  0.50000000  1.0
  Gd  Gd30  1  0.82348103  0.08692956  0.50000000  1.0
  Gd  Gd31  1  0.32348103  0.41307044  0.50000000  1.0
  Gd  Gd32  1  0.05556396  0.62600425  0.50000000  1.0
  Gd  Gd33  1  0.55556396  0.87399575  0.50000000  1.0
  Gd  Gd34  1  0.94443604  0.37399575  0.50000000  1.0
  Gd  Gd35  1  0.44443604  0.12600425  0.50000000  1.0
