# generated using pymatgen
data_Ca3(GeP2)2
_symmetry_space_group_name_H-M   'P 1'
_cell_length_a   7.14242663
_cell_length_b   17.55973692
_cell_length_c   7.08443275
_cell_angle_alpha   90.00000000
_cell_angle_beta   111.74141131
_cell_angle_gamma   90.00000000
_symmetry_Int_Tables_number   1
_chemical_formula_structural   Ca3(GeP2)2
_chemical_formula_sum   'Ca12 Ge8 P16'
_cell_volume   825.31837633
_cell_formula_units_Z   4
loop_
 _symmetry_equiv_pos_site_id
 _symmetry_equiv_pos_as_xyz
  1  'x, y, z'
loop_
 _atom_site_type_symbol
 _atom_site_label
 _atom_site_symmetry_multiplicity
 _atom_site_fract_x
 _atom_site_fract_y
 _atom_site_fract_z
 _atom_site_occupancy
  Ca  Ca0  1  0.78495198  0.18299658  0.98804814  1.0
  Ca  Ca1  1  0.78495198  0.31700342  0.48804814  1.0
  Ca  Ca2  1  0.21504802  0.68299658  0.51195186  1.0
  Ca  Ca3  1  0.21504802  0.81700342  0.01195186  1.0
  Ca  Ca4  1  0.74262673  0.43998026  0.98826587  1.0
  Ca  Ca5  1  0.74262673  0.06001974  0.48826587  1.0
  Ca  Ca6  1  0.25737327  0.93998026  0.51173413  1.0
  Ca  Ca7  1  0.25737327  0.56001974  0.01173413  1.0
  Ca  Ca8  1  0.73746249  0.93965196  0.99594007  1.0
  Ca  Ca9  1  0.73746249  0.56034804  0.49594007  1.0
  Ca  Ca10  1  0.26253751  0.43965196  0.50405993  1.0
  Ca  Ca11  1  0.26253751  0.06034804  0.00405993  1.0
  Ge  Ge12  1  0.79109183  0.62547271  0.96977250  1.0
  Ge  Ge13  1  0.79109183  0.87452729  0.46977250  1.0
  Ge  Ge14  1  0.20890817  0.12547271  0.53022750  1.0
  Ge  Ge15  1  0.20890817  0.37452729  0.03022750  1.0
  Ge  Ge16  1  0.68050389  0.75755196  0.58455483  1.0
  Ge  Ge17  1  0.68050389  0.74244804  0.08455483  1.0
  Ge  Ge18  1  0.31949611  0.25755196  0.91544517  1.0
  Ge  Ge19  1  0.31949611  0.24244804  0.41544517  1.0
  P  P20  1  0.99666083  0.94140720  0.75192446  1.0
  P  P21  1  0.99666083  0.55859280  0.25192446  1.0
  P  P22  1  0.00333917  0.44140720  0.74807554  1.0
  P  P23  1  0.00333917  0.05859280  0.24807554  1.0
  P  P24  1  0.96613067  0.68502005  0.77677339  1.0
  P  P25  1  0.96613067  0.81497995  0.27677339  1.0
  P  P26  1  0.03386933  0.18502005  0.72322661  1.0
  P  P27  1  0.03386933  0.31497995  0.22322661  1.0
  P  P28  1  0.49802983  0.56579674  0.75357893  1.0
  P  P29  1  0.49802983  0.93420326  0.25357893  1.0
  P  P30  1  0.50197017  0.06579674  0.74642107  1.0
  P  P31  1  0.50197017  0.43420326  0.24642107  1.0
  P  P32  1  0.48708153  0.80323700  0.77226898  1.0
  P  P33  1  0.48708153  0.69676300  0.27226898  1.0
  P  P34  1  0.51291847  0.30323700  0.72773102  1.0
  P  P35  1  0.51291847  0.19676300  0.22773102  1.0
