# generated using pymatgen
data_Sr3GaP3
_symmetry_space_group_name_H-M   'P 1'
_cell_length_a   9.97880136
_cell_length_b   9.97880136
_cell_length_c   12.44081055
_cell_angle_alpha   90.00000000
_cell_angle_beta   90.00000000
_cell_angle_gamma   37.58283137
_symmetry_Int_Tables_number   1
_chemical_formula_structural   Sr3GaP3
_chemical_formula_sum   'Sr12 Ga4 P12'
_cell_volume   755.56106173
_cell_formula_units_Z   4
loop_
 _symmetry_equiv_pos_site_id
 _symmetry_equiv_pos_as_xyz
  1  'x, y, z'
loop_
 _atom_site_type_symbol
 _atom_site_label
 _atom_site_symmetry_multiplicity
 _atom_site_fract_x
 _atom_site_fract_y
 _atom_site_fract_z
 _atom_site_occupancy
  Sr  Sr0  1  -0.17744351  0.17744351  0.35140048  1.0
  Sr  Sr1  1  -0.32255649  0.32255649  0.85140048  1.0
  Sr  Sr2  1  -0.67744351  0.67744351  0.14859952  1.0
  Sr  Sr3  1  -0.82255649  0.82255649  0.64859952  1.0
  Sr  Sr4  1  -0.13279126  0.48683328  0.13065152  1.0
  Sr  Sr5  1  -0.36720874  1.01316672  0.63065152  1.0
  Sr  Sr6  1  0.01316672  0.63279126  0.36934848  1.0
  Sr  Sr7  1  -0.51316672  0.86720874  0.86934848  1.0
  Sr  Sr8  1  0.13279126  0.51316672  0.86934848  1.0
  Sr  Sr9  1  -0.63279126  0.98683328  0.36934848  1.0
  Sr  Sr10  1  -0.01316672  0.36720874  0.63065152  1.0
  Sr  Sr11  1  -0.48683328  1.13279126  0.13065152  1.0
  Ga  Ga12  1  0.08637223  0.08637223  0.00000000  1.0
  Ga  Ga13  1  0.41362777  0.41362777  0.50000000  1.0
  Ga  Ga14  1  -0.08637223  0.91362777  0.00000000  1.0
  Ga  Ga15  1  -0.41362777  0.58637223  0.50000000  1.0
  P  P16  1  -0.20401884  0.20401884  0.10243897  1.0
  P  P17  1  -0.29598116  0.29598116  0.60243897  1.0
  P  P18  1  -0.70401884  0.70401884  0.39756103  1.0
  P  P19  1  -0.79598116  0.79598116  0.89756103  1.0
  P  P20  1  0.04784910  0.63428111  0.12022169  1.0
  P  P21  1  -0.54784910  0.86571889  0.62022169  1.0
  P  P22  1  -0.13428111  0.45215090  0.37977831  1.0
  P  P23  1  -0.36571889  1.04784910  0.87977831  1.0
  P  P24  1  -0.04784910  0.36571889  0.87977831  1.0
  P  P25  1  -0.45215090  1.13428111  0.37977831  1.0
  P  P26  1  0.13428111  0.54784910  0.62022169  1.0
  P  P27  1  -0.63428111  0.95215090  0.12022169  1.0
