# generated using pymatgen
data_Ba3Sc4(CuO4)3
_symmetry_space_group_name_H-M   'P 1'
_cell_length_a   9.49418799
_cell_length_b   9.49418799
_cell_length_c   9.49418799
_cell_angle_alpha   101.43245177
_cell_angle_beta   101.43245177
_cell_angle_gamma   127.12636599
_symmetry_Int_Tables_number   1
_chemical_formula_structural   Ba3Sc4(CuO4)3
_chemical_formula_sum   'Ba6 Sc8 Cu6 O24'
_cell_volume   610.98182379
_cell_formula_units_Z   2
loop_
 _symmetry_equiv_pos_site_id
 _symmetry_equiv_pos_as_xyz
  1  'x, y, z'
loop_
 _atom_site_type_symbol
 _atom_site_label
 _atom_site_symmetry_multiplicity
 _atom_site_fract_x
 _atom_site_fract_y
 _atom_site_fract_z
 _atom_site_occupancy
  Ba  Ba0  1  1.27776227  0.77776227  1.05552454  1.0
  Ba  Ba1  1  0.22223773  0.27776227  0.50000000  1.0
  Ba  Ba2  1  0.77776227  0.72223773  1.50000000  1.0
  Ba  Ba3  1  0.72223773  1.22223773  0.94447546  1.0
  Ba  Ba4  1  0.50000000  0.50000000  -0.00000000  1.0
  Ba  Ba5  1  0.00000000  0.00000000  0.00000000  1.0
  O  O6  1  1.12254627  1.12254627  0.74509254  1.0
  O  O7  1  0.62254627  0.62254627  0.74509254  1.0
  O  O8  1  0.87745373  0.62254627  1.00000000  1.0
  O  O9  1  1.37745373  1.12254627  1.00000000  1.0
  O  O10  1  1.62254627  0.87745373  1.00000000  1.0
  O  O11  1  1.12254627  0.37745373  1.00000000  1.0
  O  O12  1  0.37745373  0.37745373  0.25490746  1.0
  O  O13  1  0.87745373  0.87745373  0.25490746  1.0
  O  O14  1  1.65308462  1.15308462  1.26790940  1.0
  O  O15  1  1.11482479  0.61482479  1.26790940  1.0
  O  O16  1  0.38517521  0.65308462  0.50000000  1.0
  O  O17  1  0.84691538  1.11482479  0.50000000  1.0
  O  O18  1  1.15308462  0.88517521  1.50000000  1.0
  O  O19  1  1.61482479  1.34691538  1.50000000  1.0
  O  O20  1  0.88517521  1.38517521  0.73209060  1.0
  O  O21  1  0.34691538  0.84691538  0.73209060  1.0
  O  O22  1  1.49904345  1.23789605  1.73693950  1.0
  O  O23  1  0.00095655  0.73789605  0.73885261  1.0
  O  O24  1  0.73789605  0.99904345  0.73693950  1.0
  O  O25  1  0.76210395  0.49904345  1.26114739  1.0
  O  O26  1  0.99904345  0.26210395  1.26114739  1.0
  O  O27  1  0.50095655  0.76210395  0.26306050  1.0
  O  O28  1  0.23789605  0.50095655  0.73885261  1.0
  O  O29  1  1.26210395  1.00095655  1.26306050  1.0
  Cu  Cu30  1  0.89580059  0.39580059  1.29160118  1.0
  Cu  Cu31  1  0.60419941  0.89580059  0.50000000  1.0
  Cu  Cu32  1  1.39580059  1.10419941  1.50000000  1.0
  Cu  Cu33  1  0.10419941  0.60419941  0.70839882  1.0
  Cu  Cu34  1  0.75000000  1.25000000  0.50000000  1.0
  Cu  Cu35  1  0.25000000  0.75000000  0.50000000  1.0
  Sc  Sc36  1  0.25000000  1.00913520  0.75913520  1.0
  Sc  Sc37  1  0.75000000  1.50913520  0.75913520  1.0
  Sc  Sc38  1  0.50913520  0.75000000  0.75913520  1.0
  Sc  Sc39  1  1.00913520  1.25000000  0.75913520  1.0
  Sc  Sc40  1  1.49086480  1.25000000  1.24086480  1.0
  Sc  Sc41  1  0.99086480  0.75000000  1.24086480  1.0
  Sc  Sc42  1  0.75000000  0.99086480  0.24086480  1.0
  Sc  Sc43  1  0.25000000  0.49086480  0.24086480  1.0
