# generated using pymatgen
data_CsAgBr2
_symmetry_space_group_name_H-M   'P 1'
_cell_length_a   5.35890507
_cell_length_b   5.35890507
_cell_length_c   10.44362808
_cell_angle_alpha   90.00000000
_cell_angle_beta   90.00000000
_cell_angle_gamma   90.00000000
_symmetry_Int_Tables_number   1
_chemical_formula_structural   CsAgBr2
_chemical_formula_sum   'Cs2 Ag2 Br4'
_cell_volume   299.91868632
_cell_formula_units_Z   2
loop_
 _symmetry_equiv_pos_site_id
 _symmetry_equiv_pos_as_xyz
  1  'x, y, z'
loop_
 _atom_site_type_symbol
 _atom_site_label
 _atom_site_symmetry_multiplicity
 _atom_site_fract_x
 _atom_site_fract_y
 _atom_site_fract_z
 _atom_site_occupancy
  Cs  Cs0  1  0.50000000  0.00000000  0.70454903  1.0
  Cs  Cs1  1  0.00000000  0.50000000  0.29545097  1.0
  Ag  Ag2  1  0.50000000  0.00000000  0.09806719  1.0
  Ag  Ag3  1  0.00000000  0.50000000  0.90193281  1.0
  Br  Br4  1  0.50000000  0.00000000  0.35276806  1.0
  Br  Br5  1  0.00000000  0.50000000  0.64723194  1.0
  Br  Br6  1  0.00000000  0.00000000  0.00000000  1.0
  Br  Br7  1  0.50000000  0.50000000  0.00000000  1.0
