# generated using pymatgen
data_ReSbOF9
_symmetry_space_group_name_H-M   'P 1'
_cell_length_a   6.10526782
_cell_length_b   10.93066975
_cell_length_c   13.39120421
_cell_angle_alpha   90.00000000
_cell_angle_beta   99.02717470
_cell_angle_gamma   90.00000000
_symmetry_Int_Tables_number   1
_chemical_formula_structural   ReSbOF9
_chemical_formula_sum   'Re4 Sb4 O4 F36'
_cell_volume   882.58873159
_cell_formula_units_Z   4
loop_
 _symmetry_equiv_pos_site_id
 _symmetry_equiv_pos_as_xyz
  1  'x, y, z'
loop_
 _atom_site_type_symbol
 _atom_site_label
 _atom_site_symmetry_multiplicity
 _atom_site_fract_x
 _atom_site_fract_y
 _atom_site_fract_z
 _atom_site_occupancy
  Re  Re0  1  0.81431243  0.98117629  0.69697470  1.0
  Re  Re1  1  0.81431243  0.51882371  0.19697470  1.0
  Re  Re2  1  0.18568757  0.48117629  0.80302530  1.0
  Re  Re3  1  0.18568757  0.01882371  0.30302530  1.0
  Sb  Sb4  1  0.48513838  0.75269669  0.50214031  1.0
  Sb  Sb5  1  0.48513838  0.74730331  0.00214031  1.0
  Sb  Sb6  1  0.51486162  0.25269669  0.99785969  1.0
  Sb  Sb7  1  0.51486162  0.24730331  0.49785969  1.0
  O  O8  1  0.96764610  0.86369230  0.74611820  1.0
  O  O9  1  0.96764610  0.63630770  0.24611820  1.0
  O  O10  1  0.03235390  0.36369230  0.75388180  1.0
  O  O11  1  0.03235390  0.13630770  0.25388180  1.0
  F  F12  1  0.99309693  0.56686741  0.87335074  1.0
  F  F13  1  0.99309693  0.93313259  0.37335074  1.0
  F  F14  1  0.00690307  0.06686741  0.62664926  1.0
  F  F15  1  0.00690307  0.43313259  0.12664926  1.0
  F  F16  1  0.86790682  0.40276784  0.29879415  1.0
  F  F17  1  0.86790682  0.09723216  0.79879415  1.0
  F  F18  1  0.13209318  0.90276784  0.20120585  1.0
  F  F19  1  0.13209318  0.59723216  0.70120585  1.0
  F  F20  1  0.73670237  0.33407791  0.93882901  1.0
  F  F21  1  0.73670237  0.16592209  0.43882901  1.0
  F  F22  1  0.26329763  0.83407791  0.56117099  1.0
  F  F23  1  0.26329763  0.66592209  0.06117099  1.0
  F  F24  1  0.73385078  0.79238872  0.94219112  1.0
  F  F25  1  0.73385078  0.70761128  0.44219112  1.0
  F  F26  1  0.26614922  0.29238872  0.55780888  1.0
  F  F27  1  0.26614922  0.20761128  0.05780888  1.0
  F  F28  1  0.69505932  0.90217953  0.56273802  1.0
  F  F29  1  0.69505932  0.59782047  0.06273802  1.0
  F  F30  1  0.30494068  0.40217953  0.93726198  1.0
  F  F31  1  0.30494068  0.09782047  0.43726198  1.0
  F  F32  1  0.59745880  0.67284330  0.62527803  1.0
  F  F33  1  0.59745880  0.82715670  0.12527803  1.0
  F  F34  1  0.40254120  0.17284330  0.87472197  1.0
  F  F35  1  0.40254120  0.32715670  0.37472197  1.0
  F  F36  1  0.53627746  0.95259132  0.73415315  1.0
  F  F37  1  0.53627746  0.54740868  0.23415315  1.0
  F  F38  1  0.46372254  0.45259132  0.76584685  1.0
  F  F39  1  0.46372254  0.04740868  0.26584685  1.0
  F  F40  1  0.41148040  0.63339581  0.88596732  1.0
  F  F41  1  0.41148040  0.86660419  0.38596732  1.0
  F  F42  1  0.58851960  0.13339581  0.61403268  1.0
  F  F43  1  0.58851960  0.36660419  0.11403268  1.0
  F  F44  1  0.29878822  0.87318751  0.94118858  1.0
  F  F45  1  0.29878822  0.62681249  0.44118858  1.0
  F  F46  1  0.70121178  0.37318751  0.55881142  1.0
  F  F47  1  0.70121178  0.12681249  0.05881142  1.0
