# generated using pymatgen
data_Sr3LiTaO6
_symmetry_space_group_name_H-M   'P 1'
_cell_length_a   6.83223006
_cell_length_b   6.83223006
_cell_length_c   6.83223006
_cell_angle_alpha   92.70382228
_cell_angle_beta   92.70382228
_cell_angle_gamma   92.70382228
_symmetry_Int_Tables_number   1
_chemical_formula_structural   Sr3LiTaO6
_chemical_formula_sum   'Sr6 Li2 Ta2 O12'
_cell_volume   317.82424942
_cell_formula_units_Z   2
loop_
 _symmetry_equiv_pos_site_id
 _symmetry_equiv_pos_as_xyz
  1  'x, y, z'
loop_
 _atom_site_type_symbol
 _atom_site_label
 _atom_site_symmetry_multiplicity
 _atom_site_fract_x
 _atom_site_fract_y
 _atom_site_fract_z
 _atom_site_occupancy
  Sr  Sr0  1  0.90002035  1.25000000  -0.40002035  1.0
  Sr  Sr1  1  1.40002035  0.09997965  -0.25000000  1.0
  Sr  Sr2  1  0.75000000  0.40002035  0.09997965  1.0
  Sr  Sr3  1  1.25000000  0.59997965  -0.09997965  1.0
  Sr  Sr4  1  1.09997965  -0.25000000  0.40002035  1.0
  Sr  Sr5  1  0.59997965  0.90002035  0.25000000  1.0
  Li  Li6  1  0.25000000  0.25000000  0.25000000  1.0
  Li  Li7  1  0.75000000  0.75000000  0.75000000  1.0
  Ta  Ta8  1  0.50000000  0.50000000  0.50000000  1.0
  Ta  Ta9  1  -0.00000000  -0.00000000  0.00000000  1.0
  O  O10  1  1.21924895  0.42129409  -0.45307385  1.0
  O  O11  1  0.71924895  1.04692615  -0.07870591  1.0
  O  O12  1  0.95307385  0.07870591  0.28075105  1.0
  O  O13  1  1.45307385  -0.21924895  0.57870591  1.0
  O  O14  1  1.57870591  0.45307385  -0.21924895  1.0
  O  O15  1  1.07870591  0.28075105  -0.04692615  1.0
  O  O16  1  0.78075105  0.57870591  0.45307385  1.0
  O  O17  1  1.28075105  -0.04692615  0.07870591  1.0
  O  O18  1  0.54692615  1.21924895  -0.57870591  1.0
  O  O19  1  1.04692615  0.92129409  -0.28075105  1.0
  O  O20  1  0.92129409  0.71924895  0.04692615  1.0
  O  O21  1  0.42129409  0.54692615  0.21924895  1.0
