# generated using pymatgen
data_Na2Lu3Te4(IO4)3
_symmetry_space_group_name_H-M   'P 1'
_cell_length_a   9.33136178
_cell_length_b   5.60487233
_cell_length_c   16.86154738
_cell_angle_alpha   90.00000000
_cell_angle_beta   90.00024921
_cell_angle_gamma   90.00000000
_symmetry_Int_Tables_number   1
_chemical_formula_structural   Na2Lu3Te4(IO4)3
_chemical_formula_sum   'Na4 Lu6 Te8 I6 O24'
_cell_volume   881.87733087
_cell_formula_units_Z   2
loop_
 _symmetry_equiv_pos_site_id
 _symmetry_equiv_pos_as_xyz
  1  'x, y, z'
loop_
 _atom_site_type_symbol
 _atom_site_label
 _atom_site_symmetry_multiplicity
 _atom_site_fract_x
 _atom_site_fract_y
 _atom_site_fract_z
 _atom_site_occupancy
  Na  Na0  1  0.70811469  0.76173972  0.41344816  1.0
  Na  Na1  1  0.70811469  0.23826028  0.91344816  1.0
  Na  Na2  1  0.29188531  0.76173972  0.08655184  1.0
  Na  Na3  1  0.29188531  0.23826028  0.58655184  1.0
  Lu  Lu4  1  0.99844180  0.24548809  0.08430641  1.0
  Lu  Lu5  1  0.99844180  0.75451191  0.58430641  1.0
  Lu  Lu6  1  0.00155820  0.24548809  0.41569359  1.0
  Lu  Lu7  1  0.00155820  0.75451191  0.91569359  1.0
  Lu  Lu8  1  0.00000000  0.74563050  0.25000000  1.0
  Lu  Lu9  1  0.00000000  0.25436950  0.75000000  1.0
  Te  Te10  1  0.75150640  0.78501332  0.06705305  1.0
  Te  Te11  1  0.75150640  0.21498668  0.56705305  1.0
  Te  Te12  1  0.24849360  0.78501332  0.43294695  1.0
  Te  Te13  1  0.24849360  0.21498668  0.93294695  1.0
  Te  Te14  1  0.74960488  0.28917238  0.26669427  1.0
  Te  Te15  1  0.74960488  0.71082762  0.76669427  1.0
  Te  Te16  1  0.25039512  0.28917238  0.23330573  1.0
  Te  Te17  1  0.25039512  0.71082762  0.73330573  1.0
  I  I18  1  0.50016352  0.75000964  0.91675310  1.0
  I  I19  1  0.50016352  0.24999036  0.41675310  1.0
  I  I20  1  0.49983648  0.75000964  0.58324690  1.0
  I  I21  1  0.49983648  0.24999036  0.08324690  1.0
  I  I22  1  0.50000000  0.74601642  0.25000000  1.0
  I  I23  1  0.50000000  0.25398358  0.75000000  1.0
  O  O24  1  0.87484982  0.92801274  0.14884774  1.0
  O  O25  1  0.87484982  0.07198726  0.64884774  1.0
  O  O26  1  0.12515018  0.92801274  0.35115226  1.0
  O  O27  1  0.12515018  0.07198726  0.85115226  1.0
  O  O28  1  0.86998315  0.43343771  0.18307045  1.0
  O  O29  1  0.86998315  0.56656229  0.68307045  1.0
  O  O30  1  0.13001685  0.43343771  0.31692955  1.0
  O  O31  1  0.13001685  0.56656229  0.81692955  1.0
  O  O32  1  0.87176747  0.53768855  0.01886250  1.0
  O  O33  1  0.87176747  0.46231145  0.51886250  1.0
  O  O34  1  0.12823253  0.53768855  0.48113750  1.0
  O  O35  1  0.12823253  0.46231145  0.98113750  1.0
  O  O36  1  0.86766537  0.96358988  0.81504357  1.0
  O  O37  1  0.86766537  0.03641012  0.31504357  1.0
  O  O38  1  0.13233463  0.96358988  0.68495643  1.0
  O  O39  1  0.13233463  0.03641012  0.18495643  1.0
  O  O40  1  0.84911459  0.99052517  0.49372451  1.0
  O  O41  1  0.84911459  0.00947483  0.99372451  1.0
  O  O42  1  0.15088541  0.99052517  0.00627549  1.0
  O  O43  1  0.15088541  0.00947483  0.50627549  1.0
  O  O44  1  0.84500617  0.50930672  0.34140107  1.0
  O  O45  1  0.84500617  0.49069328  0.84140107  1.0
  O  O46  1  0.15499383  0.50930672  0.15859893  1.0
  O  O47  1  0.15499383  0.49069328  0.65859893  1.0
