# generated using pymatgen
data_K3AlSe3
_symmetry_space_group_name_H-M   'P 1'
_cell_length_a   8.17015798
_cell_length_b   13.34235533
_cell_length_c   10.47246521
_cell_angle_alpha   90.00000000
_cell_angle_beta   127.45372064
_cell_angle_gamma   90.00000000
_symmetry_Int_Tables_number   1
_chemical_formula_structural   K3AlSe3
_chemical_formula_sum   'K12 Al4 Se12'
_cell_volume   906.24888358
_cell_formula_units_Z   4
loop_
 _symmetry_equiv_pos_site_id
 _symmetry_equiv_pos_as_xyz
  1  'x, y, z'
loop_
 _atom_site_type_symbol
 _atom_site_label
 _atom_site_symmetry_multiplicity
 _atom_site_fract_x
 _atom_site_fract_y
 _atom_site_fract_z
 _atom_site_occupancy
  K  K0  1  0.84725551  0.68681135  0.06644009  1.0
  K  K1  1  0.84725551  0.81318865  0.56644009  1.0
  K  K2  1  0.15274449  0.18681135  0.43355991  1.0
  K  K3  1  0.15274449  0.31318865  0.93355991  1.0
  K  K4  1  0.67597807  0.10306866  0.39893735  1.0
  K  K5  1  0.67597807  0.39693134  0.89893735  1.0
  K  K6  1  0.32402193  0.60306866  0.10106265  1.0
  K  K7  1  0.32402193  0.89693134  0.60106265  1.0
  K  K8  1  0.62480779  0.38085553  0.47432568  1.0
  K  K9  1  0.62480779  0.11914447  0.97432568  1.0
  K  K10  1  0.37519221  0.88085553  0.02567432  1.0
  K  K11  1  0.37519221  0.61914447  0.52567432  1.0
  Al  Al12  1  0.94270057  0.43632171  0.34158513  1.0
  Al  Al13  1  0.94270057  0.06367829  0.84158513  1.0
  Al  Al14  1  0.05729943  0.93632171  0.15841487  1.0
  Al  Al15  1  0.05729943  0.56367829  0.65841487  1.0
  Se  Se16  1  0.86952608  0.95137953  0.26382006  1.0
  Se  Se17  1  0.86952608  0.54862047  0.76382006  1.0
  Se  Se18  1  0.13047392  0.45137953  0.23617994  1.0
  Se  Se19  1  0.13047392  0.04862047  0.73617994  1.0
  Se  Se20  1  0.82812147  0.89956428  0.86644402  1.0
  Se  Se21  1  0.82812147  0.60043572  0.36644402  1.0
  Se  Se22  1  0.17187853  0.39956428  0.63355598  1.0
  Se  Se23  1  0.17187853  0.10043572  0.13355598  1.0
  Se  Se24  1  0.67504388  0.31306073  0.20086809  1.0
  Se  Se25  1  0.67504388  0.18693927  0.70086809  1.0
  Se  Se26  1  0.32495612  0.81306073  0.29913191  1.0
  Se  Se27  1  0.32495612  0.68693927  0.79913191  1.0
