# generated using pymatgen
data_Na8TiAs4
_symmetry_space_group_name_H-M   'P 1'
_cell_length_a   9.79123427
_cell_length_b   9.79123427
_cell_length_c   9.79123427
_cell_angle_alpha   60.00000000
_cell_angle_beta   60.00000000
_cell_angle_gamma   60.00000000
_symmetry_Int_Tables_number   1
_chemical_formula_structural   Na8TiAs4
_chemical_formula_sum   'Na16 Ti2 As8'
_cell_volume   663.73898612
_cell_formula_units_Z   2
loop_
 _symmetry_equiv_pos_site_id
 _symmetry_equiv_pos_as_xyz
  1  'x, y, z'
loop_
 _atom_site_type_symbol
 _atom_site_label
 _atom_site_symmetry_multiplicity
 _atom_site_fract_x
 _atom_site_fract_y
 _atom_site_fract_z
 _atom_site_occupancy
  Na  Na0  1  -0.22057779  0.22057779  0.22057779  1.0
  Na  Na1  1  -0.77942221  0.77942221  0.77942221  1.0
  Na  Na2  1  0.22057779  1.22057779  -0.22057779  1.0
  Na  Na3  1  0.77942221  0.77942221  -0.77942221  1.0
  Na  Na4  1  0.22057779  -0.22057779  0.22057779  1.0
  Na  Na5  1  0.77942221  -0.77942221  0.77942221  1.0
  Na  Na6  1  0.47057779  1.02942221  0.02942221  1.0
  Na  Na7  1  0.02942221  1.47057779  0.47057779  1.0
  Na  Na8  1  0.02942221  0.02942221  0.47057779  1.0
  Na  Na9  1  0.47057779  1.47057779  0.02942221  1.0
  Na  Na10  1  0.02942221  1.47057779  0.02942221  1.0
  Na  Na11  1  0.47057779  1.02942221  0.47057779  1.0
  Na  Na12  1  1.12500000  0.62500000  0.62500000  1.0
  Na  Na13  1  0.62500000  1.12500000  -0.37500000  1.0
  Na  Na14  1  -0.37500000  0.62500000  1.12500000  1.0
  Na  Na15  1  -0.37500000  0.62500000  0.62500000  1.0
  Ti  Ti16  1  0.50000000  -0.50000000  0.50000000  1.0
  Ti  Ti17  1  0.75000000  0.75000000  0.75000000  1.0
  As  As18  1  -0.18531062  0.39510354  0.39510354  1.0
  As  As19  1  0.39510354  -0.18531062  0.39510354  1.0
  As  As20  1  0.39510354  1.39510354  -0.18531062  1.0
  As  As21  1  0.39510354  1.39510354  0.39510354  1.0
  As  As22  1  0.43531062  0.85489646  -0.14510354  1.0
  As  As23  1  0.85489646  0.43531062  0.85489646  1.0
  As  As24  1  0.85489646  0.85489646  -0.56468938  1.0
  As  As25  1  0.85489646  0.85489646  0.85489646  1.0
