# generated using pymatgen
data_PHPb2N2O9
_symmetry_space_group_name_H-M   'P 1'
_cell_length_a   5.47446338
_cell_length_b   10.72234813
_cell_length_c   7.57040808
_cell_angle_alpha   90.00000000
_cell_angle_beta   90.00000000
_cell_angle_gamma   90.00000000
_symmetry_Int_Tables_number   1
_chemical_formula_structural   PHPb2N2O9
_chemical_formula_sum   'P2 H2 Pb4 N4 O18'
_cell_volume   444.37615768
_cell_formula_units_Z   2
loop_
 _symmetry_equiv_pos_site_id
 _symmetry_equiv_pos_as_xyz
  1  'x, y, z'
loop_
 _atom_site_type_symbol
 _atom_site_label
 _atom_site_symmetry_multiplicity
 _atom_site_fract_x
 _atom_site_fract_y
 _atom_site_fract_z
 _atom_site_occupancy
  P  P0  1  0.50000000  0.65821356  0.15830555  1.0
  P  P1  1  0.00000000  0.34178644  0.65830555  1.0
  H  H2  1  0.50000000  0.76572818  0.05071301  1.0
  H  H3  1  0.00000000  0.23427182  0.55071301  1.0
  Pb  Pb4  1  0.50000000  0.52235800  0.72840374  1.0
  Pb  Pb5  1  0.00000000  0.47764200  0.22840374  1.0
  Pb  Pb6  1  0.50000000  0.15563712  0.87805870  1.0
  Pb  Pb7  1  0.00000000  0.84436288  0.37805870  1.0
  N  N8  1  0.50000000  0.99128568  0.52125105  1.0
  N  N9  1  0.00000000  0.00871432  0.02125105  1.0
  N  N10  1  0.50000000  0.29756195  0.24081666  1.0
  N  N11  1  0.00000000  0.70243805  0.74081666  1.0
  O  O12  1  0.69987158  0.25811409  0.17653174  1.0
  O  O13  1  0.19987158  0.74188591  0.67653174  1.0
  O  O14  1  0.30012842  0.25811409  0.17653174  1.0
  O  O15  1  0.80012842  0.74188591  0.67653174  1.0
  O  O16  1  0.73689666  0.66215425  0.27154582  1.0
  O  O17  1  0.23689666  0.33784575  0.77154582  1.0
  O  O18  1  0.26310334  0.66215425  0.27154582  1.0
  O  O19  1  0.76310334  0.33784575  0.77154582  1.0
  O  O20  1  0.79969095  0.96665487  0.07966500  1.0
  O  O21  1  0.29969095  0.03334513  0.57966500  1.0
  O  O22  1  0.20030905  0.96665487  0.07966500  1.0
  O  O23  1  0.70030905  0.03334513  0.57966500  1.0
  O  O24  1  0.50000000  0.90644550  0.40581195  1.0
  O  O25  1  0.00000000  0.09355450  0.90581195  1.0
  O  O26  1  0.50000000  0.54007569  0.03969285  1.0
  O  O27  1  0.00000000  0.45992431  0.53969285  1.0
  O  O28  1  0.50000000  0.37697445  0.36206138  1.0
  O  O29  1  0.00000000  0.62302555  0.86206138  1.0
