# generated using pymatgen
data_BaEu2Sc2O7
_symmetry_space_group_name_H-M   'P 1'
_cell_length_a   5.86714178
_cell_length_b   5.86714178
_cell_length_c   20.08285060
_cell_angle_alpha   90.00000000
_cell_angle_beta   90.00000000
_cell_angle_gamma   90.00000000
_symmetry_Int_Tables_number   1
_chemical_formula_structural   BaEu2Sc2O7
_chemical_formula_sum   'Ba4 Eu8 Sc8 O28'
_cell_volume   691.31904880
_cell_formula_units_Z   4
loop_
 _symmetry_equiv_pos_site_id
 _symmetry_equiv_pos_as_xyz
  1  'x, y, z'
loop_
 _atom_site_type_symbol
 _atom_site_label
 _atom_site_symmetry_multiplicity
 _atom_site_fract_x
 _atom_site_fract_y
 _atom_site_fract_z
 _atom_site_occupancy
  Ba  Ba0  1  0.23917908  0.23917908  0.50000000  1.0
  Ba  Ba1  1  0.73917908  0.26082092  0.00000000  1.0
  Ba  Ba2  1  0.76082092  0.76082092  0.50000000  1.0
  Ba  Ba3  1  0.26082092  0.73917908  0.00000000  1.0
  Eu  Eu4  1  0.28598151  0.71401849  0.18524063  1.0
  Eu  Eu5  1  0.28598151  0.71401849  0.81475937  1.0
  Eu  Eu6  1  0.78598151  0.78598151  0.68524063  1.0
  Eu  Eu7  1  0.78598151  0.78598151  0.31475937  1.0
  Eu  Eu8  1  0.71401849  0.28598151  0.18524063  1.0
  Eu  Eu9  1  0.71401849  0.28598151  0.81475937  1.0
  Eu  Eu10  1  0.21401849  0.21401849  0.68524063  1.0
  Eu  Eu11  1  0.21401849  0.21401849  0.31475937  1.0
  O  O12  1  0.50000000  0.00000000  0.38532570  1.0
  O  O13  1  0.50000000  0.00000000  0.61467430  1.0
  O  O14  1  0.00000000  0.50000000  0.88532570  1.0
  O  O15  1  0.00000000  0.50000000  0.11467430  1.0
  O  O16  1  0.00000000  0.50000000  0.38532570  1.0
  O  O17  1  0.00000000  0.50000000  0.61467430  1.0
  O  O18  1  0.50000000  0.00000000  0.88532570  1.0
  O  O19  1  0.50000000  0.00000000  0.11467430  1.0
  O  O20  1  0.28564025  0.71435975  0.50000000  1.0
  O  O21  1  0.78564025  0.78564025  0.00000000  1.0
  O  O22  1  0.71435975  0.28564025  0.50000000  1.0
  O  O23  1  0.21435975  0.21435975  0.00000000  1.0
  O  O24  1  0.50000000  0.50000000  0.36928710  1.0
  O  O25  1  0.50000000  0.50000000  0.63071290  1.0
  O  O26  1  0.00000000  0.00000000  0.86928710  1.0
  O  O27  1  0.00000000  0.00000000  0.13071290  1.0
  O  O28  1  0.50000000  0.50000000  0.09551309  1.0
  O  O29  1  0.50000000  0.50000000  0.90448691  1.0
  O  O30  1  0.00000000  0.00000000  0.59551309  1.0
  O  O31  1  0.00000000  0.00000000  0.40448691  1.0
  O  O32  1  0.18112413  0.81887587  0.28837436  1.0
  O  O33  1  0.18112413  0.81887587  0.71162564  1.0
  O  O34  1  0.68112413  0.68112413  0.78837436  1.0
  O  O35  1  0.68112413  0.68112413  0.21162564  1.0
  O  O36  1  0.81887587  0.18112413  0.28837436  1.0
  O  O37  1  0.81887587  0.18112413  0.71162564  1.0
  O  O38  1  0.31887587  0.31887587  0.78837436  1.0
  O  O39  1  0.31887587  0.31887587  0.21162564  1.0
  Sc  Sc40  1  0.26279123  0.73720877  0.39640125  1.0
  Sc  Sc41  1  0.26279123  0.73720877  0.60359875  1.0
  Sc  Sc42  1  0.76279123  0.76279123  0.89640125  1.0
  Sc  Sc43  1  0.76279123  0.76279123  0.10359875  1.0
  Sc  Sc44  1  0.73720877  0.26279123  0.39640125  1.0
  Sc  Sc45  1  0.73720877  0.26279123  0.60359875  1.0
  Sc  Sc46  1  0.23720877  0.23720877  0.89640125  1.0
  Sc  Sc47  1  0.23720877  0.23720877  0.10359875  1.0
