# generated using pymatgen
data_K(Mo3S4)2
_symmetry_space_group_name_H-M   'P 1'
_cell_length_a   6.63688787
_cell_length_b   6.63688787
_cell_length_c   6.63688787
_cell_angle_alpha   88.94969303
_cell_angle_beta   88.94969303
_cell_angle_gamma   88.94969303
_symmetry_Int_Tables_number   1
_chemical_formula_structural   K(Mo3S4)2
_chemical_formula_sum   'K1 Mo6 S8'
_cell_volume   292.19792216
_cell_formula_units_Z   1
loop_
 _symmetry_equiv_pos_site_id
 _symmetry_equiv_pos_as_xyz
  1  'x, y, z'
loop_
 _atom_site_type_symbol
 _atom_site_label
 _atom_site_symmetry_multiplicity
 _atom_site_fract_x
 _atom_site_fract_y
 _atom_site_fract_z
 _atom_site_occupancy
  K  K0  1  0.00000000  0.00000000  0.00000000  1.0
  Mo  Mo1  1  0.43717105  0.58956577  -0.22919826  1.0
  Mo  Mo2  1  0.41043422  0.22919826  -0.43717105  1.0
  Mo  Mo3  1  0.22919826  0.56282895  -0.58956577  1.0
  Mo  Mo4  1  0.56282895  0.41043423  -0.77080174  1.0
  Mo  Mo5  1  0.58956577  0.77080174  -0.56282895  1.0
  Mo  Mo6  1  0.77080174  0.43717105  -0.41043423  1.0
  S  S7  1  0.87548288  0.60142956  -0.73327741  1.0
  S  S8  1  0.39857044  0.73327741  -0.87548288  1.0
  S  S9  1  0.73327741  0.12451712  -0.60142956  1.0
  S  S10  1  0.12451712  0.39857044  -0.26672259  1.0
  S  S11  1  0.60142956  0.26672259  -0.12451712  1.0
  S  S12  1  0.26672259  0.87548288  -0.39857044  1.0
  S  S13  1  0.75414000  0.75414000  -0.24586000  1.0
  S  S14  1  1.24586000  1.24586000  0.24586000  1.0
