# generated using pymatgen
data_RbBe2BO3F2
_symmetry_space_group_name_H-M   'P 1'
_cell_length_a   13.96042940
_cell_length_b   13.96042940
_cell_length_c   13.96042940
_cell_angle_alpha   18.43817438
_cell_angle_beta   18.43817438
_cell_angle_gamma   18.43817438
_symmetry_Int_Tables_number   1
_chemical_formula_structural   RbBe2BO3F2
_chemical_formula_sum   'Rb2 Be4 B2 O6 F4'
_cell_volume   237.74137664
_cell_formula_units_Z   2
loop_
 _symmetry_equiv_pos_site_id
 _symmetry_equiv_pos_as_xyz
  1  'x, y, z'
loop_
 _atom_site_type_symbol
 _atom_site_label
 _atom_site_symmetry_multiplicity
 _atom_site_fract_x
 _atom_site_fract_y
 _atom_site_fract_z
 _atom_site_occupancy
  Rb  Rb0  1  1.00000000  0.00000000  0.00000000  1.0
  Rb  Rb1  1  0.50000000  0.50000000  0.50000000  1.0
  Be  Be2  1  0.90282315  -0.09717685  -0.09717685  1.0
  Be  Be3  1  0.40282315  0.40282315  0.40282315  1.0
  Be  Be4  1  0.59717685  0.59717685  -0.40282315  1.0
  Be  Be5  1  1.09717685  0.09717685  0.09717685  1.0
  B  B6  1  0.75000000  0.75000000  -0.25000000  1.0
  B  B7  1  0.25000000  0.25000000  0.25000000  1.0
  O  O8  1  0.44169205  0.75000000  0.05830795  1.0
  O  O9  1  0.94169205  -0.44169205  0.25000000  1.0
  O  O10  1  0.25000000  0.94169205  -0.44169205  1.0
  O  O11  1  0.75000000  1.05830795  -0.55830795  1.0
  O  O12  1  0.55830795  0.25000000  -0.05830795  1.0
  O  O13  1  1.05830795  0.44169205  -0.25000000  1.0
  F  F14  1  0.86515692  -0.13484308  -0.13484308  1.0
  F  F15  1  0.36515692  0.36515692  0.36515692  1.0
  F  F16  1  0.63484308  0.63484308  -0.36515692  1.0
  F  F17  1  1.13484308  0.13484308  0.13484308  1.0
