# generated using pymatgen
data_Cs6Ni5F6
_symmetry_space_group_name_H-M   'P 1'
_cell_length_a   7.57319824
_cell_length_b   7.57319824
_cell_length_c   21.56579534
_cell_angle_alpha   90.00000000
_cell_angle_beta   90.00000000
_cell_angle_gamma   132.62904015
_symmetry_Int_Tables_number   1
_chemical_formula_structural   Cs6Ni5F6
_chemical_formula_sum   'Cs12 Ni10 F12'
_cell_volume   910.03210779
_cell_formula_units_Z   2
loop_
 _symmetry_equiv_pos_site_id
 _symmetry_equiv_pos_as_xyz
  1  'x, y, z'
loop_
 _atom_site_type_symbol
 _atom_site_label
 _atom_site_symmetry_multiplicity
 _atom_site_fract_x
 _atom_site_fract_y
 _atom_site_fract_z
 _atom_site_occupancy
  Cs  Cs0  1  -0.45568127  0.45568127  0.17671072  1.0
  Cs  Cs1  1  -0.04431873  0.04431873  0.67671072  1.0
  Cs  Cs2  1  0.45568127  0.54431873  0.82328928  1.0
  Cs  Cs3  1  0.04431873  0.95568127  0.32328928  1.0
  Cs  Cs4  1  -0.17463032  0.17463032  0.17447998  1.0
  Cs  Cs5  1  -0.32536968  0.32536968  0.67447998  1.0
  Cs  Cs6  1  0.17463032  0.82536968  0.82552002  1.0
  Cs  Cs7  1  0.32536968  0.67463032  0.32552002  1.0
  Cs  Cs8  1  -0.14424942  0.14424942  0.47478517  1.0
  Cs  Cs9  1  -0.35575058  0.35575058  0.97478517  1.0
  Cs  Cs10  1  0.14424942  0.85575058  0.52521483  1.0
  Cs  Cs11  1  0.35575058  0.64424942  0.02521483  1.0
  Ni  Ni12  1  -0.32876202  0.32876202  0.32954577  1.0
  Ni  Ni13  1  -0.17123798  0.17123798  0.82954577  1.0
  Ni  Ni14  1  0.32876202  0.67123798  0.67045423  1.0
  Ni  Ni15  1  0.17123798  0.82876202  0.17045423  1.0
  Ni  Ni16  1  -0.38008157  0.38008157  0.43040403  1.0
  Ni  Ni17  1  -0.11991843  0.11991843  0.93040403  1.0
  Ni  Ni18  1  0.38008157  0.61991843  0.56959597  1.0
  Ni  Ni19  1  0.11991843  0.88008157  0.06959597  1.0
  Ni  Ni20  1  0.50000000  0.50000000  0.50000000  1.0
  Ni  Ni21  1  0.00000000  0.00000000  0.00000000  1.0
  F  F22  1  -0.05720264  0.55720264  0.25000000  1.0
  F  F23  1  0.55720264  0.94279736  0.75000000  1.0
  F  F24  1  0.05720264  0.44279736  0.75000000  1.0
  F  F25  1  0.44279736  1.05720264  0.25000000  1.0
  F  F26  1  -0.46527265  0.46527265  0.30911304  1.0
  F  F27  1  -0.03472735  0.03472735  0.80911304  1.0
  F  F28  1  0.46527265  0.53472735  0.69088696  1.0
  F  F29  1  0.03472735  0.96527265  0.19088696  1.0
  F  F30  1  -0.19022320  0.19022320  0.34433517  1.0
  F  F31  1  -0.30977680  0.30977680  0.84433517  1.0
  F  F32  1  0.19022320  0.80977680  0.65566483  1.0
  F  F33  1  0.30977680  0.69022320  0.15566483  1.0
