# generated using pymatgen
data_Cs2NbAgS2
_symmetry_space_group_name_H-M   'P 1'
_cell_length_a   20.65253800
_cell_length_b   19.90360982
_cell_length_c   7.02636068
_cell_angle_alpha   86.10570107
_cell_angle_beta   74.05201247
_cell_angle_gamma   19.84228646
_symmetry_Int_Tables_number   1
_chemical_formula_structural   Cs2NbAgS2
_chemical_formula_sum   'Cs8 Nb4 Ag4 S8'
_cell_volume   765.31770119
_cell_formula_units_Z   4
loop_
 _symmetry_equiv_pos_site_id
 _symmetry_equiv_pos_as_xyz
  1  'x, y, z'
loop_
 _atom_site_type_symbol
 _atom_site_label
 _atom_site_symmetry_multiplicity
 _atom_site_fract_x
 _atom_site_fract_y
 _atom_site_fract_z
 _atom_site_occupancy
  Cs  Cs0  1  1.08576825  0.49695249  0.64155400  1.0
  Cs  Cs1  1  0.77572526  0.64155400  0.49695249  1.0
  Cs  Cs2  1  0.75304751  1.16423175  0.47427474  1.0
  Cs  Cs3  1  0.60844600  0.47427474  1.16423175  1.0
  Cs  Cs4  1  1.64155400  -0.22427474  0.08576825  1.0
  Cs  Cs5  1  1.49695249  0.08576825  -0.22427474  1.0
  Cs  Cs6  1  0.47427474  0.60844600  0.75304751  1.0
  Cs  Cs7  1  1.16423175  0.75304750  0.60844600  1.0
  Nb  Nb8  1  1.12500000  0.12500000  0.62500000  1.0
  Nb  Nb9  1  1.12500000  0.62500000  0.12500000  1.0
  Nb  Nb10  1  1.12500000  0.12500000  0.12500000  1.0
  Nb  Nb11  1  1.62500000  0.12500000  0.12500000  1.0
  Ag  Ag12  1  0.62500000  0.62500000  1.12500000  1.0
  Ag  Ag13  1  0.62500000  1.12500000  0.62500000  1.0
  Ag  Ag14  1  0.62500000  0.62500000  0.62500000  1.0
  Ag  Ag15  1  1.12500000  0.62500000  0.62500000  1.0
  S  S16  1  1.11085345  0.02196475  0.64233869  1.0
  S  S17  1  1.22484311  0.64233869  0.02196475  1.0
  S  S18  1  0.22803525  1.13914655  1.02515689  1.0
  S  S19  1  0.60766131  1.02515689  1.13914655  1.0
  S  S20  1  1.64233869  0.22484311  0.11085345  1.0
  S  S21  1  1.02196475  0.11085345  0.22484311  1.0
  S  S22  1  1.02515689  0.60766131  0.22803525  1.0
  S  S23  1  1.13914655  0.22803525  0.60766131  1.0
