# generated using pymatgen
data_Ca(GaO2)2
_symmetry_space_group_name_H-M   'P 1'
_cell_length_a   9.22037629
_cell_length_b   3.02639752
_cell_length_c   10.68006143
_cell_angle_alpha   90.00000000
_cell_angle_beta   90.00000000
_cell_angle_gamma   90.00000000
_symmetry_Int_Tables_number   1
_chemical_formula_structural   Ca(GaO2)2
_chemical_formula_sum   'Ca4 Ga8 O16'
_cell_volume   298.02203013
_cell_formula_units_Z   4
loop_
 _symmetry_equiv_pos_site_id
 _symmetry_equiv_pos_as_xyz
  1  'x, y, z'
loop_
 _atom_site_type_symbol
 _atom_site_label
 _atom_site_symmetry_multiplicity
 _atom_site_fract_x
 _atom_site_fract_y
 _atom_site_fract_z
 _atom_site_occupancy
  Ca  Ca0  1  0.75727672  0.75000000  0.65420730  1.0
  Ca  Ca1  1  0.25727672  0.75000000  0.84579270  1.0
  Ca  Ca2  1  0.24272328  0.25000000  0.34579270  1.0
  Ca  Ca3  1  0.74272328  0.25000000  0.15420730  1.0
  Ga  Ga4  1  0.91799830  0.75000000  0.39564064  1.0
  Ga  Ga5  1  0.41799830  0.75000000  0.10435936  1.0
  Ga  Ga6  1  0.08200170  0.25000000  0.60435936  1.0
  Ga  Ga7  1  0.58200170  0.25000000  0.89564064  1.0
  Ga  Ga8  1  0.43521454  0.75000000  0.61152718  1.0
  Ga  Ga9  1  0.93521454  0.75000000  0.88847282  1.0
  Ga  Ga10  1  0.56478546  0.25000000  0.38847282  1.0
  Ga  Ga11  1  0.06478546  0.25000000  0.11152718  1.0
  O  O12  1  0.91740359  0.75000000  0.07211952  1.0
  O  O13  1  0.41740359  0.75000000  0.42788048  1.0
  O  O14  1  0.08259641  0.25000000  0.92788048  1.0
  O  O15  1  0.58259641  0.25000000  0.57211952  1.0
  O  O16  1  0.70405641  0.75000000  0.33780075  1.0
  O  O17  1  0.20405641  0.75000000  0.16219925  1.0
  O  O18  1  0.29594359  0.25000000  0.66219925  1.0
  O  O19  1  0.79594359  0.25000000  0.83780075  1.0
  O  O20  1  0.61797074  0.75000000  0.02301925  1.0
  O  O21  1  0.11797074  0.75000000  0.47698075  1.0
  O  O22  1  0.38202926  0.25000000  0.97698075  1.0
  O  O23  1  0.88202926  0.25000000  0.52301925  1.0
  O  O24  1  0.52766011  0.75000000  0.78352797  1.0
  O  O25  1  0.02766011  0.75000000  0.71647203  1.0
  O  O26  1  0.47233989  0.25000000  0.21647203  1.0
  O  O27  1  0.97233989  0.25000000  0.28352797  1.0
