# generated using pymatgen
data_Sb2TeSe2
_symmetry_space_group_name_H-M   'P 1'
_cell_length_a   10.43574112
_cell_length_b   10.43574112
_cell_length_c   10.43574112
_cell_angle_alpha   22.98809431
_cell_angle_beta   22.98809431
_cell_angle_gamma   22.98809431
_symmetry_Int_Tables_number   1
_chemical_formula_structural   Sb2TeSe2
_chemical_formula_sum   'Sb2 Te1 Se2'
_cell_volume   152.13025489
_cell_formula_units_Z   1
loop_
 _symmetry_equiv_pos_site_id
 _symmetry_equiv_pos_as_xyz
  1  'x, y, z'
loop_
 _atom_site_type_symbol
 _atom_site_label
 _atom_site_symmetry_multiplicity
 _atom_site_fract_x
 _atom_site_fract_y
 _atom_site_fract_z
 _atom_site_occupancy
  Sb  Sb0  1  0.82276159  -0.17723841  -0.17723841  1.0
  Sb  Sb1  1  0.61086919  0.61086919  -0.38913081  1.0
  Te  Te2  1  0.43101136  0.43101136  -0.56898864  1.0
  Se  Se3  1  -0.00605786  -0.00605786  -0.00605786  1.0
  Se  Se4  1  0.21731572  0.21731572  0.21731572  1.0
