# generated using pymatgen
data_Cs11RbO3
_symmetry_space_group_name_H-M   'P 1'
_cell_length_a   16.66163091
_cell_length_b   14.00970077
_cell_length_c   9.29432644
_cell_angle_alpha   90.00000000
_cell_angle_beta   90.00000000
_cell_angle_gamma   90.00000000
_symmetry_Int_Tables_number   1
_chemical_formula_structural   Cs11RbO3
_chemical_formula_sum   'Cs22 Rb2 O6'
_cell_volume   2169.52316244
_cell_formula_units_Z   2
loop_
 _symmetry_equiv_pos_site_id
 _symmetry_equiv_pos_as_xyz
  1  'x, y, z'
loop_
 _atom_site_type_symbol
 _atom_site_label
 _atom_site_symmetry_multiplicity
 _atom_site_fract_x
 _atom_site_fract_y
 _atom_site_fract_z
 _atom_site_occupancy
  Cs  Cs0  1  0.32756047  0.05818501  0.34924939  1.0
  Cs  Cs1  1  0.82756047  0.94181499  0.84924939  1.0
  Cs  Cs2  1  0.67243953  0.05818501  0.34924939  1.0
  Cs  Cs3  1  0.17243953  0.94181499  0.84924939  1.0
  Cs  Cs4  1  0.28715021  0.28976604  0.03622505  1.0
  Cs  Cs5  1  0.78715021  0.71023396  0.53622505  1.0
  Cs  Cs6  1  0.71284979  0.28976604  0.03622505  1.0
  Cs  Cs7  1  0.21284979  0.71023396  0.53622505  1.0
  Cs  Cs8  1  0.27712980  0.34542425  0.46873342  1.0
  Cs  Cs9  1  0.77712980  0.65457575  0.96873342  1.0
  Cs  Cs10  1  0.72287020  0.34542425  0.46873342  1.0
  Cs  Cs11  1  0.22287020  0.65457575  0.96873342  1.0
  Cs  Cs12  1  0.50000000  0.14454278  0.11601352  1.0
  Cs  Cs13  1  0.00000000  0.85545722  0.61601352  1.0
  Cs  Cs14  1  0.50000000  0.20812984  0.50464702  1.0
  Cs  Cs15  1  0.00000000  0.79187016  0.00464702  1.0
  Cs  Cs16  1  0.50000000  0.40949649  0.23193184  1.0
  Cs  Cs17  1  0.00000000  0.59050351  0.73193184  1.0
  Cs  Cs18  1  0.50000000  0.84337393  0.21634743  1.0
  Cs  Cs19  1  0.00000000  0.15662607  0.71634743  1.0
  Cs  Cs20  1  0.50000000  0.92686463  0.63873413  1.0
  Cs  Cs21  1  0.00000000  0.07313537  0.13873413  1.0
  Rb  Rb22  1  0.50000000  0.56739265  0.73683886  1.0
  Rb  Rb23  1  0.00000000  0.43260735  0.23683886  1.0
  O  O24  1  0.37855330  0.25748548  0.27841598  1.0
  O  O25  1  0.87855330  0.74251452  0.77841598  1.0
  O  O26  1  0.62144670  0.25748548  0.27841598  1.0
  O  O27  1  0.12144670  0.74251452  0.77841598  1.0
  O  O28  1  0.50000000  0.01112576  0.37143952  1.0
  O  O29  1  0.00000000  0.98887424  0.87143952  1.0
