# generated using pymatgen
data_La6Co13Pb
_symmetry_space_group_name_H-M   'P 1'
_cell_length_a   13.08768638
_cell_length_b   13.08768638
_cell_length_c   13.08768638
_cell_angle_alpha   144.08461439
_cell_angle_beta   144.08461439
_cell_angle_gamma   51.70078309
_symmetry_Int_Tables_number   1
_chemical_formula_structural   La6Co13Pb
_chemical_formula_sum   'La12 Co26 Pb2'
_cell_volume   767.09367860
_cell_formula_units_Z   2
loop_
 _symmetry_equiv_pos_site_id
 _symmetry_equiv_pos_as_xyz
  1  'x, y, z'
loop_
 _atom_site_type_symbol
 _atom_site_label
 _atom_site_symmetry_multiplicity
 _atom_site_fract_x
 _atom_site_fract_y
 _atom_site_fract_z
 _atom_site_occupancy
  Co  Co0  1  0.79971944  1.29971944  1.27288333  1.0
  Co  Co1  1  0.97316389  0.47316389  1.27288333  1.0
  Co  Co2  1  0.52683611  0.79971944  0.50000000  1.0
  Co  Co3  1  0.70028056  0.97316389  1.50000000  1.0
  Co  Co4  1  1.29971944  1.02683611  1.50000000  1.0
  Co  Co5  1  0.47316389  0.20028056  0.50000000  1.0
  Co  Co6  1  1.02683611  0.52683611  0.72711667  1.0
  Co  Co7  1  0.20028056  0.70028056  0.72711667  1.0
  Co  Co8  1  1.26877528  0.76877528  1.14651351  1.0
  Co  Co9  1  0.37773824  0.87773824  1.14651351  1.0
  Co  Co10  1  1.12226176  1.26877528  1.50000000  1.0
  Co  Co11  1  0.23122472  0.37773824  0.50000000  1.0
  Co  Co12  1  0.76877528  0.62226176  0.50000000  1.0
  Co  Co13  1  0.87773824  0.73122473  1.50000000  1.0
  Co  Co14  1  0.62226176  1.12226176  0.85348649  1.0
  Co  Co15  1  0.73122473  0.23122472  0.85348649  1.0
  Co  Co16  1  0.78588493  0.93469198  1.72057691  1.0
  Co  Co17  1  0.71411507  0.43469198  1.14880705  1.0
  Co  Co18  1  0.43469198  0.28588493  0.72057691  1.0
  Co  Co19  1  0.06530802  0.78588493  0.85119295  1.0
  Co  Co20  1  0.28588493  0.56530802  0.85119295  1.0
  Co  Co21  1  0.21411507  0.06530802  0.27942309  1.0
  Co  Co22  1  0.93469198  0.21411507  1.14880705  1.0
  Co  Co23  1  0.56530802  0.71411507  1.27942309  1.0
  Co  Co24  1  0.50000000  0.00000000  0.50000000  1.0
  Co  Co25  1  -0.00000000  0.50000000  0.50000000  1.0
  Pb  Pb26  1  0.75000000  0.75000000  1.00000000  1.0
  Pb  Pb27  1  0.25000000  0.25000000  -0.00000000  1.0
  La  La28  1  1.16006186  0.66006186  1.17626208  1.0
  La  La29  1  0.51620023  1.01620023  1.17626208  1.0
  La  La30  1  0.98379977  1.16006186  1.50000000  1.0
  La  La31  1  0.33993814  0.51620023  0.50000000  1.0
  La  La32  1  0.66006186  0.48379977  0.50000000  1.0
  La  La33  1  1.01620023  0.83993814  1.50000000  1.0
  La  La34  1  0.48379977  0.98379977  0.82373792  1.0
  La  La35  1  0.83993814  0.33993814  0.82373792  1.0
  La  La36  1  0.90099242  0.90099242  1.00000000  1.0
  La  La37  1  0.09900758  0.09900758  0.00000000  1.0
  La  La38  1  0.40099242  0.40099242  -0.00000000  1.0
  La  La39  1  0.59900758  0.59900758  1.00000000  1.0
