# generated using pymatgen
data_MnFeBO4
_symmetry_space_group_name_H-M   'P 1'
_cell_length_a   9.21509757
_cell_length_b   3.21869195
_cell_length_c   9.44478889
_cell_angle_alpha   90.00000000
_cell_angle_beta   90.00000000
_cell_angle_gamma   90.00000000
_symmetry_Int_Tables_number   1
_chemical_formula_structural   MnFeBO4
_chemical_formula_sum   'Mn4 Fe4 B4 O16'
_cell_volume   280.13773090
_cell_formula_units_Z   4
loop_
 _symmetry_equiv_pos_site_id
 _symmetry_equiv_pos_as_xyz
  1  'x, y, z'
loop_
 _atom_site_type_symbol
 _atom_site_label
 _atom_site_symmetry_multiplicity
 _atom_site_fract_x
 _atom_site_fract_y
 _atom_site_fract_z
 _atom_site_occupancy
  Mn  Mn0  1  0.38978426  0.75000000  0.18867699  1.0
  Mn  Mn1  1  0.88978426  0.75000000  0.31132301  1.0
  Mn  Mn2  1  0.61021574  0.25000000  0.81132301  1.0
  Mn  Mn3  1  0.11021574  0.25000000  0.68867699  1.0
  Fe  Fe4  1  0.39733004  0.75000000  0.56629649  1.0
  Fe  Fe5  1  0.89733004  0.75000000  0.93370351  1.0
  Fe  Fe6  1  0.60266996  0.25000000  0.43370351  1.0
  Fe  Fe7  1  0.10266996  0.25000000  0.06629649  1.0
  O  O8  1  0.48698409  0.75000000  0.87395541  1.0
  O  O9  1  0.98698409  0.75000000  0.62604459  1.0
  O  O10  1  0.51301591  0.25000000  0.12604459  1.0
  O  O11  1  0.01301591  0.25000000  0.37395541  1.0
  O  O12  1  0.98364759  0.75000000  0.12990855  1.0
  O  O13  1  0.48364759  0.75000000  0.37009145  1.0
  O  O14  1  0.01635241  0.25000000  0.87009145  1.0
  O  O15  1  0.51635241  0.25000000  0.62990855  1.0
  O  O16  1  0.26723745  0.75000000  0.00951889  1.0
  O  O17  1  0.76723745  0.75000000  0.49048111  1.0
  O  O18  1  0.73276255  0.25000000  0.99048111  1.0
  O  O19  1  0.23276255  0.25000000  0.50951889  1.0
  O  O20  1  0.25986519  0.75000000  0.75245328  1.0
  O  O21  1  0.75986519  0.75000000  0.74754672  1.0
  O  O22  1  0.74013481  0.25000000  0.24754672  1.0
  O  O23  1  0.24013481  0.25000000  0.25245328  1.0
  B  B24  1  0.33817949  0.75000000  0.87846639  1.0
  B  B25  1  0.83817949  0.75000000  0.62153361  1.0
  B  B26  1  0.66182051  0.25000000  0.12153361  1.0
  B  B27  1  0.16182051  0.25000000  0.37846639  1.0
