# generated using pymatgen
data_NbSe4
_symmetry_space_group_name_H-M   'P 1'
_cell_length_a   8.43557027
_cell_length_b   8.43557027
_cell_length_c   19.60935620
_cell_angle_alpha   90.00000000
_cell_angle_beta   90.00000000
_cell_angle_gamma   90.00000000
_symmetry_Int_Tables_number   1
_chemical_formula_structural   NbSe4
_chemical_formula_sum   'Nb12 Se48'
_cell_volume   1395.37915232
_cell_formula_units_Z   12
loop_
 _symmetry_equiv_pos_site_id
 _symmetry_equiv_pos_as_xyz
  1  'x, y, z'
loop_
 _atom_site_type_symbol
 _atom_site_label
 _atom_site_symmetry_multiplicity
 _atom_site_fract_x
 _atom_site_fract_y
 _atom_site_fract_z
 _atom_site_occupancy
  Nb  Nb0  1  0.50000000  0.50000000  0.01434096  1.0
  Nb  Nb1  1  0.50000000  0.50000000  0.17002623  1.0
  Nb  Nb2  1  0.50000000  0.50000000  0.32417380  1.0
  Nb  Nb3  1  0.50000000  0.50000000  0.51429515  1.0
  Nb  Nb4  1  0.50000000  0.50000000  0.67002172  1.0
  Nb  Nb5  1  0.50000000  0.50000000  0.82415858  1.0
  Nb  Nb6  1  0.00000000  0.00000000  0.00180946  1.0
  Nb  Nb7  1  0.00000000  0.00000000  0.15751221  1.0
  Nb  Nb8  1  0.00000000  0.00000000  0.34770595  1.0
  Nb  Nb9  1  0.00000000  0.00000000  0.50184389  1.0
  Nb  Nb10  1  0.00000000  0.00000000  0.65750902  1.0
  Nb  Nb11  1  0.00000000  0.00000000  0.84767635  1.0
  Se  Se12  1  0.90886829  0.75518387  0.92112911  1.0
  Se  Se13  1  0.75518387  0.09113171  0.92112911  1.0
  Se  Se14  1  0.09113171  0.24481613  0.92112911  1.0
  Se  Se15  1  0.24481613  0.90886829  0.92112911  1.0
  Se  Se16  1  0.90049638  0.75985257  0.58374443  1.0
  Se  Se17  1  0.75985257  0.09950362  0.58374443  1.0
  Se  Se18  1  0.09950362  0.24014743  0.58374443  1.0
  Se  Se19  1  0.24014743  0.90049638  0.58374443  1.0
  Se  Se20  1  0.89410164  0.78304774  0.25234360  1.0
  Se  Se21  1  0.78304774  0.10589836  0.25234360  1.0
  Se  Se22  1  0.10589836  0.21695226  0.25234360  1.0
  Se  Se23  1  0.21695226  0.89410164  0.25234360  1.0
  Se  Se24  1  0.78309613  0.89396296  0.75232718  1.0
  Se  Se25  1  0.89396296  0.21690387  0.75232718  1.0
  Se  Se26  1  0.21690387  0.10603704  0.75232718  1.0
  Se  Se27  1  0.10603704  0.78309613  0.75232718  1.0
  Se  Se28  1  0.75991268  0.90046452  0.08373198  1.0
  Se  Se29  1  0.90046452  0.24008732  0.08373198  1.0
  Se  Se30  1  0.24008732  0.09953548  0.08373198  1.0
  Se  Se31  1  0.09953548  0.75991268  0.08373198  1.0
  Se  Se32  1  0.75520934  0.90882923  0.42115972  1.0
  Se  Se33  1  0.90882923  0.24479066  0.42115972  1.0
  Se  Se34  1  0.24479066  0.09117077  0.42115972  1.0
  Se  Se35  1  0.09117077  0.75520934  0.42115972  1.0
  Se  Se36  1  0.74481946  0.59114000  0.75069711  1.0
  Se  Se37  1  0.59114000  0.25518054  0.75069711  1.0
  Se  Se38  1  0.25518054  0.40886000  0.75069711  1.0
  Se  Se39  1  0.40886000  0.74481946  0.75069711  1.0
  Se  Se40  1  0.74010628  0.59949261  0.08813092  1.0
  Se  Se41  1  0.59949261  0.25989372  0.08813092  1.0
  Se  Se42  1  0.25989372  0.40050739  0.08813092  1.0
  Se  Se43  1  0.40050739  0.74010628  0.08813092  1.0
  Se  Se44  1  0.71695691  0.60597497  0.41949650  1.0
  Se  Se45  1  0.60597497  0.28304309  0.41949650  1.0
  Se  Se46  1  0.28304309  0.39402503  0.41949650  1.0
  Se  Se47  1  0.39402503  0.71695691  0.41949650  1.0
  Se  Se48  1  0.60604753  0.71691013  0.91951081  1.0
  Se  Se49  1  0.71691013  0.39395247  0.91951081  1.0
  Se  Se50  1  0.39395247  0.28308987  0.91951081  1.0
  Se  Se51  1  0.28308987  0.60604753  0.91951081  1.0
  Se  Se52  1  0.59956679  0.74005064  0.58809371  1.0
  Se  Se53  1  0.74005064  0.40043321  0.58809371  1.0
  Se  Se54  1  0.40043321  0.25994936  0.58809371  1.0
  Se  Se55  1  0.25994936  0.59956679  0.58809371  1.0
  Se  Se56  1  0.59125369  0.74473497  0.25071661  1.0
  Se  Se57  1  0.74473497  0.40874631  0.25071661  1.0
  Se  Se58  1  0.40874631  0.25526503  0.25071661  1.0
  Se  Se59  1  0.25526503  0.59125369  0.25071661  1.0
