# generated using pymatgen
data_LaAl2Ni
_symmetry_space_group_name_H-M   'P 1'
_cell_length_a   5.95751335
_cell_length_b   5.95751335
_cell_length_c   6.98862652
_cell_angle_alpha   90.00000000
_cell_angle_beta   90.00000000
_cell_angle_gamma   139.82459465
_symmetry_Int_Tables_number   1
_chemical_formula_structural   LaAl2Ni
_chemical_formula_sum   'La2 Al4 Ni2'
_cell_volume   160.01804462
_cell_formula_units_Z   2
loop_
 _symmetry_equiv_pos_site_id
 _symmetry_equiv_pos_as_xyz
  1  'x, y, z'
loop_
 _atom_site_type_symbol
 _atom_site_label
 _atom_site_symmetry_multiplicity
 _atom_site_fract_x
 _atom_site_fract_y
 _atom_site_fract_z
 _atom_site_occupancy
  La  La0  1  0.05131876  0.94868124  0.75000000  1.0
  La  La1  1  -0.05131876  0.05131876  0.25000000  1.0
  Al  Al2  1  0.32656006  0.67343994  0.94174209  1.0
  Al  Al3  1  0.32656006  0.67343994  0.55825791  1.0
  Al  Al4  1  -0.32656006  0.32656006  0.44174209  1.0
  Al  Al5  1  -0.32656006  0.32656006  0.05825791  1.0
  Ni  Ni6  1  -0.22034249  0.22034249  0.75000000  1.0
  Ni  Ni7  1  0.22034249  0.77965751  0.25000000  1.0
