# generated using pymatgen
data_K2Pt(CN)6
_symmetry_space_group_name_H-M   'P 1'
_cell_length_a   7.47953426
_cell_length_b   7.47953426
_cell_length_c   6.80536446
_cell_angle_alpha   90.00000000
_cell_angle_beta   90.00000000
_cell_angle_gamma   120.00000000
_symmetry_Int_Tables_number   1
_chemical_formula_structural   K2Pt(CN)6
_chemical_formula_sum   'K2 Pt1 C6 N6'
_cell_volume   329.70925056
_cell_formula_units_Z   1
loop_
 _symmetry_equiv_pos_site_id
 _symmetry_equiv_pos_as_xyz
  1  'x, y, z'
loop_
 _atom_site_type_symbol
 _atom_site_label
 _atom_site_symmetry_multiplicity
 _atom_site_fract_x
 _atom_site_fract_y
 _atom_site_fract_z
 _atom_site_occupancy
  K  K0  1  0.33333333  0.66666667  0.50000000  1.0
  K  K1  1  0.66666667  0.33333333  0.50000000  1.0
  Pt  Pt2  1  0.00000000  0.00000000  0.00000000  1.0
  C  C3  1  0.78061131  0.78061131  0.17301268  1.0
  C  C4  1  0.78061131  -0.00000000  0.82698732  1.0
  C  C5  1  0.00000000  0.78061131  0.82698732  1.0
  C  C6  1  -0.00000000  0.21938869  0.17301268  1.0
  C  C7  1  0.21938869  0.21938869  0.82698732  1.0
  C  C8  1  0.21938869  0.00000000  0.17301268  1.0
  N  N9  1  0.65604961  0.65604961  0.27588483  1.0
  N  N10  1  0.65604961  0.00000000  0.72411517  1.0
  N  N11  1  -0.00000000  0.65604961  0.72411517  1.0
  N  N12  1  -0.00000000  0.34395039  0.27588483  1.0
  N  N13  1  0.34395039  0.34395039  0.72411517  1.0
  N  N14  1  0.34395039  -0.00000000  0.27588483  1.0
