# generated using pymatgen
data_PH2C6O2F5
_symmetry_space_group_name_H-M   'P 1'
_cell_length_a   6.31822164
_cell_length_b   6.13313820
_cell_length_c   12.02741012
_cell_angle_alpha   90.00000000
_cell_angle_beta   98.20246627
_cell_angle_gamma   90.00000000
_symmetry_Int_Tables_number   1
_chemical_formula_structural   PH2C6O2F5
_chemical_formula_sum   'P2 H4 C12 O4 F10'
_cell_volume   461.30063682
_cell_formula_units_Z   2
loop_
 _symmetry_equiv_pos_site_id
 _symmetry_equiv_pos_as_xyz
  1  'x, y, z'
loop_
 _atom_site_type_symbol
 _atom_site_label
 _atom_site_symmetry_multiplicity
 _atom_site_fract_x
 _atom_site_fract_y
 _atom_site_fract_z
 _atom_site_occupancy
  P  P0  1  0.71314519  0.37383700  0.41475219  1.0
  P  P1  1  0.28685481  0.87383700  0.58524781  1.0
  H  H2  1  0.92728426  0.35131041  0.39644945  1.0
  H  H3  1  0.07271574  0.85131041  0.60355055  1.0
  H  H4  1  0.59468784  0.57950816  0.54806847  1.0
  H  H5  1  0.40531216  0.07950816  0.45193153  1.0
  C  C6  1  0.70547554  0.14761449  0.84613955  1.0
  C  C7  1  0.29452446  0.64761449  0.15386045  1.0
  C  C8  1  0.61737936  0.01055174  0.75919245  1.0
  C  C9  1  0.38262064  0.51055174  0.24080755  1.0
  C  C10  1  0.58632805  0.32326942  0.87704967  1.0
  C  C11  1  0.41367195  0.82326942  0.12295033  1.0
  C  C12  1  0.41137306  0.04368828  0.70151849  1.0
  C  C13  1  0.58862694  0.54368828  0.29848151  1.0
  C  C14  1  0.38033186  0.36057387  0.82150600  1.0
  C  C15  1  0.61966814  0.86057387  0.17849400  1.0
  C  C16  1  0.29658008  0.22130102  0.73507181  1.0
  C  C17  1  0.70341992  0.72130102  0.26492819  1.0
  O  O18  1  0.73514199  0.51729206  0.52359208  1.0
  O  O19  1  0.26485801  0.01729206  0.47640792  1.0
  O  O20  1  0.60531197  0.15496395  0.41664363  1.0
  O  O21  1  0.39468803  0.65496395  0.58335637  1.0
  F  F22  1  0.90429551  0.11238591  0.89997525  1.0
  F  F23  1  0.09570449  0.61238591  0.10002475  1.0
  F  F24  1  0.73357916  0.03113856  0.14864992  1.0
  F  F25  1  0.26642084  0.53113856  0.85135008  1.0
  F  F26  1  0.74058335  0.84432338  0.73202612  1.0
  F  F27  1  0.25941665  0.34432338  0.26797388  1.0
  F  F28  1  0.67003421  0.45724537  0.96019127  1.0
  F  F29  1  0.32996579  0.95724537  0.03980873  1.0
  F  F30  1  0.09685451  0.26159638  0.68240644  1.0
  F  F31  1  0.90314549  0.76159638  0.31759356  1.0
