# generated using pymatgen
data_Er(SiNi5)2
_symmetry_space_group_name_H-M   'P 1'
_cell_length_a   8.17107963
_cell_length_b   8.17107963
_cell_length_c   4.67852510
_cell_angle_alpha   90.00000000
_cell_angle_beta   90.00000000
_cell_angle_gamma   90.00000000
_symmetry_Int_Tables_number   1
_chemical_formula_structural   Er(SiNi5)2
_chemical_formula_sum   'Er2 Si4 Ni20'
_cell_volume   312.36894408
_cell_formula_units_Z   2
loop_
 _symmetry_equiv_pos_site_id
 _symmetry_equiv_pos_as_xyz
  1  'x, y, z'
loop_
 _atom_site_type_symbol
 _atom_site_label
 _atom_site_symmetry_multiplicity
 _atom_site_fract_x
 _atom_site_fract_y
 _atom_site_fract_z
 _atom_site_occupancy
  Er  Er0  1  0.00000000  0.50000000  0.77856073  1.0
  Er  Er1  1  0.50000000  0.00000000  0.22143927  1.0
  Si  Si2  1  0.75000000  0.75000000  0.50000000  1.0
  Si  Si3  1  0.25000000  0.75000000  0.50000000  1.0
  Si  Si4  1  0.75000000  0.25000000  0.50000000  1.0
  Si  Si5  1  0.25000000  0.25000000  0.50000000  1.0
  Ni  Ni6  1  0.75000000  0.25000000  0.00000000  1.0
  Ni  Ni7  1  0.25000000  0.25000000  0.00000000  1.0
  Ni  Ni8  1  0.75000000  0.75000000  0.00000000  1.0
  Ni  Ni9  1  0.25000000  0.75000000  0.00000000  1.0
  Ni  Ni10  1  0.35340279  0.50000000  0.76067209  1.0
  Ni  Ni11  1  0.64659721  0.50000000  0.76067209  1.0
  Ni  Ni12  1  0.00000000  0.85340279  0.76067209  1.0
  Ni  Ni13  1  0.00000000  0.14659721  0.76067209  1.0
  Ni  Ni14  1  0.14659721  0.00000000  0.23932791  1.0
  Ni  Ni15  1  0.85340279  0.00000000  0.23932791  1.0
  Ni  Ni16  1  0.50000000  0.64659721  0.23932791  1.0
  Ni  Ni17  1  0.50000000  0.35340279  0.23932791  1.0
  Ni  Ni18  1  0.77705649  0.50000000  0.27065251  1.0
  Ni  Ni19  1  0.22294351  0.50000000  0.27065251  1.0
  Ni  Ni20  1  0.00000000  0.27705649  0.27065251  1.0
  Ni  Ni21  1  0.00000000  0.72294351  0.27065251  1.0
  Ni  Ni22  1  0.72294351  0.00000000  0.72934749  1.0
  Ni  Ni23  1  0.27705649  0.00000000  0.72934749  1.0
  Ni  Ni24  1  0.50000000  0.22294351  0.72934749  1.0
  Ni  Ni25  1  0.50000000  0.77705649  0.72934749  1.0
