# generated using pymatgen
data_CsMgPO4
_symmetry_space_group_name_H-M   'P 1'
_cell_length_a   9.09643843
_cell_length_b   5.59709319
_cell_length_c   9.88140607
_cell_angle_alpha   90.00000000
_cell_angle_beta   90.00000000
_cell_angle_gamma   90.00000000
_symmetry_Int_Tables_number   1
_chemical_formula_structural   CsMgPO4
_chemical_formula_sum   'Cs4 Mg4 P4 O16'
_cell_volume   503.09808999
_cell_formula_units_Z   4
loop_
 _symmetry_equiv_pos_site_id
 _symmetry_equiv_pos_as_xyz
  1  'x, y, z'
loop_
 _atom_site_type_symbol
 _atom_site_label
 _atom_site_symmetry_multiplicity
 _atom_site_fract_x
 _atom_site_fract_y
 _atom_site_fract_z
 _atom_site_occupancy
  Cs  Cs0  1  -0.00372660  0.75000000  0.69372213  1.0
  Cs  Cs1  1  0.49627340  0.75000000  0.80627787  1.0
  Cs  Cs2  1  1.00372660  0.25000000  0.30627787  1.0
  Cs  Cs3  1  0.50372660  0.25000000  0.19372213  1.0
  Mg  Mg4  1  0.67323915  0.75000000  0.41317690  1.0
  Mg  Mg5  1  0.17323915  0.75000000  0.08682310  1.0
  Mg  Mg6  1  0.32676085  0.25000000  0.58682310  1.0
  Mg  Mg7  1  0.82676085  0.25000000  0.91317690  1.0
  P  P8  1  0.79258171  0.75000000  0.07977980  1.0
  P  P9  1  0.29258171  0.75000000  0.42022020  1.0
  P  P10  1  0.20741829  0.25000000  0.92022020  1.0
  P  P11  1  0.70741829  0.25000000  0.57977980  1.0
  O  O12  1  0.73669593  0.97578271  0.00217247  1.0
  O  O13  1  0.73669593  0.52421729  0.00217247  1.0
  O  O14  1  0.23669593  0.97578271  0.49782753  1.0
  O  O15  1  0.23669593  0.52421729  0.49782753  1.0
  O  O16  1  0.26330407  0.47578271  0.99782753  1.0
  O  O17  1  0.26330407  0.02421729  0.99782753  1.0
  O  O18  1  0.76330407  0.47578271  0.50217247  1.0
  O  O19  1  0.76330407  0.02421729  0.50217247  1.0
  O  O20  1  0.96206807  0.75000000  0.08795896  1.0
  O  O21  1  0.46206807  0.75000000  0.41204104  1.0
  O  O22  1  0.03793193  0.25000000  0.91204104  1.0
  O  O23  1  0.53793193  0.25000000  0.58795896  1.0
  O  O24  1  0.72477320  0.75000000  0.22369669  1.0
  O  O25  1  0.22477320  0.75000000  0.27630331  1.0
  O  O26  1  0.27522680  0.25000000  0.77630331  1.0
  O  O27  1  0.77522680  0.25000000  0.72369669  1.0
