# generated using pymatgen
data_Y6GaCo2
_symmetry_space_group_name_H-M   'P 1'
_cell_length_a   8.29819540
_cell_length_b   8.29819540
_cell_length_c   8.29819540
_cell_angle_alpha   111.89808529
_cell_angle_beta   109.35657334
_cell_angle_gamma   107.19334507
_symmetry_Int_Tables_number   1
_chemical_formula_structural   Y6GaCo2
_chemical_formula_sum   'Y12 Ga2 Co4'
_cell_volume   439.13037874
_cell_formula_units_Z   2
loop_
 _symmetry_equiv_pos_site_id
 _symmetry_equiv_pos_as_xyz
  1  'x, y, z'
loop_
 _atom_site_type_symbol
 _atom_site_label
 _atom_site_symmetry_multiplicity
 _atom_site_fract_x
 _atom_site_fract_y
 _atom_site_fract_z
 _atom_site_occupancy
  Y  Y0  1  0.81978243  0.71982983  0.53961226  1.0
  Y  Y1  1  0.18021757  0.71982983  0.90004740  1.0
  Y  Y2  1  0.81978243  1.28017017  1.09995260  1.0
  Y  Y3  1  0.18021757  0.28017017  0.46038774  1.0
  Y  Y4  1  0.67340276  0.36087374  0.68747098  1.0
  Y  Y5  1  1.32659724  1.01406821  0.68747098  1.0
  Y  Y6  1  0.67340276  0.98593179  0.31252902  1.0
  Y  Y7  1  0.32659724  0.63912626  0.31252902  1.0
  Y  Y8  1  0.56499978  0.76152030  0.80347948  1.0
  Y  Y9  1  1.04195918  1.23847970  0.80347948  1.0
  Y  Y10  1  0.95804082  0.76152030  0.19652052  1.0
  Y  Y11  1  0.43500022  0.23847970  0.19652052  1.0
  Ga  Ga12  1  0.50000000  0.50000000  -0.00000000  1.0
  Ga  Ga13  1  0.00000000  0.00000000  0.00000000  1.0
  Co  Co14  1  0.88634258  1.38634258  0.50000000  1.0
  Co  Co15  1  1.11365742  0.61365742  0.50000000  1.0
  Co  Co16  1  0.66316416  0.00000000  0.66316416  1.0
  Co  Co17  1  0.33683584  0.00000000  0.33683584  1.0
