# generated using pymatgen
data_NaMg3Al6Si6B3H4O31
_symmetry_space_group_name_H-M   'P 1'
_cell_length_a   9.61624577
_cell_length_b   9.61624577
_cell_length_c   9.61624577
_cell_angle_alpha   113.83238209
_cell_angle_beta   113.83238209
_cell_angle_gamma   113.83238209
_symmetry_Int_Tables_number   1
_chemical_formula_structural   NaMg3Al6Si6B3H4O31
_chemical_formula_sum   'Na1 Mg3 Al6 Si6 B3 H4 O31'
_cell_volume   546.90589729
_cell_formula_units_Z   1
loop_
 _symmetry_equiv_pos_site_id
 _symmetry_equiv_pos_as_xyz
  1  'x, y, z'
loop_
 _atom_site_type_symbol
 _atom_site_label
 _atom_site_symmetry_multiplicity
 _atom_site_fract_x
 _atom_site_fract_y
 _atom_site_fract_z
 _atom_site_occupancy
  Na  Na0  1  0.48749007  0.48749007  -0.51250993  1.0
  Mg  Mg1  1  0.79452877  0.98438207  -0.20547123  1.0
  Mg  Mg2  1  0.79452877  0.79452877  -0.01561793  1.0
  Mg  Mg3  1  0.98438207  0.79452877  0.79452877  1.0
  Al  Al4  1  0.58139531  -0.19346983  0.14183866  1.0
  Al  Al5  1  1.14183866  0.80653017  0.58139531  1.0
  Al  Al6  1  0.58139531  0.14183866  -0.19346983  1.0
  Al  Al7  1  0.80653017  1.14183866  -0.41860469  1.0
  Al  Al8  1  0.80653017  0.58139531  0.14183866  1.0
  Al  Al9  1  1.14183866  0.58139531  0.80653017  1.0
  Si  Si10  1  0.41883314  0.03581002  0.22460315  1.0
  Si  Si11  1  1.22460315  1.03581002  0.41883314  1.0
  Si  Si12  1  0.41883314  0.22460315  0.03581002  1.0
  Si  Si13  1  1.03581002  0.22460315  0.41883314  1.0
  Si  Si14  1  1.03581002  0.41883314  0.22460315  1.0
  Si  Si15  1  1.22460315  1.41883314  0.03581002  1.0
  B  B16  1  0.79524090  1.46475887  -0.20475910  1.0
  B  B17  1  0.79524090  0.79524090  0.46475887  1.0
  B  B18  1  0.46475887  -0.20475910  -0.20475910  1.0
  H  H19  1  0.47555295  0.87923770  -0.52444705  1.0
  H  H20  1  0.47555295  0.47555295  -0.12076230  1.0
  H  H21  1  0.87923770  0.47555295  0.47555295  1.0
  H  H22  1  1.13582246  1.13582246  0.13582246  1.0
  O  O23  1  1.31212064  1.59490317  0.02443835  1.0
  O  O24  1  1.02443835  0.59490317  0.31212064  1.0
  O  O25  1  1.31212064  1.02443835  0.59490317  1.0
  O  O26  1  0.59490317  0.02443835  0.31212064  1.0
  O  O27  1  0.59490317  0.31212064  0.02443835  1.0
  O  O28  1  1.02443835  0.31212064  0.59490317  1.0
  O  O29  1  0.40218979  -0.26567948  -0.11624422  1.0
  O  O30  1  0.88375578  0.73432052  0.40218979  1.0
  O  O31  1  0.40218979  -0.11624422  -0.26567948  1.0
  O  O32  1  0.73432052  0.88375578  -0.59781021  1.0
  O  O33  1  0.73432052  0.40218979  -0.11624422  1.0
  O  O34  1  0.88375578  1.40218979  -0.26567948  1.0
  O  O35  1  0.20460903  -0.18370724  -0.00338619  1.0
  O  O36  1  0.99661381  0.81629276  0.20460903  1.0
  O  O37  1  0.20460903  -0.00338619  -0.18370724  1.0
  O  O38  1  0.81629276  -0.00338619  0.20460903  1.0
  O  O39  1  0.81629276  0.20460903  -0.00338619  1.0
  O  O40  1  0.99661381  1.20460903  -0.18370724  1.0
  O  O41  1  0.38745329  1.11152176  -0.61254671  1.0
  O  O42  1  0.38745329  0.38745329  0.11152176  1.0
  O  O43  1  1.11152176  0.38745329  0.38745329  1.0
  O  O44  1  0.60871346  1.01366218  -0.39128654  1.0
  O  O45  1  0.60871346  0.60871346  0.01366218  1.0
  O  O46  1  1.01366218  0.60871346  0.60871346  1.0
  O  O47  1  1.22365736  1.50293960  0.22365736  1.0
  O  O48  1  1.22365736  1.22365736  0.50293960  1.0
  O  O49  1  0.50293960  0.22365736  0.22365736  1.0
  O  O50  1  0.77181263  1.58589644  -0.22818737  1.0
  O  O51  1  0.77181263  0.77181263  0.58589644  1.0
  O  O52  1  0.58589644  -0.22818737  -0.22818737  1.0
  O  O53  1  0.00406156  0.00406156  0.00406156  1.0
