# generated using pymatgen
data_Gd(BIr)2
_symmetry_space_group_name_H-M   'P 1'
_cell_length_a   10.14702466
_cell_length_b   10.14702466
_cell_length_c   3.79928099
_cell_angle_alpha   90.00000000
_cell_angle_beta   90.00000000
_cell_angle_gamma   90.00000000
_symmetry_Int_Tables_number   1
_chemical_formula_structural   Gd(BIr)2
_chemical_formula_sum   'Gd4 B8 Ir8'
_cell_volume   391.18198534
_cell_formula_units_Z   4
loop_
 _symmetry_equiv_pos_site_id
 _symmetry_equiv_pos_as_xyz
  1  'x, y, z'
loop_
 _atom_site_type_symbol
 _atom_site_label
 _atom_site_symmetry_multiplicity
 _atom_site_fract_x
 _atom_site_fract_y
 _atom_site_fract_z
 _atom_site_occupancy
  Gd  Gd0  1  0.25000000  0.25000000  0.25000000  1.0
  Gd  Gd1  1  0.75000000  0.75000000  0.25000000  1.0
  Gd  Gd2  1  0.25000000  0.75000000  0.75000000  1.0
  Gd  Gd3  1  0.75000000  0.25000000  0.75000000  1.0
  B  B4  1  0.48344454  0.79935548  0.25014707  1.0
  B  B5  1  0.98344454  0.29935548  0.24985293  1.0
  B  B6  1  0.79935548  0.51655546  0.74985293  1.0
  B  B7  1  0.29935548  0.01655546  0.75014707  1.0
  B  B8  1  0.51655546  0.20064452  0.25014707  1.0
  B  B9  1  0.01655546  0.70064452  0.24985293  1.0
  B  B10  1  0.20064452  0.48344454  0.74985293  1.0
  B  B11  1  0.70064452  0.98344454  0.75014707  1.0
  Ir  Ir12  1  0.85778907  0.46204804  0.24985730  1.0
  Ir  Ir13  1  0.35778907  0.96204804  0.25014270  1.0
  Ir  Ir14  1  0.46204804  0.14221093  0.75014270  1.0
  Ir  Ir15  1  0.96204804  0.64221093  0.74985730  1.0
  Ir  Ir16  1  0.14221093  0.53795196  0.24985730  1.0
  Ir  Ir17  1  0.64221093  0.03795196  0.25014270  1.0
  Ir  Ir18  1  0.53795196  0.85778907  0.75014270  1.0
  Ir  Ir19  1  0.03795196  0.35778907  0.74985730  1.0
