# generated using pymatgen
data_Na2Tl
_symmetry_space_group_name_H-M   'P 1'
_cell_length_a   8.42734413
_cell_length_b   8.42734413
_cell_length_c   11.73891690
_cell_angle_alpha   90.00000000
_cell_angle_beta   90.00000000
_cell_angle_gamma   115.69506912
_symmetry_Int_Tables_number   1
_chemical_formula_structural   Na2Tl
_chemical_formula_sum   'Na16 Tl8'
_cell_volume   751.25847786
_cell_formula_units_Z   8
loop_
 _symmetry_equiv_pos_site_id
 _symmetry_equiv_pos_as_xyz
  1  'x, y, z'
loop_
 _atom_site_type_symbol
 _atom_site_label
 _atom_site_symmetry_multiplicity
 _atom_site_fract_x
 _atom_site_fract_y
 _atom_site_fract_z
 _atom_site_occupancy
  Na  Na0  1  0.09072851  0.33597374  0.04278243  1.0
  Na  Na1  1  -0.66402626  1.09072851  0.95721757  1.0
  Na  Na2  1  0.66402626  0.90927149  0.45721757  1.0
  Na  Na3  1  -0.09072851  1.66402626  0.54278243  1.0
  Na  Na4  1  -0.00842909  1.40434330  0.32932909  1.0
  Na  Na5  1  0.40434330  0.99157091  0.67067091  1.0
  Na  Na6  1  -0.40434330  1.00842909  0.17067091  1.0
  Na  Na7  1  0.00842909  0.59565670  0.82932909  1.0
  Na  Na8  1  -0.28533577  1.44982935  0.08342033  1.0
  Na  Na9  1  0.44982935  0.71466423  0.91657967  1.0
  Na  Na10  1  -0.44982935  1.28533577  0.41657967  1.0
  Na  Na11  1  0.28533577  0.55017065  0.58342033  1.0
  Na  Na12  1  0.42876122  0.57123878  0.25000000  1.0
  Na  Na13  1  -0.42876122  1.42876122  0.75000000  1.0
  Na  Na14  1  0.89947760  0.89947760  0.00000000  1.0
  Na  Na15  1  0.10052240  0.10052240  0.50000000  1.0
  Tl  Tl16  1  0.16392314  0.72968345  0.11516391  1.0
  Tl  Tl17  1  -0.27031655  1.16392314  0.88483609  1.0
  Tl  Tl18  1  0.27031655  0.83607686  0.38483609  1.0
  Tl  Tl19  1  -0.16392314  1.27031655  0.61516391  1.0
  Tl  Tl20  1  -0.13038490  1.77242840  0.27732315  1.0
  Tl  Tl21  1  0.77242840  0.86961510  0.72267685  1.0
  Tl  Tl22  1  -0.77242840  1.13038490  0.22267685  1.0
  Tl  Tl23  1  0.13038490  0.22757160  0.77732315  1.0
