# generated using pymatgen
data_K4BeP2
_symmetry_space_group_name_H-M   'P 1'
_cell_length_a   9.02630741
_cell_length_b   9.02630741
_cell_length_c   9.02630741
_cell_angle_alpha   36.09720912
_cell_angle_beta   36.09720912
_cell_angle_gamma   36.09720912
_symmetry_Int_Tables_number   1
_chemical_formula_structural   K4BeP2
_chemical_formula_sum   'K4 Be1 P2'
_cell_volume   228.35551699
_cell_formula_units_Z   1
loop_
 _symmetry_equiv_pos_site_id
 _symmetry_equiv_pos_as_xyz
  1  'x, y, z'
loop_
 _atom_site_type_symbol
 _atom_site_label
 _atom_site_symmetry_multiplicity
 _atom_site_fract_x
 _atom_site_fract_y
 _atom_site_fract_z
 _atom_site_occupancy
  K  K0  1  1.62265948  0.62265948  0.62265948  1.0
  K  K1  1  1.37734052  0.37734052  0.37734052  1.0
  K  K2  1  0.79137404  0.79137404  0.79137404  1.0
  K  K3  1  1.20862596  1.20862596  0.20862596  1.0
  Be  Be4  1  0.00000000  0.00000000  0.00000000  1.0
  P  P5  1  0.92099200  0.92099200  0.92099200  1.0
  P  P6  1  1.07900800  1.07900800  0.07900800  1.0
