# generated using pymatgen
data_Ba2Pt
_symmetry_space_group_name_H-M   'P 1'
_cell_length_a   7.88811200
_cell_length_b   7.88811200
_cell_length_c   7.88811200
_cell_angle_alpha   34.13381924
_cell_angle_beta   34.13381924
_cell_angle_gamma   34.13381924
_symmetry_Int_Tables_number   1
_chemical_formula_structural   Ba2Pt
_chemical_formula_sum   'Ba2 Pt1'
_cell_volume   137.78453143
_cell_formula_units_Z   1
loop_
 _symmetry_equiv_pos_site_id
 _symmetry_equiv_pos_as_xyz
  1  'x, y, z'
loop_
 _atom_site_type_symbol
 _atom_site_label
 _atom_site_symmetry_multiplicity
 _atom_site_fract_x
 _atom_site_fract_y
 _atom_site_fract_z
 _atom_site_occupancy
  Ba  Ba0  1  0.74184820  0.74184820  0.74184820  1.0
  Ba  Ba1  1  1.25815180  1.25815180  0.25815180  1.0
  Pt  Pt2  1  0.00000000  0.00000000  -0.00000000  1.0
