# generated using pymatgen
data_CsIO3
_symmetry_space_group_name_H-M   'P 1'
_cell_length_a   4.74473177
_cell_length_b   6.77502911
_cell_length_c   6.87208344
_cell_angle_alpha   90.00000000
_cell_angle_beta   90.00294798
_cell_angle_gamma   90.00000000
_symmetry_Int_Tables_number   1
_chemical_formula_structural   CsIO3
_chemical_formula_sum   'Cs2 I2 O6'
_cell_volume   220.90790382
_cell_formula_units_Z   2
loop_
 _symmetry_equiv_pos_site_id
 _symmetry_equiv_pos_as_xyz
  1  'x, y, z'
loop_
 _atom_site_type_symbol
 _atom_site_label
 _atom_site_symmetry_multiplicity
 _atom_site_fract_x
 _atom_site_fract_y
 _atom_site_fract_z
 _atom_site_occupancy
  Cs  Cs0  1  0.11184157  0.50000000  0.01470853  1.0
  Cs  Cs1  1  0.11612200  0.00000000  0.51471297  1.0
  I  I2  1  0.58506430  0.50000000  0.53179416  1.0
  I  I3  1  0.64290362  0.00000000  0.03178032  1.0
  O  O4  1  0.60540247  0.78375902  0.20160482  1.0
  O  O5  1  0.60540247  0.21624098  0.20160482  1.0
  O  O6  1  0.62264847  0.71625374  0.70160500  1.0
  O  O7  1  0.62264847  0.28374626  0.70160500  1.0
  O  O8  1  0.19423891  0.50000000  0.48327783  1.0
  O  O9  1  0.03372773  0.00000000  -0.01669346  1.0
