# generated using pymatgen
data_Ca3Si(ClO2)2
_symmetry_space_group_name_H-M   'P 1'
_cell_length_a   5.96196443
_cell_length_b   10.25370405
_cell_length_c   11.07467332
_cell_angle_alpha   90.00000000
_cell_angle_beta   89.70706037
_cell_angle_gamma   90.00000000
_symmetry_Int_Tables_number   1
_chemical_formula_structural   Ca3Si(ClO2)2
_chemical_formula_sum   'Ca12 Si4 Cl8 O16'
_cell_volume   677.01050406
_cell_formula_units_Z   4
loop_
 _symmetry_equiv_pos_site_id
 _symmetry_equiv_pos_as_xyz
  1  'x, y, z'
loop_
 _atom_site_type_symbol
 _atom_site_label
 _atom_site_symmetry_multiplicity
 _atom_site_fract_x
 _atom_site_fract_y
 _atom_site_fract_z
 _atom_site_occupancy
  Ca  Ca0  1  0.43494579  0.79185829  0.88523008  1.0
  Ca  Ca1  1  0.43494579  0.70814171  0.38523008  1.0
  Ca  Ca2  1  0.56505421  0.29185829  0.61476992  1.0
  Ca  Ca3  1  0.56505421  0.20814171  0.11476992  1.0
  Ca  Ca4  1  0.75076162  0.94531285  0.61976980  1.0
  Ca  Ca5  1  0.75076162  0.55468715  0.11976980  1.0
  Ca  Ca6  1  0.24923838  0.44531285  0.88023020  1.0
  Ca  Ca7  1  0.24923838  0.05468715  0.38023020  1.0
  Ca  Ca8  1  0.92991561  0.61358309  0.62463648  1.0
  Ca  Ca9  1  0.92991561  0.88641691  0.12463648  1.0
  Ca  Ca10  1  0.07008439  0.11358309  0.87536352  1.0
  Ca  Ca11  1  0.07008439  0.38641691  0.37536352  1.0
  Si  Si12  1  0.93490017  0.76018969  0.87138068  1.0
  Si  Si13  1  0.93490017  0.73981031  0.37138068  1.0
  Si  Si14  1  0.06509983  0.26018969  0.62861932  1.0
  Si  Si15  1  0.06509983  0.23981031  0.12861932  1.0
  Cl  Cl16  1  0.45610140  0.55340026  0.64462667  1.0
  Cl  Cl17  1  0.45610140  0.94659974  0.14462667  1.0
  Cl  Cl18  1  0.54389860  0.05340026  0.85537333  1.0
  Cl  Cl19  1  0.54389860  0.44659974  0.35537333  1.0
  Cl  Cl20  1  0.71817348  0.39680573  0.90337481  1.0
  Cl  Cl21  1  0.71817348  0.10319427  0.40337481  1.0
  Cl  Cl22  1  0.28182652  0.89680573  0.59662519  1.0
  Cl  Cl23  1  0.28182652  0.60319427  0.09662519  1.0
  O  O24  1  0.91804943  0.38846598  0.58468823  1.0
  O  O25  1  0.91804943  0.11153402  0.08468823  1.0
  O  O26  1  0.08195057  0.88846598  0.91531177  1.0
  O  O27  1  0.08195057  0.61153402  0.41531177  1.0
  O  O28  1  0.88660469  0.14733067  0.67261883  1.0
  O  O29  1  0.88660469  0.35266933  0.17261883  1.0
  O  O30  1  0.11339531  0.64733067  0.82738117  1.0
  O  O31  1  0.11339531  0.85266933  0.32738117  1.0
  O  O32  1  0.76708048  0.78541283  0.75658731  1.0
  O  O33  1  0.76708048  0.71458717  0.25658731  1.0
  O  O34  1  0.23291952  0.28541283  0.74341269  1.0
  O  O35  1  0.23291952  0.21458717  0.24341269  1.0
  O  O36  1  0.77003930  0.72590636  0.98733733  1.0
  O  O37  1  0.77003930  0.77409364  0.48733733  1.0
  O  O38  1  0.22996070  0.22590636  0.51266267  1.0
  O  O39  1  0.22996070  0.27409364  0.01266267  1.0
