# generated using pymatgen
data_Cs7(InAs2)3
_symmetry_space_group_name_H-M   'P 1'
_cell_length_a   8.96955653
_cell_length_b   15.21728758
_cell_length_c   9.89306786
_cell_angle_alpha   85.21244815
_cell_angle_beta   85.66225464
_cell_angle_gamma   81.48218429
_symmetry_Int_Tables_number   1
_chemical_formula_structural   Cs7(InAs2)3
_chemical_formula_sum   'Cs14 In6 As12'
_cell_volume   1328.02857705
_cell_formula_units_Z   2
loop_
 _symmetry_equiv_pos_site_id
 _symmetry_equiv_pos_as_xyz
  1  'x, y, z'
loop_
 _atom_site_type_symbol
 _atom_site_label
 _atom_site_symmetry_multiplicity
 _atom_site_fract_x
 _atom_site_fract_y
 _atom_site_fract_z
 _atom_site_occupancy
  Cs  Cs0  1  -0.82997609  -0.12933583  -0.81022108  1.0
  Cs  Cs1  1  -0.17002391  -0.87066417  -0.18977892  1.0
  Cs  Cs2  1  -0.28931806  -0.24710761  -0.26551169  1.0
  Cs  Cs3  1  -0.71068194  -0.75289239  -0.73448831  1.0
  Cs  Cs4  1  -0.75037244  -0.98336963  -0.49232356  1.0
  Cs  Cs5  1  -0.24962756  -0.01663037  -0.50767644  1.0
  Cs  Cs6  1  -0.66069655  -0.87167759  -0.08841616  1.0
  Cs  Cs7  1  -0.33930345  -0.12832241  -0.91158384  1.0
  Cs  Cs8  1  -0.65615399  -0.39308294  -0.64305108  1.0
  Cs  Cs9  1  -0.34384601  -0.60691706  -0.35694892  1.0
  Cs  Cs10  1  -0.75358283  -0.53297884  -0.98283342  1.0
  Cs  Cs11  1  -0.24641717  -0.46702116  -0.01716658  1.0
  Cs  Cs12  1  -0.86537364  -0.64216102  -0.36515915  1.0
  Cs  Cs13  1  -0.13462636  -0.35783898  -0.63484085  1.0
  In  In14  1  -0.91201257  -0.37568753  -0.26536571  1.0
  In  In15  1  -0.08798743  -0.62431247  -0.73463429  1.0
  In  In16  1  -0.97304520  -0.13659276  -0.17267245  1.0
  In  In17  1  -0.02695480  -0.86340724  -0.82732755  1.0
  In  In18  1  -0.65337339  -0.29970492  -0.03466375  1.0
  In  In19  1  -0.34662661  -0.70029508  -0.96533625  1.0
  As  As20  1  -0.64820608  -0.22536774  -0.39139828  1.0
  As  As21  1  -0.35179392  -0.77463226  -0.60860172  1.0
  As  As22  1  -0.48743692  -0.19008180  -0.58761111  1.0
  As  As23  1  -0.51256308  -0.80991820  -0.41238889  1.0
  As  As24  1  -0.91504073  -0.21140680  -0.44371201  1.0
  As  As25  1  -0.08495927  -0.78859320  -0.55628799  1.0
  As  As26  1  -0.58619600  -0.38261734  -0.29200269  1.0
  As  As27  1  -0.41380400  -0.61738266  -0.70799731  1.0
  As  As28  1  -0.65442735  -0.12722924  -0.19317346  1.0
  As  As29  1  -0.34557265  -0.87277076  -0.80682654  1.0
  As  As30  1  -0.97895783  -0.29987481  0.00139858  1.0
  As  As31  1  -0.02104217  -0.70012519  -1.00139858  1.0
