# generated using pymatgen
data_Lu4AlRh
_symmetry_space_group_name_H-M   'P 1'
_cell_length_a   9.31571072
_cell_length_b   9.31571072
_cell_length_c   9.31571072
_cell_angle_alpha   60.00000000
_cell_angle_beta   60.00000000
_cell_angle_gamma   60.00000000
_symmetry_Int_Tables_number   1
_chemical_formula_structural   Lu4AlRh
_chemical_formula_sum   'Lu16 Al4 Rh4'
_cell_volume   571.65365500
_cell_formula_units_Z   4
loop_
 _symmetry_equiv_pos_site_id
 _symmetry_equiv_pos_as_xyz
  1  'x, y, z'
loop_
 _atom_site_type_symbol
 _atom_site_label
 _atom_site_symmetry_multiplicity
 _atom_site_fract_x
 _atom_site_fract_y
 _atom_site_fract_z
 _atom_site_occupancy
  Lu  Lu0  1  -0.35388166  0.64611834  0.64611834  1.0
  Lu  Lu1  1  1.06164499  0.64611834  -0.35388166  1.0
  Lu  Lu2  1  -0.35388166  0.64611834  1.06164499  1.0
  Lu  Lu3  1  0.64611834  1.06164499  -0.35388166  1.0
  Lu  Lu4  1  0.06348823  0.43651177  0.43651177  1.0
  Lu  Lu5  1  0.43651177  0.43651177  0.06348823  1.0
  Lu  Lu6  1  0.43651177  0.06348823  0.43651177  1.0
  Lu  Lu7  1  0.06348823  0.06348823  0.43651177  1.0
  Lu  Lu8  1  0.06348823  0.43651177  0.06348823  1.0
  Lu  Lu9  1  0.43651177  0.06348823  0.06348823  1.0
  Lu  Lu10  1  -0.80653280  0.80653280  0.80653280  1.0
  Lu  Lu11  1  -0.19346720  0.80653280  0.19346720  1.0
  Lu  Lu12  1  -0.19346720  0.19346720  0.80653280  1.0
  Lu  Lu13  1  0.19346720  1.19346720  -0.19346720  1.0
  Lu  Lu14  1  0.19346720  -0.19346720  0.19346720  1.0
  Lu  Lu15  1  -0.19346720  0.19346720  0.19346720  1.0
  Al  Al16  1  0.42139207  1.42139207  0.42139207  1.0
  Al  Al17  1  -0.26417620  0.42139207  0.42139207  1.0
  Al  Al18  1  0.42139207  1.42139207  -0.26417620  1.0
  Al  Al19  1  0.42139207  -0.26417620  0.42139207  1.0
  Rh  Rh20  1  0.85675804  0.85675804  -0.14324196  1.0
  Rh  Rh21  1  0.42972588  0.85675804  -0.14324196  1.0
  Rh  Rh22  1  0.85675804  0.85675804  -0.57027412  1.0
  Rh  Rh23  1  0.85675804  0.42972588  -0.14324196  1.0
