# generated using pymatgen
data_Ba6GdFe(BO3)6
_symmetry_space_group_name_H-M   'P 1'
_cell_length_a   8.12592350
_cell_length_b   8.12592350
_cell_length_c   8.12592350
_cell_angle_alpha   105.82299182
_cell_angle_beta   105.82299182
_cell_angle_gamma   105.82299182
_symmetry_Int_Tables_number   1
_chemical_formula_structural   Ba6GdFe(BO3)6
_chemical_formula_sum   'Ba6 Gd1 Fe1 B6 O18'
_cell_volume   460.44696245
_cell_formula_units_Z   1
loop_
 _symmetry_equiv_pos_site_id
 _symmetry_equiv_pos_as_xyz
  1  'x, y, z'
loop_
 _atom_site_type_symbol
 _atom_site_label
 _atom_site_symmetry_multiplicity
 _atom_site_fract_x
 _atom_site_fract_y
 _atom_site_fract_z
 _atom_site_occupancy
  Fe  Fe0  1  0.00000000  0.00000000  0.00000000  1.0
  O  O1  1  1.49222692  0.77084186  -0.31214740  1.0
  O  O2  1  1.22915814  0.31214740  -0.49222692  1.0
  O  O3  1  1.31214740  -0.49222692  0.22915814  1.0
  O  O4  1  0.50777308  0.22915814  0.31214740  1.0
  O  O5  1  0.77084186  0.68785260  0.49222692  1.0
  O  O6  1  0.68785260  1.49222692  -0.22915814  1.0
  O  O7  1  0.55827116  0.29276424  0.05283196  1.0
  O  O8  1  0.70723576  0.94716804  0.44172884  1.0
  O  O9  1  0.94716804  1.44172884  -0.29276424  1.0
  O  O10  1  1.44172884  0.70723576  -0.05283196  1.0
  O  O11  1  1.29276424  0.05283196  -0.44172884  1.0
  O  O12  1  1.05283196  -0.44172884  0.29276424  1.0
  O  O13  1  0.73188043  0.92841988  -0.00862399  1.0
  O  O14  1  1.07158012  0.00862399  -0.73188043  1.0
  O  O15  1  1.00862399  -0.73188043  0.07158012  1.0
  O  O16  1  0.26811957  0.07158012  0.00862399  1.0
  O  O17  1  0.92841988  0.99137601  -0.26811957  1.0
  O  O18  1  0.99137601  0.73188043  -0.07158012  1.0
  Gd  Gd19  1  0.50000000  0.50000000  0.50000000  1.0
  Ba  Ba20  1  0.76829430  0.66892355  0.15348356  1.0
  Ba  Ba21  1  1.33107645  -0.15348356  0.23170570  1.0
  Ba  Ba22  1  0.84651644  0.23170570  0.33107645  1.0
  Ba  Ba23  1  1.23170570  0.33107645  -0.15348356  1.0
  Ba  Ba24  1  0.66892355  1.15348356  -0.23170570  1.0
  Ba  Ba25  1  1.15348356  0.76829430  -0.33107645  1.0
  B  B26  1  1.55488297  0.79788705  -0.12521347  1.0
  B  B27  1  1.20211295  0.12521347  -0.55488297  1.0
  B  B28  1  1.12521347  -0.55488297  0.20211295  1.0
  B  B29  1  0.44511703  0.20211295  0.12521347  1.0
  B  B30  1  0.79788705  0.87478653  0.55488297  1.0
  B  B31  1  0.87478653  1.55488297  -0.20211295  1.0
