# generated using pymatgen
data_Ti3Mn3O
_symmetry_space_group_name_H-M   'P 1'
_cell_length_a   7.84965986
_cell_length_b   7.84965986
_cell_length_c   7.84965986
_cell_angle_alpha   60.00000000
_cell_angle_beta   60.00000000
_cell_angle_gamma   60.00000000
_symmetry_Int_Tables_number   1
_chemical_formula_structural   Ti3Mn3O
_chemical_formula_sum   'Ti12 Mn12 O4'
_cell_volume   342.00898609
_cell_formula_units_Z   4
loop_
 _symmetry_equiv_pos_site_id
 _symmetry_equiv_pos_as_xyz
  1  'x, y, z'
loop_
 _atom_site_type_symbol
 _atom_site_label
 _atom_site_symmetry_multiplicity
 _atom_site_fract_x
 _atom_site_fract_y
 _atom_site_fract_z
 _atom_site_occupancy
  Mn  Mn0  1  0.12500000  0.12500000  1.62500000  1.0
  Mn  Mn1  1  0.12500000  0.62500000  1.12500000  1.0
  Mn  Mn2  1  1.62500000  0.12500000  0.12500000  1.0
  Mn  Mn3  1  1.12500000  0.12500000  0.12500000  1.0
  Mn  Mn4  1  0.92096538  -0.07903462  0.23710387  1.0
  Mn  Mn5  1  0.92096538  -0.76289613  0.92096538  1.0
  Mn  Mn6  1  0.23710387  0.92096538  0.92096538  1.0
  Mn  Mn7  1  0.92096538  0.92096538  0.92096538  1.0
  Mn  Mn8  1  1.32903462  0.32903462  0.01289613  1.0
  Mn  Mn9  1  1.32903462  0.01289613  0.32903462  1.0
  Mn  Mn10  1  1.01289613  0.32903462  0.32903462  1.0
  Mn  Mn11  1  1.32903462  0.32903462  0.32903462  1.0
  Ti  Ti12  1  0.55681972  0.55681972  0.94318028  1.0
  Ti  Ti13  1  0.94318028  0.55681972  0.94318028  1.0
  Ti  Ti14  1  0.55681972  0.94318028  0.94318028  1.0
  Ti  Ti15  1  0.94318028  0.94318028  0.55681972  1.0
  Ti  Ti16  1  0.55681972  0.94318028  0.55681972  1.0
  Ti  Ti17  1  0.94318028  0.55681972  0.55681972  1.0
  Ti  Ti18  1  0.69318028  0.69318028  -0.69318028  1.0
  Ti  Ti19  1  1.30681972  -0.30681972  0.30681972  1.0
  Ti  Ti20  1  -0.30681972  0.30681972  0.30681972  1.0
  Ti  Ti21  1  0.30681972  0.30681972  -0.30681972  1.0
  Ti  Ti22  1  0.69318028  -0.69318028  0.69318028  1.0
  Ti  Ti23  1  -0.69318028  0.69318028  0.69318028  1.0
  O  O24  1  0.62500000  0.62500000  1.12500000  1.0
  O  O25  1  0.62500000  1.12500000  0.62500000  1.0
  O  O26  1  1.12500000  0.62500000  0.62500000  1.0
  O  O27  1  0.62500000  0.62500000  0.62500000  1.0
