# generated using pymatgen
data_Ta9VO25
_symmetry_space_group_name_H-M   'P 1'
_cell_length_a   11.39461223
_cell_length_b   11.39461223
_cell_length_c   11.39461223
_cell_angle_alpha   91.64260896
_cell_angle_beta   91.64260896
_cell_angle_gamma   160.50489135
_symmetry_Int_Tables_number   1
_chemical_formula_structural   Ta9VO25
_chemical_formula_sum   'Ta9 V1 O25'
_cell_volume   486.60180038
_cell_formula_units_Z   1
loop_
 _symmetry_equiv_pos_site_id
 _symmetry_equiv_pos_as_xyz
  1  'x, y, z'
loop_
 _atom_site_type_symbol
 _atom_site_label
 _atom_site_symmetry_multiplicity
 _atom_site_fract_x
 _atom_site_fract_y
 _atom_site_fract_z
 _atom_site_occupancy
  Ta  Ta0  1  0.88333986  0.67950177  0.55820493  1.0
  Ta  Ta1  1  1.67486508  1.11666014  0.79616192  1.0
  Ta  Ta2  1  1.12129684  1.32513492  1.44179507  1.0
  Ta  Ta3  1  1.32049823  1.87870316  1.20383808  1.0
  Ta  Ta4  1  0.77727675  0.89483988  1.67722454  1.0
  Ta  Ta5  1  0.89994779  1.22272325  1.11756313  1.0
  Ta  Ta6  1  0.21761534  0.10005221  0.32277546  1.0
  Ta  Ta7  1  1.10516012  0.78238466  0.88243687  1.0
  Ta  Ta8  1  0.00000000  0.00000000  0.00000000  1.0
  V  V9  1  0.75000000  0.25000000  0.50000000  1.0
  O  O10  1  0.99307193  0.72762015  0.71050768  1.0
  O  O11  1  1.71743575  1.00692807  0.73454822  1.0
  O  O12  1  1.01711247  1.28256425  1.28949232  1.0
  O  O13  1  1.27237985  1.98288753  1.26545178  1.0
  O  O14  1  0.91617634  0.54535890  0.48804473  1.0
  O  O15  1  1.57186838  1.08382366  0.62918255  1.0
  O  O16  1  1.05731417  1.42813162  1.51195527  1.0
  O  O17  1  1.45464110  1.94268583  1.37081745  1.0
  O  O18  1  1.88407437  1.94731022  1.83241768  1.0
  O  O19  1  0.94834331  1.11592563  1.06323586  1.0
  O  O20  1  1.11489254  1.05165669  0.16758232  1.0
  O  O21  1  1.05268978  0.88510746  0.93676414  1.0
  O  O22  1  0.81603597  0.77651067  0.60796191  1.0
  O  O23  1  1.79192594  1.18396403  0.96047470  1.0
  O  O24  1  1.16854876  1.20807406  1.39203809  1.0
  O  O25  1  1.22348933  1.83145124  1.03952530  1.0
  O  O26  1  0.74910738  0.60913139  0.36505577  1.0
  O  O27  1  1.61594839  1.25089262  0.86002401  1.0
  O  O28  1  1.24407561  1.38405161  1.63494423  1.0
  O  O29  1  1.39086861  1.75592439  1.13997599  1.0
  O  O30  1  0.64466376  0.83756188  1.48891361  1.0
  O  O31  1  0.84424984  1.35533624  1.19289811  1.0
  O  O32  1  0.34864827  0.15575016  0.51108639  1.0
  O  O33  1  1.16243812  0.65135173  0.80710189  1.0
  O  O34  1  0.50000000  0.50000000  -0.00000000  1.0
