# generated using pymatgen
data_Sr2Mn3(SbO)2
_symmetry_space_group_name_H-M   'P 1'
_cell_length_a   10.45839485
_cell_length_b   10.45839485
_cell_length_c   10.45839485
_cell_angle_alpha   157.54672363
_cell_angle_beta   157.54672363
_cell_angle_gamma   31.96381536
_symmetry_Int_Tables_number   1
_chemical_formula_structural   Sr2Mn3(SbO)2
_chemical_formula_sum   'Sr2 Mn3 Sb2 O2'
_cell_volume   166.73435935
_cell_formula_units_Z   1
loop_
 _symmetry_equiv_pos_site_id
 _symmetry_equiv_pos_as_xyz
  1  'x, y, z'
loop_
 _atom_site_type_symbol
 _atom_site_label
 _atom_site_symmetry_multiplicity
 _atom_site_fract_x
 _atom_site_fract_y
 _atom_site_fract_z
 _atom_site_occupancy
  Sr  Sr0  1  0.58390092  0.58390092  1.00000000  1.0
  Sr  Sr1  1  0.41609908  0.41609908  -0.00000000  1.0
  Mn  Mn2  1  0.25000000  0.75000000  0.50000000  1.0
  Mn  Mn3  1  0.75000000  0.25000000  0.50000000  1.0
  Mn  Mn4  1  -0.00000000  -0.00000000  -0.00000000  1.0
  Sb  Sb5  1  0.83160463  0.83160463  1.00000000  1.0
  Sb  Sb6  1  0.16839537  0.16839537  0.00000000  1.0
  O  O7  1  0.50000000  -0.00000000  0.50000000  1.0
  O  O8  1  0.00000000  0.50000000  0.50000000  1.0
