# generated using pymatgen
data_Ga4HCl6
_symmetry_space_group_name_H-M   'P 1'
_cell_length_a   14.58512038
_cell_length_b   9.99871951
_cell_length_c   8.34216102
_cell_angle_alpha   90.00000000
_cell_angle_beta   90.00000000
_cell_angle_gamma   90.00000000
_symmetry_Int_Tables_number   1
_chemical_formula_structural   Ga4HCl6
_chemical_formula_sum   'Ga16 H4 Cl24'
_cell_volume   1216.55842757
_cell_formula_units_Z   4
loop_
 _symmetry_equiv_pos_site_id
 _symmetry_equiv_pos_as_xyz
  1  'x, y, z'
loop_
 _atom_site_type_symbol
 _atom_site_label
 _atom_site_symmetry_multiplicity
 _atom_site_fract_x
 _atom_site_fract_y
 _atom_site_fract_z
 _atom_site_occupancy
  Ga  Ga0  1  0.26907362  0.09883592  0.20928221  1.0
  Ga  Ga1  1  0.76907362  0.90116408  0.70928221  1.0
  Ga  Ga2  1  0.73092638  0.09883592  0.20928221  1.0
  Ga  Ga3  1  0.23092638  0.90116408  0.70928221  1.0
  Ga  Ga4  1  0.25072687  0.69293676  0.30150064  1.0
  Ga  Ga5  1  0.75072687  0.30706324  0.80150064  1.0
  Ga  Ga6  1  0.74927313  0.69293676  0.30150064  1.0
  Ga  Ga7  1  0.24927313  0.30706324  0.80150064  1.0
  Ga  Ga8  1  0.50000000  0.10190401  0.45979352  1.0
  Ga  Ga9  1  0.00000000  0.89809599  0.95979352  1.0
  Ga  Ga10  1  0.50000000  0.45045122  0.20634788  1.0
  Ga  Ga11  1  0.00000000  0.54954878  0.70634788  1.0
  Ga  Ga12  1  0.50000000  0.49621627  0.49218324  1.0
  Ga  Ga13  1  0.00000000  0.50378373  -0.00781676  1.0
  Ga  Ga14  1  0.50000000  0.75256067  0.84190377  1.0
  Ga  Ga15  1  0.00000000  0.24743933  0.34190377  1.0
  H  H16  1  0.27904358  0.16307514  0.04067592  1.0
  H  H17  1  0.77904358  0.83692486  0.54067592  1.0
  H  H18  1  0.72095642  0.16307514  0.04067592  1.0
  H  H19  1  0.22095642  0.83692486  0.54067592  1.0
  Cl  Cl20  1  0.37836670  0.54981959  0.08158392  1.0
  Cl  Cl21  1  0.87836670  0.45018041  0.58158392  1.0
  Cl  Cl22  1  0.62163330  0.54981959  0.08158392  1.0
  Cl  Cl23  1  0.12163330  0.45018041  0.58158392  1.0
  Cl  Cl24  1  0.30573790  0.23097528  0.41629277  1.0
  Cl  Cl25  1  0.80573790  0.76902472  0.91629277  1.0
  Cl  Cl26  1  0.69426210  0.23097528  0.41629277  1.0
  Cl  Cl27  1  0.19426210  0.76902472  0.91629277  1.0
  Cl  Cl28  1  0.13840758  0.08225464  0.74441483  1.0
  Cl  Cl29  1  0.63840758  0.91774536  0.24441483  1.0
  Cl  Cl30  1  0.86159242  0.08225464  0.74441483  1.0
  Cl  Cl31  1  0.36159242  0.91774536  0.24441483  1.0
  Cl  Cl32  1  0.12706676  0.02094562  0.26273639  1.0
  Cl  Cl33  1  0.62706676  0.97905438  0.76273639  1.0
  Cl  Cl34  1  0.87293324  0.02094562  0.26273639  1.0
  Cl  Cl35  1  0.37293324  0.97905438  0.76273639  1.0
  Cl  Cl36  1  0.12087774  0.37303280  0.07298092  1.0
  Cl  Cl37  1  0.62087774  0.62696720  0.57298092  1.0
  Cl  Cl38  1  0.87912226  0.37303280  0.07298092  1.0
  Cl  Cl39  1  0.37912226  0.62696720  0.57298092  1.0
  Cl  Cl40  1  0.50000000  0.23761833  0.12532870  1.0
  Cl  Cl41  1  0.00000000  0.76238167  0.62532870  1.0
  Cl  Cl42  1  0.50000000  0.33303012  0.67830771  1.0
  Cl  Cl43  1  0.00000000  0.66696988  0.17830771  1.0
