# generated using pymatgen
data_NaIn2Au
_symmetry_space_group_name_H-M   'P 1'
_cell_length_a   5.75054862
_cell_length_b   5.75054862
_cell_length_c   8.06793523
_cell_angle_alpha   90.00000000
_cell_angle_beta   90.00000000
_cell_angle_gamma   133.45223295
_symmetry_Int_Tables_number   1
_chemical_formula_structural   NaIn2Au
_chemical_formula_sum   'Na2 In4 Au2'
_cell_volume   193.68075608
_cell_formula_units_Z   2
loop_
 _symmetry_equiv_pos_site_id
 _symmetry_equiv_pos_as_xyz
  1  'x, y, z'
loop_
 _atom_site_type_symbol
 _atom_site_label
 _atom_site_symmetry_multiplicity
 _atom_site_fract_x
 _atom_site_fract_y
 _atom_site_fract_z
 _atom_site_occupancy
  Na  Na0  1  0.43084685  0.56915315  0.75000000  1.0
  Na  Na1  1  -0.43084685  0.43084685  0.25000000  1.0
  In  In2  1  0.13997394  0.86002606  0.94822879  1.0
  In  In3  1  0.13997394  0.86002606  0.55177121  1.0
  In  In4  1  -0.13997394  0.13997394  0.44822879  1.0
  In  In5  1  -0.13997394  0.13997394  0.05177121  1.0
  Au  Au6  1  -0.28341732  0.28341732  0.75000000  1.0
  Au  Au7  1  0.28341732  0.71658268  0.25000000  1.0
