# generated using pymatgen
data_Li5Ca7Sn11
_symmetry_space_group_name_H-M   'P 1'
_cell_length_a   8.91346686
_cell_length_b   8.91346686
_cell_length_c   31.76053143
_cell_angle_alpha   90.00000000
_cell_angle_beta   90.00000000
_cell_angle_gamma   149.73317973
_symmetry_Int_Tables_number   1
_chemical_formula_structural   Li5Ca7Sn11
_chemical_formula_sum   'Li10 Ca14 Sn22'
_cell_volume   1271.84839085
_cell_formula_units_Z   2
loop_
 _symmetry_equiv_pos_site_id
 _symmetry_equiv_pos_as_xyz
  1  'x, y, z'
loop_
 _atom_site_type_symbol
 _atom_site_label
 _atom_site_symmetry_multiplicity
 _atom_site_fract_x
 _atom_site_fract_y
 _atom_site_fract_z
 _atom_site_occupancy
  Li  Li0  1  0.20256834  0.79743166  0.96919159  1.0
  Li  Li1  1  0.20256834  0.79743166  0.53080841  1.0
  Li  Li2  1  -0.20256834  0.20256834  0.46919159  1.0
  Li  Li3  1  -0.20256834  0.20256834  0.03080841  1.0
  Li  Li4  1  0.28997616  0.71002384  0.88501206  1.0
  Li  Li5  1  0.28997616  0.71002384  0.61498794  1.0
  Li  Li6  1  -0.28997616  0.28997616  0.38501206  1.0
  Li  Li7  1  -0.28997616  0.28997616  0.11498794  1.0
  Li  Li8  1  -0.17175518  0.17175518  0.75000000  1.0
  Li  Li9  1  0.17175518  0.82824482  0.25000000  1.0
  Ca  Ca10  1  0.39936605  0.60063395  0.97236002  1.0
  Ca  Ca11  1  0.39936605  0.60063395  0.52763998  1.0
  Ca  Ca12  1  -0.39936605  0.39936605  0.47236002  1.0
  Ca  Ca13  1  -0.39936605  0.39936605  0.02763998  1.0
  Ca  Ca14  1  0.44332165  0.55667835  0.81694918  1.0
  Ca  Ca15  1  0.44332165  0.55667835  0.68305082  1.0
  Ca  Ca16  1  -0.44332165  0.44332165  0.31694918  1.0
  Ca  Ca17  1  -0.44332165  0.44332165  0.18305082  1.0
  Ca  Ca18  1  -0.39573079  0.39573079  0.89731531  1.0
  Ca  Ca19  1  -0.39573079  0.39573079  0.60268469  1.0
  Ca  Ca20  1  0.39573079  0.60426921  0.39731531  1.0
  Ca  Ca21  1  0.39573079  0.60426921  0.10268469  1.0
  Ca  Ca22  1  -0.36408248  0.36408248  0.75000000  1.0
  Ca  Ca23  1  0.36408248  0.63591752  0.25000000  1.0
  Sn  Sn24  1  0.04043317  0.95956683  0.95985021  1.0
  Sn  Sn25  1  0.04043317  0.95956683  0.54014979  1.0
  Sn  Sn26  1  -0.04043317  0.04043317  0.45985021  1.0
  Sn  Sn27  1  -0.04043317  0.04043317  0.04014979  1.0
  Sn  Sn28  1  0.07994933  0.92005067  0.39281143  1.0
  Sn  Sn29  1  0.07994933  0.92005067  0.10718857  1.0
  Sn  Sn30  1  -0.07994933  0.07994933  0.89281143  1.0
  Sn  Sn31  1  -0.07994933  0.07994933  0.60718857  1.0
  Sn  Sn32  1  0.09488470  0.90511530  0.82493176  1.0
  Sn  Sn33  1  0.09488470  0.90511530  0.67506824  1.0
  Sn  Sn34  1  -0.09488470  0.09488470  0.32493176  1.0
  Sn  Sn35  1  -0.09488470  0.09488470  0.17506824  1.0
  Sn  Sn36  1  0.22613872  0.77386128  0.44085478  1.0
  Sn  Sn37  1  0.22613872  0.77386128  0.05914522  1.0
  Sn  Sn38  1  -0.22613872  0.22613872  0.94085478  1.0
  Sn  Sn39  1  -0.22613872  0.22613872  0.55914522  1.0
  Sn  Sn40  1  0.25633732  0.74366268  0.79513203  1.0
  Sn  Sn41  1  0.25633732  0.74366268  0.70486797  1.0
  Sn  Sn42  1  -0.25633732  0.25633732  0.29513203  1.0
  Sn  Sn43  1  -0.25633732  0.25633732  0.20486797  1.0
  Sn  Sn44  1  -0.00464613  1.00464613  0.75000000  1.0
  Sn  Sn45  1  0.00464613  -0.00464613  0.25000000  1.0
