# generated using pymatgen
data_CsYbCoS3
_symmetry_space_group_name_H-M   'P 1'
_cell_length_a   8.01478686
_cell_length_b   8.01478686
_cell_length_c   10.48328497
_cell_angle_alpha   90.00000000
_cell_angle_beta   90.00000000
_cell_angle_gamma   151.61331586
_symmetry_Int_Tables_number   1
_chemical_formula_structural   CsYbCoS3
_chemical_formula_sum   'Cs2 Yb2 Co2 S6'
_cell_volume   320.15373715
_cell_formula_units_Z   2
loop_
 _symmetry_equiv_pos_site_id
 _symmetry_equiv_pos_as_xyz
  1  'x, y, z'
loop_
 _atom_site_type_symbol
 _atom_site_label
 _atom_site_symmetry_multiplicity
 _atom_site_fract_x
 _atom_site_fract_y
 _atom_site_fract_z
 _atom_site_occupancy
  Cs  Cs0  1  -0.26260186  0.26260186  0.75000000  1.0
  Cs  Cs1  1  0.26260186  0.73739814  0.25000000  1.0
  Yb  Yb2  1  0.00000000  0.00000000  0.00000000  1.0
  Yb  Yb3  1  0.00000000  0.00000000  0.50000000  1.0
  Co  Co4  1  0.46485654  0.53514346  0.75000000  1.0
  Co  Co5  1  -0.46485654  0.46485654  0.25000000  1.0
  S  S6  1  0.38854415  0.61145585  0.93024923  1.0
  S  S7  1  0.38854415  0.61145585  0.56975077  1.0
  S  S8  1  -0.38854415  0.38854415  0.43024923  1.0
  S  S9  1  -0.38854415  0.38854415  0.06975077  1.0
  S  S10  1  0.04712146  0.95287854  0.75000000  1.0
  S  S11  1  -0.04712146  0.04712146  0.25000000  1.0
