# generated using pymatgen
data_Na3AlF6
_symmetry_space_group_name_H-M   'P 1'
_cell_length_a   5.49344089
_cell_length_b   5.70034444
_cell_length_c   9.62357366
_cell_angle_alpha   90.00000000
_cell_angle_beta   124.64464561
_cell_angle_gamma   90.00000000
_symmetry_Int_Tables_number   1
_chemical_formula_structural   Na3AlF6
_chemical_formula_sum   'Na6 Al2 F12'
_cell_volume   247.92485813
_cell_formula_units_Z   2
loop_
 _symmetry_equiv_pos_site_id
 _symmetry_equiv_pos_as_xyz
  1  'x, y, z'
loop_
 _atom_site_type_symbol
 _atom_site_label
 _atom_site_symmetry_multiplicity
 _atom_site_fract_x
 _atom_site_fract_y
 _atom_site_fract_z
 _atom_site_occupancy
  Na  Na0  1  0.73020690  0.05297003  0.24579600  1.0
  Na  Na1  1  0.73020690  0.44702997  0.74579600  1.0
  Na  Na2  1  0.26979310  0.55297003  0.25420400  1.0
  Na  Na3  1  0.26979310  0.94702997  0.75420400  1.0
  Na  Na4  1  0.50000000  0.50000000  -0.00000000  1.0
  Na  Na5  1  0.50000000  -0.00000000  0.50000000  1.0
  Al  Al6  1  0.00000000  0.50000000  0.50000000  1.0
  Al  Al7  1  0.00000000  0.00000000  0.00000000  1.0
  F  F8  1  0.89041390  0.45032047  0.28245550  1.0
  F  F9  1  0.89041390  0.04967953  0.78245550  1.0
  F  F10  1  0.10958610  0.95032047  0.21754450  1.0
  F  F11  1  0.10958610  0.54967953  0.71754450  1.0
  F  F12  1  0.76874754  0.76658180  0.43264096  1.0
  F  F13  1  0.76874754  0.73341820  0.93264096  1.0
  F  F14  1  0.23125246  0.26658180  0.06735904  1.0
  F  F15  1  0.23125246  0.23341820  0.56735904  1.0
  F  F16  1  0.68111601  0.32531305  0.45276151  1.0
  F  F17  1  0.68111601  0.17468695  0.95276151  1.0
  F  F18  1  0.31888399  0.82531305  0.04723849  1.0
  F  F19  1  0.31888399  0.67468695  0.54723849  1.0
