# generated using pymatgen
data_KPF6
_symmetry_space_group_name_H-M   'P 1'
_cell_length_a   4.94244993
_cell_length_b   4.94244993
_cell_length_c   4.94244993
_cell_angle_alpha   98.00476609
_cell_angle_beta   98.00476609
_cell_angle_gamma   98.00476609
_symmetry_Int_Tables_number   1
_chemical_formula_structural   KPF6
_chemical_formula_sum   'K1 P1 F6'
_cell_volume   116.83227421
_cell_formula_units_Z   1
loop_
 _symmetry_equiv_pos_site_id
 _symmetry_equiv_pos_as_xyz
  1  'x, y, z'
loop_
 _atom_site_type_symbol
 _atom_site_label
 _atom_site_symmetry_multiplicity
 _atom_site_fract_x
 _atom_site_fract_y
 _atom_site_fract_z
 _atom_site_occupancy
  K  K0  1  0.50000000  0.50000000  0.50000000  1.0
  P  P1  1  0.00000000  0.00000000  0.00000000  1.0
  F  F2  1  0.76541056  0.76438449  0.07550784  1.0
  F  F3  1  1.23561551  -0.07550784  0.23458944  1.0
  F  F4  1  0.92449216  0.23458944  0.23561551  1.0
  F  F5  1  1.23458944  0.23561551  -0.07550784  1.0
  F  F6  1  0.76438449  1.07550784  -0.23458944  1.0
  F  F7  1  1.07550784  0.76541056  -0.23561551  1.0
