# generated using pymatgen
data_GaSi(MoS2)4
_symmetry_space_group_name_H-M   'P 1'
_cell_length_a   7.48380957
_cell_length_b   7.48380957
_cell_length_c   7.48380957
_cell_angle_alpha   60.00000000
_cell_angle_beta   60.00000000
_cell_angle_gamma   60.00000000
_symmetry_Int_Tables_number   1
_chemical_formula_structural   GaSi(MoS2)4
_chemical_formula_sum   'Ga1 Si1 Mo4 S8'
_cell_volume   296.38292915
_cell_formula_units_Z   1
loop_
 _symmetry_equiv_pos_site_id
 _symmetry_equiv_pos_as_xyz
  1  'x, y, z'
loop_
 _atom_site_type_symbol
 _atom_site_label
 _atom_site_symmetry_multiplicity
 _atom_site_fract_x
 _atom_site_fract_y
 _atom_site_fract_z
 _atom_site_occupancy
  Ga  Ga0  1  -0.00000000  -0.00000000  0.00000000  1.0
  Si  Si1  1  0.75000000  0.75000000  -0.25000000  1.0
  Mo  Mo2  1  -0.40601253  0.59398747  0.59398747  1.0
  Mo  Mo3  1  1.21803759  0.59398747  -0.40601253  1.0
  Mo  Mo4  1  -0.40601253  0.59398747  1.21803759  1.0
  Mo  Mo5  1  0.59398747  1.21803759  -0.40601253  1.0
  S  S6  1  0.86391364  0.86391364  -0.13608636  1.0
  S  S7  1  0.40825907  0.86391364  -0.13608636  1.0
  S  S8  1  0.86391364  0.86391364  -0.59174093  1.0
  S  S9  1  0.86391364  0.40825907  -0.13608636  1.0
  S  S10  1  0.37565870  1.37565870  0.37565870  1.0
  S  S11  1  -0.12697611  0.37565870  0.37565870  1.0
  S  S12  1  0.37565870  1.37565870  -0.12697611  1.0
  S  S13  1  0.37565870  -0.12697611  0.37565870  1.0
