# generated using pymatgen
data_Sr2LuCu2(BiO4)2
_symmetry_space_group_name_H-M   'P 1'
_cell_length_a   15.59340231
_cell_length_b   15.59340231
_cell_length_c   15.59340231
_cell_angle_alpha   166.06765638
_cell_angle_beta   166.06765638
_cell_angle_gamma   19.75247200
_symmetry_Int_Tables_number   1
_chemical_formula_structural   Sr2LuCu2(BiO4)2
_chemical_formula_sum   'Sr2 Lu1 Cu2 Bi2 O8'
_cell_volume   219.78626697
_cell_formula_units_Z   1
loop_
 _symmetry_equiv_pos_site_id
 _symmetry_equiv_pos_as_xyz
  1  'x, y, z'
loop_
 _atom_site_type_symbol
 _atom_site_label
 _atom_site_symmetry_multiplicity
 _atom_site_fract_x
 _atom_site_fract_y
 _atom_site_fract_z
 _atom_site_occupancy
  Sr  Sr0  1  0.88698894  0.88698894  1.00000000  1.0
  Sr  Sr1  1  0.11301106  0.11301106  -0.00000000  1.0
  Lu  Lu2  1  0.00000000  0.00000000  0.00000000  1.0
  Cu  Cu3  1  0.55028408  0.55028408  1.00000000  1.0
  Cu  Cu4  1  0.44971592  0.44971592  -0.00000000  1.0
  Bi  Bi5  1  0.70183046  0.70183046  1.00000000  1.0
  Bi  Bi6  1  0.29816954  0.29816954  -0.00000000  1.0
  O  O7  1  0.63313905  0.63313905  1.00000000  1.0
  O  O8  1  0.36686095  0.36686095  -0.00000000  1.0
  O  O9  1  0.45296266  0.95296266  0.50000000  1.0
  O  O10  1  0.54703734  0.04703734  0.50000000  1.0
  O  O11  1  0.95296266  0.45296266  0.50000000  1.0
  O  O12  1  0.04703734  0.54703734  0.50000000  1.0
  O  O13  1  0.80096222  0.80096222  1.00000000  1.0
  O  O14  1  0.19903778  0.19903778  -0.00000000  1.0
