# generated using pymatgen
data_Ti6Ga16Pt7
_symmetry_space_group_name_H-M   'P 1'
_cell_length_a   8.73625199
_cell_length_b   8.73625199
_cell_length_c   8.73625199
_cell_angle_alpha   60.00000000
_cell_angle_beta   60.00000000
_cell_angle_gamma   60.00000000
_symmetry_Int_Tables_number   1
_chemical_formula_structural   Ti6Ga16Pt7
_chemical_formula_sum   'Ti6 Ga16 Pt7'
_cell_volume   471.47694299
_cell_formula_units_Z   1
loop_
 _symmetry_equiv_pos_site_id
 _symmetry_equiv_pos_as_xyz
  1  'x, y, z'
loop_
 _atom_site_type_symbol
 _atom_site_label
 _atom_site_symmetry_multiplicity
 _atom_site_fract_x
 _atom_site_fract_y
 _atom_site_fract_z
 _atom_site_occupancy
  Ti  Ti0  1  -0.67368149  0.67368149  0.67368149  1.0
  Ti  Ti1  1  -0.32631851  0.32631851  0.67368149  1.0
  Ti  Ti2  1  0.67368149  0.67368149  -0.67368149  1.0
  Ti  Ti3  1  0.32631851  1.32631851  -0.32631851  1.0
  Ti  Ti4  1  0.32631851  -0.32631851  1.32631851  1.0
  Ti  Ti5  1  -0.32631851  0.32631851  0.32631851  1.0
  Ga  Ga6  1  0.65429754  0.65429754  -0.34570246  1.0
  Ga  Ga7  1  1.34570246  0.34570246  -0.03710739  1.0
  Ga  Ga8  1  1.34570246  -0.03710739  0.34570246  1.0
  Ga  Ga9  1  1.03710739  0.65429754  -0.34570246  1.0
  Ga  Ga10  1  0.96289261  0.34570246  0.34570246  1.0
  Ga  Ga11  1  0.65429754  1.03710739  -0.34570246  1.0
  Ga  Ga12  1  0.65429754  0.65429754  0.03710739  1.0
  Ga  Ga13  1  1.34570246  0.34570246  0.34570246  1.0
  Ga  Ga14  1  0.87843584  0.87843584  -0.12156416  1.0
  Ga  Ga15  1  1.12156416  0.12156416  0.63530751  1.0
  Ga  Ga16  1  1.12156416  0.63530751  0.12156416  1.0
  Ga  Ga17  1  0.36469249  0.87843584  -0.12156416  1.0
  Ga  Ga18  1  1.63530751  0.12156416  0.12156416  1.0
  Ga  Ga19  1  0.87843584  0.36469249  -0.12156416  1.0
  Ga  Ga20  1  0.87843584  0.87843584  -0.63530751  1.0
  Ga  Ga21  1  1.12156416  0.12156416  0.12156416  1.0
  Pt  Pt22  1  -0.00000000  0.00000000  -0.00000000  1.0
  Pt  Pt23  1  1.50000000  -0.00000000  0.00000000  1.0
  Pt  Pt24  1  1.00000000  0.50000000  -0.50000000  1.0
  Pt  Pt25  1  -0.00000000  1.50000000  0.00000000  1.0
  Pt  Pt26  1  0.50000000  1.00000000  -0.50000000  1.0
  Pt  Pt27  1  -0.00000000  -0.00000000  0.50000000  1.0
  Pt  Pt28  1  0.50000000  -0.50000000  1.00000000  1.0
