# generated using pymatgen
data_Li3FeF6
_symmetry_space_group_name_H-M   'P 1'
_cell_length_a   5.50092228
_cell_length_b   5.50092228
_cell_length_c   5.50092228
_cell_angle_alpha   60.00000000
_cell_angle_beta   60.00000000
_cell_angle_gamma   60.00000000
_symmetry_Int_Tables_number   1
_chemical_formula_structural   Li3FeF6
_chemical_formula_sum   'Li3 Fe1 F6'
_cell_volume   117.70408307
_cell_formula_units_Z   1
loop_
 _symmetry_equiv_pos_site_id
 _symmetry_equiv_pos_as_xyz
  1  'x, y, z'
loop_
 _atom_site_type_symbol
 _atom_site_label
 _atom_site_symmetry_multiplicity
 _atom_site_fract_x
 _atom_site_fract_y
 _atom_site_fract_z
 _atom_site_occupancy
  Li  Li0  1  0.75000000  0.75000000  -0.25000000  1.0
  Li  Li1  1  1.25000000  0.25000000  0.25000000  1.0
  Li  Li2  1  -0.50000000  0.50000000  0.50000000  1.0
  Fe  Fe3  1  0.00000000  0.00000000  0.00000000  1.0
  F  F4  1  -0.75104230  0.75104230  0.75104230  1.0
  F  F5  1  -0.24895770  0.24895770  0.75104230  1.0
  F  F6  1  0.75104230  0.75104230  -0.75104230  1.0
  F  F7  1  0.24895770  1.24895770  -0.24895770  1.0
  F  F8  1  0.24895770  -0.24895770  1.24895770  1.0
  F  F9  1  -0.24895770  0.24895770  0.24895770  1.0
