# generated using pymatgen
data_Cu2H3ClO3
_symmetry_space_group_name_H-M   'P 1'
_cell_length_a   6.12489562
_cell_length_b   7.02140175
_cell_length_c   9.16110479
_cell_angle_alpha   90.00000000
_cell_angle_beta   90.00000000
_cell_angle_gamma   90.00000000
_symmetry_Int_Tables_number   1
_chemical_formula_structural   Cu2H3ClO3
_chemical_formula_sum   'Cu8 H12 Cl4 O12'
_cell_volume   393.97654345
_cell_formula_units_Z   4
loop_
 _symmetry_equiv_pos_site_id
 _symmetry_equiv_pos_as_xyz
  1  'x, y, z'
loop_
 _atom_site_type_symbol
 _atom_site_label
 _atom_site_symmetry_multiplicity
 _atom_site_fract_x
 _atom_site_fract_y
 _atom_site_fract_z
 _atom_site_occupancy
  Cu  Cu0  1  0.50000000  0.00000000  0.50000000  1.0
  Cu  Cu1  1  0.00000000  0.50000000  0.00000000  1.0
  Cu  Cu2  1  0.50000000  0.50000000  0.50000000  1.0
  Cu  Cu3  1  0.00000000  0.00000000  0.00000000  1.0
  Cu  Cu4  1  0.67818877  0.25000000  0.24116556  1.0
  Cu  Cu5  1  0.17818877  0.25000000  0.25883444  1.0
  Cu  Cu6  1  0.32181123  0.75000000  0.75883444  1.0
  Cu  Cu7  1  0.82181123  0.75000000  0.74116556  1.0
  H  H8  1  0.21437186  0.75000000  0.45231914  1.0
  H  H9  1  0.71437186  0.75000000  0.04768086  1.0
  H  H10  1  0.78562814  0.25000000  0.54768086  1.0
  H  H11  1  0.28562814  0.25000000  0.95231914  1.0
  H  H12  1  0.91593889  0.54434207  0.26909576  1.0
  H  H13  1  0.41593889  0.95565793  0.23090424  1.0
  H  H14  1  0.08406111  0.04434207  0.73090424  1.0
  H  H15  1  0.58406111  0.45565793  0.76909576  1.0
  H  H16  1  0.08406111  0.45565793  0.73090424  1.0
  H  H17  1  0.58406111  0.04434207  0.76909576  1.0
  H  H18  1  0.91593889  0.95565793  0.26909576  1.0
  H  H19  1  0.41593889  0.54434207  0.23090424  1.0
  Cl  Cl20  1  0.87714495  0.75000000  0.42660382  1.0
  Cl  Cl21  1  0.37714495  0.75000000  0.07339618  1.0
  Cl  Cl22  1  0.12285505  0.25000000  0.57339618  1.0
  Cl  Cl23  1  0.62285505  0.25000000  0.92660382  1.0
  O  O24  1  0.63546628  0.25000000  0.50732597  1.0
  O  O25  1  0.13546628  0.25000000  0.99267403  1.0
  O  O26  1  0.36453372  0.75000000  0.49267403  1.0
  O  O27  1  0.86453372  0.75000000  0.00732597  1.0
  O  O28  1  0.92849610  0.07076055  0.20521234  1.0
  O  O29  1  0.42849610  0.42923945  0.29478766  1.0
  O  O30  1  0.07150390  0.57076055  0.79478766  1.0
  O  O31  1  0.57150390  0.92923945  0.70521234  1.0
  O  O32  1  0.07150390  0.92923945  0.79478766  1.0
  O  O33  1  0.57150390  0.57076055  0.70521234  1.0
  O  O34  1  0.92849610  0.42923945  0.20521234  1.0
  O  O35  1  0.42849610  0.07076055  0.29478766  1.0
