# generated using pymatgen
data_Rb2TeI6
_symmetry_space_group_name_H-M   'P 1'
_cell_length_a   8.20493801
_cell_length_b   8.20493801
_cell_length_c   12.44067428
_cell_angle_alpha   90.00000000
_cell_angle_beta   90.00000000
_cell_angle_gamma   90.00000000
_symmetry_Int_Tables_number   1
_chemical_formula_structural   Rb2TeI6
_chemical_formula_sum   'Rb4 Te2 I12'
_cell_volume   837.51872913
_cell_formula_units_Z   2
loop_
 _symmetry_equiv_pos_site_id
 _symmetry_equiv_pos_as_xyz
  1  'x, y, z'
loop_
 _atom_site_type_symbol
 _atom_site_label
 _atom_site_symmetry_multiplicity
 _atom_site_fract_x
 _atom_site_fract_y
 _atom_site_fract_z
 _atom_site_occupancy
  Rb  Rb0  1  0.50000000  0.00000000  0.25000000  1.0
  Rb  Rb1  1  0.50000000  0.00000000  0.75000000  1.0
  Rb  Rb2  1  0.00000000  0.50000000  0.75000000  1.0
  Rb  Rb3  1  0.00000000  0.50000000  0.25000000  1.0
  Te  Te4  1  0.50000000  0.50000000  0.50000000  1.0
  Te  Te5  1  0.00000000  0.00000000  0.00000000  1.0
  I  I6  1  0.29907096  0.80253249  0.50000000  1.0
  I  I7  1  0.79907096  0.69746751  0.00000000  1.0
  I  I8  1  0.19746751  0.29907096  0.50000000  1.0
  I  I9  1  0.69746751  0.20092904  0.00000000  1.0
  I  I10  1  0.70092904  0.19746751  0.50000000  1.0
  I  I11  1  0.20092904  0.30253249  0.00000000  1.0
  I  I12  1  0.80253249  0.70092904  0.50000000  1.0
  I  I13  1  0.30253249  0.79907096  0.00000000  1.0
  I  I14  1  0.50000000  0.50000000  0.26033289  1.0
  I  I15  1  0.50000000  0.50000000  0.73966711  1.0
  I  I16  1  0.00000000  0.00000000  0.76033289  1.0
  I  I17  1  0.00000000  0.00000000  0.23966711  1.0
