# generated using pymatgen
data_LuTaO4
_symmetry_space_group_name_H-M   'P 1'
_cell_length_a   6.49729925
_cell_length_b   6.49729925
_cell_length_c   5.06485528
_cell_angle_alpha   69.44379736
_cell_angle_beta   110.55620264
_cell_angle_gamma   64.88470063
_symmetry_Int_Tables_number   1
_chemical_formula_structural   LuTaO4
_chemical_formula_sum   'Lu2 Ta2 O8'
_cell_volume   146.36582344
_cell_formula_units_Z   2
loop_
 _symmetry_equiv_pos_site_id
 _symmetry_equiv_pos_as_xyz
  1  'x, y, z'
loop_
 _atom_site_type_symbol
 _atom_site_label
 _atom_site_symmetry_multiplicity
 _atom_site_fract_x
 _atom_site_fract_y
 _atom_site_fract_z
 _atom_site_occupancy
  Lu  Lu0  1  1.36814364  0.36814364  0.75000000  1.0
  Lu  Lu1  1  0.63185636  0.63185636  0.25000000  1.0
  Ta  Ta2  1  0.89789785  0.89789785  0.75000000  1.0
  Ta  Ta3  1  1.10210215  0.10210215  0.25000000  1.0
  O  O4  1  1.63020746  -0.05053754  0.84089684  1.0
  O  O5  1  1.05053754  0.36979254  0.34089684  1.0
  O  O6  1  0.94946246  0.63020746  0.65910316  1.0
  O  O7  1  1.36979254  0.05053754  0.15910316  1.0
  O  O8  1  1.27809196  -0.21429000  0.71787079  1.0
  O  O9  1  1.21429000  0.72190804  0.21787079  1.0
  O  O10  1  0.78571000  0.27809196  0.78212921  1.0
  O  O11  1  1.72190804  0.21429000  0.28212921  1.0
