# generated using pymatgen
data_Mg(BH4)2
_symmetry_space_group_name_H-M   'P 1'
_cell_length_a   8.75665817
_cell_length_b   8.75665817
_cell_length_c   8.75665817
_cell_angle_alpha   60.00000000
_cell_angle_beta   60.00000000
_cell_angle_gamma   60.00000000
_symmetry_Int_Tables_number   1
_chemical_formula_structural   Mg(BH4)2
_chemical_formula_sum   'Mg4 B8 H32'
_cell_volume   474.78850155
_cell_formula_units_Z   4
loop_
 _symmetry_equiv_pos_site_id
 _symmetry_equiv_pos_as_xyz
  1  'x, y, z'
loop_
 _atom_site_type_symbol
 _atom_site_label
 _atom_site_symmetry_multiplicity
 _atom_site_fract_x
 _atom_site_fract_y
 _atom_site_fract_z
 _atom_site_occupancy
  Mg  Mg0  1  0.25000000  0.25000000  0.25000000  1.0
  Mg  Mg1  1  0.00000000  1.00000000  -0.00000000  1.0
  Mg  Mg2  1  0.50000000  0.50000000  0.50000000  1.0
  Mg  Mg3  1  0.75000000  -0.25000000  0.75000000  1.0
  B  B4  1  -0.07599123  0.35866374  0.35866374  1.0
  B  B5  1  0.35866374  -0.07599123  0.35866374  1.0
  B  B6  1  0.35866374  0.35866374  -0.07599123  1.0
  B  B7  1  0.35866374  0.35866374  0.35866374  1.0
  B  B8  1  0.32599123  0.89133626  -0.10866374  1.0
  B  B9  1  0.89133626  0.32599123  0.89133626  1.0
  B  B10  1  -0.10866374  0.89133626  0.32599123  1.0
  B  B11  1  0.89133626  -0.10866374  0.89133626  1.0
  H  H12  1  -0.24898119  0.41632706  0.41632706  1.0
  H  H13  1  0.41632706  0.75101881  0.41632706  1.0
  H  H14  1  0.41632706  1.41632706  -0.24898119  1.0
  H  H15  1  0.41632706  0.41632706  0.41632706  1.0
  H  H16  1  0.49898119  0.83367294  -0.16632706  1.0
  H  H17  1  0.83367294  -0.50101881  0.83367294  1.0
  H  H18  1  0.83367294  0.83367294  -0.50101881  1.0
  H  H19  1  0.83367294  -0.16632706  0.83367294  1.0
  H  H20  1  0.49547040  0.26540468  0.26540468  1.0
  H  H21  1  0.26540468  0.49547040  -0.02627977  1.0
  H  H22  1  0.26540468  -0.02627977  0.49547040  1.0
  H  H23  1  -0.02627977  0.26540468  0.26540468  1.0
  H  H24  1  0.26540468  0.26540468  0.49547040  1.0
  H  H25  1  0.49547040  0.97372023  0.26540468  1.0
  H  H26  1  -0.02627977  0.49547040  0.26540468  1.0
  H  H27  1  0.26540468  1.26540468  -0.02627977  1.0
  H  H28  1  0.26540468  0.49547040  0.26540468  1.0
  H  H29  1  -0.02627977  0.26540468  0.49547040  1.0
  H  H30  1  0.49547040  1.26540468  -0.02627977  1.0
  H  H31  1  0.26540468  0.97372023  0.26540468  1.0
  H  H32  1  0.75452960  -0.01540468  0.98459532  1.0
  H  H33  1  -0.01540468  0.75452960  0.27627977  1.0
  H  H34  1  0.98459532  0.27627977  0.75452960  1.0
  H  H35  1  0.27627977  0.98459532  -0.01540468  1.0
  H  H36  1  0.98459532  -0.01540468  0.75452960  1.0
  H  H37  1  0.75452960  -0.72372023  0.98459532  1.0
  H  H38  1  0.27627977  0.75452960  -0.01540468  1.0
  H  H39  1  0.98459532  0.98459532  -0.72372023  1.0
  H  H40  1  0.98459532  -0.24547040  0.98459532  1.0
  H  H41  1  0.27627977  0.98459532  -0.24547040  1.0
  H  H42  1  0.75452960  0.98459532  -0.72372023  1.0
  H  H43  1  0.98459532  -0.72372023  0.98459532  1.0
