# generated using pymatgen
data_Na5Y4Si4O16F
_symmetry_space_group_name_H-M   'P 1'
_cell_length_a   8.69363001
_cell_length_b   8.69363001
_cell_length_c   8.69363001
_cell_angle_alpha   95.64005623
_cell_angle_beta   95.64005623
_cell_angle_gamma   143.46012465
_symmetry_Int_Tables_number   1
_chemical_formula_structural   Na5Y4Si4O16F
_chemical_formula_sum   'Na5 Y4 Si4 O16 F1'
_cell_volume   371.47997115
_cell_formula_units_Z   1
loop_
 _symmetry_equiv_pos_site_id
 _symmetry_equiv_pos_as_xyz
  1  'x, y, z'
loop_
 _atom_site_type_symbol
 _atom_site_label
 _atom_site_symmetry_multiplicity
 _atom_site_fract_x
 _atom_site_fract_y
 _atom_site_fract_z
 _atom_site_occupancy
  Na  Na0  1  0.88477381  0.57965074  0.48445204  1.0
  Na  Na1  1  0.59967824  0.11522619  0.69487693  1.0
  Na  Na2  1  1.09519869  1.40032176  1.51554796  1.0
  Na  Na3  1  0.42034926  0.90480131  1.30512307  1.0
  Na  Na4  1  -0.00000000  -0.00000000  -0.00000000  1.0
  Y  Y5  1  0.40830775  0.34130030  0.70225856  1.0
  Y  Y6  1  1.29395080  0.59169225  0.93299254  1.0
  Y  Y7  1  0.63904174  0.70604920  1.29774144  1.0
  Y  Y8  1  0.65869970  1.36095826  1.06700746  1.0
  Si  Si9  1  1.74073258  1.88363569  1.64881371  1.0
  Si  Si10  1  0.90808113  1.25926742  1.14290311  1.0
  Si  Si11  1  1.23482198  1.09191887  0.35118629  1.0
  Si  Si12  1  1.11636431  0.76517802  0.85709689  1.0
  O  O13  1  0.87358616  1.37079452  1.27728847  1.0
  O  O14  1  0.40370232  0.12641384  0.49720837  1.0
  O  O15  1  1.09350605  0.59629768  0.72271153  1.0
  O  O16  1  0.62920548  0.90649395  1.50279163  1.0
  O  O17  1  0.72523957  0.69322767  0.55901417  1.0
  O  O18  1  0.83377460  0.27476043  0.96798810  1.0
  O  O19  1  1.13421350  1.16622540  1.44098583  1.0
  O  O20  1  0.30677233  0.86578650  1.03201190  1.0
  O  O21  1  1.53315217  1.70597416  1.75922566  1.0
  O  O22  1  1.22607348  1.46684783  1.17282199  1.0
  O  O23  1  0.94674850  0.77392652  0.24077434  1.0
  O  O24  1  1.29402584  1.05325150  0.82717801  1.0
  O  O25  1  0.41747968  0.28100815  0.23466442  1.0
  O  O26  1  0.81718475  0.58252032  0.86352847  1.0
  O  O27  1  1.04634372  1.18281525  1.76533558  1.0
  O  O28  1  0.71899185  0.95365628  1.13647153  1.0
  F  F29  1  0.50000000  0.50000000  0.00000000  1.0
