# generated using pymatgen
data_Rb2TiF6
_symmetry_space_group_name_H-M   'P 1'
_cell_length_a   6.16216343
_cell_length_b   6.16216343
_cell_length_c   9.95057349
_cell_angle_alpha   90.00000000
_cell_angle_beta   90.00000000
_cell_angle_gamma   120.00000000
_symmetry_Int_Tables_number   1
_chemical_formula_structural   Rb2TiF6
_chemical_formula_sum   'Rb4 Ti2 F12'
_cell_volume   327.22401353
_cell_formula_units_Z   2
loop_
 _symmetry_equiv_pos_site_id
 _symmetry_equiv_pos_as_xyz
  1  'x, y, z'
loop_
 _atom_site_type_symbol
 _atom_site_label
 _atom_site_symmetry_multiplicity
 _atom_site_fract_x
 _atom_site_fract_y
 _atom_site_fract_z
 _atom_site_occupancy
  Rb  Rb0  1  0.33333333  0.66666667  0.26560697  1.0
  Rb  Rb1  1  0.66666667  0.33333333  0.76560697  1.0
  Rb  Rb2  1  -0.00000000  -0.00000000  -0.01223577  1.0
  Rb  Rb3  1  -0.00000000  -0.00000000  0.48776423  1.0
  Ti  Ti4  1  0.33333333  0.66666667  0.65406493  1.0
  Ti  Ti5  1  0.66666667  0.33333333  0.15406493  1.0
  F  F6  1  0.95270846  0.47635423  0.04157832  1.0
  F  F7  1  0.47635423  0.95270846  0.54157832  1.0
  F  F8  1  0.47635423  0.52364577  0.54157832  1.0
  F  F9  1  0.52364577  0.47635423  0.04157832  1.0
  F  F10  1  0.52364577  0.04729154  0.04157832  1.0
  F  F11  1  0.04729154  0.52364577  0.54157832  1.0
  F  F12  1  0.36985984  0.18492992  0.25760964  1.0
  F  F13  1  0.18492992  0.36985984  0.75760964  1.0
  F  F14  1  0.18492992  0.81507008  0.75760964  1.0
  F  F15  1  0.81507008  0.18492992  0.25760964  1.0
  F  F16  1  0.81507008  0.63014016  0.25760964  1.0
  F  F17  1  0.63014016  0.81507008  0.75760964  1.0
