# generated using pymatgen
data_LiCaPb
_symmetry_space_group_name_H-M   'P 1'
_cell_length_a   4.97190829
_cell_length_b   4.97190829
_cell_length_c   10.95439768
_cell_angle_alpha   90.00000000
_cell_angle_beta   90.00000000
_cell_angle_gamma   120.00000000
_symmetry_Int_Tables_number   1
_chemical_formula_structural   LiCaPb
_chemical_formula_sum   'Li3 Ca3 Pb3'
_cell_volume   234.51215309
_cell_formula_units_Z   3
loop_
 _symmetry_equiv_pos_site_id
 _symmetry_equiv_pos_as_xyz
  1  'x, y, z'
loop_
 _atom_site_type_symbol
 _atom_site_label
 _atom_site_symmetry_multiplicity
 _atom_site_fract_x
 _atom_site_fract_y
 _atom_site_fract_z
 _atom_site_occupancy
  Li  Li0  1  0.33333333  0.66666667  0.00000000  1.0
  Li  Li1  1  0.00000000  0.00000000  0.69434249  1.0
  Li  Li2  1  0.00000000  0.00000000  0.30565751  1.0
  Ca  Ca3  1  0.66666667  0.33333333  0.83335586  1.0
  Ca  Ca4  1  0.66666667  0.33333333  0.16664414  1.0
  Ca  Ca5  1  0.66666667  0.33333333  0.50000000  1.0
  Pb  Pb6  1  0.00000000  0.00000000  0.00000000  1.0
  Pb  Pb7  1  0.33333333  0.66666667  0.65583124  1.0
  Pb  Pb8  1  0.33333333  0.66666667  0.34416876  1.0
