# generated using pymatgen
data_LaMnO3
_symmetry_space_group_name_H-M   'P 1'
_cell_length_a   5.59542283
_cell_length_b   7.87691092
_cell_length_c   5.56001368
_cell_angle_alpha   90.00000000
_cell_angle_beta   90.00000000
_cell_angle_gamma   90.00000000
_symmetry_Int_Tables_number   1
_chemical_formula_structural   LaMnO3
_chemical_formula_sum   'La4 Mn4 O12'
_cell_volume   245.05564141
_cell_formula_units_Z   4
loop_
 _symmetry_equiv_pos_site_id
 _symmetry_equiv_pos_as_xyz
  1  'x, y, z'
loop_
 _atom_site_type_symbol
 _atom_site_label
 _atom_site_symmetry_multiplicity
 _atom_site_fract_x
 _atom_site_fract_y
 _atom_site_fract_z
 _atom_site_occupancy
  La  La0  1  0.03472280  0.25000000  0.50727718  1.0
  La  La1  1  0.53472280  0.25000000  0.99272282  1.0
  La  La2  1  0.96527720  0.75000000  0.49272282  1.0
  La  La3  1  0.46527720  0.75000000  0.00727718  1.0
  Mn  Mn4  1  0.50000000  0.50000000  0.50000000  1.0
  Mn  Mn5  1  0.50000000  0.00000000  0.50000000  1.0
  Mn  Mn6  1  0.00000000  0.50000000  0.00000000  1.0
  Mn  Mn7  1  0.00000000  0.00000000  0.00000000  1.0
  O  O8  1  0.28389209  0.46074459  0.78160365  1.0
  O  O9  1  0.28389209  0.03925541  0.78160365  1.0
  O  O10  1  0.78389209  0.46074459  0.71839635  1.0
  O  O11  1  0.78389209  0.03925541  0.71839635  1.0
  O  O12  1  0.71610791  0.96074459  0.21839635  1.0
  O  O13  1  0.71610791  0.53925541  0.21839635  1.0
  O  O14  1  0.21610791  0.96074459  0.28160365  1.0
  O  O15  1  0.21610791  0.53925541  0.28160365  1.0
  O  O16  1  0.98573652  0.25000000  0.07300679  1.0
  O  O17  1  0.48573652  0.25000000  0.42699321  1.0
  O  O18  1  0.01426348  0.75000000  0.92699321  1.0
  O  O19  1  0.51426348  0.75000000  0.57300679  1.0
