# generated using pymatgen
data_LiH4CSNO2
_symmetry_space_group_name_H-M   'P 1'
_cell_length_a   5.91073203
_cell_length_b   8.14127384
_cell_length_c   9.80390263
_cell_angle_alpha   90.00000000
_cell_angle_beta   90.00000000
_cell_angle_gamma   90.00000000
_symmetry_Int_Tables_number   1
_chemical_formula_structural   LiH4CSNO2
_chemical_formula_sum   'Li4 H16 C4 S4 N4 O8'
_cell_volume   471.77250057
_cell_formula_units_Z   4
loop_
 _symmetry_equiv_pos_site_id
 _symmetry_equiv_pos_as_xyz
  1  'x, y, z'
loop_
 _atom_site_type_symbol
 _atom_site_label
 _atom_site_symmetry_multiplicity
 _atom_site_fract_x
 _atom_site_fract_y
 _atom_site_fract_z
 _atom_site_occupancy
  Li  Li0  1  0.11488490  0.75000000  0.71067859  1.0
  Li  Li1  1  0.61488490  0.75000000  0.78932141  1.0
  Li  Li2  1  0.88511510  0.25000000  0.28932141  1.0
  Li  Li3  1  0.38511510  0.25000000  0.21067859  1.0
  H  H4  1  0.34705818  0.47462419  0.76276761  1.0
  H  H5  1  0.34705818  0.02537581  0.76276761  1.0
  H  H6  1  0.84705818  0.47462419  0.73723239  1.0
  H  H7  1  0.84705818  0.02537581  0.73723239  1.0
  H  H8  1  0.65294182  0.97462419  0.23723239  1.0
  H  H9  1  0.65294182  0.52537581  0.23723239  1.0
  H  H10  1  0.15294182  0.97462419  0.26276761  1.0
  H  H11  1  0.15294182  0.52537581  0.26276761  1.0
  H  H12  1  0.31563781  0.94333556  0.90632917  1.0
  H  H13  1  0.31563781  0.55666444  0.90632917  1.0
  H  H14  1  0.81563781  0.94333556  0.59367083  1.0
  H  H15  1  0.81563781  0.55666444  0.59367083  1.0
  H  H16  1  0.68436219  0.44333556  0.09367083  1.0
  H  H17  1  0.68436219  0.05666444  0.09367083  1.0
  H  H18  1  0.18436219  0.44333556  0.40632917  1.0
  H  H19  1  0.18436219  0.05666444  0.40632917  1.0
  C  C20  1  0.95227561  0.75000000  0.03659269  1.0
  C  C21  1  0.45227561  0.75000000  0.46340731  1.0
  C  C22  1  0.04772439  0.25000000  0.96340731  1.0
  C  C23  1  0.54772439  0.25000000  0.53659269  1.0
  S  S24  1  0.18896613  0.75000000  0.12538026  1.0
  S  S25  1  0.68896613  0.75000000  0.37461974  1.0
  S  S26  1  0.81103387  0.25000000  0.87461974  1.0
  S  S27  1  0.31103387  0.25000000  0.62538026  1.0
  N  N28  1  0.28662922  0.75000000  0.53089787  1.0
  N  N29  1  0.78662922  0.75000000  0.96910213  1.0
  N  N30  1  0.71337078  0.25000000  0.46910213  1.0
  N  N31  1  0.21337078  0.25000000  0.03089787  1.0
  O  O32  1  0.34266349  0.91833754  0.81028218  1.0
  O  O33  1  0.34266349  0.58166246  0.81028218  1.0
  O  O34  1  0.84266349  0.91833754  0.68971782  1.0
  O  O35  1  0.84266349  0.58166246  0.68971782  1.0
  O  O36  1  0.65733651  0.41833754  0.18971782  1.0
  O  O37  1  0.65733651  0.08166246  0.18971782  1.0
  O  O38  1  0.15733651  0.41833754  0.31028218  1.0
  O  O39  1  0.15733651  0.08166246  0.31028218  1.0
