# generated using pymatgen
data_RhN3
_symmetry_space_group_name_H-M   'P 1'
_cell_length_a   5.69352934
_cell_length_b   5.69352934
_cell_length_c   5.69352934
_cell_angle_alpha   109.47122063
_cell_angle_beta   109.47122063
_cell_angle_gamma   109.47122063
_symmetry_Int_Tables_number   1
_chemical_formula_structural   RhN3
_chemical_formula_sum   'Rh4 N12'
_cell_volume   142.07667946
_cell_formula_units_Z   4
loop_
 _symmetry_equiv_pos_site_id
 _symmetry_equiv_pos_as_xyz
  1  'x, y, z'
loop_
 _atom_site_type_symbol
 _atom_site_label
 _atom_site_symmetry_multiplicity
 _atom_site_fract_x
 _atom_site_fract_y
 _atom_site_fract_z
 _atom_site_occupancy
  Rh  Rh0  1  1.00000000  0.50000000  1.00000000  1.0
  Rh  Rh1  1  0.50000000  0.50000000  0.50000000  1.0
  Rh  Rh2  1  1.00000000  1.00000000  0.50000000  1.0
  Rh  Rh3  1  0.50000000  1.00000000  1.00000000  1.0
  N  N4  1  0.88874069  0.50640640  0.61766571  1.0
  N  N5  1  0.11125931  0.49359360  0.38233429  1.0
  N  N6  1  0.11125931  0.72892502  0.61766571  1.0
  N  N7  1  0.88874069  1.27107498  1.38233429  1.0
  N  N8  1  1.27107498  1.38233429  0.88874069  1.0
  N  N9  1  0.72892502  0.61766571  0.11125931  1.0
  N  N10  1  0.49359360  0.38233429  0.11125931  1.0
  N  N11  1  0.50640640  0.61766571  0.88874069  1.0
  N  N12  1  0.38233429  0.11125931  0.49359360  1.0
  N  N13  1  0.61766571  0.88874069  0.50640640  1.0
  N  N14  1  1.38233429  0.88874069  1.27107498  1.0
  N  N15  1  0.61766571  0.11125931  0.72892502  1.0
