# generated using pymatgen
data_NaP2H5CO6
_symmetry_space_group_name_H-M   'P 1'
_cell_length_a   8.33126845
_cell_length_b   8.25427709
_cell_length_c   11.94977846
_cell_angle_alpha   90.00000000
_cell_angle_beta   125.27594363
_cell_angle_gamma   90.00000000
_symmetry_Int_Tables_number   1
_chemical_formula_structural   NaP2H5CO6
_chemical_formula_sum   'Na4 P8 H20 C4 O24'
_cell_volume   670.87631142
_cell_formula_units_Z   4
loop_
 _symmetry_equiv_pos_site_id
 _symmetry_equiv_pos_as_xyz
  1  'x, y, z'
loop_
 _atom_site_type_symbol
 _atom_site_label
 _atom_site_symmetry_multiplicity
 _atom_site_fract_x
 _atom_site_fract_y
 _atom_site_fract_z
 _atom_site_occupancy
  Na  Na0  1  0.00000000  0.50000000  0.00000000  1.0
  Na  Na1  1  0.00000000  0.00000000  0.50000000  1.0
  Na  Na2  1  0.50000000  0.50000000  0.50000000  1.0
  Na  Na3  1  0.50000000  0.00000000  0.00000000  1.0
  P  P4  1  0.97897295  0.36476170  0.67286959  1.0
  P  P5  1  0.97897295  0.13523830  0.17286959  1.0
  P  P6  1  0.02102705  0.63523830  0.32713041  1.0
  P  P7  1  0.02102705  0.86476170  0.82713041  1.0
  P  P8  1  0.39877784  0.26554973  0.74662826  1.0
  P  P9  1  0.39877784  0.23445027  0.24662826  1.0
  P  P10  1  0.60122216  0.73445027  0.25337174  1.0
  P  P11  1  0.60122216  0.76554973  0.75337174  1.0
  H  H12  1  0.07818983  0.18703391  0.84016802  1.0
  H  H13  1  0.07818983  0.31296609  0.34016802  1.0
  H  H14  1  0.92181017  0.81296609  0.15983198  1.0
  H  H15  1  0.92181017  0.68703391  0.65983198  1.0
  H  H16  1  0.71736000  0.23558105  0.49078335  1.0
  H  H17  1  0.71736000  0.26441895  -0.00921665  1.0
  H  H18  1  0.28264000  0.76441895  0.50921665  1.0
  H  H19  1  0.28264000  0.73558105  1.00921665  1.0
  H  H20  1  0.59764713  0.45394562  0.76117246  1.0
  H  H21  1  0.59764713  0.04605438  0.26117246  1.0
  H  H22  1  0.40235287  0.54605438  0.23882754  1.0
  H  H23  1  0.40235287  0.95394562  0.73882754  1.0
  H  H24  1  0.27208467  0.51706167  0.76638938  1.0
  H  H25  1  0.27208467  -0.01706167  0.26638938  1.0
  H  H26  1  0.72791533  0.48293833  0.23361062  1.0
  H  H27  1  0.72791533  1.01706167  0.73361062  1.0
  H  H28  1  0.16419770  0.46048076  0.59337587  1.0
  H  H29  1  0.16419770  0.03951924  0.09337587  1.0
  H  H30  1  0.83580230  0.53951924  0.40662413  1.0
  H  H31  1  0.83580230  0.96048076  0.90662413  1.0
  C  C32  1  0.20581387  0.41540910  0.69347925  1.0
  C  C33  1  0.20581387  0.08459090  0.19347925  1.0
  C  C34  1  0.79418613  0.58459090  0.30652075  1.0
  C  C35  1  0.79418613  0.91540910  0.80652075  1.0
  O  O36  1  0.02739777  0.30524096  0.81501239  1.0
  O  O37  1  0.02739777  0.19475904  0.31501239  1.0
  O  O38  1  0.97260223  0.69475904  0.18498761  1.0
  O  O39  1  0.97260223  0.80524096  0.68498761  1.0
  O  O40  1  0.87817717  0.22393206  0.56437462  1.0
  O  O41  1  0.87817717  0.27606794  0.06437462  1.0
  O  O42  1  0.12182283  0.77606794  0.43562538  1.0
  O  O43  1  0.12182283  0.72393206  0.93562538  1.0
  O  O44  1  0.84923636  0.51456028  0.62598148  1.0
  O  O45  1  0.84923636  0.98543972  0.12598148  1.0
  O  O46  1  0.15076364  0.48543972  0.37401852  1.0
  O  O47  1  0.15076364  0.01456028  0.87401852  1.0
  O  O48  1  0.30889924  0.11036914  0.66401154  1.0
  O  O49  1  0.30889924  0.38963086  0.16401154  1.0
  O  O50  1  0.69110076  0.88963086  0.33598846  1.0
  O  O51  1  0.69110076  0.61036914  0.83598846  1.0
  O  O52  1  0.51993986  0.24297706  0.90297016  1.0
  O  O53  1  0.51993986  0.25702294  0.40297016  1.0
  O  O54  1  0.48006014  0.75702294  0.09702984  1.0
  O  O55  1  0.48006014  0.74297706  0.59702984  1.0
  O  O56  1  0.53127086  0.34839460  0.70566166  1.0
  O  O57  1  0.53127086  0.15160540  0.20566166  1.0
  O  O58  1  0.46872914  0.65160540  0.29433834  1.0
  O  O59  1  0.46872914  0.84839460  0.79433834  1.0
