# generated using pymatgen
data_VH10SNO9
_symmetry_space_group_name_H-M   'P 1'
_cell_length_a   6.24012305
_cell_length_b   10.03292120
_cell_length_c   6.84925158
_cell_angle_alpha   90.00000000
_cell_angle_beta   108.51496514
_cell_angle_gamma   90.00000000
_symmetry_Int_Tables_number   1
_chemical_formula_structural   VH10SNO9
_chemical_formula_sum   'V2 H20 S2 N2 O18'
_cell_volume   406.61396128
_cell_formula_units_Z   2
loop_
 _symmetry_equiv_pos_site_id
 _symmetry_equiv_pos_as_xyz
  1  'x, y, z'
loop_
 _atom_site_type_symbol
 _atom_site_label
 _atom_site_symmetry_multiplicity
 _atom_site_fract_x
 _atom_site_fract_y
 _atom_site_fract_z
 _atom_site_occupancy
  V  V0  1  0.39014829  0.00246775  0.60571411  1.0
  V  V1  1  0.60985171  0.50246775  0.39428589  1.0
  H  H2  1  0.23219918  0.78047563  0.30343145  1.0
  H  H3  1  0.76780082  0.28047563  0.69656855  1.0
  H  H4  1  0.87131718  0.15071882  0.06772752  1.0
  H  H5  1  0.12868282  0.65071882  0.93227248  1.0
  H  H6  1  0.02800031  0.13900645  0.29450132  1.0
  H  H7  1  0.97199969  0.63900645  0.70549868  1.0
  H  H8  1  0.31837645  0.73854815  0.73915572  1.0
  H  H9  1  0.68162355  0.23854815  0.26084428  1.0
  H  H10  1  0.19914359  0.91081503  0.17408402  1.0
  H  H11  1  0.80085641  0.41081503  0.82591598  1.0
  H  H12  1  0.46040076  0.23598304  0.33399944  1.0
  H  H13  1  0.53959924  0.73598304  0.66600056  1.0
  H  H14  1  0.80643646  0.78001388  0.21917036  1.0
  H  H15  1  0.19356354  0.28001388  0.78082964  1.0
  H  H16  1  0.76596912  0.94787400  0.18486739  1.0
  H  H17  1  0.23403088  0.44787400  0.81513261  1.0
  H  H18  1  0.61386063  0.83799859  0.00620452  1.0
  H  H19  1  0.38613937  0.33799859  0.99379548  1.0
  H  H20  1  0.56683299  0.85156707  0.23554824  1.0
  H  H21  1  0.43316701  0.35156707  0.76445176  1.0
  S  S22  1  0.93241343  0.99768295  0.72401821  1.0
  S  S23  1  0.06758657  0.49768295  0.27598179  1.0
  N  N24  1  0.68957763  0.85456384  0.16269124  1.0
  N  N25  1  0.31042237  0.35456384  0.83730876  1.0
  O  O26  1  0.52939337  0.56941584  0.16872850  1.0
  O  O27  1  0.47060663  0.06941584  0.83127150  1.0
  O  O28  1  0.67785792  0.62936784  0.55762727  1.0
  O  O29  1  0.32214208  0.12936784  0.44237273  1.0
  O  O30  1  0.55290467  0.29432297  0.27326972  1.0
  O  O31  1  0.44709533  0.79432297  0.72673028  1.0
  O  O32  1  0.70180166  0.37001244  0.69790596  1.0
  O  O33  1  0.29819834  0.87001244  0.30209404  1.0
  O  O34  1  0.07606696  0.95510558  0.59183190  1.0
  O  O35  1  0.92393304  0.45510558  0.40816810  1.0
  O  O36  1  0.69505229  0.96520110  0.58330083  1.0
  O  O37  1  0.30494771  0.46520110  0.41669917  1.0
  O  O38  1  0.98897534  0.91852584  0.91338588  1.0
  O  O39  1  0.01102466  0.41852584  0.08661412  1.0
  O  O40  1  0.04635207  0.64294151  0.23476785  1.0
  O  O41  1  0.95364793  0.14294151  0.76523215  1.0
  O  O42  1  0.86797924  0.13149169  0.20660455  1.0
  O  O43  1  0.13202076  0.63149169  0.79339545  1.0
