# generated using pymatgen
data_SrCo2BPO7
_symmetry_space_group_name_H-M   'P 1'
_cell_length_a   6.54743970
_cell_length_b   9.07689447
_cell_length_c   10.01932647
_cell_angle_alpha   90.00000000
_cell_angle_beta   110.59552028
_cell_angle_gamma   90.00000000
_symmetry_Int_Tables_number   1
_chemical_formula_structural   SrCo2BPO7
_chemical_formula_sum   'Sr4 Co8 B4 P4 O28'
_cell_volume   557.39562431
_cell_formula_units_Z   4
loop_
 _symmetry_equiv_pos_site_id
 _symmetry_equiv_pos_as_xyz
  1  'x, y, z'
loop_
 _atom_site_type_symbol
 _atom_site_label
 _atom_site_symmetry_multiplicity
 _atom_site_fract_x
 _atom_site_fract_y
 _atom_site_fract_z
 _atom_site_occupancy
  P  P0  1  0.95848819  0.00953809  0.19236339  1.0
  P  P1  1  0.95848819  0.49046191  0.69236339  1.0
  P  P2  1  0.04151181  0.50953809  0.30763661  1.0
  P  P3  1  0.04151181  0.99046191  0.80763661  1.0
  B  B4  1  0.53462252  0.12255388  0.32973273  1.0
  B  B5  1  0.53462252  0.37744612  0.82973273  1.0
  B  B6  1  0.46537748  0.62255388  0.17026727  1.0
  B  B7  1  0.46537748  0.87744612  0.67026727  1.0
  Co  Co8  1  0.57241555  0.44681460  0.38297235  1.0
  Co  Co9  1  0.57241555  0.05318540  0.88297235  1.0
  Co  Co10  1  0.42758445  0.94681460  0.11702765  1.0
  Co  Co11  1  0.42758445  0.55318540  0.61702765  1.0
  Co  Co12  1  0.70050474  0.32099585  0.14585467  1.0
  Co  Co13  1  0.70050474  0.17900415  0.64585467  1.0
  Co  Co14  1  0.29949526  0.82099585  0.35414533  1.0
  Co  Co15  1  0.29949526  0.67900415  0.85414533  1.0
  O  O16  1  0.99187655  0.47913687  0.14650291  1.0
  O  O17  1  0.99187655  0.02086313  0.64650291  1.0
  O  O18  1  0.00812345  0.97913687  0.35349709  1.0
  O  O19  1  0.00812345  0.52086313  0.85349709  1.0
  O  O20  1  0.98033202  0.17718382  0.17273476  1.0
  O  O21  1  0.98033202  0.32281618  0.67273476  1.0
  O  O22  1  0.01966798  0.67718382  0.32726524  1.0
  O  O23  1  0.01966798  0.82281618  0.82726524  1.0
  O  O24  1  0.87644535  0.41222604  0.35285725  1.0
  O  O25  1  0.87644535  0.08777396  0.85285725  1.0
  O  O26  1  0.12355465  0.91222604  0.14714275  1.0
  O  O27  1  0.12355465  0.58777396  0.64714275  1.0
  O  O28  1  0.72915849  0.95242921  0.09167591  1.0
  O  O29  1  0.72915849  0.54757079  0.59167591  1.0
  O  O30  1  0.27084151  0.45242921  0.40832409  1.0
  O  O31  1  0.27084151  0.04757079  0.90832409  1.0
  O  O32  1  0.47019817  0.47203139  0.14761477  1.0
  O  O33  1  0.47019817  0.02796861  0.64761477  1.0
  O  O34  1  0.52980183  0.97203139  0.35238523  1.0
  O  O35  1  0.52980183  0.52796861  0.85238523  1.0
  O  O36  1  0.49262640  0.16358786  0.18926907  1.0
  O  O37  1  0.49262640  0.33641214  0.68926907  1.0
  O  O38  1  0.50737360  0.66358786  0.31073093  1.0
  O  O39  1  0.50737360  0.83641214  0.81073093  1.0
  O  O40  1  0.57717553  0.22658968  0.43627825  1.0
  O  O41  1  0.57717553  0.27341032  0.93627825  1.0
  O  O42  1  0.42282447  0.72658968  0.06372175  1.0
  O  O43  1  0.42282447  0.77341032  0.56372175  1.0
  Sr  Sr44  1  0.83658773  0.79739672  0.48481727  1.0
  Sr  Sr45  1  0.83658773  0.70260328  0.98481727  1.0
  Sr  Sr46  1  0.16341227  0.29739672  0.01518273  1.0
  Sr  Sr47  1  0.16341227  0.20260328  0.51518273  1.0
