# generated using pymatgen
data_NaSn2(PO4)3
_symmetry_space_group_name_H-M   'P 1'
_cell_length_a   9.07733308
_cell_length_b   9.07733308
_cell_length_c   9.07733308
_cell_angle_alpha   57.71571667
_cell_angle_beta   57.71571667
_cell_angle_gamma   57.71571667
_symmetry_Int_Tables_number   1
_chemical_formula_structural   NaSn2(PO4)3
_chemical_formula_sum   'Na2 Sn4 P6 O24'
_cell_volume   501.12839392
_cell_formula_units_Z   2
loop_
 _symmetry_equiv_pos_site_id
 _symmetry_equiv_pos_as_xyz
  1  'x, y, z'
loop_
 _atom_site_type_symbol
 _atom_site_label
 _atom_site_symmetry_multiplicity
 _atom_site_fract_x
 _atom_site_fract_y
 _atom_site_fract_z
 _atom_site_occupancy
  Na  Na0  1  1.00000000  -0.00000000  0.00000000  1.0
  Na  Na1  1  0.50000000  0.50000000  0.50000000  1.0
  Sn  Sn2  1  0.85397849  -0.14602151  -0.14602151  1.0
  Sn  Sn3  1  0.35397849  0.35397849  0.35397849  1.0
  Sn  Sn4  1  0.64602151  0.64602151  -0.35397849  1.0
  Sn  Sn5  1  1.14602151  0.14602151  0.14602151  1.0
  P  P6  1  0.45735471  0.75000000  0.04264529  1.0
  P  P7  1  0.95735471  -0.45735471  0.25000000  1.0
  P  P8  1  0.25000000  0.95735471  -0.45735471  1.0
  P  P9  1  0.75000000  1.04264529  -0.54264529  1.0
  P  P10  1  0.54264529  0.25000000  -0.04264529  1.0
  P  P11  1  1.04264529  0.45735471  -0.25000000  1.0
  O  O12  1  0.78492149  1.01512822  -0.37929131  1.0
  O  O13  1  1.28492149  0.12070869  -0.48487178  1.0
  O  O14  1  0.87929131  0.48487178  -0.28492149  1.0
  O  O15  1  0.37929131  0.21507851  -0.01512822  1.0
  O  O16  1  0.98487178  0.37929131  -0.78492149  1.0
  O  O17  1  0.48487178  0.71507851  -0.12070869  1.0
  O  O18  1  0.21507851  0.98487178  -0.62070869  1.0
  O  O19  1  0.71507851  0.87929131  -0.51512822  1.0
  O  O20  1  0.62070869  0.78492149  0.01512822  1.0
  O  O21  1  1.12070869  -0.48487178  0.28492149  1.0
  O  O22  1  0.51512822  0.28492149  0.12070869  1.0
  O  O23  1  1.01512822  0.62070869  -0.21507851  1.0
  O  O24  1  0.72569898  0.08012093  -0.06377300  1.0
  O  O25  1  1.22569898  0.43622700  -0.41987907  1.0
  O  O26  1  0.56377300  0.41987907  -0.22569898  1.0
  O  O27  1  1.06377300  0.27430102  -0.08012093  1.0
  O  O28  1  0.91987907  0.06377300  0.27430102  1.0
  O  O29  1  0.41987907  0.77430102  -0.43622700  1.0
  O  O30  1  1.27430102  -0.08012093  0.06377300  1.0
  O  O31  1  0.77430102  0.56377300  -0.58012093  1.0
  O  O32  1  0.93622700  -0.27430102  0.08012093  1.0
  O  O33  1  0.43622700  0.58012093  0.22569898  1.0
  O  O34  1  0.58012093  1.22569898  -0.56377300  1.0
  O  O35  1  1.08012093  -0.06377300  -0.27430102  1.0
