# generated using pymatgen
data_SnH5CI3N2
_symmetry_space_group_name_H-M   'P 1'
_cell_length_a   6.34373692
_cell_length_b   6.34373692
_cell_length_c   6.54173776
_cell_angle_alpha   90.00000000
_cell_angle_beta   90.00000000
_cell_angle_gamma   89.94077603
_symmetry_Int_Tables_number   1
_chemical_formula_structural   SnH5CI3N2
_chemical_formula_sum   'Sn1 H5 C1 I3 N2'
_cell_volume   263.25899945
_cell_formula_units_Z   1
loop_
 _symmetry_equiv_pos_site_id
 _symmetry_equiv_pos_as_xyz
  1  'x, y, z'
loop_
 _atom_site_type_symbol
 _atom_site_label
 _atom_site_symmetry_multiplicity
 _atom_site_fract_x
 _atom_site_fract_y
 _atom_site_fract_z
 _atom_site_occupancy
  Sn  Sn0  1  -0.36663466  1.36663466  0.50000000  1.0
  H  H1  1  0.26735542  0.73264458  0.19064151  1.0
  H  H2  1  0.26735542  0.73264458  0.80935849  1.0
  H  H3  1  0.09116395  0.90883605  0.30647882  1.0
  H  H4  1  0.09116395  0.90883605  0.69352118  1.0
  H  H5  1  -0.03596871  1.03596871  0.00000000  1.0
  C  C6  1  0.08598130  0.91401870  0.00000000  1.0
  I  I7  1  0.64966743  0.88203871  0.50000000  1.0
  I  I8  1  0.11796129  0.35033257  0.50000000  1.0
  I  I9  1  -0.40292467  1.40292467  0.00000000  1.0
  N  N10  1  0.15403964  0.84596036  0.17719132  1.0
  N  N11  1  0.15403964  0.84596036  0.82280868  1.0
