# generated using pymatgen
data_Hf3Zn3N
_symmetry_space_group_name_H-M   'P 1'
_cell_length_a   8.50599777
_cell_length_b   8.50599777
_cell_length_c   8.50599777
_cell_angle_alpha   60.00000000
_cell_angle_beta   60.00000000
_cell_angle_gamma   60.00000000
_symmetry_Int_Tables_number   1
_chemical_formula_structural   Hf3Zn3N
_chemical_formula_sum   'Hf12 Zn12 N4'
_cell_volume   435.17185163
_cell_formula_units_Z   4
loop_
 _symmetry_equiv_pos_site_id
 _symmetry_equiv_pos_as_xyz
  1  'x, y, z'
loop_
 _atom_site_type_symbol
 _atom_site_label
 _atom_site_symmetry_multiplicity
 _atom_site_fract_x
 _atom_site_fract_y
 _atom_site_fract_z
 _atom_site_occupancy
  Hf  Hf0  1  0.81410067  0.81410067  -0.81410067  1.0
  Hf  Hf1  1  0.18589933  1.18589933  -0.18589933  1.0
  Hf  Hf2  1  0.81410067  -0.81410067  0.81410067  1.0
  Hf  Hf3  1  0.18589933  -0.18589933  0.18589933  1.0
  Hf  Hf4  1  -0.81410067  0.81410067  0.81410067  1.0
  Hf  Hf5  1  -0.18589933  0.18589933  0.18589933  1.0
  Hf  Hf6  1  0.43589933  1.43589933  0.06410067  1.0
  Hf  Hf7  1  0.06410067  0.06410067  0.43589933  1.0
  Hf  Hf8  1  0.43589933  1.06410067  0.43589933  1.0
  Hf  Hf9  1  0.06410067  1.43589933  0.06410067  1.0
  Hf  Hf10  1  0.06410067  1.43589933  0.43589933  1.0
  Hf  Hf11  1  0.43589933  1.06410067  0.06410067  1.0
  Zn  Zn12  1  1.12500000  0.62500000  0.62500000  1.0
  Zn  Zn13  1  0.62500000  1.12500000  -0.37500000  1.0
  Zn  Zn14  1  -0.37500000  0.62500000  1.12500000  1.0
  Zn  Zn15  1  -0.37500000  0.62500000  0.62500000  1.0
  Zn  Zn16  1  -0.25340661  0.41780220  0.41780220  1.0
  Zn  Zn17  1  0.41780220  -0.25340661  0.41780220  1.0
  Zn  Zn18  1  0.41780220  1.41780220  -0.25340661  1.0
  Zn  Zn19  1  0.41780220  1.41780220  0.41780220  1.0
  Zn  Zn20  1  0.50340661  0.83219780  -0.16780220  1.0
  Zn  Zn21  1  0.83219780  0.50340661  0.83219780  1.0
  Zn  Zn22  1  0.83219780  0.83219780  -0.49659339  1.0
  Zn  Zn23  1  0.83219780  0.83219780  0.83219780  1.0
  N  N24  1  0.62500000  1.12500000  0.12500000  1.0
  N  N25  1  0.12500000  1.62500000  0.12500000  1.0
  N  N26  1  0.12500000  0.12500000  1.62500000  1.0
  N  N27  1  0.12500000  0.12500000  0.12500000  1.0
