# generated using pymatgen
data_RbBaVO4
_symmetry_space_group_name_H-M   'P 1'
_cell_length_a   7.97995767
_cell_length_b   6.04695310
_cell_length_c   10.54430855
_cell_angle_alpha   90.00000000
_cell_angle_beta   90.00000000
_cell_angle_gamma   90.00000000
_symmetry_Int_Tables_number   1
_chemical_formula_structural   RbBaVO4
_chemical_formula_sum   'Rb4 Ba4 V4 O16'
_cell_volume   508.80959641
_cell_formula_units_Z   4
loop_
 _symmetry_equiv_pos_site_id
 _symmetry_equiv_pos_as_xyz
  1  'x, y, z'
loop_
 _atom_site_type_symbol
 _atom_site_label
 _atom_site_symmetry_multiplicity
 _atom_site_fract_x
 _atom_site_fract_y
 _atom_site_fract_z
 _atom_site_occupancy
  Rb  Rb0  1  0.84253426  0.75000000  0.42095849  1.0
  Rb  Rb1  1  0.34253426  0.75000000  0.07904151  1.0
  Rb  Rb2  1  0.15746574  0.25000000  0.57904151  1.0
  Rb  Rb3  1  0.65746574  0.25000000  0.92095849  1.0
  Ba  Ba4  1  0.49928977  0.75000000  0.69489680  1.0
  Ba  Ba5  1  -0.00071023  0.75000000  0.80510320  1.0
  Ba  Ba6  1  0.50071023  0.25000000  0.30510320  1.0
  Ba  Ba7  1  1.00071023  0.25000000  0.19489680  1.0
  V  V8  1  0.77435250  0.75000000  0.08500205  1.0
  V  V9  1  0.27435250  0.75000000  0.41499795  1.0
  V  V10  1  0.22564750  0.25000000  0.91499795  1.0
  V  V11  1  0.72564750  0.25000000  0.58500205  1.0
  O  O12  1  0.71316664  0.98605995  0.16532085  1.0
  O  O13  1  0.71316664  0.51394005  0.16532085  1.0
  O  O14  1  0.21316664  0.98605995  0.33467915  1.0
  O  O15  1  0.21316664  0.51394005  0.33467915  1.0
  O  O16  1  0.28683336  0.48605995  0.83467915  1.0
  O  O17  1  0.28683336  0.01394005  0.83467915  1.0
  O  O18  1  0.78683336  0.48605995  0.66532085  1.0
  O  O19  1  0.78683336  0.01394005  0.66532085  1.0
  O  O20  1  0.98784861  0.75000000  0.07078052  1.0
  O  O21  1  0.48784861  0.75000000  0.42921948  1.0
  O  O22  1  0.01215139  0.25000000  0.92921948  1.0
  O  O23  1  0.51215139  0.25000000  0.57078052  1.0
  O  O24  1  0.69177282  0.75000000  0.93299712  1.0
  O  O25  1  0.19177282  0.75000000  0.56700288  1.0
  O  O26  1  0.30822718  0.25000000  0.06700288  1.0
  O  O27  1  0.80822718  0.25000000  0.43299712  1.0
