# generated using pymatgen
data_Sr2V3HO9
_symmetry_space_group_name_H-M   'P 1'
_cell_length_a   7.67677782
_cell_length_b   6.08928653
_cell_length_c   8.86587764
_cell_angle_alpha   90.00000000
_cell_angle_beta   111.54535097
_cell_angle_gamma   90.00000000
_symmetry_Int_Tables_number   1
_chemical_formula_structural   Sr2V3HO9
_chemical_formula_sum   'Sr4 V6 H2 O18'
_cell_volume   385.48674653
_cell_formula_units_Z   2
loop_
 _symmetry_equiv_pos_site_id
 _symmetry_equiv_pos_as_xyz
  1  'x, y, z'
loop_
 _atom_site_type_symbol
 _atom_site_label
 _atom_site_symmetry_multiplicity
 _atom_site_fract_x
 _atom_site_fract_y
 _atom_site_fract_z
 _atom_site_occupancy
  O  O0  1  0.98788355  0.99081634  0.22012299  1.0
  O  O1  1  0.98788355  0.50918366  0.22012299  1.0
  O  O2  1  0.01211645  0.49081634  0.77987701  1.0
  O  O3  1  0.01211645  0.00918366  0.77987701  1.0
  O  O4  1  0.49169477  0.47485467  0.70224872  1.0
  O  O5  1  0.49169477  0.02514533  0.70224872  1.0
  O  O6  1  0.50830523  0.97485467  0.29775128  1.0
  O  O7  1  0.50830523  0.52514533  0.29775128  1.0
  O  O8  1  0.80910639  0.25000000  0.94228850  1.0
  O  O9  1  0.19089361  0.75000000  0.05771150  1.0
  O  O10  1  0.73209960  0.25000000  0.54287838  1.0
  O  O11  1  0.26790040  0.75000000  0.45712162  1.0
  O  O12  1  0.45619716  0.25000000  0.96350827  1.0
  O  O13  1  0.54380284  0.75000000  0.03649173  1.0
  O  O14  1  0.18214532  0.25000000  0.07668711  1.0
  O  O15  1  0.81785468  0.75000000  0.92331289  1.0
  O  O16  1  0.08113698  0.25000000  0.53446193  1.0
  O  O17  1  0.91886302  0.75000000  0.46553807  1.0
  Sr  Sr18  1  0.73888545  0.25000000  0.25184437  1.0
  Sr  Sr19  1  0.26111455  0.75000000  0.74815563  1.0
  Sr  Sr20  1  0.32662794  0.25000000  0.40967575  1.0
  Sr  Sr21  1  0.67337206  0.75000000  0.59032425  1.0
  H  H22  1  0.28626732  0.25000000  0.03281782  1.0
  H  H23  1  0.71373268  0.75000000  0.96718218  1.0
  V  V24  1  0.96208134  0.25000000  0.66032331  1.0
  V  V25  1  0.03791866  0.75000000  0.33967669  1.0
  V  V26  1  0.55948409  0.25000000  0.82489637  1.0
  V  V27  1  0.44051591  0.75000000  0.17510363  1.0
  V  V28  1  0.00000000  0.50000000  0.00000000  1.0
  V  V29  1  0.00000000  0.00000000  0.00000000  1.0
