# generated using pymatgen
data_Eu5Si3O13
_symmetry_space_group_name_H-M   'P 1'
_cell_length_a   9.62837731
_cell_length_b   9.62837731
_cell_length_c   7.07583900
_cell_angle_alpha   90.00000000
_cell_angle_beta   90.00000000
_cell_angle_gamma   120.00000000
_symmetry_Int_Tables_number   1
_chemical_formula_structural   Eu5Si3O13
_chemical_formula_sum   'Eu10 Si6 O26'
_cell_volume   568.08690139
_cell_formula_units_Z   2
loop_
 _symmetry_equiv_pos_site_id
 _symmetry_equiv_pos_as_xyz
  1  'x, y, z'
loop_
 _atom_site_type_symbol
 _atom_site_label
 _atom_site_symmetry_multiplicity
 _atom_site_fract_x
 _atom_site_fract_y
 _atom_site_fract_z
 _atom_site_occupancy
  Si  Si0  1  0.37200496  0.97167385  0.25000000  1.0
  Si  Si1  1  0.97167385  0.59966889  0.75000000  1.0
  Si  Si2  1  0.59966889  0.62799504  0.25000000  1.0
  Si  Si3  1  0.02832615  0.40033111  0.25000000  1.0
  Si  Si4  1  0.62799504  0.02832615  0.75000000  1.0
  Si  Si5  1  0.40033111  0.37200496  0.75000000  1.0
  O  O6  1  0.25308283  0.90986721  0.43599446  1.0
  O  O7  1  0.25308283  0.90986721  0.06400554  1.0
  O  O8  1  0.90986721  0.65678439  0.93599446  1.0
  O  O9  1  0.90986721  0.65678439  0.56400554  1.0
  O  O10  1  0.65678439  0.74691717  0.43599446  1.0
  O  O11  1  0.65678439  0.74691717  0.06400554  1.0
  O  O12  1  0.09013279  0.34321561  0.43599446  1.0
  O  O13  1  0.09013279  0.34321561  0.06400554  1.0
  O  O14  1  0.74691717  0.09013279  0.93599446  1.0
  O  O15  1  0.74691717  0.09013279  0.56400554  1.0
  O  O16  1  0.34321561  0.25308283  0.93599446  1.0
  O  O17  1  0.34321561  0.25308283  0.56400554  1.0
  O  O18  1  0.47145190  0.87297352  0.25000000  1.0
  O  O19  1  0.87297352  0.40152162  0.75000000  1.0
  O  O20  1  0.40152162  0.52854810  0.25000000  1.0
  O  O21  1  0.12702648  0.59847838  0.25000000  1.0
  O  O22  1  0.52854810  0.12702648  0.75000000  1.0
  O  O23  1  0.59847838  0.47145190  0.75000000  1.0
  O  O24  1  0.67648156  0.51062579  0.25000000  1.0
  O  O25  1  0.51062579  0.83414423  0.75000000  1.0
  O  O26  1  0.83414423  0.32351844  0.25000000  1.0
  O  O27  1  0.48937421  0.16585577  0.25000000  1.0
  O  O28  1  0.32351844  0.48937421  0.75000000  1.0
  O  O29  1  0.16585577  0.67648156  0.75000000  1.0
  O  O30  1  0.00000000  0.00000000  0.25000000  1.0
  O  O31  1  0.00000000  0.00000000  0.75000000  1.0
  Eu  Eu32  1  0.33333333  0.66666667  0.50018823  1.0
  Eu  Eu33  1  0.33333333  0.66666667  -0.00018823  1.0
  Eu  Eu34  1  0.66666667  0.33333333  0.00018823  1.0
  Eu  Eu35  1  0.66666667  0.33333333  0.49981177  1.0
  Eu  Eu36  1  0.99853645  0.76325936  0.25000000  1.0
  Eu  Eu37  1  0.76325936  0.76472291  0.75000000  1.0
  Eu  Eu38  1  0.76472291  0.00146355  0.25000000  1.0
  Eu  Eu39  1  0.23674064  0.23527709  0.25000000  1.0
  Eu  Eu40  1  0.00146355  0.23674064  0.75000000  1.0
  Eu  Eu41  1  0.23527709  0.99853645  0.75000000  1.0
