# generated using pymatgen
data_BaGaB4H3O10
_symmetry_space_group_name_H-M   'P 1'
_cell_length_a   7.21887688
_cell_length_b   9.97588522
_cell_length_c   7.25420290
_cell_angle_alpha   72.43518187
_cell_angle_beta   59.49099945
_cell_angle_gamma   73.64545522
_symmetry_Int_Tables_number   1
_chemical_formula_structural   BaGaB4H3O10
_chemical_formula_sum   'Ba2 Ga2 B8 H6 O20'
_cell_volume   423.82381479
_cell_formula_units_Z   2
loop_
 _symmetry_equiv_pos_site_id
 _symmetry_equiv_pos_as_xyz
  1  'x, y, z'
loop_
 _atom_site_type_symbol
 _atom_site_label
 _atom_site_symmetry_multiplicity
 _atom_site_fract_x
 _atom_site_fract_y
 _atom_site_fract_z
 _atom_site_occupancy
  Ba  Ba0  1  -0.21589439  0.70855989  -0.08000550  1.0
  Ba  Ba1  1  0.21589439  0.29144011  -0.91999450  1.0
  Ga  Ga2  1  -0.51880317  0.62055675  -0.39177828  1.0
  Ga  Ga3  1  0.51880317  0.37944325  -0.60822172  1.0
  B  B4  1  0.30016969  0.70475884  -0.69807526  1.0
  B  B5  1  -0.30016969  0.29524116  -0.30192474  1.0
  B  B6  1  -0.07447800  0.65493390  -0.55929223  1.0
  B  B7  1  0.07447800  0.34506610  -0.44070777  1.0
  B  B8  1  0.18886806  0.64461369  -0.93604518  1.0
  B  B9  1  -0.18886806  0.35538631  -0.06395482  1.0
  B  B10  1  0.38555786  0.90969998  -0.62288163  1.0
  B  B11  1  -0.38555786  0.09030002  -0.37711837  1.0
  H  H12  1  0.44736012  0.09473057  -0.62039852  1.0
  H  H13  1  -0.44736012  0.90526943  -0.37960148  1.0
  H  H14  1  -0.19013004  0.03015470  -0.14478964  1.0
  H  H15  1  0.19013004  0.96984530  -0.85521036  1.0
  H  H16  1  0.04069492  0.97037327  -0.15032778  1.0
  H  H17  1  -0.04069492  0.02962673  -0.84967222  1.0
  O  O18  1  0.07438649  0.69320885  -0.52789163  1.0
  O  O19  1  -0.07438649  0.30679115  -0.47210837  1.0
  O  O20  1  -0.26398691  0.62327848  -0.38185298  1.0
  O  O21  1  0.26398691  0.37672152  -0.61814702  1.0
  O  O22  1  -0.02739914  0.64536028  -0.76823930  1.0
  O  O23  1  0.02739914  0.35463972  -0.23176070  1.0
  O  O24  1  -0.77249116  0.60293877  -0.11684449  1.0
  O  O25  1  0.77249116  0.39706123  -0.88315551  1.0
  O  O26  1  0.34177803  0.67857770  -0.90831989  1.0
  O  O27  1  -0.34177803  0.32142230  -0.09168011  1.0
  O  O28  1  0.45889920  0.60207425  -0.63428664  1.0
  O  O29  1  -0.45889920  0.39792575  -0.36571336  1.0
  O  O30  1  0.34283782  0.85195060  -0.74748090  1.0
  O  O31  1  -0.34283782  0.14804940  -0.25251910  1.0
  O  O32  1  0.37932357  0.05643292  -0.68169572  1.0
  O  O33  1  -0.37932357  0.94356708  -0.31830428  1.0
  O  O34  1  0.43220102  0.83021216  -0.45933360  1.0
  O  O35  1  -0.43220102  0.16978784  -0.54066640  1.0
  O  O36  1  -0.10526708  0.94799391  -0.08517059  1.0
  O  O37  1  0.10526708  0.05200609  -0.91482941  1.0
