# generated using pymatgen
data_Cu(IrS2)2
_symmetry_space_group_name_H-M   'P 1'
_cell_length_a   7.01045537
_cell_length_b   7.01045537
_cell_length_c   7.01045537
_cell_angle_alpha   120.00341154
_cell_angle_beta   120.00341154
_cell_angle_gamma   89.99409114
_symmetry_Int_Tables_number   1
_chemical_formula_structural   Cu(IrS2)2
_chemical_formula_sum   'Cu2 Ir4 S8'
_cell_volume   243.61346613
_cell_formula_units_Z   2
loop_
 _symmetry_equiv_pos_site_id
 _symmetry_equiv_pos_as_xyz
  1  'x, y, z'
loop_
 _atom_site_type_symbol
 _atom_site_label
 _atom_site_symmetry_multiplicity
 _atom_site_fract_x
 _atom_site_fract_y
 _atom_site_fract_z
 _atom_site_occupancy
  Cu  Cu0  1  0.75000000  0.25000000  0.50000000  1.0
  Cu  Cu1  1  0.00000000  0.00000000  0.00000000  1.0
  Ir  Ir2  1  0.37500000  1.12500000  0.75000000  1.0
  Ir  Ir3  1  0.37500000  0.62500000  0.25000000  1.0
  Ir  Ir4  1  0.87500000  0.62500000  1.25000000  1.0
  Ir  Ir5  1  0.37500000  0.62500000  0.75000000  1.0
  S  S6  1  0.13546283  0.86459765  0.72913482  1.0
  S  S7  1  0.13546283  0.40632801  0.27086518  1.0
  S  S8  1  0.61453717  0.84367199  1.22913482  1.0
  S  S9  1  0.61453717  0.38540235  0.77086518  1.0
  S  S10  1  1.13540235  0.86453717  1.27086518  1.0
  S  S11  1  0.59367199  0.86453717  0.72913482  1.0
  S  S12  1  1.15632801  0.38546283  0.77086518  1.0
  S  S13  1  0.61459765  0.38546283  0.22913482  1.0
