# generated using pymatgen
data_Na2SrV4O12
_symmetry_space_group_name_H-M   'P 1'
_cell_length_a   10.72792339
_cell_length_b   10.72792339
_cell_length_c   5.06754352
_cell_angle_alpha   90.00000000
_cell_angle_beta   90.00000000
_cell_angle_gamma   90.00000000
_symmetry_Int_Tables_number   1
_chemical_formula_structural   Na2SrV4O12
_chemical_formula_sum   'Na4 Sr2 V8 O24'
_cell_volume   583.21517304
_cell_formula_units_Z   2
loop_
 _symmetry_equiv_pos_site_id
 _symmetry_equiv_pos_as_xyz
  1  'x, y, z'
loop_
 _atom_site_type_symbol
 _atom_site_label
 _atom_site_symmetry_multiplicity
 _atom_site_fract_x
 _atom_site_fract_y
 _atom_site_fract_z
 _atom_site_occupancy
  Na  Na0  1  0.25000000  0.25000000  0.50000000  1.0
  Na  Na1  1  0.75000000  0.25000000  0.50000000  1.0
  Na  Na2  1  0.25000000  0.75000000  0.50000000  1.0
  Na  Na3  1  0.75000000  0.75000000  0.50000000  1.0
  Sr  Sr4  1  0.50000000  0.50000000  0.50000000  1.0
  Sr  Sr5  1  0.00000000  0.00000000  0.50000000  1.0
  V  V6  1  0.50000000  0.78360955  0.00000000  1.0
  V  V7  1  0.00000000  0.71639045  0.00000000  1.0
  V  V8  1  0.00000000  0.28360955  0.00000000  1.0
  V  V9  1  0.50000000  0.21639045  0.00000000  1.0
  V  V10  1  0.78360955  0.50000000  0.00000000  1.0
  V  V11  1  0.71639045  0.00000000  0.00000000  1.0
  V  V12  1  0.28360955  0.00000000  0.00000000  1.0
  V  V13  1  0.21639045  0.50000000  0.00000000  1.0
  O  O14  1  0.61836596  0.88163404  0.14701677  1.0
  O  O15  1  0.11836596  0.61836596  0.14701677  1.0
  O  O16  1  0.88163404  0.38163404  0.14701677  1.0
  O  O17  1  0.38163404  0.11836596  0.14701677  1.0
  O  O18  1  0.88163404  0.61836596  0.85298323  1.0
  O  O19  1  0.38163404  0.88163404  0.85298323  1.0
  O  O20  1  0.61836596  0.11836596  0.85298323  1.0
  O  O21  1  0.11836596  0.38163404  0.85298323  1.0
  O  O22  1  0.30224220  0.43546645  0.23527007  1.0
  O  O23  1  0.80224220  0.06453355  0.23527007  1.0
  O  O24  1  0.19775780  0.93546645  0.23527007  1.0
  O  O25  1  0.69775780  0.56453355  0.23527007  1.0
  O  O26  1  0.19775780  0.06453355  0.76472993  1.0
  O  O27  1  0.69775780  0.43546645  0.76472993  1.0
  O  O28  1  0.30224220  0.56453355  0.76472993  1.0
  O  O29  1  0.80224220  0.93546645  0.76472993  1.0
  O  O30  1  0.43546645  0.30224220  0.76472993  1.0
  O  O31  1  0.06453355  0.80224220  0.76472993  1.0
  O  O32  1  0.93546645  0.19775780  0.76472993  1.0
  O  O33  1  0.56453355  0.69775780  0.76472993  1.0
  O  O34  1  0.06453355  0.19775780  0.23527007  1.0
  O  O35  1  0.43546645  0.69775780  0.23527007  1.0
  O  O36  1  0.56453355  0.30224220  0.23527007  1.0
  O  O37  1  0.93546645  0.80224220  0.23527007  1.0
