# generated using pymatgen
data_NaCaAlF6
_symmetry_space_group_name_H-M   'P 1'
_cell_length_a   9.09158394
_cell_length_b   9.09158394
_cell_length_c   5.11758920
_cell_angle_alpha   90.00000000
_cell_angle_beta   90.00000000
_cell_angle_gamma   120.00000000
_symmetry_Int_Tables_number   1
_chemical_formula_structural   NaCaAlF6
_chemical_formula_sum   'Na3 Ca3 Al3 F18'
_cell_volume   366.33225379
_cell_formula_units_Z   3
loop_
 _symmetry_equiv_pos_site_id
 _symmetry_equiv_pos_as_xyz
  1  'x, y, z'
loop_
 _atom_site_type_symbol
 _atom_site_label
 _atom_site_symmetry_multiplicity
 _atom_site_fract_x
 _atom_site_fract_y
 _atom_site_fract_z
 _atom_site_occupancy
  Na  Na0  1  0.28860055  0.28860055  0.50000000  1.0
  Na  Na1  1  0.00000000  0.71139945  0.50000000  1.0
  Na  Na2  1  0.71139945  0.00000000  0.50000000  1.0
  Ca  Ca3  1  0.63021858  0.63021858  0.00000000  1.0
  Ca  Ca4  1  -0.00000000  0.36978142  0.00000000  1.0
  Ca  Ca5  1  0.36978142  0.00000000  0.00000000  1.0
  Al  Al6  1  0.33333333  0.66666667  0.49643793  1.0
  Al  Al7  1  0.66666667  0.33333333  0.50356207  1.0
  Al  Al8  1  0.00000000  0.00000000  0.00000000  1.0
  F  F9  1  0.10875641  0.91540859  0.19976997  1.0
  F  F10  1  0.91540859  0.10875641  0.80023003  1.0
  F  F11  1  0.80665218  0.89124359  0.19976997  1.0
  F  F12  1  0.08459141  0.19334782  0.19976997  1.0
  F  F13  1  0.89124359  0.80665218  0.80023003  1.0
  F  F14  1  0.19334782  0.08459141  0.80023003  1.0
  F  F15  1  0.44410439  0.85637572  0.28733527  1.0
  F  F16  1  0.85637572  0.44410439  0.71266473  1.0
  F  F17  1  0.41227133  0.55589561  0.28733527  1.0
  F  F18  1  0.14362428  0.58772867  0.28733527  1.0
  F  F19  1  0.55589561  0.41227133  0.71266473  1.0
  F  F20  1  0.58772867  0.14362428  0.71266473  1.0
  F  F21  1  0.74497665  0.52327604  0.29595515  1.0
  F  F22  1  0.52327604  0.74497665  0.70404485  1.0
  F  F23  1  0.77829939  0.25502335  0.29595515  1.0
  F  F24  1  0.47672396  0.22170061  0.29595515  1.0
  F  F25  1  0.25502335  0.77829939  0.70404485  1.0
  F  F26  1  0.22170061  0.47672396  0.70404485  1.0
