# generated using pymatgen
data_Sr5V3O12F
_symmetry_space_group_name_H-M   'P 1'
_cell_length_a   10.18127080
_cell_length_b   10.18127080
_cell_length_c   7.27937592
_cell_angle_alpha   90.00000000
_cell_angle_beta   90.00000000
_cell_angle_gamma   120.00000000
_symmetry_Int_Tables_number   1
_chemical_formula_structural   Sr5V3O12F
_chemical_formula_sum   'Sr10 V6 O24 F2'
_cell_volume   653.47466915
_cell_formula_units_Z   2
loop_
 _symmetry_equiv_pos_site_id
 _symmetry_equiv_pos_as_xyz
  1  'x, y, z'
loop_
 _atom_site_type_symbol
 _atom_site_label
 _atom_site_symmetry_multiplicity
 _atom_site_fract_x
 _atom_site_fract_y
 _atom_site_fract_z
 _atom_site_occupancy
  Sr  Sr0  1  0.00178478  0.76353119  0.25000000  1.0
  Sr  Sr1  1  0.76353119  0.76174642  0.75000000  1.0
  Sr  Sr2  1  0.76174642  0.99821522  0.25000000  1.0
  Sr  Sr3  1  0.23646881  0.23825358  0.25000000  1.0
  Sr  Sr4  1  0.99821522  0.23646881  0.75000000  1.0
  Sr  Sr5  1  0.23825358  0.00178478  0.75000000  1.0
  Sr  Sr6  1  0.33333333  0.66666667  0.50095279  1.0
  Sr  Sr7  1  0.33333333  0.66666667  -0.00095279  1.0
  Sr  Sr8  1  0.66666667  0.33333333  0.00095279  1.0
  Sr  Sr9  1  0.66666667  0.33333333  0.49904721  1.0
  V  V10  1  0.37368599  0.97127609  0.25000000  1.0
  V  V11  1  0.97127609  0.59759011  0.75000000  1.0
  V  V12  1  0.59759011  0.62631401  0.25000000  1.0
  V  V13  1  0.02872391  0.40240989  0.25000000  1.0
  V  V14  1  0.62631401  0.02872391  0.75000000  1.0
  V  V15  1  0.40240989  0.37368599  0.75000000  1.0
  O  O16  1  0.25468424  0.91088204  0.43586076  1.0
  O  O17  1  0.25468424  0.91088204  0.06413924  1.0
  O  O18  1  0.91088204  0.65619780  0.93586076  1.0
  O  O19  1  0.91088204  0.65619780  0.56413924  1.0
  O  O20  1  0.65619780  0.74531576  0.43586076  1.0
  O  O21  1  0.65619780  0.74531576  0.06413924  1.0
  O  O22  1  0.08911796  0.34380220  0.43586076  1.0
  O  O23  1  0.08911796  0.34380220  0.06413924  1.0
  O  O24  1  0.74531576  0.08911796  0.93586076  1.0
  O  O25  1  0.74531576  0.08911796  0.56413924  1.0
  O  O26  1  0.34380220  0.25468424  0.93586076  1.0
  O  O27  1  0.34380220  0.25468424  0.56413924  1.0
  O  O28  1  0.47470742  0.87551201  0.25000000  1.0
  O  O29  1  0.87551201  0.40080459  0.75000000  1.0
  O  O30  1  0.40080459  0.52529258  0.25000000  1.0
  O  O31  1  0.12448799  0.59919541  0.25000000  1.0
  O  O32  1  0.52529258  0.12448799  0.75000000  1.0
  O  O33  1  0.59919541  0.47470742  0.75000000  1.0
  O  O34  1  0.67891078  0.51372440  0.25000000  1.0
  O  O35  1  0.51372440  0.83481362  0.75000000  1.0
  O  O36  1  0.83481362  0.32108922  0.25000000  1.0
  O  O37  1  0.48627560  0.16518638  0.25000000  1.0
  O  O38  1  0.32108922  0.48627560  0.75000000  1.0
  O  O39  1  0.16518638  0.67891078  0.75000000  1.0
  F  F40  1  0.00000000  0.00000000  0.50000000  1.0
  F  F41  1  0.00000000  0.00000000  0.00000000  1.0
