# generated using pymatgen
data_Yb2Mo4O15
_symmetry_space_group_name_H-M   'P 1'
_cell_length_a   6.95055454
_cell_length_b   9.60062962
_cell_length_c   10.72713950
_cell_angle_alpha   90.00000000
_cell_angle_beta   104.54213067
_cell_angle_gamma   90.00000000
_symmetry_Int_Tables_number   1
_chemical_formula_structural   Yb2Mo4O15
_chemical_formula_sum   'Yb4 Mo8 O30'
_cell_volume   692.88630362
_cell_formula_units_Z   2
loop_
 _symmetry_equiv_pos_site_id
 _symmetry_equiv_pos_as_xyz
  1  'x, y, z'
loop_
 _atom_site_type_symbol
 _atom_site_label
 _atom_site_symmetry_multiplicity
 _atom_site_fract_x
 _atom_site_fract_y
 _atom_site_fract_z
 _atom_site_occupancy
  Yb  Yb0  1  0.70274537  0.52256589  0.77362897  1.0
  Yb  Yb1  1  0.70274537  0.97743411  0.27362897  1.0
  Yb  Yb2  1  0.29725463  0.02256589  0.72637103  1.0
  Yb  Yb3  1  0.29725463  0.47743411  0.22637103  1.0
  Mo  Mo4  1  0.42450187  0.74268709  0.99273802  1.0
  Mo  Mo5  1  0.42450187  0.75731291  0.49273802  1.0
  Mo  Mo6  1  0.57549813  0.24268709  0.50726198  1.0
  Mo  Mo7  1  0.57549813  0.25731291  0.00726198  1.0
  Mo  Mo8  1  0.88152722  0.90783861  0.84414849  1.0
  Mo  Mo9  1  0.88152722  0.59216139  0.34414849  1.0
  Mo  Mo10  1  0.11847278  0.40783861  0.65585151  1.0
  Mo  Mo11  1  0.11847278  0.09216139  0.15585151  1.0
  O  O12  1  0.96371335  0.97307616  0.71326528  1.0
  O  O13  1  0.96371335  0.52692384  0.21326528  1.0
  O  O14  1  0.03628665  0.47307616  0.78673472  1.0
  O  O15  1  0.03628665  0.02692384  0.28673472  1.0
  O  O16  1  0.53266114  0.62607028  0.90266463  1.0
  O  O17  1  0.53266114  0.87392972  0.40266463  1.0
  O  O18  1  0.46733886  0.12607028  0.59733537  1.0
  O  O19  1  0.46733886  0.37392972  0.09733537  1.0
  O  O20  1  0.26792727  0.86218015  0.88496664  1.0
  O  O21  1  0.26792727  0.63781985  0.38496664  1.0
  O  O22  1  0.73207273  0.36218015  0.61503336  1.0
  O  O23  1  0.73207273  0.13781985  0.11503336  1.0
  O  O24  1  0.00000000  0.00000000  0.00000000  1.0
  O  O25  1  0.00000000  0.50000000  0.50000000  1.0
  O  O26  1  0.61772789  0.66548045  0.60153439  1.0
  O  O27  1  0.61772789  0.83451955  0.10153439  1.0
  O  O28  1  0.38227211  0.16548045  0.89846561  1.0
  O  O29  1  0.38227211  0.33451955  0.39846561  1.0
  O  O30  1  0.62916301  0.95275133  0.81284376  1.0
  O  O31  1  0.62916301  0.54724867  0.31284376  1.0
  O  O32  1  0.37083699  0.45275133  0.68715624  1.0
  O  O33  1  0.37083699  0.04724867  0.18715624  1.0
  O  O34  1  0.71578258  0.34886719  0.91614616  1.0
  O  O35  1  0.71578258  0.15113281  0.41614616  1.0
  O  O36  1  0.28421742  0.84886719  0.58385384  1.0
  O  O37  1  0.28421742  0.65113281  0.08385384  1.0
  O  O38  1  0.88371511  0.72546318  0.84957248  1.0
  O  O39  1  0.88371511  0.77453682  0.34957248  1.0
  O  O40  1  0.11628489  0.22546318  0.65042752  1.0
  O  O41  1  0.11628489  0.27453682  0.15042752  1.0
