# generated using pymatgen
data_KLiMnO2
_symmetry_space_group_name_H-M   'P 1'
_cell_length_a   5.77214635
_cell_length_b   5.77214635
_cell_length_c   8.42961258
_cell_angle_alpha   61.93910749
_cell_angle_beta   118.06089251
_cell_angle_gamma   145.16185282
_symmetry_Int_Tables_number   1
_chemical_formula_structural   KLiMnO2
_chemical_formula_sum   'K2 Li2 Mn2 O4'
_cell_volume   139.58690498
_cell_formula_units_Z   2
loop_
 _symmetry_equiv_pos_site_id
 _symmetry_equiv_pos_as_xyz
  1  'x, y, z'
loop_
 _atom_site_type_symbol
 _atom_site_label
 _atom_site_symmetry_multiplicity
 _atom_site_fract_x
 _atom_site_fract_y
 _atom_site_fract_z
 _atom_site_occupancy
  K  K0  1  0.83845844  -0.83845844  0.36643809  1.0
  K  K1  1  0.16154156  -0.16154156  0.63356191  1.0
  Li  Li2  1  0.66084138  0.33915862  0.94828208  1.0
  Li  Li3  1  1.33915862  -0.33915862  0.05171792  1.0
  Mn  Mn4  1  0.95343160  -0.95343160  0.81162095  1.0
  Mn  Mn5  1  0.04656840  -0.04656840  0.18837905  1.0
  O  O6  1  0.84151138  0.15848862  0.94520244  1.0
  O  O7  1  1.15848862  -0.15848862  0.05479756  1.0
  O  O8  1  1.47227050  -0.47227050  0.69976570  1.0
  O  O9  1  0.52772950  0.47227050  0.30023430  1.0
