# generated using pymatgen
data_K2Cu(PO3)4
_symmetry_space_group_name_H-M   'P 1'
_cell_length_a   8.25864890
_cell_length_b   8.25864890
_cell_length_c   8.32312909
_cell_angle_alpha   84.23405165
_cell_angle_beta   95.76594835
_cell_angle_gamma   82.86501993
_symmetry_Int_Tables_number   1
_chemical_formula_structural   K2Cu(PO3)4
_chemical_formula_sum   'K4 Cu2 P8 O24'
_cell_volume   556.75588453
_cell_formula_units_Z   2
loop_
 _symmetry_equiv_pos_site_id
 _symmetry_equiv_pos_as_xyz
  1  'x, y, z'
loop_
 _atom_site_type_symbol
 _atom_site_label
 _atom_site_symmetry_multiplicity
 _atom_site_fract_x
 _atom_site_fract_y
 _atom_site_fract_z
 _atom_site_occupancy
  K  K0  1  0.87276151  -0.13089035  0.51168038  1.0
  K  K1  1  1.13089035  0.12723849  0.01168038  1.0
  K  K2  1  1.55834239  0.16606953  0.79985684  1.0
  K  K3  1  0.83393047  -0.55834239  0.29985684  1.0
  Cu  Cu4  1  0.51967377  -0.20786638  0.15827580  1.0
  Cu  Cu5  1  1.20786638  0.48032623  0.65827580  1.0
  P  P6  1  1.17264177  0.68349405  0.23216888  1.0
  P  P7  1  0.31650595  -0.17264177  0.73216888  1.0
  P  P8  1  1.49416018  0.12950835  0.32793628  1.0
  P  P9  1  0.87049165  -0.49416018  0.82793628  1.0
  P  P10  1  1.18539243  0.13464988  0.49321710  1.0
  P  P11  1  0.86535012  -0.18539243  0.99321710  1.0
  P  P12  1  1.40761299  0.44096638  0.10502356  1.0
  P  P13  1  0.55903362  -0.40761299  0.60502356  1.0
  O  O14  1  0.65178631  -0.35895578  0.46676337  1.0
  O  O15  1  1.35895578  0.34821369  0.96676337  1.0
  O  O16  1  0.75799468  -0.23625422  0.12218755  1.0
  O  O17  1  1.23625422  0.24200532  0.62218755  1.0
  O  O18  1  0.51131164  -0.42139038  0.07777268  1.0
  O  O19  1  1.42139038  0.48868836  0.57777268  1.0
  O  O20  1  0.84660412  -0.01184917  0.91525589  1.0
  O  O21  1  1.01184917  0.15339588  0.41525589  1.0
  O  O22  1  1.24331235  0.50493501  0.18429141  1.0
  O  O23  1  0.49506499  -0.24331235  0.68429141  1.0
  O  O24  1  0.30875542  -0.20904639  0.24837176  1.0
  O  O25  1  1.20904639  0.69124458  0.74837176  1.0
  O  O26  1  1.52514075  0.02326769  0.19188626  1.0
  O  O27  1  0.97673231  -0.52514075  0.69188626  1.0
  O  O28  1  1.59583395  0.09111608  0.48901634  1.0
  O  O29  1  0.90888392  -0.59583395  0.98901634  1.0
  O  O30  1  1.07310466  0.65514644  0.37017010  1.0
  O  O31  1  0.34485356  -0.07310466  0.87017010  1.0
  O  O32  1  1.05617879  0.76436783  0.06746545  1.0
  O  O33  1  0.23563217  -0.05617879  0.56746545  1.0
  O  O34  1  1.51347977  0.31658369  0.25518009  1.0
  O  O35  1  0.68341631  -0.51347977  0.75518009  1.0
  O  O36  1  1.29753536  0.14757057  0.34288026  1.0
  O  O37  1  0.85242943  -0.29753536  0.84288026  1.0
