# generated using pymatgen
data_Ca2SiO4
_symmetry_space_group_name_H-M   'P 1'
_cell_length_a   11.33971930
_cell_length_b   6.79488551
_cell_length_c   5.11804980
_cell_angle_alpha   90.00000000
_cell_angle_beta   90.00000000
_cell_angle_gamma   90.00000000
_symmetry_Int_Tables_number   1
_chemical_formula_structural   Ca2SiO4
_chemical_formula_sum   'Ca8 Si4 O16'
_cell_volume   394.35645636
_cell_formula_units_Z   4
loop_
 _symmetry_equiv_pos_site_id
 _symmetry_equiv_pos_as_xyz
  1  'x, y, z'
loop_
 _atom_site_type_symbol
 _atom_site_label
 _atom_site_symmetry_multiplicity
 _atom_site_fract_x
 _atom_site_fract_y
 _atom_site_fract_z
 _atom_site_occupancy
  Ca  Ca0  1  0.78069658  0.25000000  0.50790008  1.0
  Ca  Ca1  1  0.28069658  0.25000000  0.99209992  1.0
  Ca  Ca2  1  0.21930342  0.75000000  0.49209992  1.0
  Ca  Ca3  1  0.71930342  0.75000000  0.00790008  1.0
  Ca  Ca4  1  0.00000000  0.50000000  0.00000000  1.0
  Ca  Ca5  1  0.00000000  0.00000000  0.00000000  1.0
  Ca  Ca6  1  0.50000000  0.50000000  0.50000000  1.0
  Ca  Ca7  1  0.50000000  0.00000000  0.50000000  1.0
  Si  Si8  1  0.59597329  0.25000000  0.07324814  1.0
  Si  Si9  1  0.09597329  0.25000000  0.42675186  1.0
  Si  Si10  1  0.40402671  0.75000000  0.92675186  1.0
  Si  Si11  1  0.90402671  0.75000000  0.57324814  1.0
  O  O12  1  0.59288028  0.25000000  0.75231877  1.0
  O  O13  1  0.09288028  0.25000000  0.74768123  1.0
  O  O14  1  0.40711972  0.75000000  0.24768123  1.0
  O  O15  1  0.90711972  0.75000000  0.25231877  1.0
  O  O16  1  0.66182585  0.44511920  0.20418044  1.0
  O  O17  1  0.66182585  0.05488080  0.20418044  1.0
  O  O18  1  0.16182585  0.44511920  0.29581956  1.0
  O  O19  1  0.16182585  0.05488080  0.29581956  1.0
  O  O20  1  0.33817415  0.94511920  0.79581956  1.0
  O  O21  1  0.33817415  0.55488080  0.79581956  1.0
  O  O22  1  0.83817415  0.94511920  0.70418044  1.0
  O  O23  1  0.83817415  0.55488080  0.70418044  1.0
  O  O24  1  0.96056744  0.25000000  0.29621160  1.0
  O  O25  1  0.46056744  0.25000000  0.20378840  1.0
  O  O26  1  0.03943256  0.75000000  0.70378840  1.0
  O  O27  1  0.53943256  0.75000000  0.79621160  1.0
