# generated using pymatgen
data_MgAl2Cu
_symmetry_space_group_name_H-M   'P 1'
_cell_length_a   5.05224209
_cell_length_b   5.05224209
_cell_length_c   7.15362882
_cell_angle_alpha   90.00000000
_cell_angle_beta   90.00000000
_cell_angle_gamma   133.38066556
_symmetry_Int_Tables_number   1
_chemical_formula_structural   MgAl2Cu
_chemical_formula_sum   'Mg2 Al4 Cu2'
_cell_volume   132.71301114
_cell_formula_units_Z   2
loop_
 _symmetry_equiv_pos_site_id
 _symmetry_equiv_pos_as_xyz
  1  'x, y, z'
loop_
 _atom_site_type_symbol
 _atom_site_label
 _atom_site_symmetry_multiplicity
 _atom_site_fract_x
 _atom_site_fract_y
 _atom_site_fract_z
 _atom_site_occupancy
  Mg  Mg0  1  0.43554023  0.56445977  0.75000000  1.0
  Mg  Mg1  1  -0.43554023  0.43554023  0.25000000  1.0
  Al  Al2  1  0.14454987  0.85545013  0.94492343  1.0
  Al  Al3  1  0.14454987  0.85545013  0.55507657  1.0
  Al  Al4  1  -0.14454987  0.14454987  0.44492343  1.0
  Al  Al5  1  -0.14454987  0.14454987  0.05507657  1.0
  Cu  Cu6  1  -0.27940847  0.27940847  0.75000000  1.0
  Cu  Cu7  1  0.27940847  0.72059153  0.25000000  1.0
