# generated using pymatgen
data_Sr2GdTaO6
_symmetry_space_group_name_H-M   'P 1'
_cell_length_a   5.86652861
_cell_length_b   5.97961310
_cell_length_c   10.22794603
_cell_angle_alpha   90.00000000
_cell_angle_beta   125.25214903
_cell_angle_gamma   90.00000000
_symmetry_Int_Tables_number   1
_chemical_formula_structural   Sr2GdTaO6
_chemical_formula_sum   'Sr4 Gd2 Ta2 O12'
_cell_volume   292.99665868
_cell_formula_units_Z   2
loop_
 _symmetry_equiv_pos_site_id
 _symmetry_equiv_pos_as_xyz
  1  'x, y, z'
loop_
 _atom_site_type_symbol
 _atom_site_label
 _atom_site_symmetry_multiplicity
 _atom_site_fract_x
 _atom_site_fract_y
 _atom_site_fract_z
 _atom_site_occupancy
  Sr  Sr0  1  0.73913516  0.04046436  0.24914728  1.0
  Sr  Sr1  1  0.73913516  0.45953564  0.74914728  1.0
  Sr  Sr2  1  0.26086484  0.54046436  0.25085272  1.0
  Sr  Sr3  1  0.26086484  0.95953564  0.75085272  1.0
  Gd  Gd4  1  0.50000000  0.50000000  -0.00000000  1.0
  Gd  Gd5  1  0.50000000  0.00000000  0.50000000  1.0
  Ta  Ta6  1  0.00000000  0.50000000  0.50000000  1.0
  Ta  Ta7  1  0.00000000  0.00000000  0.00000000  1.0
  O  O8  1  0.85580256  0.47052631  0.26799217  1.0
  O  O9  1  0.85580256  0.02947369  0.76799217  1.0
  O  O10  1  0.14419744  0.97052631  0.23200783  1.0
  O  O11  1  0.14419744  0.52947369  0.73200783  1.0
  O  O12  1  0.76105418  0.77410937  0.45029435  1.0
  O  O13  1  0.76105418  0.72589063  0.95029435  1.0
  O  O14  1  0.23894582  0.27410937  0.04970565  1.0
  O  O15  1  0.23894582  0.22589063  0.54970565  1.0
  O  O16  1  0.68189734  0.30740538  0.45604066  1.0
  O  O17  1  0.68189734  0.19259462  0.95604066  1.0
  O  O18  1  0.31810266  0.80740538  0.04395934  1.0
  O  O19  1  0.31810266  0.69259462  0.54395934  1.0
