# generated using pymatgen
data_SrZnO2
_symmetry_space_group_name_H-M   'P 1'
_cell_length_a   5.89677212
_cell_length_b   3.36613168
_cell_length_c   11.42534610
_cell_angle_alpha   90.00000000
_cell_angle_beta   90.00000000
_cell_angle_gamma   90.00000000
_symmetry_Int_Tables_number   1
_chemical_formula_structural   SrZnO2
_chemical_formula_sum   'Sr4 Zn4 O8'
_cell_volume   226.78525299
_cell_formula_units_Z   4
loop_
 _symmetry_equiv_pos_site_id
 _symmetry_equiv_pos_as_xyz
  1  'x, y, z'
loop_
 _atom_site_type_symbol
 _atom_site_label
 _atom_site_symmetry_multiplicity
 _atom_site_fract_x
 _atom_site_fract_y
 _atom_site_fract_z
 _atom_site_occupancy
  Sr  Sr0  1  0.81571664  0.75000000  0.86745521  1.0
  Sr  Sr1  1  0.31571664  0.75000000  0.63254479  1.0
  Sr  Sr2  1  0.18428336  0.25000000  0.13254479  1.0
  Sr  Sr3  1  0.68428336  0.25000000  0.36745521  1.0
  Zn  Zn4  1  0.70005030  0.75000000  0.12919552  1.0
  Zn  Zn5  1  0.20005030  0.75000000  0.37080448  1.0
  Zn  Zn6  1  0.29994970  0.25000000  0.87080448  1.0
  Zn  Zn7  1  0.79994970  0.25000000  0.62919552  1.0
  O  O8  1  0.94525536  0.75000000  0.25946796  1.0
  O  O9  1  0.44525536  0.75000000  0.24053204  1.0
  O  O10  1  0.05474464  0.25000000  0.74053204  1.0
  O  O11  1  0.55474464  0.25000000  0.75946796  1.0
  O  O12  1  0.73588540  0.75000000  0.53959879  1.0
  O  O13  1  0.23588540  0.75000000  0.96040121  1.0
  O  O14  1  0.26411460  0.25000000  0.46040121  1.0
  O  O15  1  0.76411460  0.25000000  0.03959879  1.0
