# generated using pymatgen
data_EuIn4Ir
_symmetry_space_group_name_H-M   'P 1'
_cell_length_a   8.82516395
_cell_length_b   8.82516395
_cell_length_c   7.54071193
_cell_angle_alpha   90.00000000
_cell_angle_beta   90.00000000
_cell_angle_gamma   150.36624557
_symmetry_Int_Tables_number   1
_chemical_formula_structural   EuIn4Ir
_chemical_formula_sum   'Eu2 In8 Ir2'
_cell_volume   290.39145271
_cell_formula_units_Z   2
loop_
 _symmetry_equiv_pos_site_id
 _symmetry_equiv_pos_as_xyz
  1  'x, y, z'
loop_
 _atom_site_type_symbol
 _atom_site_label
 _atom_site_symmetry_multiplicity
 _atom_site_fract_x
 _atom_site_fract_y
 _atom_site_fract_z
 _atom_site_occupancy
  Eu  Eu0  1  -0.62690375  0.62690375  0.25000000  1.0
  Eu  Eu1  1  -0.37309625  1.37309625  0.75000000  1.0
  In  In2  1  -0.43145693  1.43145693  0.25000000  1.0
  In  In3  1  -0.56854307  0.56854307  0.75000000  1.0
  In  In4  1  0.00000000  0.00000000  0.50000000  1.0
  In  In5  1  0.00000000  0.00000000  0.00000000  1.0
  In  In6  1  -0.81529881  0.81529881  0.45151279  1.0
  In  In7  1  -0.81529881  0.81529881  0.04848721  1.0
  In  In8  1  -0.18470119  1.18470119  0.95151279  1.0
  In  In9  1  -0.18470119  1.18470119  0.54848721  1.0
  Ir  Ir10  1  -0.27338971  1.27338971  0.25000000  1.0
  Ir  Ir11  1  -0.72661029  0.72661029  0.75000000  1.0
