# generated using pymatgen
data_Ba2SiO4
_symmetry_space_group_name_H-M   'P 1'
_cell_length_a   12.55664110
_cell_length_b   7.84733471
_cell_length_c   5.47522757
_cell_angle_alpha   90.00000000
_cell_angle_beta   90.00000000
_cell_angle_gamma   90.00000000
_symmetry_Int_Tables_number   1
_chemical_formula_structural   Ba2SiO4
_chemical_formula_sum   'Ba8 Si4 O16'
_cell_volume   539.50793024
_cell_formula_units_Z   4
loop_
 _symmetry_equiv_pos_site_id
 _symmetry_equiv_pos_as_xyz
  1  'x, y, z'
loop_
 _atom_site_type_symbol
 _atom_site_label
 _atom_site_symmetry_multiplicity
 _atom_site_fract_x
 _atom_site_fract_y
 _atom_site_fract_z
 _atom_site_occupancy
  Ba  Ba0  1  0.78448876  0.25000000  0.51252031  1.0
  Ba  Ba1  1  0.28448876  0.25000000  0.98747969  1.0
  Ba  Ba2  1  0.21551124  0.75000000  0.48747969  1.0
  Ba  Ba3  1  0.71551124  0.75000000  0.01252031  1.0
  Ba  Ba4  1  0.00000000  0.50000000  -0.00000000  1.0
  Ba  Ba5  1  -0.00000000  0.00000000  0.00000000  1.0
  Ba  Ba6  1  0.50000000  0.50000000  0.50000000  1.0
  Ba  Ba7  1  0.50000000  -0.00000000  0.50000000  1.0
  Si  Si8  1  0.60054601  0.25000000  0.06528583  1.0
  Si  Si9  1  0.10054601  0.25000000  0.43471417  1.0
  Si  Si10  1  0.39945399  0.75000000  0.93471417  1.0
  Si  Si11  1  0.89945399  0.75000000  0.56528583  1.0
  O  O12  1  0.66260494  0.42090467  0.17774470  1.0
  O  O13  1  0.66260494  0.07909533  0.17774470  1.0
  O  O14  1  0.16260494  0.42090467  0.32225530  1.0
  O  O15  1  0.16260494  0.07909533  0.32225530  1.0
  O  O16  1  0.33739506  0.92090467  0.82225530  1.0
  O  O17  1  0.33739506  0.57909533  0.82225530  1.0
  O  O18  1  0.83739506  0.92090467  0.67774470  1.0
  O  O19  1  0.83739506  0.57909533  0.67774470  1.0
  O  O20  1  0.97688363  0.25000000  0.31882206  1.0
  O  O21  1  0.47688363  0.25000000  0.18117794  1.0
  O  O22  1  0.02311637  0.75000000  0.68117794  1.0
  O  O23  1  0.52311637  0.75000000  0.81882206  1.0
  O  O24  1  0.59474751  0.25000000  0.76379080  1.0
  O  O25  1  0.09474751  0.25000000  0.73620920  1.0
  O  O26  1  0.40525249  0.75000000  0.23620920  1.0
  O  O27  1  0.90525249  0.75000000  0.26379080  1.0
