# generated using pymatgen
data_Tl2P4Pd3O14
_symmetry_space_group_name_H-M   'P 1'
_cell_length_a   10.24850756
_cell_length_b   10.24850756
_cell_length_c   10.24850756
_cell_angle_alpha   120.82071664
_cell_angle_beta   90.63353488
_cell_angle_gamma   118.46289583
_symmetry_Int_Tables_number   1
_chemical_formula_structural   Tl2P4Pd3O14
_chemical_formula_sum   'Tl4 P8 Pd6 O28'
_cell_volume   764.81480889
_cell_formula_units_Z   2
loop_
 _symmetry_equiv_pos_site_id
 _symmetry_equiv_pos_as_xyz
  1  'x, y, z'
loop_
 _atom_site_type_symbol
 _atom_site_label
 _atom_site_symmetry_multiplicity
 _atom_site_fract_x
 _atom_site_fract_y
 _atom_site_fract_z
 _atom_site_occupancy
  Tl  Tl0  1  0.67789520  0.69310422  0.98479098  1.0
  Tl  Tl1  1  0.32210480  0.30689578  0.01520902  1.0
  Tl  Tl2  1  0.79168676  0.30689578  0.48479098  1.0
  Tl  Tl3  1  0.20831324  0.69310422  0.51520902  1.0
  P  P4  1  1.14005138  1.77065562  0.93221833  1.0
  P  P5  1  0.85994862  0.79216695  0.63060424  1.0
  P  P6  1  0.66156271  0.79216695  0.43221833  1.0
  P  P7  1  1.33843729  0.77065562  1.13060424  1.0
  P  P8  1  0.85994862  1.22934438  1.06778167  1.0
  P  P9  1  1.14005138  1.20783305  0.36939576  1.0
  P  P10  1  1.33843729  1.20783305  0.56778167  1.0
  P  P11  1  0.66156271  0.22934438  0.86939576  1.0
  Pd  Pd12  1  1.21432072  1.46432072  0.75000000  1.0
  Pd  Pd13  1  0.78567928  0.53567928  0.25000000  1.0
  Pd  Pd14  1  0.00000000  0.00000000  0.00000000  1.0
  Pd  Pd15  1  0.50000000  0.00000000  0.50000000  1.0
  Pd  Pd16  1  0.50000000  1.00000000  1.00000000  1.0
  Pd  Pd17  1  0.50000000  0.50000000  0.50000000  1.0
  O  O18  1  1.18290334  0.76479561  1.08189227  1.0
  O  O19  1  0.81709666  0.89898892  0.58189227  1.0
  O  O20  1  0.81709666  0.23520439  0.91810773  1.0
  O  O21  1  1.18290334  1.10101108  0.41810773  1.0
  O  O22  1  0.98978778  0.77046157  0.93252470  1.0
  O  O23  1  1.01021222  0.94273692  1.78067379  1.0
  O  O24  1  0.66206313  0.94273692  0.43252470  1.0
  O  O25  1  1.33793687  0.77046157  1.28067379  1.0
  O  O26  1  1.01021222  0.22953843  1.06747530  1.0
  O  O27  1  0.98978778  1.05726308  1.21932621  1.0
  O  O28  1  1.33793687  1.05726308  0.56747530  1.0
  O  O29  1  0.66206313  0.22953843  0.71932621  1.0
  O  O30  1  1.10152217  1.59067338  0.77496685  1.0
  O  O31  1  0.89847783  0.67344468  0.48915121  1.0
  O  O32  1  0.68429347  0.67344468  0.27496685  1.0
  O  O33  1  1.31570653  1.59067338  0.98915121  1.0
  O  O34  1  0.89847783  1.40932662  1.22503315  1.0
  O  O35  1  1.10152217  1.32655532  0.51084879  1.0
  O  O36  1  1.31570653  1.32655532  0.72503315  1.0
  O  O37  1  0.68429347  1.40932662  1.01084879  1.0
  O  O38  1  0.28022426  0.94866306  0.96292457  1.0
  O  O39  1  0.71977574  0.68270031  0.66843881  1.0
  O  O40  1  0.51426150  0.68270031  0.46292457  1.0
  O  O41  1  1.48573850  0.94866306  1.16843881  1.0
  O  O42  1  0.71977574  1.05133694  1.03707543  1.0
  O  O43  1  0.28022426  0.31729969  0.33156119  1.0
  O  O44  1  0.48573850  0.31729969  0.53707543  1.0
  O  O45  1  1.51426150  1.05133694  0.83156119  1.0
