# generated using pymatgen
data_Ge(NF3)2
_symmetry_space_group_name_H-M   'P 1'
_cell_length_a   5.17726384
_cell_length_b   5.17726384
_cell_length_c   10.67411287
_cell_angle_alpha   90.00000000
_cell_angle_beta   90.00000000
_cell_angle_gamma   120.00000000
_symmetry_Int_Tables_number   1
_chemical_formula_structural   Ge(NF3)2
_chemical_formula_sum   'Ge2 N4 F12'
_cell_volume   247.77815707
_cell_formula_units_Z   2
loop_
 _symmetry_equiv_pos_site_id
 _symmetry_equiv_pos_as_xyz
  1  'x, y, z'
loop_
 _atom_site_type_symbol
 _atom_site_label
 _atom_site_symmetry_multiplicity
 _atom_site_fract_x
 _atom_site_fract_y
 _atom_site_fract_z
 _atom_site_occupancy
  Ge  Ge0  1  0.33333333  0.66666667  0.65492535  1.0
  Ge  Ge1  1  0.66666667  0.33333333  0.15492535  1.0
  N  N2  1  0.33333333  0.66666667  0.27759094  1.0
  N  N3  1  0.66666667  0.33333333  0.77759094  1.0
  N  N4  1  0.00000000  0.00000000  0.02983394  1.0
  N  N5  1  0.00000000  0.00000000  0.52983394  1.0
  F  F6  1  0.99247097  0.49623549  0.05178957  1.0
  F  F7  1  0.49623549  0.99247097  0.55178957  1.0
  F  F8  1  0.49623549  0.50376451  0.55178957  1.0
  F  F9  1  0.50376451  0.49623549  0.05178957  1.0
  F  F10  1  0.50376451  0.00752903  0.05178957  1.0
  F  F11  1  0.00752903  0.50376451  0.55178957  1.0
  F  F12  1  0.33939263  0.16969632  0.25652702  1.0
  F  F13  1  0.16969632  0.33939263  0.75652702  1.0
  F  F14  1  0.16969632  0.83030368  0.75652702  1.0
  F  F15  1  0.83030368  0.16969632  0.25652702  1.0
  F  F16  1  0.83030368  0.66060737  0.25652702  1.0
  F  F17  1  0.66060737  0.83030368  0.75652702  1.0
