# generated using pymatgen
data_LaPS4
_symmetry_space_group_name_H-M   'P 1'
_cell_length_a   12.60301387
_cell_length_b   12.60301387
_cell_length_c   12.60301387
_cell_angle_alpha   127.15668749
_cell_angle_beta   127.15668749
_cell_angle_gamma   77.99520106
_symmetry_Int_Tables_number   1
_chemical_formula_structural   LaPS4
_chemical_formula_sum   'La8 P8 S32'
_cell_volume   1232.16607058
_cell_formula_units_Z   8
loop_
 _symmetry_equiv_pos_site_id
 _symmetry_equiv_pos_as_xyz
  1  'x, y, z'
loop_
 _atom_site_type_symbol
 _atom_site_label
 _atom_site_symmetry_multiplicity
 _atom_site_fract_x
 _atom_site_fract_y
 _atom_site_fract_z
 _atom_site_occupancy
  La  La0  1  0.75000000  0.75000000  0.00000000  1.0
  La  La1  1  1.25000000  1.25000000  1.00000000  1.0
  La  La2  1  -0.00000000  0.50000000  0.50000000  1.0
  La  La3  1  0.50000000  0.00000000  0.50000000  1.0
  La  La4  1  0.50000000  0.50000000  1.00000000  1.0
  La  La5  1  0.00000000  0.00000000  0.00000000  1.0
  La  La6  1  0.75000000  1.25000000  0.50000000  1.0
  La  La7  1  1.25000000  0.75000000  0.50000000  1.0
  P  P8  1  0.66082663  1.37500000  0.78582663  1.0
  P  P9  1  1.16082663  1.37500000  1.28582663  1.0
  P  P10  1  1.62500000  1.41082663  1.28582663  1.0
  P  P11  1  1.12500000  1.83917337  1.21417337  1.0
  P  P12  1  1.08917337  0.87500000  0.71417337  1.0
  P  P13  1  1.58917337  0.87500000  1.21417337  1.0
  P  P14  1  1.62500000  0.91082663  0.78582663  1.0
  P  P15  1  1.12500000  1.33917337  0.71417337  1.0
  S  S16  1  1.03930311  0.85459321  0.31791624  1.0
  S  S17  1  1.53930311  1.22138687  1.18470990  1.0
  S  S18  1  0.10459321  0.78930311  0.81791624  1.0
  S  S19  1  0.60459321  0.78667697  1.31529010  1.0
  S  S20  1  1.71069689  1.39540679  1.18208376  1.0
  S  S21  1  1.21069689  1.02861313  0.31529010  1.0
  S  S22  1  1.64540679  1.46069689  1.68208376  1.0
  S  S23  1  1.14540679  1.46332303  1.18470990  1.0
  S  S24  1  1.03667697  1.35459321  0.81529010  1.0
  S  S25  1  1.53667697  1.72138687  1.68208376  1.0
  S  S26  1  0.47138687  0.28930311  0.68470990  1.0
  S  S27  1  0.97138687  0.28667697  1.18208376  1.0
  S  S28  1  1.71332303  1.89540679  1.68470990  1.0
  S  S29  1  1.21332303  1.52861313  0.81791624  1.0
  S  S30  1  1.27861313  0.96069689  0.81529010  1.0
  S  S31  1  0.77861313  0.96332303  0.31791624  1.0
  S  S32  1  0.96901100  1.73931671  0.96084319  1.0
  S  S33  1  1.46901100  1.50816781  1.22969428  1.0
  S  S34  1  0.98931671  0.71901100  1.46084319  1.0
  S  S35  1  0.48931671  1.02847353  1.27030572  1.0
  S  S36  1  1.78098900  1.51068329  1.53915681  1.0
  S  S37  1  1.28098900  1.74183219  1.27030572  1.0
  S  S38  1  0.76068329  1.53098900  1.03915681  1.0
  S  S39  1  1.26068329  1.22152647  1.22969428  1.0
  S  S40  1  1.27847353  1.23931671  0.77030572  1.0
  S  S41  1  1.77847353  1.00816781  1.03915681  1.0
  S  S42  1  0.75816781  0.21901100  0.72969428  1.0
  S  S43  1  0.25816781  0.52847353  0.53915681  1.0
  S  S44  1  1.47152647  1.01068329  0.72969428  1.0
  S  S45  1  0.97152647  1.24183219  0.46084319  1.0
  S  S46  1  0.99183219  1.03098900  0.77030572  1.0
  S  S47  1  1.49183219  0.72152647  0.96084319  1.0
