# generated using pymatgen
data_K7Ta(SO4)6
_symmetry_space_group_name_H-M   'P 1'
_cell_length_a   9.45328337
_cell_length_b   9.45328337
_cell_length_c   9.45328337
_cell_angle_alpha   109.46468048
_cell_angle_beta   109.46468048
_cell_angle_gamma   109.46468048
_symmetry_Int_Tables_number   1
_chemical_formula_structural   K7Ta(SO4)6
_chemical_formula_sum   'K7 Ta1 S6 O24'
_cell_volume   650.47596740
_cell_formula_units_Z   1
loop_
 _symmetry_equiv_pos_site_id
 _symmetry_equiv_pos_as_xyz
  1  'x, y, z'
loop_
 _atom_site_type_symbol
 _atom_site_label
 _atom_site_symmetry_multiplicity
 _atom_site_fract_x
 _atom_site_fract_y
 _atom_site_fract_z
 _atom_site_occupancy
  K  K0  1  0.67636093  0.83663881  0.33427875  1.0
  K  K1  1  1.16336119  -0.33427875  0.32363907  1.0
  K  K2  1  0.66572125  0.32363907  0.16336119  1.0
  K  K3  1  1.32363907  0.16336119  -0.33427875  1.0
  K  K4  1  0.83663881  1.33427875  -0.32363907  1.0
  K  K5  1  1.33427875  0.67636093  -0.16336119  1.0
  K  K6  1  0.50000000  0.50000000  0.50000000  1.0
  Ta  Ta7  1  0.00000000  0.00000000  0.00000000  1.0
  S  S8  1  1.74538271  0.61889638  -0.03132790  1.0
  S  S9  1  0.38110362  1.03132790  -0.74538271  1.0
  S  S10  1  1.03132790  0.25461729  -0.61889638  1.0
  S  S11  1  0.25461729  0.38110362  0.03132790  1.0
  S  S12  1  1.61889638  -0.03132790  0.74538271  1.0
  S  S13  1  0.96867210  0.74538271  0.61889638  1.0
  O  O14  1  1.76884807  0.97785261  -0.10662540  1.0
  O  O15  1  1.02214739  0.10662540  -0.76884807  1.0
  O  O16  1  1.10662540  -0.76884807  0.02214739  1.0
  O  O17  1  0.23115193  0.02214739  0.10662540  1.0
  O  O18  1  0.97785261  0.89337460  0.76884807  1.0
  O  O19  1  0.89337460  1.76884807  -0.02214739  1.0
  O  O20  1  0.63876951  0.68726891  0.01500112  1.0
  O  O21  1  1.31273109  -0.01500112  0.36123049  1.0
  O  O22  1  0.98499888  0.36123049  0.31273109  1.0
  O  O23  1  1.36123049  0.31273109  -0.01500112  1.0
  O  O24  1  0.68726891  1.01500112  -0.36123049  1.0
  O  O25  1  1.01500112  0.63876951  -0.31273109  1.0
  O  O26  1  1.47551535  -0.21280699  0.64794897  1.0
  O  O27  1  1.21280699  0.35205103  -0.47551535  1.0
  O  O28  1  0.35205103  0.52448465  0.21280699  1.0
  O  O29  1  0.52448465  1.21280699  -0.64794897  1.0
  O  O30  1  0.78719301  0.64794897  0.47551535  1.0
  O  O31  1  1.64794897  0.47551535  -0.21280699  1.0
  O  O32  1  0.57435438  1.09218042  -0.16497011  1.0
  O  O33  1  0.90781958  0.16497011  0.42564562  1.0
  O  O34  1  1.16497011  0.42564562  -0.09218042  1.0
  O  O35  1  1.42564562  -0.09218042  0.16497011  1.0
  O  O36  1  1.09218042  0.83502989  -0.42564562  1.0
  O  O37  1  0.83502989  0.57435438  0.09218042  1.0
