# generated using pymatgen
data_Cs3Mn3V4O16
_symmetry_space_group_name_H-M   'P 1'
_cell_length_a   5.24940043
_cell_length_b   11.70656180
_cell_length_c   7.56939272
_cell_angle_alpha   102.41293222
_cell_angle_beta   98.01765997
_cell_angle_gamma   90.12256282
_symmetry_Int_Tables_number   1
_chemical_formula_structural   Cs3Mn3V4O16
_chemical_formula_sum   'Cs3 Mn3 V4 O16'
_cell_volume   449.59518880
_cell_formula_units_Z   1
loop_
 _symmetry_equiv_pos_site_id
 _symmetry_equiv_pos_as_xyz
  1  'x, y, z'
loop_
 _atom_site_type_symbol
 _atom_site_label
 _atom_site_symmetry_multiplicity
 _atom_site_fract_x
 _atom_site_fract_y
 _atom_site_fract_z
 _atom_site_occupancy
  Cs  Cs0  1  0.63029050  0.47770532  -0.76159008  1.0
  Cs  Cs1  1  0.36970950  0.52229468  -0.23840992  1.0
  Cs  Cs2  1  0.50000000  0.00000000  -0.50000000  1.0
  Mn  Mn3  1  0.51028319  0.13020569  -0.93876258  1.0
  Mn  Mn4  1  0.48971681  0.86979431  -0.06123742  1.0
  Mn  Mn5  1  0.00000000  0.00000000  0.00000000  1.0
  V  V6  1  0.96966590  0.76634159  -0.82753488  1.0
  V  V7  1  0.03033410  0.23365841  -0.17246512  1.0
  V  V8  1  0.96734994  0.76952469  -0.36770047  1.0
  V  V9  1  0.03265006  0.23047531  -0.63229953  1.0
  O  O10  1  0.95166591  0.81326308  -0.58522179  1.0
  O  O11  1  0.04833409  0.18673692  -0.41477821  1.0
  O  O12  1  0.84125574  0.63673352  -0.39756519  1.0
  O  O13  1  0.15874426  0.36326648  -0.60243481  1.0
  O  O14  1  0.80179951  0.87115512  -0.22905011  1.0
  O  O15  1  0.19820049  0.12884488  -0.77094989  1.0
  O  O16  1  0.71621142  0.23059722  -0.73795550  1.0
  O  O17  1  0.28378858  0.76940278  -0.26204450  1.0
  O  O18  1  0.69732943  0.99307103  -0.88985663  1.0
  O  O19  1  0.30267057  0.00692897  -0.11014337  1.0
  O  O20  1  0.66484364  0.75041516  -0.95372932  1.0
  O  O21  1  0.33515636  0.24958484  -0.04627068  1.0
  O  O22  1  0.15398418  0.87210901  -0.89423535  1.0
  O  O23  1  0.84601582  0.12789099  -0.10576465  1.0
  O  O24  1  0.10769149  0.64014372  -0.86289174  1.0
  O  O25  1  0.89230851  0.35985628  -0.13710826  1.0
