# generated using pymatgen
data_KVSO6
_symmetry_space_group_name_H-M   'P 1'
_cell_length_a   5.51978076
_cell_length_b   8.75869506
_cell_length_c   11.17630452
_cell_angle_alpha   90.00000000
_cell_angle_beta   90.00000000
_cell_angle_gamma   90.00000000
_symmetry_Int_Tables_number   1
_chemical_formula_structural   KVSO6
_chemical_formula_sum   'K4 V4 S4 O24'
_cell_volume   540.33047348
_cell_formula_units_Z   4
loop_
 _symmetry_equiv_pos_site_id
 _symmetry_equiv_pos_as_xyz
  1  'x, y, z'
loop_
 _atom_site_type_symbol
 _atom_site_label
 _atom_site_symmetry_multiplicity
 _atom_site_fract_x
 _atom_site_fract_y
 _atom_site_fract_z
 _atom_site_occupancy
  K  K0  1  0.97413211  0.68938956  0.64372197  1.0
  K  K1  1  0.47413211  0.81061044  0.35627803  1.0
  K  K2  1  0.02586789  0.18938956  0.85627803  1.0
  K  K3  1  0.52586789  0.31061044  0.14372197  1.0
  V  V4  1  0.46912947  0.34654628  0.56000771  1.0
  V  V5  1  0.96912947  0.15345372  0.43999229  1.0
  V  V6  1  0.53087053  0.84654628  0.93999229  1.0
  V  V7  1  0.03087053  0.65345372  0.06000771  1.0
  S  S8  1  0.47040862  0.94401626  0.71225701  1.0
  S  S9  1  0.97040862  0.55598374  0.28774299  1.0
  S  S10  1  0.52959138  0.44401626  0.78774299  1.0
  S  S11  1  0.02959138  0.05598374  0.21225701  1.0
  O  O12  1  0.48484102  0.85086870  0.60397104  1.0
  O  O13  1  0.98484102  0.64913130  0.39602896  1.0
  O  O14  1  0.51515898  0.35086870  0.89602896  1.0
  O  O15  1  0.01515898  0.14913130  0.10397104  1.0
  O  O16  1  0.32093853  0.72390892  0.00965626  1.0
  O  O17  1  0.82093853  0.77609108  0.99034374  1.0
  O  O18  1  0.67906147  0.22390892  0.49034374  1.0
  O  O19  1  0.17906147  0.27609108  0.50965626  1.0
  O  O20  1  0.29695952  0.42842169  0.71242700  1.0
  O  O21  1  0.79695952  0.07157831  0.28757300  1.0
  O  O22  1  0.70304048  0.92842169  0.78757300  1.0
  O  O23  1  0.20304048  0.57157831  0.21242700  1.0
  O  O24  1  0.29012839  0.87439315  0.80328346  1.0
  O  O25  1  0.79012839  0.62560685  0.19671654  1.0
  O  O26  1  0.70987161  0.37439315  0.69671654  1.0
  O  O27  1  0.20987161  0.12560685  0.30328346  1.0
  O  O28  1  0.09462795  0.89619914  0.19257063  1.0
  O  O29  1  0.59462795  0.60380086  0.80742937  1.0
  O  O30  1  0.90537205  0.39619914  0.30742937  1.0
  O  O31  1  0.40537205  0.10380086  0.69257063  1.0
  O  O32  1  -0.00273906  0.99471370  0.50919043  1.0
  O  O33  1  0.49726094  0.50528630  0.49080957  1.0
  O  O34  1  1.00273906  0.49471370  0.99080957  1.0
  O  O35  1  0.50273906  0.00528630  0.00919043  1.0
