# generated using pymatgen
data_YbPO2
_symmetry_space_group_name_H-M   'P 1'
_cell_length_a   7.23213719
_cell_length_b   7.23213719
_cell_length_c   7.23213719
_cell_angle_alpha   129.26569807
_cell_angle_beta   129.26569807
_cell_angle_gamma   74.58342842
_symmetry_Int_Tables_number   1
_chemical_formula_structural   YbPO2
_chemical_formula_sum   'Yb4 P4 O8'
_cell_volume   220.93637092
_cell_formula_units_Z   4
loop_
 _symmetry_equiv_pos_site_id
 _symmetry_equiv_pos_as_xyz
  1  'x, y, z'
loop_
 _atom_site_type_symbol
 _atom_site_label
 _atom_site_symmetry_multiplicity
 _atom_site_fract_x
 _atom_site_fract_y
 _atom_site_fract_z
 _atom_site_occupancy
  Yb  Yb0  1  0.37500000  0.62500000  0.75000000  1.0
  Yb  Yb1  1  0.87500000  0.62500000  1.25000000  1.0
  Yb  Yb2  1  0.37500000  1.12500000  0.75000000  1.0
  Yb  Yb3  1  0.37500000  0.62500000  0.25000000  1.0
  P  P4  1  0.87500000  0.12500000  0.75000000  1.0
  P  P5  1  0.37500000  0.12500000  0.25000000  1.0
  P  P6  1  0.87500000  0.62500000  0.75000000  1.0
  P  P7  1  0.87500000  1.12500000  1.25000000  1.0
  O  O8  1  0.17142541  0.94035720  0.76893098  1.0
  O  O9  1  0.57857378  0.84750557  1.26893098  1.0
  O  O10  1  1.05964280  0.82857378  1.23106821  1.0
  O  O11  1  1.15249443  0.42142541  0.73106821  1.0
  O  O12  1  1.17142622  0.40249443  1.23106902  1.0
  O  O13  1  0.57857459  0.30964280  0.73106902  1.0
  O  O14  1  0.59750557  0.82857459  0.76893179  1.0
  O  O15  1  0.69035720  1.42142622  1.26893179  1.0
