# generated using pymatgen
data_EuH12(ClO2)3
_symmetry_space_group_name_H-M   'P 1'
_cell_length_a   7.96625151
_cell_length_b   6.69222209
_cell_length_c   12.29690697
_cell_angle_alpha   90.00000000
_cell_angle_beta   127.16639670
_cell_angle_gamma   90.00000000
_symmetry_Int_Tables_number   1
_chemical_formula_structural   EuH12(ClO2)3
_chemical_formula_sum   'Eu2 H24 Cl6 O12'
_cell_volume   522.41490088
_cell_formula_units_Z   2
loop_
 _symmetry_equiv_pos_site_id
 _symmetry_equiv_pos_as_xyz
  1  'x, y, z'
loop_
 _atom_site_type_symbol
 _atom_site_label
 _atom_site_symmetry_multiplicity
 _atom_site_fract_x
 _atom_site_fract_y
 _atom_site_fract_z
 _atom_site_occupancy
  Eu  Eu0  1  0.50000000  0.84879128  0.25000000  1.0
  Eu  Eu1  1  0.50000000  0.15120872  0.75000000  1.0
  H  H2  1  0.97003867  0.75234108  0.46520064  1.0
  H  H3  1  0.97003867  0.24765892  0.96520064  1.0
  H  H4  1  0.02996133  0.75234108  0.03479936  1.0
  H  H5  1  0.02996133  0.24765892  0.53479936  1.0
  H  H6  1  0.86986504  0.32316047  0.03405438  1.0
  H  H7  1  0.86986504  0.67683953  0.53405438  1.0
  H  H8  1  0.13013496  0.32316047  0.46594562  1.0
  H  H9  1  0.13013496  0.67683953  0.96594562  1.0
  H  H10  1  0.82311451  0.92238024  0.73048393  1.0
  H  H11  1  0.82311451  0.07761976  0.23048393  1.0
  H  H12  1  0.17688549  0.92238024  0.76951607  1.0
  H  H13  1  0.17688549  0.07761976  0.26951607  1.0
  H  H14  1  0.73995961  0.89929653  0.12773218  1.0
  H  H15  1  0.73995961  0.10070347  0.62773218  1.0
  H  H16  1  0.26004039  0.89929653  0.37226782  1.0
  H  H17  1  0.26004039  0.10070347  0.87226782  1.0
  H  H18  1  0.70434905  0.51833398  0.18845674  1.0
  H  H19  1  0.70434905  0.48166602  0.68845674  1.0
  H  H20  1  0.29565095  0.51833398  0.31154326  1.0
  H  H21  1  0.29565095  0.48166602  0.81154326  1.0
  H  H22  1  0.52683169  0.44662670  0.38025139  1.0
  H  H23  1  0.52683169  0.55337330  0.88025139  1.0
  H  H24  1  0.47316831  0.44662670  0.11974861  1.0
  H  H25  1  0.47316831  0.55337330  0.61974861  1.0
  Cl  Cl26  1  0.70246747  0.83250827  0.94056622  1.0
  Cl  Cl27  1  0.70246747  0.16749173  0.44056622  1.0
  Cl  Cl28  1  0.29753253  0.83250827  0.55943378  1.0
  Cl  Cl29  1  0.29753253  0.16749173  0.05943378  1.0
  Cl  Cl30  1  0.00000000  0.35366826  0.25000000  1.0
  Cl  Cl31  1  0.00000000  0.64633174  0.75000000  1.0
  O  O32  1  0.83581124  0.70477988  0.44392221  1.0
  O  O33  1  0.83581124  0.29522012  0.94392221  1.0
  O  O34  1  0.16418876  0.70477988  0.05607779  1.0
  O  O35  1  0.16418876  0.29522012  0.55607779  1.0
  O  O36  1  0.75828761  0.94421781  0.21099256  1.0
  O  O37  1  0.75828761  0.05578219  0.71099256  1.0
  O  O38  1  0.24171239  0.94421781  0.28900744  1.0
  O  O39  1  0.24171239  0.05578219  0.78900744  1.0
  O  O40  1  0.43813679  0.56775985  0.35044262  1.0
  O  O41  1  0.43813679  0.43224015  0.85044262  1.0
  O  O42  1  0.56186321  0.56775985  0.14955738  1.0
  O  O43  1  0.56186321  0.43224015  0.64955738  1.0
