# generated using pymatgen
data_Si2W
_symmetry_space_group_name_H-M   'P 1'
_cell_length_a   4.61365348
_cell_length_b   4.61365348
_cell_length_c   6.64693571
_cell_angle_alpha   90.00000000
_cell_angle_beta   90.00000000
_cell_angle_gamma   120.00000000
_symmetry_Int_Tables_number   1
_chemical_formula_structural   Si2W
_chemical_formula_sum   'Si6 W3'
_cell_volume   122.52989302
_cell_formula_units_Z   3
loop_
 _symmetry_equiv_pos_site_id
 _symmetry_equiv_pos_as_xyz
  1  'x, y, z'
loop_
 _atom_site_type_symbol
 _atom_site_label
 _atom_site_symmetry_multiplicity
 _atom_site_fract_x
 _atom_site_fract_y
 _atom_site_fract_z
 _atom_site_occupancy
  Si  Si0  1  0.16364874  0.83635125  0.33333333  1.0
  Si  Si1  1  0.16364874  0.32729749  0.00000000  1.0
  Si  Si2  1  0.83635126  0.16364874  0.33333333  1.0
  Si  Si3  1  0.83635126  0.67270251  0.00000000  1.0
  Si  Si4  1  0.67270251  0.83635125  0.66666667  1.0
  Si  Si5  1  0.32729749  0.16364874  0.66666667  1.0
  W  W6  1  0.50000000  0.50000000  0.33333333  1.0
  W  W7  1  0.50000000  -0.00000000  -0.00000000  1.0
  W  W8  1  -0.00000000  0.50000000  0.66666667  1.0
