# generated using pymatgen
data_Rb2CoP4(HO2)8
_symmetry_space_group_name_H-M   'P 1'
_cell_length_a   7.48970642
_cell_length_b   7.09955006
_cell_length_c   7.79207077
_cell_angle_alpha   72.00426101
_cell_angle_beta   82.02529689
_cell_angle_gamma   86.96244177
_symmetry_Int_Tables_number   1
_chemical_formula_structural   Rb2CoP4(HO2)8
_chemical_formula_sum   'Rb2 Co1 P4 H8 O16'
_cell_volume   390.22931832
_cell_formula_units_Z   1
loop_
 _symmetry_equiv_pos_site_id
 _symmetry_equiv_pos_as_xyz
  1  'x, y, z'
loop_
 _atom_site_type_symbol
 _atom_site_label
 _atom_site_symmetry_multiplicity
 _atom_site_fract_x
 _atom_site_fract_y
 _atom_site_fract_z
 _atom_site_occupancy
  Rb  Rb0  1  -0.28005011  -0.40016608  -0.20529374  1.0
  Rb  Rb1  1  -0.71994989  -0.59983392  -0.79470626  1.0
  Co  Co2  1  -0.50000000  0.00000000  0.00000000  1.0
  P  P3  1  -0.80201537  -0.74749585  -0.25368143  1.0
  P  P4  1  -0.19798463  -0.25250415  -0.74631857  1.0
  P  P5  1  -0.74011712  -0.15835604  -0.25817358  1.0
  P  P6  1  -0.25988288  -0.84164396  -0.74182642  1.0
  H  H7  1  -0.73829620  -0.43325249  -0.41544304  1.0
  H  H8  1  -0.26170380  -0.56674751  -0.58455696  1.0
  H  H9  1  -0.96572427  -0.23577858  -0.03403140  1.0
  H  H10  1  -0.03427573  -0.76422142  -0.96596860  1.0
  H  H11  1  -0.31402407  -0.87626820  -0.34937952  1.0
  H  H12  1  -0.68597593  -0.12373180  -0.65062048  1.0
  H  H13  1  -0.18064320  -0.88070463  -0.20485573  1.0
  H  H14  1  -0.81935680  -0.11929537  -0.79514427  1.0
  O  O15  1  -0.65816264  -0.75550977  -0.13177455  1.0
  O  O16  1  -0.34183736  -0.24449023  -0.86822545  1.0
  O  O17  1  -0.78002758  -0.56373286  -0.43116554  1.0
  O  O18  1  -0.21997242  -0.43626714  -0.56883446  1.0
  O  O19  1  -0.99659399  -0.76427654  -0.15911668  1.0
  O  O20  1  -0.00340601  -0.23572346  -0.84088332  1.0
  O  O21  1  -0.76886318  -0.92151554  -0.35189693  1.0
  O  O22  1  -0.23113682  -0.07848446  -0.64810307  1.0
  O  O23  1  -0.61293668  -0.19264211  -0.11484618  1.0
  O  O24  1  -0.38706332  -0.80735789  -0.88515382  1.0
  O  O25  1  -0.67828748  -0.23761841  -0.41727927  1.0
  O  O26  1  -0.32171252  -0.76238159  -0.58272073  1.0
  O  O27  1  -0.93261852  -0.24567400  -0.16554252  1.0
  O  O28  1  -0.06738148  -0.75432600  -0.83445748  1.0
  O  O29  1  -0.29347827  -0.93727673  -0.22057706  1.0
  O  O30  1  -0.70652173  -0.06272327  -0.77942294  1.0
