# generated using pymatgen
data_Lu2Te4O11
_symmetry_space_group_name_H-M   'P 1'
_cell_length_a   6.72062431
_cell_length_b   6.72062431
_cell_length_c   16.35746035
_cell_angle_alpha   76.23632807
_cell_angle_beta   103.76367193
_cell_angle_gamma   134.74020955
_symmetry_Int_Tables_number   1
_chemical_formula_structural   Lu2Te4O11
_chemical_formula_sum   'Lu4 Te8 O22'
_cell_volume   507.05037067
_cell_formula_units_Z   2
loop_
 _symmetry_equiv_pos_site_id
 _symmetry_equiv_pos_as_xyz
  1  'x, y, z'
loop_
 _atom_site_type_symbol
 _atom_site_label
 _atom_site_symmetry_multiplicity
 _atom_site_fract_x
 _atom_site_fract_y
 _atom_site_fract_z
 _atom_site_occupancy
  Lu  Lu0  1  1.62474194  -0.13454078  0.46177326  1.0
  Lu  Lu1  1  1.13454078  0.37525806  0.96177326  1.0
  Lu  Lu2  1  0.86545922  -0.37525806  0.03822674  1.0
  Lu  Lu3  1  0.37525806  0.13454078  0.53822674  1.0
  Te  Te4  1  0.65928179  -0.09368636  0.80208021  1.0
  Te  Te5  1  1.09368636  -0.65928179  0.30208021  1.0
  Te  Te6  1  0.90631364  0.65928179  0.69791979  1.0
  Te  Te7  1  1.34071821  0.09368636  0.19791979  1.0
  Te  Te8  1  0.34002271  0.08738047  0.87560916  1.0
  Te  Te9  1  0.91261953  0.65997729  0.37560916  1.0
  Te  Te10  1  1.08738047  -0.65997729  0.62439084  1.0
  Te  Te11  1  1.65997729  -0.08738047  0.12439084  1.0
  O  O12  1  1.91646070  -0.04072766  0.90535938  1.0
  O  O13  1  1.04072766  -0.91646070  0.40535938  1.0
  O  O14  1  0.95927234  0.91646070  0.59464062  1.0
  O  O15  1  0.08353930  0.04072766  0.09464062  1.0
  O  O16  1  1.74184812  0.16064181  0.54763939  1.0
  O  O17  1  0.83935819  -0.74184812  0.04763939  1.0
  O  O18  1  1.16064181  0.74184812  0.95236061  1.0
  O  O19  1  0.25815188  -0.16064181  0.45236061  1.0
  O  O20  1  0.69745236  0.18691344  0.87206283  1.0
  O  O21  1  0.81308656  -0.69745236  0.37206283  1.0
  O  O22  1  1.18691344  0.69745236  0.62793717  1.0
  O  O23  1  1.30254764  -0.18691344  0.12793717  1.0
  O  O24  1  0.59421313  0.28285690  0.66678557  1.0
  O  O25  1  0.71714310  -0.59421313  0.16678557  1.0
  O  O26  1  1.28285690  0.59421313  0.83321443  1.0
  O  O27  1  1.40578687  -0.28285690  0.33321443  1.0
  O  O28  1  0.46891655  0.34038869  0.95520373  1.0
  O  O29  1  0.65961131  0.53108345  0.45520373  1.0
  O  O30  1  1.34038869  -0.53108345  0.54479627  1.0
  O  O31  1  1.53108345  -0.34038869  0.04479627  1.0
  O  O32  1  0.62894305  0.62894305  0.75000000  1.0
  O  O33  1  0.37105695  0.37105695  0.25000000  1.0
