# generated using pymatgen
data_Hf2CS
_symmetry_space_group_name_H-M   'P 1'
_cell_length_a   3.38077446
_cell_length_b   3.38077446
_cell_length_c   12.07941934
_cell_angle_alpha   90.00000000
_cell_angle_beta   90.00000000
_cell_angle_gamma   120.00000000
_symmetry_Int_Tables_number   1
_chemical_formula_structural   Hf2CS
_chemical_formula_sum   'Hf4 C2 S2'
_cell_volume   119.56638199
_cell_formula_units_Z   2
loop_
 _symmetry_equiv_pos_site_id
 _symmetry_equiv_pos_as_xyz
  1  'x, y, z'
loop_
 _atom_site_type_symbol
 _atom_site_label
 _atom_site_symmetry_multiplicity
 _atom_site_fract_x
 _atom_site_fract_y
 _atom_site_fract_z
 _atom_site_occupancy
  Hf  Hf0  1  0.33333333  0.66666667  0.40012285  1.0
  Hf  Hf1  1  0.66666667  0.33333333  0.59987715  1.0
  Hf  Hf2  1  0.66666667  0.33333333  0.90012285  1.0
  Hf  Hf3  1  0.33333333  0.66666667  0.09987715  1.0
  C  C4  1  -0.00000000  -0.00000000  0.50000000  1.0
  C  C5  1  0.00000000  0.00000000  0.00000000  1.0
  S  S6  1  0.33333333  0.66666667  0.75000000  1.0
  S  S7  1  0.66666667  0.33333333  0.25000000  1.0
