# generated using pymatgen
data_CsH6S
_symmetry_space_group_name_H-M   'P 1'
_cell_length_a   5.24001798
_cell_length_b   5.24001798
_cell_length_c   5.24001798
_cell_angle_alpha   90.00000000
_cell_angle_beta   90.00000000
_cell_angle_gamma   90.00000000
_symmetry_Int_Tables_number   1
_chemical_formula_structural   CsH6S
_chemical_formula_sum   'Cs1 H6 S1'
_cell_volume   143.87930520
_cell_formula_units_Z   1
loop_
 _symmetry_equiv_pos_site_id
 _symmetry_equiv_pos_as_xyz
  1  'x, y, z'
loop_
 _atom_site_type_symbol
 _atom_site_label
 _atom_site_symmetry_multiplicity
 _atom_site_fract_x
 _atom_site_fract_y
 _atom_site_fract_z
 _atom_site_occupancy
  Cs  Cs0  1  0.00000000  0.00000000  0.00000000  1.0
  H  H1  1  0.92330148  0.50000000  0.50000000  1.0
  H  H2  1  0.50000000  0.92330148  0.50000000  1.0
  H  H3  1  0.50000000  0.50000000  0.92330148  1.0
  H  H4  1  0.50000000  0.50000000  0.07669852  1.0
  H  H5  1  0.50000000  0.07669852  0.50000000  1.0
  H  H6  1  0.07669852  0.50000000  0.50000000  1.0
  S  S7  1  0.50000000  0.50000000  0.50000000  1.0
