# generated using pymatgen
data_Ca(IO3)2
_symmetry_space_group_name_H-M   'P 1'
_cell_length_a   7.31805879
_cell_length_b   11.48684427
_cell_length_c   8.92711050
_cell_angle_alpha   90.00000000
_cell_angle_beta   127.16561949
_cell_angle_gamma   90.00000000
_symmetry_Int_Tables_number   1
_chemical_formula_structural   Ca(IO3)2
_chemical_formula_sum   'Ca4 I8 O24'
_cell_volume   598.00843982
_cell_formula_units_Z   4
loop_
 _symmetry_equiv_pos_site_id
 _symmetry_equiv_pos_as_xyz
  1  'x, y, z'
loop_
 _atom_site_type_symbol
 _atom_site_label
 _atom_site_symmetry_multiplicity
 _atom_site_fract_x
 _atom_site_fract_y
 _atom_site_fract_z
 _atom_site_occupancy
  Ca  Ca0  1  0.71282909  0.39665858  -0.00217038  1.0
  Ca  Ca1  1  0.71282909  0.10334142  0.49782962  1.0
  Ca  Ca2  1  0.28717091  0.89665858  0.50217038  1.0
  Ca  Ca3  1  0.28717091  0.60334142  1.00217038  1.0
  I  I4  1  0.74476445  0.42353485  0.46570959  1.0
  I  I5  1  0.74476445  0.07646515  0.96570959  1.0
  I  I6  1  0.25523555  0.92353485  0.03429041  1.0
  I  I7  1  0.25523555  0.57646515  0.53429041  1.0
  I  I8  1  0.16796383  0.21509120  0.44051344  1.0
  I  I9  1  0.16796383  0.28490880  0.94051344  1.0
  I  I10  1  0.83203617  0.71509120  0.05948656  1.0
  I  I11  1  0.83203617  0.78490880  0.55948656  1.0
  O  O12  1  0.94234258  0.11011790  0.39206677  1.0
  O  O13  1  0.94234258  0.38988210  0.89206677  1.0
  O  O14  1  0.05765742  0.61011790  0.10793323  1.0
  O  O15  1  0.05765742  0.88988210  0.60793323  1.0
  O  O16  1  0.96551301  0.75452223  0.31280591  1.0
  O  O17  1  0.96551301  0.74547777  0.81280591  1.0
  O  O18  1  0.03448699  0.25452223  0.18719409  1.0
  O  O19  1  0.03448699  0.24547777  0.68719409  1.0
  O  O20  1  0.89102586  0.40194817  0.34756552  1.0
  O  O21  1  0.89102586  0.09805183  0.84756552  1.0
  O  O22  1  0.10897414  0.90194817  0.15243448  1.0
  O  O23  1  0.10897414  0.59805183  0.65243448  1.0
  O  O24  1  0.54698290  0.29411222  0.37086985  1.0
  O  O25  1  0.54698290  0.20588778  0.87086985  1.0
  O  O26  1  0.45301710  0.79411222  0.12913015  1.0
  O  O27  1  0.45301710  0.70588778  0.62913015  1.0
  O  O28  1  0.45817863  0.04747402  0.16701351  1.0
  O  O29  1  0.45817863  0.45252598  0.66701351  1.0
  O  O30  1  0.54182137  0.54747402  0.33298649  1.0
  O  O31  1  0.54182137  0.95252598  0.83298649  1.0
  O  O32  1  0.37282656  0.09802364  0.47758956  1.0
  O  O33  1  0.37282656  0.40197636  0.97758956  1.0
  O  O34  1  0.62717344  0.59802364  0.02241044  1.0
  O  O35  1  0.62717344  0.90197636  0.52241044  1.0
