# generated using pymatgen
data_Ca3ScCoO6
_symmetry_space_group_name_H-M   'P 1'
_cell_length_a   6.38375385
_cell_length_b   6.38375385
_cell_length_c   6.38375385
_cell_angle_alpha   92.47346839
_cell_angle_beta   92.47346839
_cell_angle_gamma   92.47346839
_symmetry_Int_Tables_number   1
_chemical_formula_structural   Ca3ScCoO6
_chemical_formula_sum   'Ca6 Sc2 Co2 O12'
_cell_volume   259.40394425
_cell_formula_units_Z   2
loop_
 _symmetry_equiv_pos_site_id
 _symmetry_equiv_pos_as_xyz
  1  'x, y, z'
loop_
 _atom_site_type_symbol
 _atom_site_label
 _atom_site_symmetry_multiplicity
 _atom_site_fract_x
 _atom_site_fract_y
 _atom_site_fract_z
 _atom_site_occupancy
  Ca  Ca0  1  0.88213038  1.25000000  -0.38213038  1.0
  Ca  Ca1  1  1.38213038  0.11786962  -0.25000000  1.0
  Ca  Ca2  1  0.75000000  0.38213038  0.11786962  1.0
  Ca  Ca3  1  1.25000000  0.61786962  -0.11786962  1.0
  Ca  Ca4  1  1.11786962  -0.25000000  0.38213038  1.0
  Ca  Ca5  1  0.61786962  0.88213038  0.25000000  1.0
  Sc  Sc6  1  0.25000000  0.25000000  0.25000000  1.0
  Sc  Sc7  1  0.75000000  0.75000000  0.75000000  1.0
  Co  Co8  1  0.50000000  0.50000000  0.50000000  1.0
  Co  Co9  1  0.00000000  0.00000000  0.00000000  1.0
  O  O10  1  1.20986999  0.41179659  -0.45721040  1.0
  O  O11  1  0.70986999  1.04278960  -0.08820341  1.0
  O  O12  1  0.95721040  0.08820341  0.29013001  1.0
  O  O13  1  1.45721040  -0.20986999  0.58820341  1.0
  O  O14  1  1.58820341  0.45721040  -0.20986999  1.0
  O  O15  1  1.08820341  0.29013001  -0.04278960  1.0
  O  O16  1  0.79013001  0.58820341  0.45721040  1.0
  O  O17  1  1.29013001  -0.04278960  0.08820341  1.0
  O  O18  1  0.54278960  1.20986999  -0.58820341  1.0
  O  O19  1  1.04278960  0.91179659  -0.29013001  1.0
  O  O20  1  0.91179659  0.70986999  0.04278960  1.0
  O  O21  1  0.41179659  0.54278960  0.20986999  1.0
