# generated using pymatgen
data_NbCl2O
_symmetry_space_group_name_H-M   'P 1'
_cell_length_a   7.52202754
_cell_length_b   7.52202754
_cell_length_c   6.74212770
_cell_angle_alpha   76.10109931
_cell_angle_beta   103.89890069
_cell_angle_gamma   149.71462602
_symmetry_Int_Tables_number   1
_chemical_formula_structural   NbCl2O
_chemical_formula_sum   'Nb2 Cl4 O2'
_cell_volume   186.32900754
_cell_formula_units_Z   2
loop_
 _symmetry_equiv_pos_site_id
 _symmetry_equiv_pos_as_xyz
  1  'x, y, z'
loop_
 _atom_site_type_symbol
 _atom_site_label
 _atom_site_symmetry_multiplicity
 _atom_site_fract_x
 _atom_site_fract_y
 _atom_site_fract_z
 _atom_site_occupancy
  Nb  Nb0  1  1.04210437  0.04208679  0.72023443  1.0
  Nb  Nb1  1  0.04208679  0.04210437  0.27976557  1.0
  Cl  Cl2  1  0.86946995  0.10922242  0.93577910  1.0
  Cl  Cl3  1  0.10922242  -0.13053005  0.06422090  1.0
  Cl  Cl4  1  0.85994803  0.13656887  0.42585798  1.0
  Cl  Cl5  1  0.13656887  -0.14005197  0.57414202  1.0
  O  O6  1  1.50129215  0.50130741  0.72779212  1.0
  O  O7  1  0.50130741  0.50129215  0.27220788  1.0
