# generated using pymatgen
data_La5Sn3C
_symmetry_space_group_name_H-M   'P 1'
_cell_length_a   9.53706990
_cell_length_b   9.53706990
_cell_length_c   6.96369337
_cell_angle_alpha   90.00000000
_cell_angle_beta   90.00000000
_cell_angle_gamma   120.00000000
_symmetry_Int_Tables_number   1
_chemical_formula_structural   La5Sn3C
_chemical_formula_sum   'La10 Sn6 C2'
_cell_volume   548.52977099
_cell_formula_units_Z   2
loop_
 _symmetry_equiv_pos_site_id
 _symmetry_equiv_pos_as_xyz
  1  'x, y, z'
loop_
 _atom_site_type_symbol
 _atom_site_label
 _atom_site_symmetry_multiplicity
 _atom_site_fract_x
 _atom_site_fract_y
 _atom_site_fract_z
 _atom_site_occupancy
  La  La0  1  0.66666667  0.33333333  0.50000000  1.0
  La  La1  1  0.33333333  0.66666667  0.50000000  1.0
  La  La2  1  0.33333333  0.66666667  0.00000000  1.0
  La  La3  1  0.66666667  0.33333333  0.00000000  1.0
  La  La4  1  0.78732544  0.78732544  0.25000000  1.0
  La  La5  1  0.21267456  0.00000000  0.25000000  1.0
  La  La6  1  -0.00000000  0.21267456  0.25000000  1.0
  La  La7  1  0.21267456  0.21267456  0.75000000  1.0
  La  La8  1  0.78732544  0.00000000  0.75000000  1.0
  La  La9  1  0.00000000  0.78732544  0.75000000  1.0
  Sn  Sn10  1  0.41318674  0.41318674  0.25000000  1.0
  Sn  Sn11  1  0.58681326  0.00000000  0.25000000  1.0
  Sn  Sn12  1  -0.00000000  0.58681326  0.25000000  1.0
  Sn  Sn13  1  0.58681326  0.58681326  0.75000000  1.0
  Sn  Sn14  1  0.41318674  0.00000000  0.75000000  1.0
  Sn  Sn15  1  -0.00000000  0.41318674  0.75000000  1.0
  C  C16  1  0.00000000  0.00000000  0.50000000  1.0
  C  C17  1  0.00000000  0.00000000  0.00000000  1.0
