# generated using pymatgen
data_Bi2Se
_symmetry_space_group_name_H-M   'P 1'
_cell_length_a   7.50292063
_cell_length_b   12.09100624
_cell_length_c   4.20807733
_cell_angle_alpha   90.00000000
_cell_angle_beta   106.27412503
_cell_angle_gamma   90.00000000
_symmetry_Int_Tables_number   1
_chemical_formula_structural   Bi2Se
_chemical_formula_sum   'Bi8 Se4'
_cell_volume   366.45188003
_cell_formula_units_Z   4
loop_
 _symmetry_equiv_pos_site_id
 _symmetry_equiv_pos_as_xyz
  1  'x, y, z'
loop_
 _atom_site_type_symbol
 _atom_site_label
 _atom_site_symmetry_multiplicity
 _atom_site_fract_x
 _atom_site_fract_y
 _atom_site_fract_z
 _atom_site_occupancy
  Bi  Bi0  1  0.98622498  0.36517680  0.49397490  1.0
  Bi  Bi1  1  0.01377502  0.86517680  1.00602510  1.0
  Bi  Bi2  1  0.01377502  0.63482320  0.50602510  1.0
  Bi  Bi3  1  0.98622498  0.13482320  -0.00602510  1.0
  Bi  Bi4  1  0.34060793  0.37530940  0.17025554  1.0
  Bi  Bi5  1  0.65939207  0.87530940  0.32974446  1.0
  Bi  Bi6  1  0.65939207  0.62469060  0.82974446  1.0
  Bi  Bi7  1  0.34060793  0.12469060  0.67025554  1.0
  Se  Se8  1  0.32908333  0.89519629  0.66341328  1.0
  Se  Se9  1  0.67091667  0.39519629  0.83658672  1.0
  Se  Se10  1  0.67091667  0.10480371  0.33658672  1.0
  Se  Se11  1  0.32908333  0.60480371  0.16341328  1.0
