# generated using pymatgen
data_Ca3Pd2
_symmetry_space_group_name_H-M   'P 1'
_cell_length_a   7.66387047
_cell_length_b   7.66387047
_cell_length_c   7.66387047
_cell_angle_alpha   71.43200974
_cell_angle_beta   71.43200974
_cell_angle_gamma   71.43200974
_symmetry_Int_Tables_number   1
_chemical_formula_structural   Ca3Pd2
_chemical_formula_sum   'Ca9 Pd6'
_cell_volume   392.51909498
_cell_formula_units_Z   3
loop_
 _symmetry_equiv_pos_site_id
 _symmetry_equiv_pos_as_xyz
  1  'x, y, z'
loop_
 _atom_site_type_symbol
 _atom_site_label
 _atom_site_symmetry_multiplicity
 _atom_site_fract_x
 _atom_site_fract_y
 _atom_site_fract_z
 _atom_site_occupancy
  Ca  Ca0  1  0.84304853  0.60337219  -0.66690572  1.0
  Ca  Ca1  1  0.39662781  0.66690572  -0.84304853  1.0
  Ca  Ca2  1  0.66690572  0.15695147  -0.60337219  1.0
  Ca  Ca3  1  0.15695147  0.39662781  -0.33309428  1.0
  Ca  Ca4  1  0.60337219  0.33309428  -0.15695147  1.0
  Ca  Ca5  1  0.33309428  0.84304853  -0.39662781  1.0
  Ca  Ca6  1  0.79695021  0.79695021  -0.20304979  1.0
  Ca  Ca7  1  1.20304979  1.20304979  0.20304979  1.0
  Ca  Ca8  1  0.00000000  0.00000000  0.00000000  1.0
  Pd  Pd9  1  0.58764211  -0.04411344  0.15614920  1.0
  Pd  Pd10  1  1.04411344  -0.15614920  -0.58764211  1.0
  Pd  Pd11  1  0.84385080  -0.58764211  0.04411344  1.0
  Pd  Pd12  1  0.41235789  0.04411344  -0.15614920  1.0
  Pd  Pd13  1  0.95588656  0.15614920  -0.41235789  1.0
  Pd  Pd14  1  1.15614920  -0.41235789  -0.04411344  1.0
