# generated using pymatgen
data_Cs2Ti(GeO3)3
_symmetry_space_group_name_H-M   'P 1'
_cell_length_a   7.31412872
_cell_length_b   7.31412872
_cell_length_c   10.53214883
_cell_angle_alpha   90.00000000
_cell_angle_beta   90.00000000
_cell_angle_gamma   120.00000000
_symmetry_Int_Tables_number   1
_chemical_formula_structural   Cs2Ti(GeO3)3
_chemical_formula_sum   'Cs4 Ti2 Ge6 O18'
_cell_volume   487.94718516
_cell_formula_units_Z   2
loop_
 _symmetry_equiv_pos_site_id
 _symmetry_equiv_pos_as_xyz
  1  'x, y, z'
loop_
 _atom_site_type_symbol
 _atom_site_label
 _atom_site_symmetry_multiplicity
 _atom_site_fract_x
 _atom_site_fract_y
 _atom_site_fract_z
 _atom_site_occupancy
  Cs  Cs0  1  0.33333333  0.66666667  0.44125005  1.0
  Cs  Cs1  1  0.33333333  0.66666667  0.05874995  1.0
  Cs  Cs2  1  0.66666667  0.33333333  0.94125005  1.0
  Cs  Cs3  1  0.66666667  0.33333333  0.55874995  1.0
  Ti  Ti4  1  0.00000000  0.00000000  0.50000000  1.0
  Ti  Ti5  1  0.00000000  0.00000000  0.00000000  1.0
  Ge  Ge6  1  0.77268961  0.63037353  0.25000000  1.0
  Ge  Ge7  1  0.63037353  0.85768392  0.75000000  1.0
  Ge  Ge8  1  0.85768392  0.22731039  0.25000000  1.0
  Ge  Ge9  1  0.36962647  0.14231608  0.25000000  1.0
  Ge  Ge10  1  0.22731039  0.36962647  0.75000000  1.0
  Ge  Ge11  1  0.14231608  0.77268961  0.75000000  1.0
  O  O12  1  0.79921767  0.76176369  0.39284401  1.0
  O  O13  1  0.79921767  0.76176369  0.10715599  1.0
  O  O14  1  0.76176369  0.96254602  0.89284401  1.0
  O  O15  1  0.76176369  0.96254602  0.60715599  1.0
  O  O16  1  0.96254602  0.20078233  0.39284401  1.0
  O  O17  1  0.96254602  0.20078233  0.10715599  1.0
  O  O18  1  0.23823631  0.03745398  0.39284401  1.0
  O  O19  1  0.23823631  0.03745398  0.10715599  1.0
  O  O20  1  0.20078233  0.23823631  0.89284401  1.0
  O  O21  1  0.20078233  0.23823631  0.60715599  1.0
  O  O22  1  0.03745398  0.79921767  0.89284401  1.0
  O  O23  1  0.03745398  0.79921767  0.60715599  1.0
  O  O24  1  0.49562721  0.42535650  0.25000000  1.0
  O  O25  1  0.42535650  0.92972930  0.75000000  1.0
  O  O26  1  0.92972930  0.50437279  0.25000000  1.0
  O  O27  1  0.57464350  0.07027070  0.25000000  1.0
  O  O28  1  0.50437279  0.57464350  0.75000000  1.0
  O  O29  1  0.07027070  0.49562721  0.75000000  1.0
