# generated using pymatgen
data_AgN4O3
_symmetry_space_group_name_H-M   'P 1'
_cell_length_a   7.74426962
_cell_length_b   7.74426962
_cell_length_c   5.84087501
_cell_angle_alpha   90.00000000
_cell_angle_beta   90.00000000
_cell_angle_gamma   120.00000000
_symmetry_Int_Tables_number   1
_chemical_formula_structural   AgN4O3
_chemical_formula_sum   'Ag2 N8 O6'
_cell_volume   303.36779455
_cell_formula_units_Z   2
loop_
 _symmetry_equiv_pos_site_id
 _symmetry_equiv_pos_as_xyz
  1  'x, y, z'
loop_
 _atom_site_type_symbol
 _atom_site_label
 _atom_site_symmetry_multiplicity
 _atom_site_fract_x
 _atom_site_fract_y
 _atom_site_fract_z
 _atom_site_occupancy
  Ag  Ag0  1  0.00000000  0.00000000  0.25000000  1.0
  Ag  Ag1  1  0.00000000  0.00000000  0.75000000  1.0
  N  N2  1  0.33333333  0.66666667  0.25000000  1.0
  N  N3  1  0.66666667  0.33333333  0.75000000  1.0
  N  N4  1  0.87058016  0.67437233  0.25000000  1.0
  N  N5  1  0.67437233  0.87058016  0.75000000  1.0
  N  N6  1  0.80379217  0.12941984  0.25000000  1.0
  N  N7  1  0.32562767  0.19620783  0.25000000  1.0
  N  N8  1  0.12941984  0.80379217  0.75000000  1.0
  N  N9  1  0.19620783  0.32562767  0.75000000  1.0
  O  O10  1  0.33571180  0.82932010  0.25000000  1.0
  O  O11  1  0.82932010  0.33571180  0.75000000  1.0
  O  O12  1  0.49360830  0.66428820  0.25000000  1.0
  O  O13  1  0.17067990  0.50639170  0.25000000  1.0
  O  O14  1  0.66428820  0.49360830  0.75000000  1.0
  O  O15  1  0.50639170  0.17067990  0.75000000  1.0
