# generated using pymatgen
data_Na3MgC2BrO6
_symmetry_space_group_name_H-M   'P 1'
_cell_length_a   10.18562460
_cell_length_b   10.18562460
_cell_length_c   10.18562460
_cell_angle_alpha   60.00000000
_cell_angle_beta   60.00000000
_cell_angle_gamma   60.00000000
_symmetry_Int_Tables_number   1
_chemical_formula_structural   Na3MgC2BrO6
_chemical_formula_sum   'Na12 Mg4 C8 Br4 O24'
_cell_volume   747.21916083
_cell_formula_units_Z   4
loop_
 _symmetry_equiv_pos_site_id
 _symmetry_equiv_pos_as_xyz
  1  'x, y, z'
loop_
 _atom_site_type_symbol
 _atom_site_label
 _atom_site_symmetry_multiplicity
 _atom_site_fract_x
 _atom_site_fract_y
 _atom_site_fract_z
 _atom_site_occupancy
  Na  Na0  1  0.51004322  0.51004322  0.98995678  1.0
  Na  Na1  1  0.98995678  0.51004322  0.98995678  1.0
  Na  Na2  1  0.51004322  0.98995678  0.98995678  1.0
  Na  Na3  1  0.98995678  0.98995678  0.51004322  1.0
  Na  Na4  1  0.51004322  0.98995678  0.51004322  1.0
  Na  Na5  1  0.98995678  0.51004322  0.51004322  1.0
  Na  Na6  1  0.73995678  0.73995678  -0.73995678  1.0
  Na  Na7  1  1.26004322  -0.26004322  0.26004322  1.0
  Na  Na8  1  -0.26004322  0.26004322  0.26004322  1.0
  Na  Na9  1  0.26004322  0.26004322  -0.26004322  1.0
  Na  Na10  1  0.73995678  -0.73995678  0.73995678  1.0
  Na  Na11  1  -0.73995678  0.73995678  0.73995678  1.0
  Mg  Mg12  1  0.12500000  0.12500000  1.62500000  1.0
  Mg  Mg13  1  0.12500000  0.62500000  1.12500000  1.0
  Mg  Mg14  1  1.62500000  0.12500000  0.12500000  1.0
  Mg  Mg15  1  1.12500000  0.12500000  0.12500000  1.0
  C  C16  1  1.34155188  0.34155188  -0.02465564  1.0
  C  C17  1  1.34155188  -0.02465564  0.34155188  1.0
  C  C18  1  0.97534436  0.34155188  0.34155188  1.0
  C  C19  1  1.34155188  0.34155188  0.34155188  1.0
  C  C20  1  0.90844812  -0.09155188  0.27465564  1.0
  C  C21  1  0.90844812  -0.72534436  0.90844812  1.0
  C  C22  1  0.27465564  0.90844812  0.90844812  1.0
  C  C23  1  0.90844812  0.90844812  0.90844812  1.0
  Br  Br24  1  0.62500000  0.62500000  1.12500000  1.0
  Br  Br25  1  0.62500000  1.12500000  0.62500000  1.0
  Br  Br26  1  1.12500000  0.62500000  0.62500000  1.0
  Br  Br27  1  0.62500000  0.62500000  0.62500000  1.0
  O  O28  1  1.26878645  0.48890594  -0.02647883  1.0
  O  O29  1  1.26878645  0.26878645  -0.02647883  1.0
  O  O30  1  1.48890594  0.26878645  -0.02647883  1.0
  O  O31  1  1.26878645  -0.02647883  0.48890594  1.0
  O  O32  1  1.48890594  -0.02647883  0.26878645  1.0
  O  O33  1  1.26878645  -0.02647883  0.26878645  1.0
  O  O34  1  0.97352117  0.26878645  0.26878645  1.0
  O  O35  1  0.97352117  0.48890594  0.26878645  1.0
  O  O36  1  0.97352117  0.26878645  0.48890594  1.0
  O  O37  1  1.48890594  0.26878645  0.26878645  1.0
  O  O38  1  1.26878645  0.26878645  0.48890594  1.0
  O  O39  1  1.26878645  0.48890594  0.26878645  1.0
  O  O40  1  0.98121355  -0.23890594  0.27647883  1.0
  O  O41  1  0.98121355  -0.01878645  0.27647883  1.0
  O  O42  1  0.76109406  -0.01878645  0.27647883  1.0
  O  O43  1  0.98121355  -0.72352117  0.76109406  1.0
  O  O44  1  0.76109406  -0.72352117  0.98121355  1.0
  O  O45  1  0.98121355  -0.72352117  0.98121355  1.0
  O  O46  1  0.27647883  0.98121355  0.98121355  1.0
  O  O47  1  0.27647883  0.76109406  0.98121355  1.0
  O  O48  1  0.27647883  0.98121355  0.76109406  1.0
  O  O49  1  0.76109406  0.98121355  0.98121355  1.0
  O  O50  1  0.98121355  0.98121355  0.76109406  1.0
  O  O51  1  0.98121355  0.76109406  0.98121355  1.0
