# generated using pymatgen
data_Hf2InPd2
_symmetry_space_group_name_H-M   'P 1'
_cell_length_a   7.50581779
_cell_length_b   7.50581779
_cell_length_c   6.82078519
_cell_angle_alpha   90.00000000
_cell_angle_beta   90.00000000
_cell_angle_gamma   90.00000000
_symmetry_Int_Tables_number   1
_chemical_formula_structural   Hf2InPd2
_chemical_formula_sum   'Hf8 In4 Pd8'
_cell_volume   384.26462610
_cell_formula_units_Z   4
loop_
 _symmetry_equiv_pos_site_id
 _symmetry_equiv_pos_as_xyz
  1  'x, y, z'
loop_
 _atom_site_type_symbol
 _atom_site_label
 _atom_site_symmetry_multiplicity
 _atom_site_fract_x
 _atom_site_fract_y
 _atom_site_fract_z
 _atom_site_occupancy
  Hf  Hf0  1  0.18409910  0.18409910  0.50000000  1.0
  Hf  Hf1  1  0.68409910  0.31590090  0.00000000  1.0
  Hf  Hf2  1  0.81590090  0.81590090  0.50000000  1.0
  Hf  Hf3  1  0.31590090  0.68409910  0.00000000  1.0
  Hf  Hf4  1  0.34854987  0.65145013  0.50000000  1.0
  Hf  Hf5  1  0.84854987  0.84854987  0.00000000  1.0
  Hf  Hf6  1  0.65145013  0.34854987  0.50000000  1.0
  Hf  Hf7  1  0.15145013  0.15145013  0.00000000  1.0
  In  In8  1  0.50000000  0.00000000  0.25000000  1.0
  In  In9  1  0.50000000  0.00000000  0.75000000  1.0
  In  In10  1  0.00000000  0.50000000  0.75000000  1.0
  In  In11  1  0.00000000  0.50000000  0.25000000  1.0
  Pd  Pd12  1  0.12977370  0.87022630  0.28173422  1.0
  Pd  Pd13  1  0.12977370  0.87022630  0.71826578  1.0
  Pd  Pd14  1  0.62977370  0.62977370  0.78173422  1.0
  Pd  Pd15  1  0.62977370  0.62977370  0.21826578  1.0
  Pd  Pd16  1  0.87022630  0.12977370  0.28173422  1.0
  Pd  Pd17  1  0.87022630  0.12977370  0.71826578  1.0
  Pd  Pd18  1  0.37022630  0.37022630  0.78173422  1.0
  Pd  Pd19  1  0.37022630  0.37022630  0.21826578  1.0
