# generated using pymatgen
data_NaTi5Se8
_symmetry_space_group_name_H-M   'P 1'
_cell_length_a   9.65370786
_cell_length_b   9.65370786
_cell_length_c   9.07140494
_cell_angle_alpha   74.93894098
_cell_angle_beta   105.06105902
_cell_angle_gamma   158.68910310
_symmetry_Int_Tables_number   1
_chemical_formula_structural   NaTi5Se8
_chemical_formula_sum   'Na1 Ti5 Se8'
_cell_volume   296.30837274
_cell_formula_units_Z   1
loop_
 _symmetry_equiv_pos_site_id
 _symmetry_equiv_pos_as_xyz
  1  'x, y, z'
loop_
 _atom_site_type_symbol
 _atom_site_label
 _atom_site_symmetry_multiplicity
 _atom_site_fract_x
 _atom_site_fract_y
 _atom_site_fract_z
 _atom_site_occupancy
  Ti  Ti0  1  0.64883178  -0.64883178  0.48982707  1.0
  Ti  Ti1  1  1.35116822  -0.35116822  0.51017293  1.0
  Ti  Ti2  1  0.00000000  -0.00000000  0.50000000  1.0
  Ti  Ti3  1  0.70938764  -0.70938764  0.84761692  1.0
  Ti  Ti4  1  1.29061236  -0.29061236  0.15238308  1.0
  Se  Se5  1  0.91891723  -0.91891723  0.69498443  1.0
  Se  Se6  1  1.08108277  -0.08108277  0.30501557  1.0
  Se  Se7  1  0.83958663  -0.83958663  1.00129495  1.0
  Se  Se8  1  1.16041337  -0.16041337  -0.00129495  1.0
  Se  Se9  1  0.75948546  -0.75948546  0.34344151  1.0
  Se  Se10  1  1.24051454  -0.24051454  0.65655849  1.0
  Se  Se11  1  0.57423126  -0.57423126  0.67755011  1.0
  Se  Se12  1  1.42576874  -0.42576874  0.32244989  1.0
  Na  Na13  1  0.50000000  0.50000000  -0.00000000  1.0
