# generated using pymatgen
data_YbRhO3
_symmetry_space_group_name_H-M   'P 1'
_cell_length_a   5.73013626
_cell_length_b   7.65139958
_cell_length_c   5.28547219
_cell_angle_alpha   90.00000000
_cell_angle_beta   90.00000000
_cell_angle_gamma   90.00000000
_symmetry_Int_Tables_number   1
_chemical_formula_structural   YbRhO3
_chemical_formula_sum   'Yb4 Rh4 O12'
_cell_volume   231.73392865
_cell_formula_units_Z   4
loop_
 _symmetry_equiv_pos_site_id
 _symmetry_equiv_pos_as_xyz
  1  'x, y, z'
loop_
 _atom_site_type_symbol
 _atom_site_label
 _atom_site_symmetry_multiplicity
 _atom_site_fract_x
 _atom_site_fract_y
 _atom_site_fract_z
 _atom_site_occupancy
  Yb  Yb0  1  0.08092351  0.75000000  0.52885439  1.0
  Yb  Yb1  1  0.58092351  0.75000000  0.97114561  1.0
  Yb  Yb2  1  0.91907649  0.25000000  0.47114561  1.0
  Yb  Yb3  1  0.41907649  0.25000000  0.02885439  1.0
  Rh  Rh4  1  0.50000000  0.00000000  0.50000000  1.0
  Rh  Rh5  1  0.50000000  0.50000000  0.50000000  1.0
  Rh  Rh6  1  0.00000000  0.00000000  0.00000000  1.0
  Rh  Rh7  1  0.00000000  0.50000000  0.00000000  1.0
  O  O8  1  0.30750823  0.93774285  0.81792430  1.0
  O  O9  1  0.30750823  0.56225715  0.81792430  1.0
  O  O10  1  0.80750823  0.93774285  0.68207570  1.0
  O  O11  1  0.80750823  0.56225715  0.68207570  1.0
  O  O12  1  0.69249177  0.43774285  0.18207570  1.0
  O  O13  1  0.69249177  0.06225715  0.18207570  1.0
  O  O14  1  0.19249177  0.43774285  0.31792430  1.0
  O  O15  1  0.19249177  0.06225715  0.31792430  1.0
  O  O16  1  0.95150301  0.75000000  0.12912724  1.0
  O  O17  1  0.45150301  0.75000000  0.37087276  1.0
  O  O18  1  0.04849699  0.25000000  0.87087276  1.0
  O  O19  1  0.54849699  0.25000000  0.62912724  1.0
