# generated using pymatgen
data_MnF2
_symmetry_space_group_name_H-M   'P 1'
_cell_length_a   4.13318037
_cell_length_b   4.13093908
_cell_length_c   10.75699159
_cell_angle_alpha   90.00000000
_cell_angle_beta   90.00000000
_cell_angle_gamma   90.00000000
_symmetry_Int_Tables_number   1
_chemical_formula_structural   MnF2
_chemical_formula_sum   'Mn4 F8'
_cell_volume   183.66397411
_cell_formula_units_Z   4
loop_
 _symmetry_equiv_pos_site_id
 _symmetry_equiv_pos_as_xyz
  1  'x, y, z'
loop_
 _atom_site_type_symbol
 _atom_site_label
 _atom_site_symmetry_multiplicity
 _atom_site_fract_x
 _atom_site_fract_y
 _atom_site_fract_z
 _atom_site_occupancy
  Mn  Mn0  1  0.99999372  0.25000000  0.87496027  1.0
  Mn  Mn1  1  0.49999372  0.25000000  0.62503973  1.0
  Mn  Mn2  1  0.00000628  0.75000000  0.12503973  1.0
  Mn  Mn3  1  0.50000628  0.75000000  0.37496027  1.0
  F  F4  1  0.99997416  0.25000000  0.67071300  1.0
  F  F5  1  0.49997416  0.25000000  0.82928700  1.0
  F  F6  1  0.00002584  0.75000000  0.32928700  1.0
  F  F7  1  0.50002584  0.75000000  0.17071300  1.0
  F  F8  1  1.00000348  0.25000000  0.07929416  1.0
  F  F9  1  0.50000348  0.25000000  0.42070584  1.0
  F  F10  1  -0.00000348  0.75000000  0.92070584  1.0
  F  F11  1  0.49999652  0.75000000  0.57929416  1.0
