# generated using pymatgen
data_Cr22WC6
_symmetry_space_group_name_H-M   'P 1'
_cell_length_a   7.49139997
_cell_length_b   7.49139997
_cell_length_c   7.49139997
_cell_angle_alpha   60.00000000
_cell_angle_beta   60.00000000
_cell_angle_gamma   60.00000000
_symmetry_Int_Tables_number   1
_chemical_formula_structural   Cr22WC6
_chemical_formula_sum   'Cr22 W1 C6'
_cell_volume   297.28565713
_cell_formula_units_Z   1
loop_
 _symmetry_equiv_pos_site_id
 _symmetry_equiv_pos_as_xyz
  1  'x, y, z'
loop_
 _atom_site_type_symbol
 _atom_site_label
 _atom_site_symmetry_multiplicity
 _atom_site_fract_x
 _atom_site_fract_y
 _atom_site_fract_z
 _atom_site_occupancy
  Cr  Cr0  1  0.75000000  0.75000000  -0.25000000  1.0
  Cr  Cr1  1  1.25000000  0.25000000  0.25000000  1.0
  Cr  Cr2  1  0.61859070  0.61859070  1.14422790  1.0
  Cr  Cr3  1  0.61859070  1.14422790  -0.38140930  1.0
  Cr  Cr4  1  1.14422790  0.61859070  0.61859070  1.0
  Cr  Cr5  1  0.61859070  0.61859070  -0.38140930  1.0
  Cr  Cr6  1  0.38140930  1.38140930  -0.14422790  1.0
  Cr  Cr7  1  1.38140930  -0.14422790  0.38140930  1.0
  Cr  Cr8  1  -0.14422790  1.38140930  0.38140930  1.0
  Cr  Cr9  1  1.38140930  0.38140930  0.38140930  1.0
  Cr  Cr10  1  -0.00000000  0.00000000  0.34586296  1.0
  Cr  Cr11  1  0.65413704  1.00000000  -0.65413704  1.0
  Cr  Cr12  1  1.00000000  0.65413704  -0.65413704  1.0
  Cr  Cr13  1  0.65413704  -0.65413704  1.00000000  1.0
  Cr  Cr14  1  -0.00000000  1.34586296  0.00000000  1.0
  Cr  Cr15  1  1.00000000  0.34586296  -0.34586296  1.0
  Cr  Cr16  1  0.34586296  -0.34586296  1.00000000  1.0
  Cr  Cr17  1  0.34586296  1.00000000  -0.34586296  1.0
  Cr  Cr18  1  1.34586296  -0.00000000  0.00000000  1.0
  Cr  Cr19  1  -0.00000000  0.00000000  0.65413704  1.0
  Cr  Cr20  1  0.00000000  1.65413704  -0.00000000  1.0
  Cr  Cr21  1  1.65413704  0.00000000  -0.00000000  1.0
  W  W22  1  0.00000000  0.00000000  0.00000000  1.0
  C  C23  1  0.72325914  0.72325914  -0.72325914  1.0
  C  C24  1  0.27674086  -0.27674086  1.27674086  1.0
  C  C25  1  -0.27674086  0.27674086  0.27674086  1.0
  C  C26  1  0.27674086  1.27674086  -0.27674086  1.0
  C  C27  1  -0.27674086  0.27674086  0.72325914  1.0
  C  C28  1  -0.72325914  0.72325914  0.72325914  1.0
