# generated using pymatgen
data_K2CuP
_symmetry_space_group_name_H-M   'P 1'
_cell_length_a   6.20649532
_cell_length_b   6.20649532
_cell_length_c   5.81371266
_cell_angle_alpha   90.00000000
_cell_angle_beta   90.00000000
_cell_angle_gamma   73.61881312
_symmetry_Int_Tables_number   1
_chemical_formula_structural   K2CuP
_chemical_formula_sum   'K4 Cu2 P2'
_cell_volume   214.85681960
_cell_formula_units_Z   2
loop_
 _symmetry_equiv_pos_site_id
 _symmetry_equiv_pos_as_xyz
  1  'x, y, z'
loop_
 _atom_site_type_symbol
 _atom_site_label
 _atom_site_symmetry_multiplicity
 _atom_site_fract_x
 _atom_site_fract_y
 _atom_site_fract_z
 _atom_site_occupancy
  K  K0  1  -0.18575616  1.52381307  0.25000000  1.0
  K  K1  1  0.52381307  0.81424384  0.75000000  1.0
  K  K2  1  -0.52381307  1.18575616  0.25000000  1.0
  K  K3  1  0.18575616  0.47618693  0.75000000  1.0
  Cu  Cu4  1  0.00000000  0.00000000  0.50000000  1.0
  Cu  Cu5  1  0.00000000  0.00000000  0.00000000  1.0
  P  P6  1  0.23125283  0.76874717  0.25000000  1.0
  P  P7  1  -0.23125283  1.23125283  0.75000000  1.0
