# generated using pymatgen
data_Ti(NbSe2)2
_symmetry_space_group_name_H-M   'P 1'
_cell_length_a   7.19809104
_cell_length_b   7.19809104
_cell_length_c   6.37522768
_cell_angle_alpha   65.77321299
_cell_angle_beta   114.22678701
_cell_angle_gamma   151.97137740
_symmetry_Int_Tables_number   1
_chemical_formula_structural   Ti(NbSe2)2
_chemical_formula_sum   'Ti1 Nb2 Se4'
_cell_volume   140.65386243
_cell_formula_units_Z   1
loop_
 _symmetry_equiv_pos_site_id
 _symmetry_equiv_pos_as_xyz
  1  'x, y, z'
loop_
 _atom_site_type_symbol
 _atom_site_label
 _atom_site_symmetry_multiplicity
 _atom_site_fract_x
 _atom_site_fract_y
 _atom_site_fract_z
 _atom_site_occupancy
  Ti  Ti0  1  1.36390755  -0.36390755  0.02320372  1.0
  Nb  Nb1  1  1.10734112  -0.10734112  0.70016455  1.0
  Nb  Nb2  1  0.62044256  -0.62044256  0.34625500  1.0
  Se  Se3  1  0.00114666  -0.00114666  -0.00175213  1.0
  Se  Se4  1  1.26201185  -0.26201185  0.57803708  1.0
  Se  Se5  1  1.46576915  -0.46576915  0.46838501  1.0
  Se  Se6  1  0.72668111  -0.72668111  0.04820677  1.0
