# generated using pymatgen
data_VCl3O4
_symmetry_space_group_name_H-M   'P 1'
_cell_length_a   7.88309228
_cell_length_b   7.88309228
_cell_length_c   12.75566612
_cell_angle_alpha   44.17541115
_cell_angle_beta   135.82458885
_cell_angle_gamma   141.34260279
_symmetry_Int_Tables_number   1
_chemical_formula_structural   VCl3O4
_chemical_formula_sum   'V2 Cl6 O8'
_cell_volume   321.78417272
_cell_formula_units_Z   2
loop_
 _symmetry_equiv_pos_site_id
 _symmetry_equiv_pos_as_xyz
  1  'x, y, z'
loop_
 _atom_site_type_symbol
 _atom_site_label
 _atom_site_symmetry_multiplicity
 _atom_site_fract_x
 _atom_site_fract_y
 _atom_site_fract_z
 _atom_site_occupancy
  V  V0  1  0.50000000  -0.50000000  0.50000000  1.0
  V  V1  1  0.00000000  0.00000000  0.00000000  1.0
  Cl  Cl2  1  0.95930556  -0.95930556  0.78146627  1.0
  Cl  Cl3  1  0.04069444  -0.04069444  0.21853373  1.0
  Cl  Cl4  1  0.79641756  -0.79641756  0.32329019  1.0
  Cl  Cl5  1  0.20358244  -0.20358244  0.67670981  1.0
  Cl  Cl6  1  0.60868614  -0.60868614  0.74907996  1.0
  Cl  Cl7  1  0.39131386  -0.39131386  0.25092004  1.0
  O  O8  1  0.64012361  -0.11861621  0.44905205  1.0
  O  O9  1  1.11861621  0.35987639  0.44905205  1.0
  O  O10  1  0.88138379  -0.35987639  0.55094795  1.0
  O  O11  1  1.35987639  0.11861621  0.55094795  1.0
  O  O12  1  0.62665119  -0.11334474  0.90342878  1.0
  O  O13  1  1.11334474  0.37334881  0.90342878  1.0
  O  O14  1  0.88665526  -0.37334881  0.09657122  1.0
  O  O15  1  1.37334881  0.11334474  0.09657122  1.0
