# generated using pymatgen
data_CsSc(SO4)2
_symmetry_space_group_name_H-M   'P 1'
_cell_length_a   5.33355839
_cell_length_b   5.33355839
_cell_length_c   8.74699698
_cell_angle_alpha   90.00000000
_cell_angle_beta   90.00000000
_cell_angle_gamma   120.00000000
_symmetry_Int_Tables_number   1
_chemical_formula_structural   CsSc(SO4)2
_chemical_formula_sum   'Cs1 Sc1 S2 O8'
_cell_volume   215.48831069
_cell_formula_units_Z   1
loop_
 _symmetry_equiv_pos_site_id
 _symmetry_equiv_pos_as_xyz
  1  'x, y, z'
loop_
 _atom_site_type_symbol
 _atom_site_label
 _atom_site_symmetry_multiplicity
 _atom_site_fract_x
 _atom_site_fract_y
 _atom_site_fract_z
 _atom_site_occupancy
  Cs  Cs0  1  0.00000000  0.00000000  0.50000000  1.0
  Sc  Sc1  1  0.00000000  0.00000000  0.00000000  1.0
  S  S2  1  0.33333333  0.66666667  0.20223841  1.0
  S  S3  1  0.66666667  0.33333333  0.79776159  1.0
  O  O4  1  0.18122094  0.81874204  0.14295311  1.0
  O  O5  1  0.81874204  0.18122094  0.85704689  1.0
  O  O6  1  0.63752110  0.81877906  0.14295311  1.0
  O  O7  1  0.18125796  0.36247890  0.14295311  1.0
  O  O8  1  0.81877906  0.63752110  0.85704689  1.0
  O  O9  1  0.36247890  0.18125796  0.85704689  1.0
  O  O10  1  0.33333333  0.66666667  0.36979490  1.0
  O  O11  1  0.66666667  0.33333333  0.63020510  1.0
