# generated using pymatgen
data_P3Rh4
_symmetry_space_group_name_H-M   'P 1'
_cell_length_a   11.77394040
_cell_length_b   3.33869201
_cell_length_c   10.08782118
_cell_angle_alpha   90.00000000
_cell_angle_beta   90.00000000
_cell_angle_gamma   90.00000000
_symmetry_Int_Tables_number   1
_chemical_formula_structural   P3Rh4
_chemical_formula_sum   'P12 Rh16'
_cell_volume   396.54782005
_cell_formula_units_Z   4
loop_
 _symmetry_equiv_pos_site_id
 _symmetry_equiv_pos_as_xyz
  1  'x, y, z'
loop_
 _atom_site_type_symbol
 _atom_site_label
 _atom_site_symmetry_multiplicity
 _atom_site_fract_x
 _atom_site_fract_y
 _atom_site_fract_z
 _atom_site_occupancy
  P  P0  1  0.13039771  0.75000000  0.57755914  1.0
  P  P1  1  0.63039771  0.75000000  0.92244086  1.0
  P  P2  1  0.86960229  0.25000000  0.42244086  1.0
  P  P3  1  0.36960229  0.25000000  0.07755914  1.0
  P  P4  1  0.12392179  0.75000000  0.25899517  1.0
  P  P5  1  0.62392179  0.75000000  0.24100483  1.0
  P  P6  1  0.87607821  0.25000000  0.74100483  1.0
  P  P7  1  0.37607821  0.25000000  0.75899517  1.0
  P  P8  1  0.87295348  0.75000000  0.08090797  1.0
  P  P9  1  0.37295348  0.75000000  0.41909203  1.0
  P  P10  1  0.12704652  0.25000000  0.91909203  1.0
  P  P11  1  0.62704652  0.25000000  0.58090797  1.0
  Rh  Rh12  1  0.47218162  0.75000000  0.61728565  1.0
  Rh  Rh13  1  0.97218162  0.75000000  0.88271435  1.0
  Rh  Rh14  1  0.52781838  0.25000000  0.38271435  1.0
  Rh  Rh15  1  0.02781838  0.25000000  0.11728565  1.0
  Rh  Rh16  1  0.43561287  0.75000000  0.90430397  1.0
  Rh  Rh17  1  0.93561287  0.75000000  0.59569603  1.0
  Rh  Rh18  1  0.56438713  0.25000000  0.09569603  1.0
  Rh  Rh19  1  0.06438713  0.25000000  0.40430397  1.0
  Rh  Rh20  1  0.22970929  0.75000000  0.06935307  1.0
  Rh  Rh21  1  0.72970929  0.75000000  0.43064693  1.0
  Rh  Rh22  1  0.77029071  0.25000000  0.93064693  1.0
  Rh  Rh23  1  0.27029071  0.25000000  0.56935307  1.0
  Rh  Rh24  1  0.20337361  0.75000000  0.79055817  1.0
  Rh  Rh25  1  0.70337361  0.75000000  0.70944183  1.0
  Rh  Rh26  1  0.79662639  0.25000000  0.20944183  1.0
  Rh  Rh27  1  0.29662639  0.25000000  0.29055817  1.0
