# generated using pymatgen
data_Ca11N8
_symmetry_space_group_name_H-M   'P 1'
_cell_length_a   13.89451569
_cell_length_b   13.89451569
_cell_length_c   3.66182347
_cell_angle_alpha   90.00000000
_cell_angle_beta   90.00000000
_cell_angle_gamma   90.00000000
_symmetry_Int_Tables_number   1
_chemical_formula_structural   Ca11N8
_chemical_formula_sum   'Ca22 N16'
_cell_volume   706.94272604
_cell_formula_units_Z   2
loop_
 _symmetry_equiv_pos_site_id
 _symmetry_equiv_pos_as_xyz
  1  'x, y, z'
loop_
 _atom_site_type_symbol
 _atom_site_label
 _atom_site_symmetry_multiplicity
 _atom_site_fract_x
 _atom_site_fract_y
 _atom_site_fract_z
 _atom_site_occupancy
  N  N0  1  0.46947685  0.80664038  0.50000000  1.0
  N  N1  1  0.96947685  0.69335962  0.00000000  1.0
  N  N2  1  0.19335962  0.53052315  0.50000000  1.0
  N  N3  1  0.69335962  0.96947685  0.00000000  1.0
  N  N4  1  0.53052315  0.19335962  0.50000000  1.0
  N  N5  1  0.03052315  0.30664038  0.00000000  1.0
  N  N6  1  0.80664038  0.46947685  0.50000000  1.0
  N  N7  1  0.30664038  0.03052315  0.00000000  1.0
  N  N8  1  0.08610727  0.08610727  0.50000000  1.0
  N  N9  1  0.58610727  0.41389273  0.00000000  1.0
  N  N10  1  0.91389273  0.91389273  0.50000000  1.0
  N  N11  1  0.41389273  0.58610727  0.00000000  1.0
  N  N12  1  0.20515955  0.79484045  0.50000000  1.0
  N  N13  1  0.70515955  0.70515955  0.00000000  1.0
  N  N14  1  0.79484045  0.20515955  0.50000000  1.0
  N  N15  1  0.29484045  0.29484045  0.00000000  1.0
  Ca  Ca16  1  0.37643438  0.11869270  0.50000000  1.0
  Ca  Ca17  1  0.87643438  0.38130730  0.00000000  1.0
  Ca  Ca18  1  0.88130730  0.62356562  0.50000000  1.0
  Ca  Ca19  1  0.38130730  0.87643438  0.00000000  1.0
  Ca  Ca20  1  0.62356562  0.88130730  0.50000000  1.0
  Ca  Ca21  1  0.12356562  0.61869270  0.00000000  1.0
  Ca  Ca22  1  0.11869270  0.37643438  0.50000000  1.0
  Ca  Ca23  1  0.61869270  0.12356562  0.00000000  1.0
  Ca  Ca24  1  0.21051146  0.96892468  0.50000000  1.0
  Ca  Ca25  1  0.71051146  0.53107532  0.00000000  1.0
  Ca  Ca26  1  0.03107532  0.78948854  0.50000000  1.0
  Ca  Ca27  1  0.53107532  0.71051146  0.00000000  1.0
  Ca  Ca28  1  0.78948854  0.03107532  0.50000000  1.0
  Ca  Ca29  1  0.28948854  0.46892468  0.00000000  1.0
  Ca  Ca30  1  0.96892468  0.21051146  0.50000000  1.0
  Ca  Ca31  1  0.46892468  0.28948854  0.00000000  1.0
  Ca  Ca32  1  0.33029511  0.66970489  0.50000000  1.0
  Ca  Ca33  1  0.83029511  0.83029511  0.00000000  1.0
  Ca  Ca34  1  0.66970489  0.33029511  0.50000000  1.0
  Ca  Ca35  1  0.16970489  0.16970489  0.00000000  1.0
  Ca  Ca36  1  0.50000000  0.50000000  0.50000000  1.0
  Ca  Ca37  1  0.00000000  0.00000000  0.00000000  1.0
