# generated using pymatgen
data_GdGeRh
_symmetry_space_group_name_H-M   'P 1'
_cell_length_a   7.04461812
_cell_length_b   4.37801317
_cell_length_c   7.52531782
_cell_angle_alpha   90.00000000
_cell_angle_beta   90.00000000
_cell_angle_gamma   90.00000000
_symmetry_Int_Tables_number   1
_chemical_formula_structural   GdGeRh
_chemical_formula_sum   'Gd4 Ge4 Rh4'
_cell_volume   232.09156992
_cell_formula_units_Z   4
loop_
 _symmetry_equiv_pos_site_id
 _symmetry_equiv_pos_as_xyz
  1  'x, y, z'
loop_
 _atom_site_type_symbol
 _atom_site_label
 _atom_site_symmetry_multiplicity
 _atom_site_fract_x
 _atom_site_fract_y
 _atom_site_fract_z
 _atom_site_occupancy
  Gd  Gd0  1  1.00348182  0.75000000  0.69396368  1.0
  Gd  Gd1  1  0.50348182  0.75000000  0.80603632  1.0
  Gd  Gd2  1  -0.00348182  0.25000000  0.30603632  1.0
  Gd  Gd3  1  0.49651818  0.25000000  0.19396368  1.0
  Ge  Ge4  1  0.70676494  0.75000000  0.39760651  1.0
  Ge  Ge5  1  0.20676494  0.75000000  0.10239349  1.0
  Ge  Ge6  1  0.29323506  0.25000000  0.60239349  1.0
  Ge  Ge7  1  0.79323506  0.25000000  0.89760651  1.0
  Rh  Rh8  1  0.84433762  0.75000000  0.07058188  1.0
  Rh  Rh9  1  0.34433762  0.75000000  0.42941812  1.0
  Rh  Rh10  1  0.15566238  0.25000000  0.92941812  1.0
  Rh  Rh11  1  0.65566238  0.25000000  0.57058188  1.0
