# generated using pymatgen
data_BaNbS3
_symmetry_space_group_name_H-M   'P 1'
_cell_length_a   6.92423587
_cell_length_b   6.92423587
_cell_length_c   5.73079860
_cell_angle_alpha   90.00000000
_cell_angle_beta   90.00000000
_cell_angle_gamma   120.00000000
_symmetry_Int_Tables_number   1
_chemical_formula_structural   BaNbS3
_chemical_formula_sum   'Ba2 Nb2 S6'
_cell_volume   237.95206867
_cell_formula_units_Z   2
loop_
 _symmetry_equiv_pos_site_id
 _symmetry_equiv_pos_as_xyz
  1  'x, y, z'
loop_
 _atom_site_type_symbol
 _atom_site_label
 _atom_site_symmetry_multiplicity
 _atom_site_fract_x
 _atom_site_fract_y
 _atom_site_fract_z
 _atom_site_occupancy
  Ba  Ba0  1  0.33333333  0.66666667  0.75000000  1.0
  Ba  Ba1  1  0.66666667  0.33333333  0.25000000  1.0
  Nb  Nb2  1  0.00000000  0.00000000  0.50000000  1.0
  Nb  Nb3  1  0.00000000  0.00000000  0.00000000  1.0
  S  S4  1  0.17077562  0.82922438  0.25000000  1.0
  S  S5  1  0.17077562  0.34155124  0.25000000  1.0
  S  S6  1  0.65844876  0.82922438  0.25000000  1.0
  S  S7  1  0.82922438  0.17077562  0.75000000  1.0
  S  S8  1  0.82922438  0.65844876  0.75000000  1.0
  S  S9  1  0.34155124  0.17077562  0.75000000  1.0
