# generated using pymatgen
data_Sr6Lu2Al4O15
_symmetry_space_group_name_H-M   'P 1'
_cell_length_a   9.27914912
_cell_length_b   9.27914912
_cell_length_c   7.71562807
_cell_angle_alpha   89.20005350
_cell_angle_beta   90.79994650
_cell_angle_gamma   143.76730323
_symmetry_Int_Tables_number   1
_chemical_formula_structural   Sr6Lu2Al4O15
_chemical_formula_sum   'Sr6 Lu2 Al4 O15'
_cell_volume   392.62393046
_cell_formula_units_Z   1
loop_
 _symmetry_equiv_pos_site_id
 _symmetry_equiv_pos_as_xyz
  1  'x, y, z'
loop_
 _atom_site_type_symbol
 _atom_site_label
 _atom_site_symmetry_multiplicity
 _atom_site_fract_x
 _atom_site_fract_y
 _atom_site_fract_z
 _atom_site_occupancy
  Sr  Sr0  1  0.87791371  -0.77772067  0.49783817  1.0
  Sr  Sr1  1  1.22227933  -0.12208629  0.50216183  1.0
  Sr  Sr2  1  1.23684176  -0.08148093  0.96767075  1.0
  Sr  Sr3  1  0.91851907  -0.76315824  0.03232925  1.0
  Sr  Sr4  1  0.44992321  0.44992321  0.50000000  1.0
  Sr  Sr5  1  0.52254638  0.52254638  -0.00000000  1.0
  Lu  Lu6  1  1.39247503  -0.29165751  0.75316025  1.0
  Lu  Lu7  1  0.70834249  -0.60752497  0.24683975  1.0
  Al  Al8  1  1.00062685  -0.97083365  0.77204353  1.0
  Al  Al9  1  1.02916635  0.00062685  0.22795647  1.0
  Al  Al10  1  0.75487170  -0.62929312  0.75668421  1.0
  Al  Al11  1  1.37070688  -0.24512830  0.24331579  1.0
  O  O12  1  1.05483019  -0.80496818  0.31116753  1.0
  O  O13  1  1.19503182  0.05483019  0.68883247  1.0
  O  O14  1  1.13385215  -0.68831296  0.74177455  1.0
  O  O15  1  1.31168704  0.13385215  0.25822545  1.0
  O  O16  1  1.07432379  -0.40655387  0.76851232  1.0
  O  O17  1  1.59344613  0.07432379  0.23148768  1.0
  O  O18  1  0.71276684  -0.60919410  0.53497044  1.0
  O  O19  1  1.39080590  -0.28723316  0.46502956  1.0
  O  O20  1  0.67806043  -0.59733335  0.94978083  1.0
  O  O21  1  1.40266665  -0.32193957  0.05021917  1.0
  O  O22  1  1.68410402  -0.22263162  0.72585414  1.0
  O  O23  1  0.77736838  -0.31589598  0.27414586  1.0
  O  O24  1  1.60416116  0.07759265  0.77479359  1.0
  O  O25  1  1.07759265  -0.39583884  0.22520641  1.0
  O  O26  1  0.01089008  0.01089008  -0.00000000  1.0
