# generated using pymatgen
data_Na2AsAu
_symmetry_space_group_name_H-M   'P 1'
_cell_length_a   5.70710785
_cell_length_b   5.70710785
_cell_length_c   5.80312697
_cell_angle_alpha   90.00000000
_cell_angle_beta   90.00000000
_cell_angle_gamma   77.36414539
_symmetry_Int_Tables_number   1
_chemical_formula_structural   Na2AsAu
_chemical_formula_sum   'Na4 As2 Au2'
_cell_volume   184.43620265
_cell_formula_units_Z   2
loop_
 _symmetry_equiv_pos_site_id
 _symmetry_equiv_pos_as_xyz
  1  'x, y, z'
loop_
 _atom_site_type_symbol
 _atom_site_label
 _atom_site_symmetry_multiplicity
 _atom_site_fract_x
 _atom_site_fract_y
 _atom_site_fract_z
 _atom_site_occupancy
  Na  Na0  1  -0.16500610  1.52619421  0.25000000  1.0
  Na  Na1  1  0.52619421  0.83499390  0.75000000  1.0
  Na  Na2  1  -0.52619421  1.16500610  0.25000000  1.0
  Na  Na3  1  0.16500610  0.47380579  0.75000000  1.0
  As  As4  1  0.29175639  0.70824361  0.25000000  1.0
  As  As5  1  -0.29175639  1.29175639  0.75000000  1.0
  Au  Au6  1  0.00000000  0.00000000  0.50000000  1.0
  Au  Au7  1  0.00000000  0.00000000  0.00000000  1.0
