# generated using pymatgen
data_LiBH6O
_symmetry_space_group_name_H-M   'P 1'
_cell_length_a   6.01324508
_cell_length_b   6.26098410
_cell_length_c   10.27120279
_cell_angle_alpha   90.00000000
_cell_angle_beta   115.89905653
_cell_angle_gamma   90.00000000
_symmetry_Int_Tables_number   1
_chemical_formula_structural   LiBH6O
_chemical_formula_sum   'Li4 B4 H24 O4'
_cell_volume   347.86068316
_cell_formula_units_Z   4
loop_
 _symmetry_equiv_pos_site_id
 _symmetry_equiv_pos_as_xyz
  1  'x, y, z'
loop_
 _atom_site_type_symbol
 _atom_site_label
 _atom_site_symmetry_multiplicity
 _atom_site_fract_x
 _atom_site_fract_y
 _atom_site_fract_z
 _atom_site_occupancy
  Li  Li0  1  0.50025430  0.42716950  0.63415536  1.0
  Li  Li1  1  0.49974570  0.92716950  0.86584464  1.0
  Li  Li2  1  0.49974570  0.57283050  0.36584464  1.0
  Li  Li3  1  0.50025430  0.07283050  0.13415536  1.0
  B  B4  1  0.70476076  0.39924608  0.23447763  1.0
  B  B5  1  0.29523924  0.89924608  0.26552237  1.0
  B  B6  1  0.29523924  0.60075392  0.76552237  1.0
  B  B7  1  0.70476076  0.10075392  0.73447763  1.0
  H  H8  1  0.69989513  0.71085044  0.10538864  1.0
  H  H9  1  0.30010487  0.21085044  0.39461136  1.0
  H  H10  1  0.30010487  0.28914956  0.89461136  1.0
  H  H11  1  0.69989513  0.78914956  0.60538864  1.0
  H  H12  1  0.88208964  0.89491061  0.12059707  1.0
  H  H13  1  0.11791036  0.39491061  0.37940293  1.0
  H  H14  1  0.11791036  0.10508939  0.87940293  1.0
  H  H15  1  0.88208964  0.60508939  0.62059707  1.0
  H  H16  1  0.80926426  0.52276923  0.33595400  1.0
  H  H17  1  0.19073574  0.02276923  0.16404600  1.0
  H  H18  1  0.19073574  0.47723077  0.66404600  1.0
  H  H19  1  0.80926426  0.97723077  0.83595400  1.0
  H  H20  1  0.73082383  0.45614643  0.12807162  1.0
  H  H21  1  0.26917617  0.95614643  0.37192838  1.0
  H  H22  1  0.26917617  0.54385357  0.87192838  1.0
  H  H23  1  0.73082383  0.04385357  0.62807162  1.0
  H  H24  1  0.48282843  0.39040512  0.20265926  1.0
  H  H25  1  0.51717157  0.89040512  0.29734074  1.0
  H  H26  1  0.51717157  0.60959488  0.79734074  1.0
  H  H27  1  0.48282843  0.10959488  0.70265926  1.0
  H  H28  1  0.79783085  0.22213223  0.27125030  1.0
  H  H29  1  0.20216915  0.72213223  0.22874970  1.0
  H  H30  1  0.20216915  0.77786777  0.72874970  1.0
  H  H31  1  0.79783085  0.27786777  0.77125030  1.0
  O  O32  1  0.70406185  0.86239992  0.07852168  1.0
  O  O33  1  0.29593815  0.36239992  0.42147832  1.0
  O  O34  1  0.29593815  0.13760008  0.92147832  1.0
  O  O35  1  0.70406185  0.63760008  0.57852168  1.0
