# generated using pymatgen
data_V2Te2O9
_symmetry_space_group_name_H-M   'P 1'
_cell_length_a   15.06529375
_cell_length_b   4.98954644
_cell_length_c   15.04530752
_cell_angle_alpha   80.68808258
_cell_angle_beta   19.07650062
_cell_angle_gamma   80.23541680
_symmetry_Int_Tables_number   1
_chemical_formula_structural   V2Te2O9
_chemical_formula_sum   'V4 Te4 O18'
_cell_volume   364.26675560
_cell_formula_units_Z   2
loop_
 _symmetry_equiv_pos_site_id
 _symmetry_equiv_pos_as_xyz
  1  'x, y, z'
loop_
 _atom_site_type_symbol
 _atom_site_label
 _atom_site_symmetry_multiplicity
 _atom_site_fract_x
 _atom_site_fract_y
 _atom_site_fract_z
 _atom_site_occupancy
  V  V0  1  0.46293928  0.27100460  1.35566023  1.0
  V  V1  1  0.89433977  -0.66039589  0.78706072  1.0
  V  V2  1  0.27100460  0.46293928  0.91039589  1.0
  V  V3  1  0.33960411  -0.10566023  0.97899540  1.0
  Te  Te4  1  0.92558765  0.37495396  0.47268204  1.0
  Te  Te5  1  0.77731796  0.02322365  0.32441235  1.0
  Te  Te6  1  1.37495396  -0.07441235  0.22677635  1.0
  Te  Te7  1  1.02322365  -0.22268204  0.87504604  1.0
  O  O8  1  0.60572052  0.43101696  1.29232192  1.0
  O  O9  1  0.95767808  -0.42094059  0.64427948  1.0
  O  O10  1  0.43101696  0.60572052  0.67094059  1.0
  O  O11  1  0.57905941  -0.04232192  0.81898304  1.0
  O  O12  1  0.60762265  0.48085535  1.10737693  1.0
  O  O13  1  1.14262307  -0.55414508  0.64237735  1.0
  O  O14  1  0.48085535  0.60762265  0.80414508  1.0
  O  O15  1  0.44585492  0.14262307  0.76914465  1.0
  O  O16  1  1.23506425  0.07773278  0.46195747  1.0
  O  O17  1  0.78804253  0.02475450  1.01493575  1.0
  O  O18  1  1.07773278  0.23506425  0.22524550  1.0
  O  O19  1  0.02475450  0.78804253  1.17226722  1.0
  O  O20  1  1.36416998  -0.03790521  0.52547566  1.0
  O  O21  1  0.72452434  0.10174042  0.88583002  1.0
  O  O22  1  0.96209479  0.36416998  0.14825958  1.0
  O  O23  1  1.10174042  -0.27547566  0.28790521  1.0
  O  O24  1  0.98043723  -0.01956277  0.01956277  1.0
  O  O25  1  1.23043723  0.23043723  0.26956277  1.0
