# generated using pymatgen
data_EuSiPt
_symmetry_space_group_name_H-M   'P 1'
_cell_length_a   6.41829685
_cell_length_b   6.41829685
_cell_length_c   6.41829685
_cell_angle_alpha   90.00000000
_cell_angle_beta   90.00000000
_cell_angle_gamma   90.00000000
_symmetry_Int_Tables_number   1
_chemical_formula_structural   EuSiPt
_chemical_formula_sum   'Eu4 Si4 Pt4'
_cell_volume   264.39875091
_cell_formula_units_Z   4
loop_
 _symmetry_equiv_pos_site_id
 _symmetry_equiv_pos_as_xyz
  1  'x, y, z'
loop_
 _atom_site_type_symbol
 _atom_site_label
 _atom_site_symmetry_multiplicity
 _atom_site_fract_x
 _atom_site_fract_y
 _atom_site_fract_z
 _atom_site_occupancy
  Eu  Eu0  1  0.62943129  1.12943129  0.37056871  1.0
  Eu  Eu1  1  1.12943129  0.37056871  0.62943129  1.0
  Eu  Eu2  1  0.37056871  0.62943129  1.12943129  1.0
  Eu  Eu3  1  -0.12943129  -0.12943129  -0.12943129  1.0
  Si  Si4  1  0.91966261  0.41966261  0.08033738  1.0
  Si  Si5  1  0.41966261  0.08033738  0.91966261  1.0
  Si  Si6  1  0.08033739  0.91966261  0.41966261  1.0
  Si  Si7  1  0.58033739  0.58033739  0.58033739  1.0
  Pt  Pt8  1  0.33191838  0.83191838  0.66808162  1.0
  Pt  Pt9  1  0.83191838  0.66808162  0.33191838  1.0
  Pt  Pt10  1  0.66808162  0.33191838  0.83191838  1.0
  Pt  Pt11  1  0.16808162  0.16808162  0.16808162  1.0
