# generated using pymatgen
data_Li6VCl8
_symmetry_space_group_name_H-M   'P 1'
_cell_length_a   7.30021443
_cell_length_b   7.30021443
_cell_length_c   7.30021443
_cell_angle_alpha   60.00000000
_cell_angle_beta   60.00000000
_cell_angle_gamma   60.00000000
_symmetry_Int_Tables_number   1
_chemical_formula_structural   Li6VCl8
_chemical_formula_sum   'Li6 V1 Cl8'
_cell_volume   275.10079919
_cell_formula_units_Z   1
loop_
 _symmetry_equiv_pos_site_id
 _symmetry_equiv_pos_as_xyz
  1  'x, y, z'
loop_
 _atom_site_type_symbol
 _atom_site_label
 _atom_site_symmetry_multiplicity
 _atom_site_fract_x
 _atom_site_fract_y
 _atom_site_fract_z
 _atom_site_occupancy
  Li  Li0  1  1.50000000  -0.00000000  0.00000000  1.0
  Li  Li1  1  1.00000000  0.50000000  -0.50000000  1.0
  Li  Li2  1  -0.00000000  1.50000000  0.00000000  1.0
  Li  Li3  1  0.50000000  1.00000000  -0.50000000  1.0
  Li  Li4  1  -0.00000000  0.00000000  0.50000000  1.0
  Li  Li5  1  0.50000000  -0.50000000  1.00000000  1.0
  V  V6  1  0.00000000  0.00000000  0.00000000  1.0
  Cl  Cl7  1  -0.75963555  0.75963555  0.75963555  1.0
  Cl  Cl8  1  -0.24036445  0.24036445  0.75963555  1.0
  Cl  Cl9  1  0.75963555  0.75963555  -0.75963555  1.0
  Cl  Cl10  1  0.24036445  1.24036445  -0.24036445  1.0
  Cl  Cl11  1  0.24036445  -0.24036445  1.24036445  1.0
  Cl  Cl12  1  -0.24036445  0.24036445  0.24036445  1.0
  Cl  Cl13  1  0.75000000  0.75000000  -0.25000000  1.0
  Cl  Cl14  1  1.25000000  0.25000000  0.25000000  1.0
