# generated using pymatgen
data_Ca2Mg5Si8(O11F)2
_symmetry_space_group_name_H-M   'P 1'
_cell_length_a   10.37714540
_cell_length_b   10.37714540
_cell_length_c   5.33100763
_cell_angle_alpha   83.18105039
_cell_angle_beta   96.81894961
_cell_angle_gamma   57.42774974
_symmetry_Int_Tables_number   1
_chemical_formula_structural   Ca2Mg5Si8(O11F)2
_chemical_formula_sum   'Ca2 Mg5 Si8 O22 F2'
_cell_volume   468.77047359
_cell_formula_units_Z   1
loop_
 _symmetry_equiv_pos_site_id
 _symmetry_equiv_pos_as_xyz
  1  'x, y, z'
loop_
 _atom_site_type_symbol
 _atom_site_label
 _atom_site_symmetry_multiplicity
 _atom_site_fract_x
 _atom_site_fract_y
 _atom_site_fract_z
 _atom_site_occupancy
  Ca  Ca0  1  0.72163254  -0.27836746  0.50000000  1.0
  Ca  Ca1  1  0.27836746  0.27836746  0.50000000  1.0
  Mg  Mg2  1  0.91108084  -0.08891916  0.50000000  1.0
  Mg  Mg3  1  0.08891916  0.08891916  0.50000000  1.0
  Mg  Mg4  1  0.82252074  -0.17747926  0.00000000  1.0
  Mg  Mg5  1  0.17747926  0.17747926  -0.00000000  1.0
  Mg  Mg6  1  0.00000000  0.00000000  0.00000000  1.0
  Si  Si7  1  0.45862787  -0.11688613  0.80172557  1.0
  Si  Si8  1  1.11688613  -0.45862787  0.80172557  1.0
  Si  Si9  1  0.88311387  -0.54137213  0.19827443  1.0
  Si  Si10  1  0.54137213  0.11688613  0.19827443  1.0
  Si  Si11  1  0.63716773  0.19533534  0.70623408  1.0
  Si  Si12  1  0.80466466  -0.63716773  0.70623408  1.0
  Si  Si13  1  1.19533534  -0.36283227  0.29376592  1.0
  Si  Si14  1  0.36283227  -0.19533534  0.29376592  1.0
  O  O15  1  0.61397140  -0.11881047  0.79205424  1.0
  O  O16  1  1.11881047  -0.61397140  0.79205424  1.0
  O  O17  1  0.88118953  -0.38602860  0.20794576  1.0
  O  O18  1  0.38602860  0.11881047  0.20794576  1.0
  O  O19  1  0.80400470  0.02525338  0.78324318  1.0
  O  O20  1  0.97474662  -0.80400470  0.78324318  1.0
  O  O21  1  1.02525338  -0.19599530  0.21675682  1.0
  O  O22  1  0.19599530  -0.02525338  0.21675682  1.0
  O  O23  1  0.46233410  -0.22321973  0.58305336  1.0
  O  O24  1  1.22321973  -0.46233410  0.58305336  1.0
  O  O25  1  0.77678027  -0.53766590  0.41694664  1.0
  O  O26  1  0.53766590  0.22321973  0.41694664  1.0
  O  O27  1  0.52109795  0.21061497  0.90387267  1.0
  O  O28  1  0.78938503  -0.52109795  0.90387267  1.0
  O  O29  1  1.21061497  -0.47890205  0.09612733  1.0
  O  O30  1  0.47890205  -0.21061497  0.09612733  1.0
  O  O31  1  0.28906896  0.05253611  0.72331388  1.0
  O  O32  1  0.94746389  -0.28906896  0.72331388  1.0
  O  O33  1  1.05253611  -0.71093104  0.27668612  1.0
  O  O34  1  0.71093104  -0.05253611  0.27668612  1.0
  O  O35  1  0.66320954  -0.66320954  0.70888278  1.0
  O  O36  1  0.33679046  -0.33679046  0.29111722  1.0
  F  F37  1  0.90007078  -0.90007078  0.28908993  1.0
  F  F38  1  0.09992922  -0.09992922  0.71091007  1.0
