# generated using pymatgen
data_Li4Ge5O12
_symmetry_space_group_name_H-M   'P 1'
_cell_length_a   9.31580626
_cell_length_b   5.20515025
_cell_length_c   9.76657289
_cell_angle_alpha   77.26220908
_cell_angle_beta   73.17725901
_cell_angle_gamma   78.92452589
_symmetry_Int_Tables_number   1
_chemical_formula_structural   Li4Ge5O12
_chemical_formula_sum   'Li8 Ge10 O24'
_cell_volume   437.96524994
_cell_formula_units_Z   2
loop_
 _symmetry_equiv_pos_site_id
 _symmetry_equiv_pos_as_xyz
  1  'x, y, z'
loop_
 _atom_site_type_symbol
 _atom_site_label
 _atom_site_symmetry_multiplicity
 _atom_site_fract_x
 _atom_site_fract_y
 _atom_site_fract_z
 _atom_site_occupancy
  Li  Li0  1  -0.59627360  -0.86826331  -0.08945802  1.0
  Li  Li1  1  -0.40372640  -0.13173669  -0.91054198  1.0
  Li  Li2  1  -0.23624307  -0.67979568  -0.93861670  1.0
  Li  Li3  1  -0.76375693  -0.32020432  -0.06138330  1.0
  Li  Li4  1  -0.57690924  -0.34352595  -0.61443321  1.0
  Li  Li5  1  -0.42309076  -0.65647405  -0.38556679  1.0
  Li  Li6  1  -0.90877621  -0.27068518  -0.52026409  1.0
  Li  Li7  1  -0.09122379  -0.72931482  -0.47973591  1.0
  Ge  Ge8  1  -0.40662456  -0.88127052  -0.64776649  1.0
  Ge  Ge9  1  -0.59337544  -0.11872948  -0.35223351  1.0
  Ge  Ge10  1  -0.74418101  -0.81075540  -0.56524932  1.0
  Ge  Ge11  1  -0.25581899  -0.18924460  -0.43475068  1.0
  Ge  Ge12  1  -0.90169263  -0.80007943  -0.81634507  1.0
  Ge  Ge13  1  -0.09830737  -0.19992057  -0.18365493  1.0
  Ge  Ge14  1  -0.90259525  -0.74686099  -0.23334755  1.0
  Ge  Ge15  1  -0.09740475  -0.25313901  -0.76665245  1.0
  Ge  Ge16  1  -0.57822765  -0.59014646  -0.85481323  1.0
  Ge  Ge17  1  -0.42177235  -0.40985354  -0.14518677  1.0
  O  O18  1  -0.73922236  -0.95598347  -0.19812259  1.0
  O  O19  1  -0.26077764  -0.04401653  -0.80187741  1.0
  O  O20  1  -0.56837314  -0.94698965  -0.72392911  1.0
  O  O21  1  -0.43162686  -0.05301035  -0.27607089  1.0
  O  O22  1  -0.89906651  -0.89484858  -0.63208988  1.0
  O  O23  1  -0.10093349  -0.10515142  -0.36791012  1.0
  O  O24  1  -0.26868748  -0.85095437  -0.54885429  1.0
  O  O25  1  -0.73131252  -0.14904563  -0.45114571  1.0
  O  O26  1  -0.57690166  -0.76683576  -0.48680625  1.0
  O  O27  1  -0.42309834  -0.23316424  -0.51319375  1.0
  O  O28  1  -0.73725713  -0.67695778  -0.93139323  1.0
  O  O29  1  -0.26274287  -0.32304222  -0.06860677  1.0
  O  O30  1  -0.89910640  -0.65397622  -0.41923363  1.0
  O  O31  1  -0.10089360  -0.34602378  -0.58076637  1.0
  O  O32  1  -0.42014925  -0.55363683  -0.77037165  1.0
  O  O33  1  -0.57985075  -0.44636317  -0.22962835  1.0
  O  O34  1  -0.72682881  -0.48625331  -0.68986036  1.0
  O  O35  1  -0.27317119  -0.51374669  -0.31013964  1.0
  O  O36  1  -0.93749862  -0.44766248  -0.16075950  1.0
  O  O37  1  -0.06250138  -0.55233752  -0.83924050  1.0
  O  O38  1  -0.56557328  -0.26582882  -0.98562771  1.0
  O  O39  1  -0.43442672  -0.73417118  -0.01437229  1.0
  O  O40  1  -0.93767042  -0.08325966  -0.86997306  1.0
  O  O41  1  -0.06232958  -0.91674034  -0.13002694  1.0
