# generated using pymatgen
data_Ca3BI3N2
_symmetry_space_group_name_H-M   'P 1'
_cell_length_a   10.60328076
_cell_length_b   10.60328076
_cell_length_c   10.60328076
_cell_angle_alpha   105.35717570
_cell_angle_beta   105.35717570
_cell_angle_gamma   105.35717570
_symmetry_Int_Tables_number   1
_chemical_formula_structural   Ca3BI3N2
_chemical_formula_sum   'Ca12 B4 I12 N8'
_cell_volume   1034.08380009
_cell_formula_units_Z   4
loop_
 _symmetry_equiv_pos_site_id
 _symmetry_equiv_pos_as_xyz
  1  'x, y, z'
loop_
 _atom_site_type_symbol
 _atom_site_label
 _atom_site_symmetry_multiplicity
 _atom_site_fract_x
 _atom_site_fract_y
 _atom_site_fract_z
 _atom_site_occupancy
  Ca  Ca0  1  1.76427170  -0.02233452  0.73543608  1.0
  Ca  Ca1  1  0.26456392  1.02233452  -0.76427170  1.0
  Ca  Ca2  1  1.02233452  0.23572830  -0.73543608  1.0
  Ca  Ca3  1  0.23572830  0.26456392  0.02233452  1.0
  Ca  Ca4  1  1.73543608  0.76427170  -0.02233452  1.0
  Ca  Ca5  1  0.97766548  0.73543608  0.76427170  1.0
  Ca  Ca6  1  1.22076865  0.50000000  -0.22076865  1.0
  Ca  Ca7  1  0.50000000  0.77923135  0.22076865  1.0
  Ca  Ca8  1  0.77923135  0.22076865  0.50000000  1.0
  Ca  Ca9  1  1.01550169  0.50000000  -0.01550169  1.0
  Ca  Ca10  1  0.50000000  0.98449831  0.01550169  1.0
  Ca  Ca11  1  0.98449831  0.01550169  0.50000000  1.0
  B  B12  1  0.76306397  -0.00000000  0.23693603  1.0
  B  B13  1  1.00000000  0.23693603  -0.23693603  1.0
  B  B14  1  1.23693603  -0.23693603  0.00000000  1.0
  B  B15  1  0.00000000  0.00000000  0.00000000  1.0
  I  I16  1  1.47405242  0.75064642  -0.26283176  1.0
  I  I17  1  1.26283176  0.24935358  -0.47405242  1.0
  I  I18  1  1.24935358  -0.47405242  0.26283176  1.0
  I  I19  1  0.52594758  0.26283176  0.24935358  1.0
  I  I20  1  0.73716824  1.47405242  -0.24935358  1.0
  I  I21  1  0.75064642  0.73716824  0.47405242  1.0
  I  I22  1  0.50465722  1.00000000  -0.50465722  1.0
  I  I23  1  1.00000000  0.49534278  -0.49534278  1.0
  I  I24  1  0.49534278  0.50465722  0.00000000  1.0
  I  I25  1  1.22592908  -0.00000000  -0.22592908  1.0
  I  I26  1  1.00000000  -0.22592908  0.22592908  1.0
  I  I27  1  0.77407092  0.22592908  0.00000000  1.0
  N  N28  1  0.65464890  0.89575583  0.13040698  1.0
  N  N29  1  0.86959302  0.10424417  0.34535110  1.0
  N  N30  1  1.10424417  0.34535110  -0.13040698  1.0
  N  N31  1  1.34535110  -0.13040698  0.10424417  1.0
  N  N32  1  1.13040698  0.65464890  -0.10424417  1.0
  N  N33  1  0.89575583  1.13040698  -0.34535110  1.0
  N  N34  1  0.89275624  0.89275624  0.89275624  1.0
  N  N35  1  0.10724376  0.10724376  0.10724376  1.0
