# generated using pymatgen
data_MoPRu
_symmetry_space_group_name_H-M   'P 1'
_cell_length_a   6.02661544
_cell_length_b   3.89050482
_cell_length_c   6.97635495
_cell_angle_alpha   90.00000000
_cell_angle_beta   90.00000000
_cell_angle_gamma   90.00000000
_symmetry_Int_Tables_number   1
_chemical_formula_structural   MoPRu
_chemical_formula_sum   'Mo4 P4 Ru4'
_cell_volume   163.57163968
_cell_formula_units_Z   4
loop_
 _symmetry_equiv_pos_site_id
 _symmetry_equiv_pos_as_xyz
  1  'x, y, z'
loop_
 _atom_site_type_symbol
 _atom_site_label
 _atom_site_symmetry_multiplicity
 _atom_site_fract_x
 _atom_site_fract_y
 _atom_site_fract_z
 _atom_site_occupancy
  Mo  Mo0  1  0.97436489  0.75000000  0.66997292  1.0
  Mo  Mo1  1  0.47436489  0.75000000  0.83002708  1.0
  Mo  Mo2  1  0.02563511  0.25000000  0.33002708  1.0
  Mo  Mo3  1  0.52563511  0.25000000  0.16997292  1.0
  P  P4  1  0.74542059  0.75000000  0.38384173  1.0
  P  P5  1  0.24542059  0.75000000  0.11615827  1.0
  P  P6  1  0.25457941  0.25000000  0.61615827  1.0
  P  P7  1  0.75457941  0.25000000  0.88384173  1.0
  Ru  Ru8  1  0.85947846  0.75000000  0.06867356  1.0
  Ru  Ru9  1  0.35947846  0.75000000  0.43132644  1.0
  Ru  Ru10  1  0.14052154  0.25000000  0.93132644  1.0
  Ru  Ru11  1  0.64052154  0.25000000  0.56867356  1.0
