# generated using pymatgen
data_CsSi
_symmetry_space_group_name_H-M   'P 1'
_cell_length_a   12.35540649
_cell_length_b   12.35540649
_cell_length_c   12.35540649
_cell_angle_alpha   124.75253414
_cell_angle_beta   124.75253414
_cell_angle_gamma   81.94832271
_symmetry_Int_Tables_number   1
_chemical_formula_structural   CsSi
_chemical_formula_sum   'Cs16 Si16'
_cell_volume   1224.57719932
_cell_formula_units_Z   16
loop_
 _symmetry_equiv_pos_site_id
 _symmetry_equiv_pos_as_xyz
  1  'x, y, z'
loop_
 _atom_site_type_symbol
 _atom_site_label
 _atom_site_symmetry_multiplicity
 _atom_site_fract_x
 _atom_site_fract_y
 _atom_site_fract_z
 _atom_site_occupancy
  Cs  Cs0  1  0.76426461  1.37500000  0.88926461  1.0
  Cs  Cs1  1  1.26426461  1.37500000  1.38926461  1.0
  Cs  Cs2  1  1.62500000  1.51426461  1.38926461  1.0
  Cs  Cs3  1  1.12500000  1.73573539  1.11073539  1.0
  Cs  Cs4  1  0.98573539  0.87500000  0.61073539  1.0
  Cs  Cs5  1  1.48573539  0.87500000  1.11073539  1.0
  Cs  Cs6  1  1.62500000  1.01426461  0.88926461  1.0
  Cs  Cs7  1  1.12500000  1.23573539  0.61073539  1.0
  Cs  Cs8  1  0.87158207  0.87158207  0.24316414  1.0
  Cs  Cs9  1  1.37158207  1.12841793  1.00000000  1.0
  Cs  Cs10  1  0.12158207  0.62158207  0.74316414  1.0
  Cs  Cs11  1  0.62158207  0.87841793  1.50000000  1.0
  Cs  Cs12  1  0.87841793  0.37841793  1.25683586  1.0
  Cs  Cs13  1  0.37841793  0.12158207  0.50000000  1.0
  Cs  Cs14  1  1.62841793  1.62841793  1.75683586  1.0
  Cs  Cs15  1  1.12841793  1.37158207  1.00000000  1.0
  Si  Si16  1  1.51064297  1.36389120  0.96719324  1.0
  Si  Si17  1  1.01064297  1.04344973  0.14675176  1.0
  Si  Si18  1  1.61389120  1.26064297  1.46719324  1.0
  Si  Si19  1  1.11389120  1.64669796  1.35324824  1.0
  Si  Si20  1  1.23935703  0.88610880  0.53280676  1.0
  Si  Si21  1  1.73935703  1.20655027  1.35324824  1.0
  Si  Si22  1  0.13610880  0.98935703  1.03280676  1.0
  Si  Si23  1  0.63610880  0.60330204  1.14675176  1.0
  Si  Si24  1  1.89669796  1.86389120  1.85324824  1.0
  Si  Si25  1  1.39669796  1.54344973  1.03280676  1.0
  Si  Si26  1  1.29344973  0.76064297  0.64675176  1.0
  Si  Si27  1  0.79344973  1.14669796  0.53280676  1.0
  Si  Si28  1  0.85330204  1.38610880  0.64675176  1.0
  Si  Si29  1  1.35330204  1.70655027  1.46719324  1.0
  Si  Si30  1  0.45655027  0.48935703  0.85324824  1.0
  Si  Si31  1  0.95655027  0.10330204  0.96719324  1.0
