# generated using pymatgen
data_Zr13Mn4
_symmetry_space_group_name_H-M   'P 1'
_cell_length_a   10.84440191
_cell_length_b   10.84440191
_cell_length_c   10.84440191
_cell_angle_alpha   60.00000000
_cell_angle_beta   60.00000000
_cell_angle_gamma   60.00000000
_symmetry_Int_Tables_number   1
_chemical_formula_structural   Zr13Mn4
_chemical_formula_sum   'Zr26 Mn8'
_cell_volume   901.78252764
_cell_formula_units_Z   2
loop_
 _symmetry_equiv_pos_site_id
 _symmetry_equiv_pos_as_xyz
  1  'x, y, z'
loop_
 _atom_site_type_symbol
 _atom_site_label
 _atom_site_symmetry_multiplicity
 _atom_site_fract_x
 _atom_site_fract_y
 _atom_site_fract_z
 _atom_site_occupancy
  Zr  Zr0  1  0.94654012  -0.57449626  0.68141601  1.0
  Zr  Zr1  1  -0.05345988  0.68141601  0.42550374  1.0
  Zr  Zr2  1  -0.17550374  0.30345988  0.30345988  1.0
  Zr  Zr3  1  0.56858399  0.30345988  0.30345988  1.0
  Zr  Zr4  1  -0.57449626  0.94654012  0.68141601  1.0
  Zr  Zr5  1  0.94654012  -0.05345988  0.68141601  1.0
  Zr  Zr6  1  0.94654012  -0.31858399  0.94654012  1.0
  Zr  Zr7  1  -0.57449626  0.68141601  0.94654012  1.0
  Zr  Zr8  1  0.30345988  -0.17550374  0.30345988  1.0
  Zr  Zr9  1  0.30345988  0.30345988  -0.17550374  1.0
  Zr  Zr10  1  0.56858399  0.30345988  -0.17550374  1.0
  Zr  Zr11  1  0.56858399  -0.17550374  0.30345988  1.0
  Zr  Zr12  1  0.68141601  -0.05345988  0.94654012  1.0
  Zr  Zr13  1  -0.57449626  0.94654012  0.94654012  1.0
  Zr  Zr14  1  0.30345988  0.56858399  -0.17550374  1.0
  Zr  Zr15  1  0.30345988  -0.17550374  0.56858399  1.0
  Zr  Zr16  1  -0.31858399  0.94654012  0.42550374  1.0
  Zr  Zr17  1  0.68141601  -0.57449626  0.94654012  1.0
  Zr  Zr18  1  0.94654012  -0.57449626  0.94654012  1.0
  Zr  Zr19  1  -0.05345988  0.94654012  0.42550374  1.0
  Zr  Zr20  1  0.30345988  0.56858399  0.30345988  1.0
  Zr  Zr21  1  -0.17550374  0.56858399  0.30345988  1.0
  Zr  Zr22  1  -0.17550374  0.30345988  0.56858399  1.0
  Zr  Zr23  1  0.30345988  0.30345988  0.56858399  1.0
  Zr  Zr24  1  0.50000000  0.50000000  -0.50000000  1.0
  Zr  Zr25  1  0.75000000  -0.25000000  0.75000000  1.0
  Mn  Mn26  1  0.65959526  -0.34040474  1.02121421  1.0
  Mn  Mn27  1  0.65959526  0.02121421  0.65959526  1.0
  Mn  Mn28  1  0.59040474  -0.40959526  0.59040474  1.0
  Mn  Mn29  1  1.22878579  -0.40959526  0.59040474  1.0
  Mn  Mn30  1  1.02121421  -0.34040474  0.65959526  1.0
  Mn  Mn31  1  0.65959526  -0.34040474  0.65959526  1.0
  Mn  Mn32  1  0.59040474  0.22878579  0.59040474  1.0
  Mn  Mn33  1  0.59040474  -0.40959526  1.22878579  1.0
