# generated using pymatgen
data_Mn5SiB2
_symmetry_space_group_name_H-M   'P 1'
_cell_length_a   6.47587132
_cell_length_b   6.47587132
_cell_length_c   6.47587132
_cell_angle_alpha   129.19441345
_cell_angle_beta   129.19441345
_cell_angle_gamma   74.69795484
_symmetry_Int_Tables_number   1
_chemical_formula_structural   Mn5SiB2
_chemical_formula_sum   'Mn10 Si2 B4'
_cell_volume   158.91675236
_cell_formula_units_Z   2
loop_
 _symmetry_equiv_pos_site_id
 _symmetry_equiv_pos_as_xyz
  1  'x, y, z'
loop_
 _atom_site_type_symbol
 _atom_site_label
 _atom_site_symmetry_multiplicity
 _atom_site_fract_x
 _atom_site_fract_y
 _atom_site_fract_z
 _atom_site_occupancy
  Mn  Mn0  1  1.19605285  0.69605285  1.16512862  1.0
  Mn  Mn1  1  0.46907577  0.96907577  1.16512862  1.0
  Mn  Mn2  1  1.03092423  1.19605285  1.50000000  1.0
  Mn  Mn3  1  0.30394715  0.46907577  0.50000000  1.0
  Mn  Mn4  1  0.69605285  0.53092423  0.50000000  1.0
  Mn  Mn5  1  0.96907577  0.80394715  1.50000000  1.0
  Mn  Mn6  1  0.53092423  1.03092423  0.83487138  1.0
  Mn  Mn7  1  0.80394715  0.30394715  0.83487138  1.0
  Mn  Mn8  1  0.00000000  0.00000000  0.00000000  1.0
  Mn  Mn9  1  0.50000000  0.50000000  1.00000000  1.0
  Si  Si10  1  0.75000000  0.75000000  1.00000000  1.0
  Si  Si11  1  0.25000000  0.25000000  0.00000000  1.0
  B  B12  1  0.87968532  0.37968532  1.25937063  1.0
  B  B13  1  0.62031468  0.87968532  1.50000000  1.0
  B  B14  1  0.37968532  0.12031468  0.50000000  1.0
  B  B15  1  0.12031468  0.62031468  0.74062937  1.0
