# generated using pymatgen
data_RbTi2(PO4)3
_symmetry_space_group_name_H-M   'P 1'
_cell_length_a   9.31352435
_cell_length_b   9.31352435
_cell_length_c   9.31352435
_cell_angle_alpha   53.92882399
_cell_angle_beta   53.92882399
_cell_angle_gamma   53.92882399
_symmetry_Int_Tables_number   1
_chemical_formula_structural   RbTi2(PO4)3
_chemical_formula_sum   'Rb2 Ti4 P6 O24'
_cell_volume   490.22229389
_cell_formula_units_Z   2
loop_
 _symmetry_equiv_pos_site_id
 _symmetry_equiv_pos_as_xyz
  1  'x, y, z'
loop_
 _atom_site_type_symbol
 _atom_site_label
 _atom_site_symmetry_multiplicity
 _atom_site_fract_x
 _atom_site_fract_y
 _atom_site_fract_z
 _atom_site_occupancy
  Rb  Rb0  1  0.00264305  0.00264305  0.00264305  1.0
  Rb  Rb1  1  0.50264489  0.50264489  -0.49735511  1.0
  Ti  Ti2  1  0.85176790  -0.14823210  -0.14823210  1.0
  Ti  Ti3  1  0.65351234  0.65351234  -0.34648766  1.0
  Ti  Ti4  1  0.35177198  0.35177198  -0.64822802  1.0
  Ti  Ti5  1  0.15351571  0.15351571  0.15351571  1.0
  P  P6  1  0.75264275  -0.52720148  0.03248591  1.0
  P  P7  1  1.03248591  -0.24735725  -0.52720148  1.0
  P  P8  1  0.47279852  0.03248591  -0.24735725  1.0
  P  P9  1  0.25264884  0.53248135  -0.02720929  1.0
  P  P10  1  0.97279071  0.25264884  -0.46751865  1.0
  P  P11  1  0.53248135  0.97279071  -0.74735116  1.0
  O  O12  1  0.70082449  -0.06760408  0.07037673  1.0
  O  O13  1  1.07037673  -0.29917551  -0.06760408  1.0
  O  O14  1  0.93239592  0.07037673  -0.29917551  1.0
  O  O15  1  0.43488081  0.57293412  -0.19558535  1.0
  O  O16  1  0.80441465  0.43488081  -0.42706588  1.0
  O  O17  1  0.57293412  0.80441465  -0.56511919  1.0
  O  O18  1  0.74146463  -0.34459990  0.01430477  1.0
  O  O19  1  1.01430477  -0.25853537  -0.34459990  1.0
  O  O20  1  0.65540010  0.01430477  -0.25853537  1.0
  O  O21  1  0.76377399  -0.50902917  -0.15008767  1.0
  O  O22  1  0.84991233  -0.23622601  -0.50902917  1.0
  O  O23  1  0.49097083  -0.15008767  -0.23622601  1.0
  O  O24  1  0.57041471  0.43233825  -0.79913561  1.0
  O  O25  1  0.20086439  0.57041471  -0.56766175  1.0
  O  O26  1  0.43233825  0.20086439  -0.42958529  1.0
  O  O27  1  1.24153187  -0.48569891  0.15536002  1.0
  O  O28  1  1.15536002  0.24153187  -0.48569891  1.0
  O  O29  1  0.51430109  0.15536002  0.24153187  1.0
  O  O30  1  0.26381913  0.34988564  -0.00903034  1.0
  O  O31  1  0.99096966  0.26381913  -0.65011436  1.0
  O  O32  1  0.34988564  0.99096966  -0.73618087  1.0
  O  O33  1  0.30445949  0.07288582  -0.06508742  1.0
  O  O34  1  0.93491258  0.30445949  -0.92711418  1.0
  O  O35  1  0.07288582  0.93491258  -0.69554051  1.0
