# generated using pymatgen
data_Te2P2O9
_symmetry_space_group_name_H-M   'P 1'
_cell_length_a   7.51593640
_cell_length_b   7.51593640
_cell_length_c   9.90404536
_cell_angle_alpha   85.59571103
_cell_angle_beta   94.40428897
_cell_angle_gamma   42.64415993
_symmetry_Int_Tables_number   1
_chemical_formula_structural   Te2P2O9
_chemical_formula_sum   'Te4 P4 O18'
_cell_volume   370.46163523
_cell_formula_units_Z   2
loop_
 _symmetry_equiv_pos_site_id
 _symmetry_equiv_pos_as_xyz
  1  'x, y, z'
loop_
 _atom_site_type_symbol
 _atom_site_label
 _atom_site_symmetry_multiplicity
 _atom_site_fract_x
 _atom_site_fract_y
 _atom_site_fract_z
 _atom_site_occupancy
  Te  Te0  1  0.58094826  -0.51559885  0.61187444  1.0
  Te  Te1  1  0.51559885  0.41905174  0.11187444  1.0
  Te  Te2  1  1.02042458  -0.59497952  0.87045664  1.0
  Te  Te3  1  0.59497952  -0.02042458  0.37045664  1.0
  P  P4  1  0.82970616  -0.19597331  0.07540000  1.0
  P  P5  1  0.19597331  0.17029384  0.57540000  1.0
  P  P6  1  0.97020781  -0.16910134  0.66268081  1.0
  P  P7  1  0.16910134  0.02979219  0.16268081  1.0
  O  O8  1  0.90295759  -0.10172053  0.50156894  1.0
  O  O9  1  0.10172053  0.09704241  0.00156894  1.0
  O  O10  1  0.85405625  -0.26059912  0.71657023  1.0
  O  O11  1  0.26059912  0.14594375  0.21657023  1.0
  O  O12  1  0.69036044  -0.48001261  0.78806049  1.0
  O  O13  1  0.48001261  0.30963956  0.28806049  1.0
  O  O14  1  1.09555819  -0.32763646  0.03257147  1.0
  O  O15  1  0.32763646  -0.09555819  0.53257147  1.0
  O  O16  1  0.88574760  -0.59738286  0.52053121  1.0
  O  O17  1  0.59738286  0.11425240  0.02053121  1.0
  O  O18  1  1.28008648  -0.39969118  0.71829874  1.0
  O  O19  1  0.39969118  -0.28008648  0.21829874  1.0
  O  O20  1  0.84675974  0.08421489  0.71942023  1.0
  O  O21  1  0.91578511  -0.84675974  0.21942023  1.0
  O  O22  1  0.31622733  0.24746940  0.50517081  1.0
  O  O23  1  0.75253060  -0.31622733  0.00517081  1.0
  O  O24  1  0.25086932  0.13192124  0.73549599  1.0
  O  O25  1  0.86807876  -0.25086932  0.23549599  1.0
