# generated using pymatgen
data_GaPO4
_symmetry_space_group_name_H-M   'P 1'
_cell_length_a   5.02375211
_cell_length_b   5.02375211
_cell_length_c   7.02352361
_cell_angle_alpha   90.00000000
_cell_angle_beta   90.00000000
_cell_angle_gamma   90.22537325
_symmetry_Int_Tables_number   1
_chemical_formula_structural   GaPO4
_chemical_formula_sum   'Ga2 P2 O8'
_cell_volume   177.25891670
_cell_formula_units_Z   2
loop_
 _symmetry_equiv_pos_site_id
 _symmetry_equiv_pos_as_xyz
  1  'x, y, z'
loop_
 _atom_site_type_symbol
 _atom_site_label
 _atom_site_symmetry_multiplicity
 _atom_site_fract_x
 _atom_site_fract_y
 _atom_site_fract_z
 _atom_site_occupancy
  Ga  Ga0  1  0.31092731  1.31092731  -0.00000000  1.0
  Ga  Ga1  1  -0.31092731  0.68907269  0.50000000  1.0
  P  P2  1  -0.18591226  0.18591226  0.25000000  1.0
  P  P3  1  -0.81408774  0.81408774  0.75000000  1.0
  O  O4  1  0.11549837  1.23534388  0.21516363  1.0
  O  O5  1  -0.23534388  0.88450163  0.28483637  1.0
  O  O6  1  0.23534388  1.11549837  0.78483637  1.0
  O  O7  1  -0.11549837  0.76465612  0.71516363  1.0
  O  O8  1  0.27531879  1.66417282  0.93201785  1.0
  O  O9  1  -0.66417282  0.72468121  0.56798215  1.0
  O  O10  1  0.66417282  1.27531879  0.06798215  1.0
  O  O11  1  -0.27531879  0.33582718  0.43201785  1.0
