# generated using pymatgen
data_Cs3Sm2Br9
_symmetry_space_group_name_H-M   'P 1'
_cell_length_a   10.56530412
_cell_length_b   10.56530412
_cell_length_c   10.56530412
_cell_angle_alpha   83.05137167
_cell_angle_beta   83.05137167
_cell_angle_gamma   83.05137167
_symmetry_Int_Tables_number   1
_chemical_formula_structural   Cs3Sm2Br9
_chemical_formula_sum   'Cs6 Sm4 Br18'
_cell_volume   1155.31033694
_cell_formula_units_Z   2
loop_
 _symmetry_equiv_pos_site_id
 _symmetry_equiv_pos_as_xyz
  1  'x, y, z'
loop_
 _atom_site_type_symbol
 _atom_site_label
 _atom_site_symmetry_multiplicity
 _atom_site_fract_x
 _atom_site_fract_y
 _atom_site_fract_z
 _atom_site_occupancy
  Cs  Cs0  1  0.58840642  0.25000000  -0.08840642  1.0
  Cs  Cs1  1  1.08840642  -0.58840642  -0.25000000  1.0
  Cs  Cs2  1  0.75000000  0.08840642  -0.58840642  1.0
  Cs  Cs3  1  0.25000000  0.91159358  -0.41159358  1.0
  Cs  Cs4  1  0.41159358  -0.25000000  0.08840642  1.0
  Cs  Cs5  1  0.91159358  -0.41159358  0.25000000  1.0
  Sm  Sm6  1  0.34841723  0.34841723  -0.65158277  1.0
  Sm  Sm7  1  0.84841723  0.84841723  -0.15158277  1.0
  Sm  Sm8  1  1.15158277  1.15158277  0.15158277  1.0
  Sm  Sm9  1  0.65158277  0.65158277  -0.34841723  1.0
  Br  Br10  1  0.23332284  0.58572786  -0.57946929  1.0
  Br  Br11  1  0.73332284  -0.07946929  0.08572786  1.0
  Br  Br12  1  1.07946929  -0.08572786  -0.73332284  1.0
  Br  Br13  1  0.57946929  0.76667716  -0.58572786  1.0
  Br  Br14  1  0.41427214  0.57946929  -0.23332284  1.0
  Br  Br15  1  0.91427214  -0.73332284  0.07946929  1.0
  Br  Br16  1  0.76667716  0.41427214  -0.42053071  1.0
  Br  Br17  1  0.26667716  0.07946929  -0.08572786  1.0
  Br  Br18  1  0.42053071  0.23332284  -0.41427214  1.0
  Br  Br19  1  0.92053071  0.08572786  -0.26667716  1.0
  Br  Br20  1  1.08572786  -0.26667716  -0.07946929  1.0
  Br  Br21  1  0.58572786  0.42053071  -0.76667716  1.0
  Br  Br22  1  1.09368663  1.25000000  0.40631337  1.0
  Br  Br23  1  0.59368663  0.90631337  -0.25000000  1.0
  Br  Br24  1  0.75000000  0.59368663  -0.09368663  1.0
  Br  Br25  1  1.25000000  1.40631337  0.09368663  1.0
  Br  Br26  1  0.90631337  0.75000000  -0.40631337  1.0
  Br  Br27  1  1.40631337  1.09368663  0.25000000  1.0
