# generated using pymatgen
data_Ca2MnAl2Si3HO13
_symmetry_space_group_name_H-M   'P 1'
_cell_length_a   8.90990660
_cell_length_b   5.77012635
_cell_length_c   10.22447258
_cell_angle_alpha   90.00000000
_cell_angle_beta   115.76756484
_cell_angle_gamma   90.00000000
_symmetry_Int_Tables_number   1
_chemical_formula_structural   Ca2MnAl2Si3HO13
_chemical_formula_sum   'Ca4 Mn2 Al4 Si6 H2 O26'
_cell_volume   473.38496302
_cell_formula_units_Z   2
loop_
 _symmetry_equiv_pos_site_id
 _symmetry_equiv_pos_as_xyz
  1  'x, y, z'
loop_
 _atom_site_type_symbol
 _atom_site_label
 _atom_site_symmetry_multiplicity
 _atom_site_fract_x
 _atom_site_fract_y
 _atom_site_fract_z
 _atom_site_occupancy
  Ca  Ca0  1  0.74896618  0.25000000  0.14925070  1.0
  Ca  Ca1  1  0.25103382  0.75000000  0.85074930  1.0
  Ca  Ca2  1  0.59540122  0.25000000  0.42730171  1.0
  Ca  Ca3  1  0.40459878  0.75000000  0.57269829  1.0
  Mn  Mn4  1  0.29676516  0.75000000  0.22458592  1.0
  Mn  Mn5  1  0.70323484  0.25000000  0.77541408  1.0
  Al  Al6  1  0.00000000  0.00000000  0.00000000  1.0
  Al  Al7  1  0.00000000  0.50000000  0.00000000  1.0
  Al  Al8  1  0.00000000  0.00000000  0.50000000  1.0
  Al  Al9  1  0.00000000  0.50000000  0.50000000  1.0
  Si  Si10  1  0.33904515  0.25000000  0.04532771  1.0
  Si  Si11  1  0.66095485  0.75000000  0.95467229  1.0
  Si  Si12  1  0.68349028  0.75000000  0.27193854  1.0
  Si  Si13  1  0.31650972  0.25000000  0.72806146  1.0
  Si  Si14  1  0.18684607  0.25000000  0.31941455  1.0
  Si  Si15  1  0.81315393  0.75000000  0.68058545  1.0
  H  H16  1  0.06214475  0.75000000  0.33173304  1.0
  H  H17  1  0.93785525  0.25000000  0.66826696  1.0
  O  O18  1  0.22850483  0.01065340  0.02983618  1.0
  O  O19  1  0.77149517  0.51065340  0.97016382  1.0
  O  O20  1  0.77149517  0.98934660  0.97016382  1.0
  O  O21  1  0.22850483  0.48934660  0.02983618  1.0
  O  O22  1  0.30956010  0.02221595  0.35774488  1.0
  O  O23  1  0.69043990  0.52221595  0.64225512  1.0
  O  O24  1  0.69043990  0.97778405  0.64225512  1.0
  O  O25  1  0.30956010  0.47778405  0.35774488  1.0
  O  O26  1  0.79821356  0.98201556  0.33239116  1.0
  O  O27  1  0.20178644  0.48201556  0.66760884  1.0
  O  O28  1  0.20178644  0.01798444  0.66760884  1.0
  O  O29  1  0.79821356  0.51798444  0.33239116  1.0
  O  O30  1  0.06286298  0.75000000  0.13331624  1.0
  O  O31  1  0.93713702  0.25000000  0.86668376  1.0
  O  O32  1  0.04475639  0.25000000  0.14458596  1.0
  O  O33  1  0.95524361  0.75000000  0.85541404  1.0
  O  O34  1  0.07099140  0.25000000  0.40999320  1.0
  O  O35  1  0.92900860  0.75000000  0.59000680  1.0
  O  O36  1  0.51154038  0.25000000  0.18707580  1.0
  O  O37  1  0.48845962  0.75000000  0.81292420  1.0
  O  O38  1  0.52936969  0.75000000  0.31643303  1.0
  O  O39  1  0.47063031  0.25000000  0.68356697  1.0
  O  O40  1  0.60743420  0.75000000  0.09207969  1.0
  O  O41  1  0.39256580  0.25000000  0.90792031  1.0
  O  O42  1  0.09121834  0.75000000  0.43605264  1.0
  O  O43  1  0.90878166  0.25000000  0.56394736  1.0
