# generated using pymatgen
data_P3Ru
_symmetry_space_group_name_H-M   'P 1'
_cell_length_a   5.91801839
_cell_length_b   8.14484320
_cell_length_c   5.97527056
_cell_angle_alpha   68.67837825
_cell_angle_beta   72.60976103
_cell_angle_gamma   70.27047359
_symmetry_Int_Tables_number   1
_chemical_formula_structural   P3Ru
_chemical_formula_sum   'P12 Ru4'
_cell_volume   247.40490756
_cell_formula_units_Z   4
loop_
 _symmetry_equiv_pos_site_id
 _symmetry_equiv_pos_as_xyz
  1  'x, y, z'
loop_
 _atom_site_type_symbol
 _atom_site_label
 _atom_site_symmetry_multiplicity
 _atom_site_fract_x
 _atom_site_fract_y
 _atom_site_fract_z
 _atom_site_occupancy
  P  P0  1  -0.82237332  -0.73431801  -0.33601670  1.0
  P  P1  1  -0.17762668  -0.26568199  -0.66398330  1.0
  P  P2  1  -0.81754220  -0.55956201  -0.94661142  1.0
  P  P3  1  -0.18245780  -0.44043799  -0.05338858  1.0
  P  P4  1  -0.69324753  -0.94775236  -0.52904869  1.0
  P  P5  1  -0.30675247  -0.05224764  -0.47095131  1.0
  P  P6  1  -0.67031252  -0.18127635  -0.91756013  1.0
  P  P7  1  -0.32968748  -0.81872365  -0.08243987  1.0
  P  P8  1  -0.34792053  -0.58484865  -0.68205798  1.0
  P  P9  1  -0.65207947  -0.41515135  -0.31794202  1.0
  P  P10  1  -0.15962024  -0.84205084  -0.78255110  1.0
  P  P11  1  -0.84037976  -0.15794916  -0.21744890  1.0
  Ru  Ru12  1  -0.77694396  -0.45645192  -0.63418610  1.0
  Ru  Ru13  1  -0.22305604  -0.54354808  -0.36581390  1.0
  Ru  Ru14  1  -0.72752518  -0.87205395  -0.93061591  1.0
  Ru  Ru15  1  -0.27247482  -0.12794605  -0.06938409  1.0
