# generated using pymatgen
data_Rb2Cd5As4
_symmetry_space_group_name_H-M   'P 1'
_cell_length_a   7.42070791
_cell_length_b   7.42070791
_cell_length_c   12.69376278
_cell_angle_alpha   90.00000000
_cell_angle_beta   90.00000000
_cell_angle_gamma   63.15811563
_symmetry_Int_Tables_number   1
_chemical_formula_structural   Rb2Cd5As4
_chemical_formula_sum   'Rb4 Cd10 As8'
_cell_volume   623.69249691
_cell_formula_units_Z   2
loop_
 _symmetry_equiv_pos_site_id
 _symmetry_equiv_pos_as_xyz
  1  'x, y, z'
loop_
 _atom_site_type_symbol
 _atom_site_label
 _atom_site_symmetry_multiplicity
 _atom_site_fract_x
 _atom_site_fract_y
 _atom_site_fract_z
 _atom_site_occupancy
  Rb  Rb0  1  0.79639016  0.79639016  0.50000000  1.0
  Rb  Rb1  1  0.79639016  0.79639016  0.00000000  1.0
  Rb  Rb2  1  0.20360984  0.20360984  0.50000000  1.0
  Rb  Rb3  1  0.20360984  0.20360984  0.00000000  1.0
  Cd  Cd4  1  0.23648586  0.46663721  0.25000000  1.0
  Cd  Cd5  1  -0.53336279  1.23648586  0.75000000  1.0
  Cd  Cd6  1  0.53336279  0.76351414  0.25000000  1.0
  Cd  Cd7  1  -0.23648586  1.53336279  0.75000000  1.0
  Cd  Cd8  1  -0.34799020  1.34799020  0.39481200  1.0
  Cd  Cd9  1  -0.34799020  1.34799020  0.10518800  1.0
  Cd  Cd10  1  0.34799020  0.65200980  0.89481200  1.0
  Cd  Cd11  1  0.34799020  0.65200980  0.60518800  1.0
  Cd  Cd12  1  0.01011553  0.98988447  0.25000000  1.0
  Cd  Cd13  1  -0.01011553  1.01011553  0.75000000  1.0
  As  As14  1  -0.08951839  1.39897057  0.25000000  1.0
  As  As15  1  0.39897057  0.91048161  0.75000000  1.0
  As  As16  1  -0.39897057  1.08951839  0.25000000  1.0
  As  As17  1  0.08951839  0.60102943  0.75000000  1.0
  As  As18  1  0.28016580  0.71983420  0.39822666  1.0
  As  As19  1  0.28016580  0.71983420  0.10177334  1.0
  As  As20  1  -0.28016580  1.28016580  0.89822666  1.0
  As  As21  1  -0.28016580  1.28016580  0.60177334  1.0
