# generated using pymatgen
data_RbZr6CI14
_symmetry_space_group_name_H-M   'P 1'
_cell_length_a   11.19877237
_cell_length_b   11.19877237
_cell_length_c   12.98402424
_cell_angle_alpha   90.00000000
_cell_angle_beta   90.00000000
_cell_angle_gamma   88.51408064
_symmetry_Int_Tables_number   1
_chemical_formula_structural   RbZr6CI14
_chemical_formula_sum   'Rb2 Zr12 C2 I28'
_cell_volume   1627.81140301
_cell_formula_units_Z   2
loop_
 _symmetry_equiv_pos_site_id
 _symmetry_equiv_pos_as_xyz
  1  'x, y, z'
loop_
 _atom_site_type_symbol
 _atom_site_label
 _atom_site_symmetry_multiplicity
 _atom_site_fract_x
 _atom_site_fract_y
 _atom_site_fract_z
 _atom_site_occupancy
  Rb  Rb0  1  -0.00000000  1.00000000  0.50000000  1.0
  Rb  Rb1  1  -0.50000000  0.50000000  0.00000000  1.0
  Zr  Zr2  1  0.45308616  1.33937294  0.39180836  1.0
  Zr  Zr3  1  -0.04691384  0.83937294  0.10819164  1.0
  Zr  Zr4  1  0.33937294  1.45308616  0.60819164  1.0
  Zr  Zr5  1  -0.16062706  0.95308616  0.89180836  1.0
  Zr  Zr6  1  -0.33937294  0.54691384  0.39180836  1.0
  Zr  Zr7  1  0.16062706  1.04691384  0.10819164  1.0
  Zr  Zr8  1  -0.45308616  0.66062706  0.60819164  1.0
  Zr  Zr9  1  0.04691384  1.16062706  0.89180836  1.0
  Zr  Zr10  1  -0.12134592  1.12134592  0.09246806  1.0
  Zr  Zr11  1  0.37865408  0.62134592  0.40753194  1.0
  Zr  Zr12  1  0.12134592  0.87865408  0.90753194  1.0
  Zr  Zr13  1  -0.37865408  1.37865408  0.59246806  1.0
  C  C14  1  -0.50000000  0.50000000  0.50000000  1.0
  C  C15  1  -0.00000000  1.00000000  0.00000000  1.0
  I  I16  1  -0.40056362  1.15194862  0.49038428  1.0
  I  I17  1  0.09943638  0.65194862  0.00961572  1.0
  I  I18  1  0.15194862  0.59943638  0.50961572  1.0
  I  I19  1  -0.34805138  1.09943638  0.99038428  1.0
  I  I20  1  -0.15194862  1.40056362  0.49038428  1.0
  I  I21  1  0.34805138  0.90056362  0.00961572  1.0
  I  I22  1  0.40056362  0.84805138  0.50961572  1.0
  I  I23  1  -0.09943638  1.34805138  0.99038428  1.0
  I  I24  1  -0.21087650  0.96466959  0.24932284  1.0
  I  I25  1  0.28912350  1.46466959  0.25067716  1.0
  I  I26  1  -0.03533041  0.78912350  0.75067716  1.0
  I  I27  1  0.46466959  1.28912350  0.74932284  1.0
  I  I28  1  0.03533041  1.21087650  0.24932284  1.0
  I  I29  1  -0.46466959  0.71087650  0.25067716  1.0
  I  I30  1  0.21087650  1.03533041  0.75067716  1.0
  I  I31  1  -0.28912350  0.53533041  0.74932284  1.0
  I  I32  1  -0.35782951  1.35782951  0.23685363  1.0
  I  I33  1  0.14217049  0.85782951  0.26314637  1.0
  I  I34  1  0.35782951  0.64217049  0.76314637  1.0
  I  I35  1  -0.14217049  1.14217049  0.73685363  1.0
  I  I36  1  0.38800614  1.11199386  0.25000000  1.0
  I  I37  1  -0.11199386  0.61199386  0.25000000  1.0
  I  I38  1  0.11199386  1.38800614  0.75000000  1.0
  I  I39  1  -0.38800614  0.88800614  0.75000000  1.0
  I  I40  1  0.24958422  1.24958422  0.50000000  1.0
  I  I41  1  -0.25041578  0.74958422  0.00000000  1.0
  I  I42  1  -0.24958422  0.75041578  0.50000000  1.0
  I  I43  1  0.25041578  1.25041578  -0.00000000  1.0
