# generated using pymatgen
data_TiGe
_symmetry_space_group_name_H-M   'P 1'
_cell_length_a   4.65430830
_cell_length_b   7.51820503
_cell_length_c   3.70789128
_cell_angle_alpha   90.00000000
_cell_angle_beta   90.00000000
_cell_angle_gamma   90.00000000
_symmetry_Int_Tables_number   1
_chemical_formula_structural   TiGe
_chemical_formula_sum   'Ti4 Ge4'
_cell_volume   129.74669508
_cell_formula_units_Z   4
loop_
 _symmetry_equiv_pos_site_id
 _symmetry_equiv_pos_as_xyz
  1  'x, y, z'
loop_
 _atom_site_type_symbol
 _atom_site_label
 _atom_site_symmetry_multiplicity
 _atom_site_fract_x
 _atom_site_fract_y
 _atom_site_fract_z
 _atom_site_occupancy
  Ti  Ti0  1  0.50000000  0.00000000  0.46250074  1.0
  Ti  Ti1  1  0.00000000  0.00000000  -0.03750010  1.0
  Ti  Ti2  1  0.50000000  0.50000000  0.46250066  1.0
  Ti  Ti3  1  0.00000000  0.50000000  -0.03749967  1.0
  Ge  Ge4  1  0.50000000  0.75000228  -0.03750081  1.0
  Ge  Ge5  1  0.50000000  0.24999772  -0.03750081  1.0
  Ge  Ge6  1  0.00000000  0.75000272  0.46249999  1.0
  Ge  Ge7  1  0.00000000  0.24999728  0.46249999  1.0
