# generated using pymatgen
data_MoF6
_symmetry_space_group_name_H-M   'P 1'
_cell_length_a   10.28492341
_cell_length_b   9.35734485
_cell_length_c   5.35961336
_cell_angle_alpha   90.00000000
_cell_angle_beta   90.00000000
_cell_angle_gamma   90.00000000
_symmetry_Int_Tables_number   1
_chemical_formula_structural   MoF6
_chemical_formula_sum   'Mo4 F24'
_cell_volume   515.80691219
_cell_formula_units_Z   4
loop_
 _symmetry_equiv_pos_site_id
 _symmetry_equiv_pos_as_xyz
  1  'x, y, z'
loop_
 _atom_site_type_symbol
 _atom_site_label
 _atom_site_symmetry_multiplicity
 _atom_site_fract_x
 _atom_site_fract_y
 _atom_site_fract_z
 _atom_site_occupancy
  Mo  Mo0  1  0.13281396  0.75000000  0.94390280  1.0
  Mo  Mo1  1  0.63281396  0.75000000  0.55609720  1.0
  Mo  Mo2  1  0.86718604  0.25000000  0.05609720  1.0
  Mo  Mo3  1  0.36718604  0.25000000  0.44390280  1.0
  F  F4  1  0.02258652  0.75000000  0.21627986  1.0
  F  F5  1  0.52258652  0.75000000  0.28372014  1.0
  F  F6  1  0.97741348  0.25000000  0.78372014  1.0
  F  F7  1  0.47741348  0.25000000  0.71627986  1.0
  F  F8  1  0.74312148  0.75000000  0.82923177  1.0
  F  F9  1  0.24312148  0.75000000  0.67076823  1.0
  F  F10  1  0.25687852  0.25000000  0.17076823  1.0
  F  F11  1  0.75687852  0.25000000  0.32923177  1.0
  F  F12  1  0.03218820  0.61056656  0.79321294  1.0
  F  F13  1  0.53218820  0.88943344  0.70678706  1.0
  F  F14  1  0.96781180  0.11056656  0.20678706  1.0
  F  F15  1  0.46781180  0.38943344  0.29321294  1.0
  F  F16  1  0.96781180  0.38943344  0.20678706  1.0
  F  F17  1  0.46781180  0.11056656  0.29321294  1.0
  F  F18  1  0.03218820  0.88943344  0.79321294  1.0
  F  F19  1  0.53218820  0.61056656  0.70678706  1.0
  F  F20  1  0.23310027  0.60992792  0.09264082  1.0
  F  F21  1  0.73310027  0.89007208  0.40735918  1.0
  F  F22  1  0.76689973  0.10992792  0.90735918  1.0
  F  F23  1  0.26689973  0.39007208  0.59264082  1.0
  F  F24  1  0.76689973  0.39007208  0.90735918  1.0
  F  F25  1  0.26689973  0.10992792  0.59264082  1.0
  F  F26  1  0.23310027  0.89007208  0.09264082  1.0
  F  F27  1  0.73310027  0.60992792  0.40735918  1.0
