# generated using pymatgen
data_RbC(NO2)3
_symmetry_space_group_name_H-M   'P 1'
_cell_length_a   7.98737701
_cell_length_b   8.59517109
_cell_length_c   11.55024247
_cell_angle_alpha   90.00000000
_cell_angle_beta   124.72321696
_cell_angle_gamma   90.00000000
_symmetry_Int_Tables_number   1
_chemical_formula_structural   RbC(NO2)3
_chemical_formula_sum   'Rb4 C4 N12 O24'
_cell_volume   651.74216099
_cell_formula_units_Z   4
loop_
 _symmetry_equiv_pos_site_id
 _symmetry_equiv_pos_as_xyz
  1  'x, y, z'
loop_
 _atom_site_type_symbol
 _atom_site_label
 _atom_site_symmetry_multiplicity
 _atom_site_fract_x
 _atom_site_fract_y
 _atom_site_fract_z
 _atom_site_occupancy
  Rb  Rb0  1  0.38516649  0.10074244  0.13397125  1.0
  Rb  Rb1  1  0.38516649  0.39925756  0.63397125  1.0
  Rb  Rb2  1  0.61483351  0.60074244  0.36602875  1.0
  Rb  Rb3  1  0.61483351  0.89925756  0.86602875  1.0
  C  C4  1  0.91104618  0.37618331  0.12372891  1.0
  C  C5  1  0.91104618  0.12381669  0.62372891  1.0
  C  C6  1  0.08895382  0.87618331  0.37627109  1.0
  C  C7  1  0.08895382  0.62381669  0.87627109  1.0
  N  N8  1  0.88427815  0.92415292  0.30067393  1.0
  N  N9  1  0.88427815  0.57584708  0.80067393  1.0
  N  N10  1  0.11572185  0.42415292  0.19932607  1.0
  N  N11  1  0.11572185  0.07584708  0.69932607  1.0
  N  N12  1  0.82932517  0.26718789  0.01397136  1.0
  N  N13  1  0.82932517  0.23281211  0.51397136  1.0
  N  N14  1  0.17067483  0.76718789  0.48602864  1.0
  N  N15  1  0.17067483  0.73281211  0.98602864  1.0
  N  N16  1  0.78237363  0.44548807  0.15899170  1.0
  N  N17  1  0.78237363  0.05451193  0.65899170  1.0
  N  N18  1  0.21762637  0.94548807  0.34100830  1.0
  N  N19  1  0.21762637  0.55451193  0.84100830  1.0
  O  O20  1  0.94511550  0.31327164  0.49847711  1.0
  O  O21  1  0.94511550  0.18672836  0.99847711  1.0
  O  O22  1  0.05488450  0.81327164  0.00152289  1.0
  O  O23  1  0.05488450  0.68672836  0.50152289  1.0
  O  O24  1  0.80558596  -0.02078521  0.18010101  1.0
  O  O25  1  0.80558596  0.52078521  0.68010101  1.0
  O  O26  1  0.19441404  0.47921479  0.31989899  1.0
  O  O27  1  0.19441404  1.02078521  0.81989899  1.0
  O  O28  1  0.78774065  0.91091748  0.35531911  1.0
  O  O29  1  0.78774065  0.58908252  0.85531911  1.0
  O  O30  1  0.21225935  0.41091748  0.14468089  1.0
  O  O31  1  0.21225935  0.08908252  0.64468089  1.0
  O  O32  1  0.63941472  0.24600462  0.43478604  1.0
  O  O33  1  0.63941472  0.25399538  0.93478604  1.0
  O  O34  1  0.36058528  0.74600462  0.06521396  1.0
  O  O35  1  0.36058528  0.75399538  0.56521396  1.0
  O  O36  1  0.65059545  0.36455248  0.15490707  1.0
  O  O37  1  0.65059545  0.13544752  0.65490707  1.0
  O  O38  1  0.34940455  0.86455248  0.34509293  1.0
  O  O39  1  0.34940455  0.63544752  0.84509293  1.0
  O  O40  1  0.18997282  0.08492192  0.30753890  1.0
  O  O41  1  0.18997282  0.41507808  0.80753890  1.0
  O  O42  1  0.81002718  0.58492192  0.19246110  1.0
  O  O43  1  0.81002718  0.91507808  0.69246110  1.0
