# generated using pymatgen
data_Ca2Nb2O6F
_symmetry_space_group_name_H-M   'P 1'
_cell_length_a   7.41822391
_cell_length_b   7.41822391
_cell_length_c   7.41822391
_cell_angle_alpha   60.00000000
_cell_angle_beta   60.00000000
_cell_angle_gamma   60.00000000
_symmetry_Int_Tables_number   1
_chemical_formula_structural   Ca2Nb2O6F
_chemical_formula_sum   'Ca4 Nb4 O12 F2'
_cell_volume   288.65880887
_cell_formula_units_Z   2
loop_
 _symmetry_equiv_pos_site_id
 _symmetry_equiv_pos_as_xyz
  1  'x, y, z'
loop_
 _atom_site_type_symbol
 _atom_site_label
 _atom_site_symmetry_multiplicity
 _atom_site_fract_x
 _atom_site_fract_y
 _atom_site_fract_z
 _atom_site_occupancy
  Ca  Ca0  1  0.62500000  -0.37500000  0.62500000  1.0
  Ca  Ca1  1  0.62500000  0.12500000  0.62500000  1.0
  Ca  Ca2  1  1.12500000  -0.37500000  0.62500000  1.0
  Ca  Ca3  1  0.62500000  -0.37500000  1.12500000  1.0
  Nb  Nb4  1  0.12500000  0.12500000  0.12500000  1.0
  Nb  Nb5  1  0.12500000  0.62500000  0.12500000  1.0
  Nb  Nb6  1  0.62500000  0.12500000  1.12500000  1.0
  Nb  Nb7  1  0.12500000  0.12500000  1.62500000  1.0
  O  O8  1  0.20229579  0.79770421  -0.20229579  1.0
  O  O9  1  0.45229579  0.04770421  0.45229579  1.0
  O  O10  1  0.20229579  0.20229579  -0.20229579  1.0
  O  O11  1  0.45229579  0.04770421  0.04770421  1.0
  O  O12  1  0.79770421  0.20229579  0.79770421  1.0
  O  O13  1  0.04770421  0.04770421  0.45229579  1.0
  O  O14  1  -0.20229579  1.20229579  0.20229579  1.0
  O  O15  1  0.20229579  0.79770421  0.20229579  1.0
  O  O16  1  0.04770421  0.45229579  0.45229579  1.0
  O  O17  1  0.04770421  0.45229579  0.04770421  1.0
  O  O18  1  0.45229579  0.45229579  0.04770421  1.0
  O  O19  1  -0.20229579  0.79770421  0.20229579  1.0
  F  F20  1  0.50000000  0.50000000  -0.50000000  1.0
  F  F21  1  0.75000000  -0.25000000  0.75000000  1.0
