# generated using pymatgen
data_Zr2(Al3Co)3
_symmetry_space_group_name_H-M   'P 1'
_cell_length_a   7.27412413
_cell_length_b   7.27412413
_cell_length_c   9.03088018
_cell_angle_alpha   90.00000000
_cell_angle_beta   90.00000000
_cell_angle_gamma   60.49435231
_symmetry_Int_Tables_number   1
_chemical_formula_structural   Zr2(Al3Co)3
_chemical_formula_sum   'Zr4 Al18 Co6'
_cell_volume   415.87618300
_cell_formula_units_Z   2
loop_
 _symmetry_equiv_pos_site_id
 _symmetry_equiv_pos_as_xyz
  1  'x, y, z'
loop_
 _atom_site_type_symbol
 _atom_site_label
 _atom_site_symmetry_multiplicity
 _atom_site_fract_x
 _atom_site_fract_y
 _atom_site_fract_z
 _atom_site_occupancy
  Zr  Zr0  1  -0.00795895  1.32773781  0.25000000  1.0
  Zr  Zr1  1  0.32773781  0.99204105  0.75000000  1.0
  Zr  Zr2  1  -0.32773781  1.00795895  0.25000000  1.0
  Zr  Zr3  1  0.00795895  0.67226219  0.75000000  1.0
  Al  Al4  1  -0.00534271  1.66526768  0.42701063  1.0
  Al  Al5  1  -0.00534271  1.66526768  0.07298937  1.0
  Al  Al6  1  0.66526768  0.99465729  0.92701063  1.0
  Al  Al7  1  0.66526768  0.99465729  0.57298937  1.0
  Al  Al8  1  -0.66526768  1.00534271  0.42701063  1.0
  Al  Al9  1  -0.66526768  1.00534271  0.07298937  1.0
  Al  Al10  1  0.00534271  0.33473232  0.92701063  1.0
  Al  Al11  1  0.00534271  0.33473232  0.57298937  1.0
  Al  Al12  1  0.33854787  0.43969204  0.25000000  1.0
  Al  Al13  1  -0.56030796  1.33854787  0.75000000  1.0
  Al  Al14  1  0.56030796  0.66145213  0.25000000  1.0
  Al  Al15  1  -0.33854787  1.56030796  0.75000000  1.0
  Al  Al16  1  0.33041253  0.66958747  0.95230330  1.0
  Al  Al17  1  0.33041253  0.66958747  0.54769670  1.0
  Al  Al18  1  -0.33041253  1.33041253  0.45230330  1.0
  Al  Al19  1  -0.33041253  1.33041253  0.04769670  1.0
  Al  Al20  1  0.11862361  0.88137639  0.25000000  1.0
  Al  Al21  1  -0.11862361  1.11862361  0.75000000  1.0
  Co  Co22  1  0.67196351  0.67196351  0.50000000  1.0
  Co  Co23  1  0.67196351  0.67196351  0.00000000  1.0
  Co  Co24  1  0.32803649  0.32803649  0.50000000  1.0
  Co  Co25  1  0.32803649  0.32803649  0.00000000  1.0
  Co  Co26  1  0.00000000  0.00000000  0.50000000  1.0
  Co  Co27  1  0.00000000  0.00000000  0.00000000  1.0
