# generated using pymatgen
data_CI
_symmetry_space_group_name_H-M   'P 1'
_cell_length_a   5.03915694
_cell_length_b   17.24104583
_cell_length_c   13.45666751
_cell_angle_alpha   90.00000000
_cell_angle_beta   102.98576592
_cell_angle_gamma   90.00000000
_symmetry_Int_Tables_number   1
_chemical_formula_structural   CI
_chemical_formula_sum   'C16 I16'
_cell_volume   1139.22062787
_cell_formula_units_Z   16
loop_
 _symmetry_equiv_pos_site_id
 _symmetry_equiv_pos_as_xyz
  1  'x, y, z'
loop_
 _atom_site_type_symbol
 _atom_site_label
 _atom_site_symmetry_multiplicity
 _atom_site_fract_x
 _atom_site_fract_y
 _atom_site_fract_z
 _atom_site_occupancy
  C  C0  1  0.90463599  0.44870660  0.26037303  1.0
  C  C1  1  0.90463599  0.05129340  0.76037303  1.0
  C  C2  1  0.09536401  0.94870660  0.23962697  1.0
  C  C3  1  0.09536401  0.55129340  0.73962697  1.0
  C  C4  1  0.77315795  0.39588062  0.30043682  1.0
  C  C5  1  0.77315795  0.10411938  0.80043682  1.0
  C  C6  1  0.22684205  0.89588062  0.19956318  1.0
  C  C7  1  0.22684205  0.60411938  0.69956318  1.0
  C  C8  1  0.64421961  0.34456569  0.33877448  1.0
  C  C9  1  0.64421961  0.15543431  0.83877448  1.0
  C  C10  1  0.35578039  0.84456569  0.16122552  1.0
  C  C11  1  0.35578039  0.65543431  0.66122552  1.0
  C  C12  1  0.50857479  0.29197453  0.37731337  1.0
  C  C13  1  0.50857479  0.20802547  0.87731337  1.0
  C  C14  1  0.49142521  0.79197453  0.12268663  1.0
  C  C15  1  0.49142521  0.70802547  0.62268663  1.0
  I  I16  1  0.92268454  0.44439393  0.10471126  1.0
  I  I17  1  0.92268454  0.05560607  0.60471126  1.0
  I  I18  1  0.07731546  0.94439392  0.39528874  1.0
  I  I19  1  0.07731546  0.55560607  0.89528874  1.0
  I  I20  1  0.88811149  0.04200440  0.15133408  1.0
  I  I21  1  0.88811149  0.45799560  0.65133408  1.0
  I  I22  1  0.11188851  0.54200440  0.34866592  1.0
  I  I23  1  0.11188851  0.95799560  0.84866592  1.0
  I  I24  1  0.47263928  0.20431003  0.03178691  1.0
  I  I25  1  0.47263928  0.29568997  0.53178691  1.0
  I  I26  1  0.52736072  0.70431003  0.46821309  1.0
  I  I27  1  0.52736072  0.79568997  0.96821309  1.0
  I  I28  1  0.29937619  0.19911297  0.28829887  1.0
  I  I29  1  0.29937619  0.30088703  0.78829887  1.0
  I  I30  1  0.70062381  0.69911297  0.21170113  1.0
  I  I31  1  0.70062381  0.80088703  0.71170113  1.0
