# generated using pymatgen
data_Li7H5N4
_symmetry_space_group_name_H-M   'P 1'
_cell_length_a   7.22192461
_cell_length_b   10.56017635
_cell_length_c   7.14332897
_cell_angle_alpha   90.00000000
_cell_angle_beta   90.00000000
_cell_angle_gamma   90.00000000
_symmetry_Int_Tables_number   1
_chemical_formula_structural   Li7H5N4
_chemical_formula_sum   'Li28 H20 N16'
_cell_volume   544.78453770
_cell_formula_units_Z   4
loop_
 _symmetry_equiv_pos_site_id
 _symmetry_equiv_pos_as_xyz
  1  'x, y, z'
loop_
 _atom_site_type_symbol
 _atom_site_label
 _atom_site_symmetry_multiplicity
 _atom_site_fract_x
 _atom_site_fract_y
 _atom_site_fract_z
 _atom_site_occupancy
  Li  Li0  1  0.51153668  0.39457102  0.40913936  1.0
  Li  Li1  1  0.48846332  0.60542898  0.90913936  1.0
  Li  Li2  1  0.98846332  0.89457102  0.90913936  1.0
  Li  Li3  1  0.01153668  0.10542898  0.40913936  1.0
  Li  Li4  1  0.43235898  0.84833550  0.36180081  1.0
  Li  Li5  1  0.56764102  0.15166450  0.86180081  1.0
  Li  Li6  1  0.06764102  0.34833550  0.86180081  1.0
  Li  Li7  1  0.93235898  0.65166450  0.36180081  1.0
  Li  Li8  1  0.50351664  0.61340415  0.32426372  1.0
  Li  Li9  1  0.49648336  0.38659585  0.82426372  1.0
  Li  Li10  1  0.99648336  0.11340415  0.82426372  1.0
  Li  Li11  1  0.00351664  0.88659585  0.32426372  1.0
  Li  Li12  1  0.75129151  0.62934106  0.09669754  1.0
  Li  Li13  1  0.24870849  0.37065894  0.59669754  1.0
  Li  Li14  1  0.74870849  0.12934106  0.59669754  1.0
  Li  Li15  1  0.25129151  0.87065894  0.09669754  1.0
  Li  Li16  1  0.73211616  0.85247135  0.16307909  1.0
  Li  Li17  1  0.26788384  0.14752865  0.66307909  1.0
  Li  Li18  1  0.76788384  0.35247135  0.66307909  1.0
  Li  Li19  1  0.23211616  0.64752865  0.16307909  1.0
  Li  Li20  1  0.69218268  0.41032678  0.10937546  1.0
  Li  Li21  1  0.30781732  0.58967322  0.60937546  1.0
  Li  Li22  1  0.80781732  0.91032678  0.60937546  1.0
  Li  Li23  1  0.19218268  0.08967322  0.10937546  1.0
  Li  Li24  1  0.80381053  0.08410589  0.11997997  1.0
  Li  Li25  1  0.19618947  0.91589411  0.61997997  1.0
  Li  Li26  1  0.69618947  0.58410589  0.61997997  1.0
  Li  Li27  1  0.30381053  0.41589411  0.11997997  1.0
  H  H28  1  0.52219057  0.20962487  0.20959841  1.0
  H  H29  1  0.47780943  0.79037513  0.70959841  1.0
  H  H30  1  0.97780943  0.70962487  0.70959841  1.0
  H  H31  1  0.02219057  0.29037513  0.20959841  1.0
  H  H32  1  0.49891241  0.20552714  0.50402927  1.0
  H  H33  1  0.50108759  0.79447286  0.00402927  1.0
  H  H34  1  0.00108759  0.70552714  0.00402927  1.0
  H  H35  1  0.99891241  0.29447286  0.50402927  1.0
  H  H36  1  0.86068085  0.52011721  0.86398960  1.0
  H  H37  1  0.13931915  0.47988279  0.36398960  1.0
  H  H38  1  0.63931915  0.02011721  0.36398960  1.0
  H  H39  1  0.36068085  0.97988279  0.86398960  1.0
  H  H40  1  0.65918398  0.95473220  0.87323701  1.0
  H  H41  1  0.34081602  0.04526780  0.37323701  1.0
  H  H42  1  0.84081602  0.45473220  0.37323701  1.0
  H  H43  1  0.15918398  0.54526780  0.87323701  1.0
  H  H44  1  0.62155003  0.76230244  0.54259527  1.0
  H  H45  1  0.37844997  0.23769756  0.04259527  1.0
  H  H46  1  0.87844997  0.26230244  0.04259527  1.0
  H  H47  1  0.12155003  0.73769756  0.54259527  1.0
  N  N48  1  0.49590907  0.73242375  0.59543269  1.0
  N  N49  1  0.50409093  0.26757625  0.09543269  1.0
  N  N50  1  0.00409093  0.23242375  0.09543269  1.0
  N  N51  1  0.99590907  0.76757625  0.59543269  1.0
  N  N52  1  0.48859993  0.74279573  0.12668331  1.0
  N  N53  1  0.51140007  0.25720427  0.62668331  1.0
  N  N54  1  0.01140007  0.24279573  0.62668331  1.0
  N  N55  1  0.98859993  0.75720427  0.12668331  1.0
  N  N56  1  0.72961663  0.51517052  0.35347035  1.0
  N  N57  1  0.27038337  0.48482948  0.85347035  1.0
  N  N58  1  0.77038337  0.01517052  0.85347035  1.0
  N  N59  1  0.22961663  0.98482948  0.35347035  1.0
  N  N60  1  0.77826057  0.99580903  0.36462816  1.0
  N  N61  1  0.22173943  0.00419097  0.86462816  1.0
  N  N62  1  0.72173943  0.49580903  0.86462816  1.0
  N  N63  1  0.27826057  0.50419097  0.36462816  1.0
