# generated using pymatgen
data_Tl4CuTeO6
_symmetry_space_group_name_H-M   'P 1'
_cell_length_a   8.92479222
_cell_length_b   6.15374180
_cell_length_c   9.42542097
_cell_angle_alpha   73.52784272
_cell_angle_beta   68.22327853
_cell_angle_gamma   80.60813350
_symmetry_Int_Tables_number   1
_chemical_formula_structural   Tl4CuTeO6
_chemical_formula_sum   'Tl8 Cu2 Te2 O12'
_cell_volume   460.00287956
_cell_formula_units_Z   2
loop_
 _symmetry_equiv_pos_site_id
 _symmetry_equiv_pos_as_xyz
  1  'x, y, z'
loop_
 _atom_site_type_symbol
 _atom_site_label
 _atom_site_symmetry_multiplicity
 _atom_site_fract_x
 _atom_site_fract_y
 _atom_site_fract_z
 _atom_site_occupancy
  Tl  Tl0  1  -0.62098338  -0.92361795  -0.79521300  1.0
  Tl  Tl1  1  -0.37901662  -0.07638205  -0.20478700  1.0
  Tl  Tl2  1  -0.76444360  -0.87820506  -0.33280795  1.0
  Tl  Tl3  1  -0.23555640  -0.12179494  -0.66719205  1.0
  Tl  Tl4  1  -0.42213039  -0.50907312  -0.77613687  1.0
  Tl  Tl5  1  -0.57786961  -0.49092688  -0.22386313  1.0
  Tl  Tl6  1  -0.89803015  -0.27793665  -0.46133508  1.0
  Tl  Tl7  1  -0.10196985  -0.72206335  -0.53866492  1.0
  Cu  Cu8  1  -0.94354182  -0.77095953  -0.94549097  1.0
  Cu  Cu9  1  -0.05645818  -0.22904047  -0.05450903  1.0
  Te  Te10  1  -0.83192506  -0.33546472  -0.86531500  1.0
  Te  Te11  1  -0.16807494  -0.66453528  -0.13468500  1.0
  O  O12  1  -0.15996964  -0.83353966  -0.91834910  1.0
  O  O13  1  -0.84003036  -0.16646034  -0.08165090  1.0
  O  O14  1  -0.76108415  -0.62785233  -0.94907604  1.0
  O  O15  1  -0.23891585  -0.37214767  -0.05092396  1.0
  O  O16  1  -0.93744421  -0.60557511  -0.16438848  1.0
  O  O17  1  -0.06255579  -0.39442489  -0.83561152  1.0
  O  O18  1  -0.84927718  -0.52416008  -0.65077361  1.0
  O  O19  1  -0.15072282  -0.47583992  -0.34922639  1.0
  O  O20  1  -0.60605757  -0.26298278  -0.92412686  1.0
  O  O21  1  -0.39394243  -0.73701722  -0.07587314  1.0
  O  O22  1  -0.91985452  -0.05212419  -0.77893410  1.0
  O  O23  1  -0.08014548  -0.94787581  -0.22106590  1.0
