# generated using pymatgen
data_CsMgH3
_symmetry_space_group_name_H-M   'P 1'
_cell_length_a   6.15291196
_cell_length_b   10.00604904
_cell_length_c   8.60403803
_cell_angle_alpha   90.00000000
_cell_angle_beta   90.00000000
_cell_angle_gamma   90.00000000
_symmetry_Int_Tables_number   1
_chemical_formula_structural   CsMgH3
_chemical_formula_sum   'Cs6 Mg6 H18'
_cell_volume   529.71911966
_cell_formula_units_Z   6
loop_
 _symmetry_equiv_pos_site_id
 _symmetry_equiv_pos_as_xyz
  1  'x, y, z'
loop_
 _atom_site_type_symbol
 _atom_site_label
 _atom_site_symmetry_multiplicity
 _atom_site_fract_x
 _atom_site_fract_y
 _atom_site_fract_z
 _atom_site_occupancy
  Cs  Cs0  1  0.50000000  0.50000000  0.17955234  1.0
  Cs  Cs1  1  0.00000000  0.00000000  0.82044766  1.0
  Cs  Cs2  1  0.50000000  0.72103692  0.66328745  1.0
  Cs  Cs3  1  0.50000000  0.27896308  0.66328745  1.0
  Cs  Cs4  1  0.00000000  0.77896308  0.33671255  1.0
  Cs  Cs5  1  0.00000000  0.22103692  0.33671255  1.0
  Mg  Mg6  1  0.00000000  0.50000000  0.63625697  1.0
  Mg  Mg7  1  0.50000000  0.00000000  0.36374303  1.0
  Mg  Mg8  1  0.50000000  0.13954743  0.07296696  1.0
  Mg  Mg9  1  0.50000000  0.86045257  0.07296696  1.0
  Mg  Mg10  1  0.00000000  0.36045257  0.92703304  1.0
  Mg  Mg11  1  0.00000000  0.63954743  0.92703304  1.0
  H  H12  1  0.00000000  0.50000000  0.09371371  1.0
  H  H13  1  0.50000000  0.00000000  0.90628629  1.0
  H  H14  1  0.25000000  0.25000000  0.00000000  1.0
  H  H15  1  0.25000000  0.75000000  0.00000000  1.0
  H  H16  1  0.75000000  0.25000000  0.00000000  1.0
  H  H17  1  0.75000000  0.75000000  0.00000000  1.0
  H  H18  1  0.23495547  0.50000000  0.49810432  1.0
  H  H19  1  0.76504453  0.50000000  0.49810432  1.0
  H  H20  1  0.26504453  0.00000000  0.50189568  1.0
  H  H21  1  0.73495547  0.00000000  0.50189568  1.0
  H  H22  1  0.20078597  0.50000000  0.83337745  1.0
  H  H23  1  0.79921403  0.50000000  0.83337745  1.0
  H  H24  1  0.29921403  0.00000000  0.16662255  1.0
  H  H25  1  0.70078597  0.00000000  0.16662255  1.0
  H  H26  1  0.50000000  0.80136834  0.29131673  1.0
  H  H27  1  0.50000000  0.19863166  0.29131673  1.0
  H  H28  1  0.00000000  0.69863166  0.70868327  1.0
  H  H29  1  0.00000000  0.30136834  0.70868327  1.0
