# generated using pymatgen
data_Sr19In8N7
_symmetry_space_group_name_H-M   'P 1'
_cell_length_a   11.11880133
_cell_length_b   11.11880133
_cell_length_c   11.11880133
_cell_angle_alpha   60.00000000
_cell_angle_beta   60.00000000
_cell_angle_gamma   60.00000000
_symmetry_Int_Tables_number   1
_chemical_formula_structural   Sr19In8N7
_chemical_formula_sum   'Sr19 In8 N7'
_cell_volume   971.98354689
_cell_formula_units_Z   1
loop_
 _symmetry_equiv_pos_site_id
 _symmetry_equiv_pos_as_xyz
  1  'x, y, z'
loop_
 _atom_site_type_symbol
 _atom_site_label
 _atom_site_symmetry_multiplicity
 _atom_site_fract_x
 _atom_site_fract_y
 _atom_site_fract_z
 _atom_site_occupancy
  Sr  Sr0  1  1.67083613  0.00000000  -0.00000000  1.0
  Sr  Sr1  1  1.00000000  0.32916387  -0.32916387  1.0
  Sr  Sr2  1  1.00000000  0.67083613  -0.67083613  1.0
  Sr  Sr3  1  1.32916387  0.00000000  -0.00000000  1.0
  Sr  Sr4  1  0.00000000  1.67083613  -0.00000000  1.0
  Sr  Sr5  1  0.32916387  1.00000000  -0.32916387  1.0
  Sr  Sr6  1  0.00000000  0.00000000  0.67083613  1.0
  Sr  Sr7  1  0.32916387  -0.32916387  1.00000000  1.0
  Sr  Sr8  1  0.67083613  1.00000000  -0.67083613  1.0
  Sr  Sr9  1  0.00000000  1.32916387  -0.00000000  1.0
  Sr  Sr10  1  0.67083613  -0.67083613  1.00000000  1.0
  Sr  Sr11  1  0.00000000  0.00000000  0.32916387  1.0
  Sr  Sr12  1  -0.66674573  0.66674573  0.66674573  1.0
  Sr  Sr13  1  -0.33325427  0.33325427  0.66674573  1.0
  Sr  Sr14  1  0.66674573  0.66674573  -0.66674573  1.0
  Sr  Sr15  1  0.33325427  1.33325427  -0.33325427  1.0
  Sr  Sr16  1  0.33325427  -0.33325427  1.33325427  1.0
  Sr  Sr17  1  -0.33325427  0.33325427  0.33325427  1.0
  Sr  Sr18  1  0.00000000  0.00000000  0.00000000  1.0
  In  In19  1  0.67805913  0.67805913  -0.32194087  1.0
  In  In20  1  1.32194087  0.32194087  0.03417740  1.0
  In  In21  1  1.32194087  0.03417740  0.32194087  1.0
  In  In22  1  0.96582260  0.67805913  -0.32194087  1.0
  In  In23  1  1.03417740  0.32194087  0.32194087  1.0
  In  In24  1  0.67805913  0.96582260  -0.32194087  1.0
  In  In25  1  0.67805913  0.67805913  -0.03417740  1.0
  In  In26  1  1.32194087  0.32194087  0.32194087  1.0
  N  N27  1  -0.82591608  0.82591608  0.82591608  1.0
  N  N28  1  -0.17408392  0.17408392  0.82591608  1.0
  N  N29  1  0.82591608  0.82591608  -0.82591608  1.0
  N  N30  1  0.17408392  1.17408392  -0.17408392  1.0
  N  N31  1  0.17408392  -0.17408392  1.17408392  1.0
  N  N32  1  -0.17408392  0.17408392  0.17408392  1.0
  N  N33  1  -0.50000000  0.50000000  0.50000000  1.0
