# generated using pymatgen
data_TaB4
_symmetry_space_group_name_H-M   'P 1'
_cell_length_a   3.06539106
_cell_length_b   3.06539106
_cell_length_c   9.96016463
_cell_angle_alpha   90.00000000
_cell_angle_beta   90.00000000
_cell_angle_gamma   60.96794619
_symmetry_Int_Tables_number   1
_chemical_formula_structural   TaB4
_chemical_formula_sum   'Ta2 B8'
_cell_volume   81.83192780
_cell_formula_units_Z   2
loop_
 _symmetry_equiv_pos_site_id
 _symmetry_equiv_pos_as_xyz
  1  'x, y, z'
loop_
 _atom_site_type_symbol
 _atom_site_label
 _atom_site_symmetry_multiplicity
 _atom_site_fract_x
 _atom_site_fract_y
 _atom_site_fract_z
 _atom_site_occupancy
  Ta  Ta0  1  -0.47692117  1.47692117  0.83339505  1.0
  Ta  Ta1  1  -0.47692117  1.47692117  0.16660495  1.0
  B  B2  1  -0.13424047  1.79021190  0.66158080  1.0
  B  B3  1  -0.79021190  1.13424047  0.33841920  1.0
  B  B4  1  -0.13424047  1.79021190  0.33841920  1.0
  B  B5  1  -0.79021190  1.13424047  0.66158080  1.0
  B  B6  1  -0.39644614  1.06135766  0.50000000  1.0
  B  B7  1  -0.06135766  1.39644614  0.50000000  1.0
  B  B8  1  -0.81027790  1.14277121  0.00000000  1.0
  B  B9  1  -0.14277121  1.81027790  0.00000000  1.0
