# generated using pymatgen
data_Fe2CoSe4
_symmetry_space_group_name_H-M   'P 1'
_cell_length_a   6.37852160
_cell_length_b   6.37852160
_cell_length_c   6.12615371
_cell_angle_alpha   63.87128879
_cell_angle_beta   116.12871121
_cell_angle_gamma   148.59799977
_symmetry_Int_Tables_number   1
_chemical_formula_structural   Fe2CoSe4
_chemical_formula_sum   'Fe2 Co1 Se4'
_cell_volume   115.48170384
_cell_formula_units_Z   1
loop_
 _symmetry_equiv_pos_site_id
 _symmetry_equiv_pos_as_xyz
  1  'x, y, z'
loop_
 _atom_site_type_symbol
 _atom_site_label
 _atom_site_symmetry_multiplicity
 _atom_site_fract_x
 _atom_site_fract_y
 _atom_site_fract_z
 _atom_site_occupancy
  Fe  Fe0  1  0.74156969  -0.74156969  0.69295041  1.0
  Fe  Fe1  1  1.25843031  -0.25843031  0.30704959  1.0
  Co  Co2  1  0.00000000  0.00000000  0.00000000  1.0
  Se  Se3  1  0.89316934  -0.89316934  0.55711966  1.0
  Se  Se4  1  1.10683066  -0.10683066  0.44288034  1.0
  Se  Se5  1  0.63583169  -0.63583169  0.97961657  1.0
  Se  Se6  1  1.36416831  -0.36416831  0.02038343  1.0
