# generated using pymatgen
data_Be12Nb
_symmetry_space_group_name_H-M   'P 1'
_cell_length_a   5.59000682
_cell_length_b   5.59000682
_cell_length_c   5.59000682
_cell_angle_alpha   98.07545623
_cell_angle_beta   98.07545623
_cell_angle_gamma   135.97575222
_symmetry_Int_Tables_number   1
_chemical_formula_structural   Be12Nb
_chemical_formula_sum   'Be12 Nb1'
_cell_volume   112.54527108
_cell_formula_units_Z   1
loop_
 _symmetry_equiv_pos_site_id
 _symmetry_equiv_pos_as_xyz
  1  'x, y, z'
loop_
 _atom_site_type_symbol
 _atom_site_label
 _atom_site_symmetry_multiplicity
 _atom_site_fract_x
 _atom_site_fract_y
 _atom_site_fract_z
 _atom_site_occupancy
  Be  Be0  1  0.50000000  0.71762339  0.21762339  1.0
  Be  Be1  1  0.71762339  0.50000000  1.21762339  1.0
  Be  Be2  1  0.28237661  0.50000000  0.78237661  1.0
  Be  Be3  1  0.50000000  1.28237661  0.78237661  1.0
  Be  Be4  1  0.00000000  0.64772796  0.64772796  1.0
  Be  Be5  1  0.64772796  1.00000000  0.64772796  1.0
  Be  Be6  1  1.35227204  1.00000000  1.35227204  1.0
  Be  Be7  1  -0.00000000  0.35227204  0.35227204  1.0
  Be  Be8  1  0.50000000  0.50000000  0.50000000  1.0
  Be  Be9  1  1.00000000  1.00000000  0.50000000  1.0
  Be  Be10  1  1.00000000  0.50000000  1.00000000  1.0
  Be  Be11  1  1.50000000  1.00000000  1.00000000  1.0
  Nb  Nb12  1  0.00000000  0.00000000  0.00000000  1.0
