# generated using pymatgen
data_CdH8C4(BrN4)2
_symmetry_space_group_name_H-M   'P 1'
_cell_length_a   4.11318111
_cell_length_b   8.63738116
_cell_length_c   17.78681013
_cell_angle_alpha   90.00000000
_cell_angle_beta   95.80061501
_cell_angle_gamma   90.00000000
_symmetry_Int_Tables_number   1
_chemical_formula_structural   CdH8C4(BrN4)2
_chemical_formula_sum   'Cd2 H16 C8 Br4 N16'
_cell_volume   628.67837592
_cell_formula_units_Z   2
loop_
 _symmetry_equiv_pos_site_id
 _symmetry_equiv_pos_as_xyz
  1  'x, y, z'
loop_
 _atom_site_type_symbol
 _atom_site_label
 _atom_site_symmetry_multiplicity
 _atom_site_fract_x
 _atom_site_fract_y
 _atom_site_fract_z
 _atom_site_occupancy
  Cd  Cd0  1  0.50000000  0.50000000  0.50000000  1.0
  Cd  Cd1  1  0.50000000  0.00000000  -0.00000000  1.0
  H  H2  1  0.86307333  0.31168207  0.14552213  1.0
  H  H3  1  0.86307333  0.18831793  0.64552213  1.0
  H  H4  1  0.13692667  0.68831793  0.85447787  1.0
  H  H5  1  0.13692667  0.81168207  0.35447787  1.0
  H  H6  1  0.68211428  0.27898018  0.22826514  1.0
  H  H7  1  0.68211428  0.22101982  0.72826514  1.0
  H  H8  1  0.31788572  0.72101982  0.77173486  1.0
  H  H9  1  0.31788572  0.77898018  0.27173486  1.0
  H  H10  1  0.84196421  0.55816628  0.09043639  1.0
  H  H11  1  0.84196421  0.94183372  0.59043639  1.0
  H  H12  1  0.15803579  0.44183372  0.90956361  1.0
  H  H13  1  0.15803579  0.05816628  0.40956361  1.0
  H  H14  1  0.68287775  0.71358271  0.13733070  1.0
  H  H15  1  0.68287775  0.78641729  0.63733070  1.0
  H  H16  1  0.31712225  0.28641729  0.86266930  1.0
  H  H17  1  0.31712225  0.21358271  0.36266930  1.0
  C  C18  1  0.49735050  0.49462628  0.31200277  1.0
  C  C19  1  0.49735050  0.00537372  0.81200277  1.0
  C  C20  1  0.50264950  0.50537372  0.68799723  1.0
  C  C21  1  0.50264950  0.99462628  0.18799723  1.0
  C  C22  1  0.68472479  0.50554080  0.19353622  1.0
  C  C23  1  0.68472479  -0.00554080  0.69353622  1.0
  C  C24  1  0.31527521  0.49445920  0.80646378  1.0
  C  C25  1  0.31527521  1.00554080  0.30646378  1.0
  Br  Br26  1  0.00430895  0.27927155  0.52418319  1.0
  Br  Br27  1  0.00430895  0.22072845  0.02418319  1.0
  Br  Br28  1  0.99569105  0.72072845  0.47581681  1.0
  Br  Br29  1  0.99569105  0.77927155  0.97581681  1.0
  N  N30  1  0.44107648  0.43928646  0.37022320  1.0
  N  N31  1  0.44107648  0.06071354  0.87022320  1.0
  N  N32  1  0.55892352  0.56071354  0.62977680  1.0
  N  N33  1  0.55892352  0.93928646  0.12977680  1.0
  N  N34  1  0.53701534  0.56875492  0.25076458  1.0
  N  N35  1  0.53701534  0.93124508  0.75076458  1.0
  N  N36  1  0.46298466  0.43124508  0.74923542  1.0
  N  N37  1  0.46298466  0.06875492  0.24923542  1.0
  N  N38  1  0.77721966  0.35681940  0.19303736  1.0
  N  N39  1  0.77721966  0.14318060  0.69303736  1.0
  N  N40  1  0.22278034  0.64318060  0.80696264  1.0
  N  N41  1  0.22278034  0.85681940  0.30696264  1.0
  N  N42  1  0.74021847  0.59831960  0.13625390  1.0
  N  N43  1  0.74021847  0.90168040  0.63625390  1.0
  N  N44  1  0.25978153  0.40168040  0.86374610  1.0
  N  N45  1  0.25978153  0.09831960  0.36374610  1.0
