# generated using pymatgen
data_Ba6Nb4SnO18
_symmetry_space_group_name_H-M   'P 1'
_cell_length_a   14.72704421
_cell_length_b   14.72704421
_cell_length_c   14.72704421
_cell_angle_alpha   22.96363066
_cell_angle_beta   22.96363066
_cell_angle_gamma   22.96363066
_symmetry_Int_Tables_number   1
_chemical_formula_structural   Ba6Nb4SnO18
_chemical_formula_sum   'Ba6 Nb4 Sn1 O18'
_cell_volume   426.68319714
_cell_formula_units_Z   1
loop_
 _symmetry_equiv_pos_site_id
 _symmetry_equiv_pos_as_xyz
  1  'x, y, z'
loop_
 _atom_site_type_symbol
 _atom_site_label
 _atom_site_symmetry_multiplicity
 _atom_site_fract_x
 _atom_site_fract_y
 _atom_site_fract_z
 _atom_site_occupancy
  Ba  Ba0  1  0.91399480  0.91399480  0.91399480  1.0
  Ba  Ba1  1  1.08600520  1.08600520  0.08600520  1.0
  Ba  Ba2  1  0.81364168  0.81364168  0.81364168  1.0
  Ba  Ba3  1  1.18635832  1.18635832  0.18635832  1.0
  Ba  Ba4  1  1.63866611  0.63866611  0.63866611  1.0
  Ba  Ba5  1  1.36133389  0.36133389  0.36133389  1.0
  Nb  Nb6  1  0.72386680  0.72386680  0.72386680  1.0
  Nb  Nb7  1  1.27613320  1.27613320  0.27613320  1.0
  Nb  Nb8  1  1.55086945  0.55086945  0.55086945  1.0
  Nb  Nb9  1  1.44913055  0.44913055  0.44913055  1.0
  Sn  Sn10  1  0.00000000  0.00000000  0.00000000  1.0
  O  O11  1  1.14256737  1.14256737  0.63138477  1.0
  O  O12  1  1.14256737  1.63138477  0.14256737  1.0
  O  O13  1  1.36861523  0.85743263  -0.14256737  1.0
  O  O14  1  0.85743263  1.36861523  -0.14256737  1.0
  O  O15  1  0.85743263  0.85743263  0.36861523  1.0
  O  O16  1  1.63138477  1.14256737  0.14256737  1.0
  O  O17  1  1.41544725  0.41544725  0.92529937  1.0
  O  O18  1  1.41544725  0.92529937  0.41544725  1.0
  O  O19  1  1.07470063  0.58455275  0.58455275  1.0
  O  O20  1  1.58455275  0.07470063  0.58455275  1.0
  O  O21  1  1.58455275  0.58455275  0.07470063  1.0
  O  O22  1  1.92529937  0.41544725  0.41544725  1.0
  O  O23  1  1.30559404  1.30559404  -0.20533485  1.0
  O  O24  1  1.30559404  0.79466515  0.30559404  1.0
  O  O25  1  1.20533485  0.69440596  0.69440596  1.0
  O  O26  1  1.69440596  0.20533485  0.69440596  1.0
  O  O27  1  1.69440596  0.69440596  0.20533485  1.0
  O  O28  1  0.79466515  1.30559404  0.30559404  1.0
