# generated using pymatgen
data_SrZnNi(PO4)2
_symmetry_space_group_name_H-M   'P 1'
_cell_length_a   6.97850152
_cell_length_b   5.47623318
_cell_length_c   9.49856379
_cell_angle_alpha   72.08844255
_cell_angle_beta   67.30010638
_cell_angle_gamma   81.76728969
_symmetry_Int_Tables_number   1
_chemical_formula_structural   SrZnNi(PO4)2
_chemical_formula_sum   'Sr2 Zn2 Ni2 P4 O16'
_cell_volume   318.52309202
_cell_formula_units_Z   2
loop_
 _symmetry_equiv_pos_site_id
 _symmetry_equiv_pos_as_xyz
  1  'x, y, z'
loop_
 _atom_site_type_symbol
 _atom_site_label
 _atom_site_symmetry_multiplicity
 _atom_site_fract_x
 _atom_site_fract_y
 _atom_site_fract_z
 _atom_site_occupancy
  Sr  Sr0  1  0.25135396  -0.75456920  0.45001100  1.0
  Sr  Sr1  1  -0.25135396  -0.24543080  0.54998900  1.0
  O  O2  1  -0.17247306  -1.00666615  0.92219534  1.0
  O  O3  1  0.17247306  0.00666615  0.07780466  1.0
  O  O4  1  0.41901486  -0.95243590  0.19811662  1.0
  O  O5  1  -0.41901486  -0.04756410  0.80188338  1.0
  O  O6  1  -0.12962684  -0.73434914  0.63231531  1.0
  O  O7  1  0.12962684  -0.26565086  0.36768469  1.0
  O  O8  1  0.25890140  -0.67192608  0.71236479  1.0
  O  O9  1  -0.25890140  -0.32807392  0.28763521  1.0
  O  O10  1  0.80555361  -0.62296579  0.10227061  1.0
  O  O11  1  -0.80555361  -0.37703421  0.89772939  1.0
  O  O12  1  -0.03635301  -0.33677221  0.73719511  1.0
  O  O13  1  0.03635301  -0.66322779  0.26280489  1.0
  O  O14  1  0.34120070  -0.19565791  0.60417035  1.0
  O  O15  1  -0.34120070  -0.80434209  0.39582965  1.0
  O  O16  1  -0.41676918  -0.62060349  0.86924226  1.0
  O  O17  1  0.41676918  -0.37939651  0.13075774  1.0
  Zn  Zn18  1  0.73542028  -0.98613610  0.14460461  1.0
  Zn  Zn19  1  -0.73542028  -0.01386390  0.85539539  1.0
  Ni  Ni20  1  -0.29177210  -0.36010587  0.93818703  1.0
  Ni  Ni21  1  0.29177210  -0.63989413  0.06181297  1.0
  P  P22  1  -0.27930095  -0.84220364  0.80184635  1.0
  P  P23  1  0.27930095  -0.15779636  0.19815365  1.0
  P  P24  1  0.18799150  -0.39860603  0.73642167  1.0
  P  P25  1  -0.18799150  -0.60139397  0.26357833  1.0
