# generated using pymatgen
data_KAl(BH4)2
_symmetry_space_group_name_H-M   'P 1'
_cell_length_a   9.26449175
_cell_length_b   9.34579965
_cell_length_c   11.18349203
_cell_angle_alpha   52.73119493
_cell_angle_beta   53.39711951
_cell_angle_gamma   73.87168555
_symmetry_Int_Tables_number   1
_chemical_formula_structural   KAl(BH4)2
_chemical_formula_sum   'K4 Al4 B8 H32'
_cell_volume   613.33812317
_cell_formula_units_Z   4
loop_
 _symmetry_equiv_pos_site_id
 _symmetry_equiv_pos_as_xyz
  1  'x, y, z'
loop_
 _atom_site_type_symbol
 _atom_site_label
 _atom_site_symmetry_multiplicity
 _atom_site_fract_x
 _atom_site_fract_y
 _atom_site_fract_z
 _atom_site_occupancy
  K  K0  1  0.62500000  -0.37500000  1.12500000  1.0
  K  K1  1  -0.37500000  1.12500000  0.62500000  1.0
  K  K2  1  -0.37500000  0.62500000  0.62500000  1.0
  K  K3  1  1.12500000  -0.37500000  0.62500000  1.0
  Al  Al4  1  0.12500000  0.12500000  1.62500000  1.0
  Al  Al5  1  0.12500000  0.62500000  1.12500000  1.0
  Al  Al6  1  0.12500000  0.12500000  1.12500000  1.0
  Al  Al7  1  0.62500000  0.12500000  1.12500000  1.0
  B  B8  1  0.13870340  -0.15416508  1.74930273  1.0
  B  B9  1  0.26615895  0.74930273  -0.15416508  1.0
  B  B10  1  -0.59583492  1.11129660  0.98384105  1.0
  B  B11  1  0.50069727  -0.01615895  1.11129660  1.0
  B  B12  1  0.74930273  0.26615895  1.13870340  1.0
  B  B13  1  -0.15416508  0.13870340  0.26615895  1.0
  B  B14  1  -0.01615895  0.50069727  0.40416508  1.0
  B  B15  1  1.11129660  -0.59583492  0.50069727  1.0
  H  H16  1  0.23250010  -0.11813407  1.59200407  1.0
  H  H17  1  0.29362991  0.59200407  -0.11813407  1.0
  H  H18  1  -0.63186593  1.01749990  0.95637009  1.0
  H  H19  1  -0.34200407  0.95637009  1.01749990  1.0
  H  H20  1  0.59200407  0.29362991  1.23250010  1.0
  H  H21  1  -0.11813407  0.23250010  0.29362991  1.0
  H  H22  1  -0.04362991  0.65799593  0.36813407  1.0
  H  H23  1  0.01749990  0.36813407  0.65799593  1.0
  H  H24  1  -0.00444542  -0.24524552  1.83393583  1.0
  H  H25  1  0.41575512  0.83393583  -0.24524552  1.0
  H  H26  1  -0.50475448  1.25444542  0.83424488  1.0
  H  H27  1  0.41606417  -0.16575512  1.25444542  1.0
  H  H28  1  0.83393583  0.41575512  0.99555458  1.0
  H  H29  1  -0.24524552  -0.00444542  0.41575512  1.0
  H  H30  1  -0.16575512  0.41606417  0.49524552  1.0
  H  H31  1  1.25444542  -0.50475448  0.41606417  1.0
  H  H32  1  0.37548026  0.36081756  1.66500947  1.0
  H  H33  1  -0.40130728  0.66500947  0.36081756  1.0
  H  H34  1  -0.11081756  -0.12548026  1.65130728  1.0
  H  H35  1  0.58499053  0.65130728  0.87451974  1.0
  H  H36  1  0.66500947  -0.40130728  1.37548026  1.0
  H  H37  1  0.36081756  0.37548026  -0.40130728  1.0
  H  H38  1  0.65130728  0.58499053  0.88918244  1.0
  H  H39  1  -0.12548026  -0.11081756  1.58499053  1.0
  H  H40  1  0.36332929  0.37463397  1.09754647  1.0
  H  H41  1  0.16449028  0.09754647  1.37463397  1.0
  H  H42  1  -0.12463397  0.88667071  0.08550972  1.0
  H  H43  1  0.15245353  0.08550972  1.88667071  1.0
  H  H44  1  0.09754647  0.16449028  1.36332929  1.0
  H  H45  1  0.37463397  0.36332929  1.16449028  1.0
  H  H46  1  0.08550972  0.15245353  -0.12463397  1.0
  H  H47  1  0.88667071  -0.12463397  1.15245353  1.0
