# generated using pymatgen
data_Ni2P2O7
_symmetry_space_group_name_H-M   'P 1'
_cell_length_a   7.01672482
_cell_length_b   8.37168588
_cell_length_c   9.06183523
_cell_angle_alpha   90.00000000
_cell_angle_beta   113.43106410
_cell_angle_gamma   90.00000000
_symmetry_Int_Tables_number   1
_chemical_formula_structural   Ni2P2O7
_chemical_formula_sum   'Ni8 P8 O28'
_cell_volume   488.41404417
_cell_formula_units_Z   4
loop_
 _symmetry_equiv_pos_site_id
 _symmetry_equiv_pos_as_xyz
  1  'x, y, z'
loop_
 _atom_site_type_symbol
 _atom_site_label
 _atom_site_symmetry_multiplicity
 _atom_site_fract_x
 _atom_site_fract_y
 _atom_site_fract_z
 _atom_site_occupancy
  P  P0  1  0.93615980  0.27050106  0.25546257  1.0
  P  P1  1  0.93615980  0.22949894  0.75546257  1.0
  P  P2  1  0.06384020  0.77050106  0.24453743  1.0
  P  P3  1  0.06384020  0.72949894  0.74453743  1.0
  P  P4  1  0.52744116  0.22485556  0.46522009  1.0
  P  P5  1  0.52744116  0.27514444  0.96522009  1.0
  P  P6  1  0.47255884  0.72485556  0.03477991  1.0
  P  P7  1  0.47255884  0.77514444  0.53477991  1.0
  O  O8  1  0.87974090  0.11133490  0.30617570  1.0
  O  O9  1  0.87974090  0.38866510  0.80617570  1.0
  O  O10  1  0.12025910  0.61133490  0.19382430  1.0
  O  O11  1  0.12025910  0.88866510  0.69382430  1.0
  O  O12  1  0.74835672  0.33302734  0.09375963  1.0
  O  O13  1  0.74835672  0.16697266  0.59375963  1.0
  O  O14  1  0.25164328  0.83302734  0.40624037  1.0
  O  O15  1  0.25164328  0.66697266  0.90624037  1.0
  O  O16  1  0.87889928  0.76274639  0.29727613  1.0
  O  O17  1  0.87889928  0.73725361  0.79727613  1.0
  O  O18  1  0.12110072  0.26274639  0.20272387  1.0
  O  O19  1  0.12110072  0.23725361  0.70272387  1.0
  O  O20  1  0.54991113  0.38874289  0.39503958  1.0
  O  O21  1  0.54991113  0.11125711  0.89503958  1.0
  O  O22  1  0.45008887  0.88874289  0.10496042  1.0
  O  O23  1  0.45008887  0.61125711  0.60496042  1.0
  O  O24  1  0.47389233  0.08771176  0.34065779  1.0
  O  O25  1  0.47389233  0.41228824  0.84065779  1.0
  O  O26  1  0.52610767  0.58771176  0.15934221  1.0
  O  O27  1  0.52610767  0.91228824  0.65934221  1.0
  O  O28  1  0.97270194  0.40603482  0.38006800  1.0
  O  O29  1  0.97270194  0.09396518  0.88006800  1.0
  O  O30  1  0.02729806  0.90603482  0.11993200  1.0
  O  O31  1  0.02729806  0.59396518  0.61993200  1.0
  O  O32  1  0.37605030  0.26556518  0.05124810  1.0
  O  O33  1  0.37605030  0.23443482  0.55124810  1.0
  O  O34  1  0.62394970  0.76556518  0.44875190  1.0
  O  O35  1  0.62394970  0.73443482  0.94875190  1.0
  Ni  Ni36  1  0.77178638  0.92243865  0.89035495  1.0
  Ni  Ni37  1  0.77178638  0.57756135  0.39035495  1.0
  Ni  Ni38  1  0.22821362  0.42243865  0.60964505  1.0
  Ni  Ni39  1  0.22821362  0.07756135  0.10964505  1.0
  Ni  Ni40  1  0.69145824  0.94199907  0.31806108  1.0
  Ni  Ni41  1  0.69145824  0.55800093  0.81806108  1.0
  Ni  Ni42  1  0.30854176  0.44199907  0.18193892  1.0
  Ni  Ni43  1  0.30854176  0.05800093  0.68193892  1.0
