# generated using pymatgen
data_NaFeSO4F
_symmetry_space_group_name_H-M   'P 1'
_cell_length_a   5.55377762
_cell_length_b   5.55377762
_cell_length_c   7.33853839
_cell_angle_alpha   75.83672545
_cell_angle_beta   104.16327455
_cell_angle_gamma   75.14503805
_symmetry_Int_Tables_number   1
_chemical_formula_structural   NaFeSO4F
_chemical_formula_sum   'Na2 Fe2 S2 O8 F2'
_cell_volume   200.40010831
_cell_formula_units_Z   2
loop_
 _symmetry_equiv_pos_site_id
 _symmetry_equiv_pos_as_xyz
  1  'x, y, z'
loop_
 _atom_site_type_symbol
 _atom_site_label
 _atom_site_symmetry_multiplicity
 _atom_site_fract_x
 _atom_site_fract_y
 _atom_site_fract_z
 _atom_site_occupancy
  Na  Na0  1  0.66250554  -0.33749446  0.25000000  1.0
  Na  Na1  1  1.33749446  0.33749446  0.75000000  1.0
  Fe  Fe2  1  -0.00000000  -0.00000000  0.50000000  1.0
  Fe  Fe3  1  0.00000000  0.00000000  0.00000000  1.0
  S  S4  1  1.31792081  0.31792081  0.25000000  1.0
  S  S5  1  0.68207919  -0.31792081  0.75000000  1.0
  O  O6  1  1.58234112  0.25519512  0.39963718  1.0
  O  O7  1  0.74480488  -0.58234112  0.89963718  1.0
  O  O8  1  1.25519512  0.58234112  0.10036282  1.0
  O  O9  1  0.41765888  -0.25519512  0.60036282  1.0
  O  O10  1  1.32607667  0.11390176  0.14687767  1.0
  O  O11  1  0.88609824  -0.32607667  0.64687767  1.0
  O  O12  1  1.11390176  0.32607667  0.35312233  1.0
  O  O13  1  0.67392333  -0.11390176  0.85312233  1.0
  F  F14  1  0.91617256  -0.08382744  0.25000000  1.0
  F  F15  1  1.08382744  0.08382744  0.75000000  1.0
