# generated using pymatgen
data_AlHO2
_symmetry_space_group_name_H-M   'P 1'
_cell_length_a   2.86318893
_cell_length_b   4.25759064
_cell_length_c   4.76597734
_cell_angle_alpha   90.00000000
_cell_angle_beta   90.00000000
_cell_angle_gamma   90.00000000
_symmetry_Int_Tables_number   1
_chemical_formula_structural   AlHO2
_chemical_formula_sum   'Al2 H2 O4'
_cell_volume   58.09862871
_cell_formula_units_Z   2
loop_
 _symmetry_equiv_pos_site_id
 _symmetry_equiv_pos_as_xyz
  1  'x, y, z'
loop_
 _atom_site_type_symbol
 _atom_site_label
 _atom_site_symmetry_multiplicity
 _atom_site_fract_x
 _atom_site_fract_y
 _atom_site_fract_z
 _atom_site_occupancy
  Al  Al0  1  0.50000000  0.72464343  0.14594460  1.0
  Al  Al1  1  0.00000000  0.27535657  0.64594460  1.0
  H  H2  1  0.50000000  0.80309258  0.63066075  1.0
  H  H3  1  0.00000000  0.19690742  0.13066075  1.0
  O  O4  1  0.50000000  0.99972856  0.50258480  1.0
  O  O5  1  -0.00000000  0.00027144  0.00258480  1.0
  O  O6  1  0.50000000  0.50283731  0.80280984  1.0
  O  O7  1  0.00000000  0.49716269  0.30280984  1.0
