# generated using pymatgen
data_NaAlCO5
_symmetry_space_group_name_H-M   'P 1'
_cell_length_a   7.10104600
_cell_length_b   7.10104600
_cell_length_c   7.10104600
_cell_angle_alpha   126.32111720
_cell_angle_beta   123.92401130
_cell_angle_gamma   81.34971401
_symmetry_Int_Tables_number   1
_chemical_formula_structural   NaAlCO5
_chemical_formula_sum   'Na2 Al2 C2 O10'
_cell_volume   230.53529125
_cell_formula_units_Z   2
loop_
 _symmetry_equiv_pos_site_id
 _symmetry_equiv_pos_as_xyz
  1  'x, y, z'
loop_
 _atom_site_type_symbol
 _atom_site_label
 _atom_site_symmetry_multiplicity
 _atom_site_fract_x
 _atom_site_fract_y
 _atom_site_fract_z
 _atom_site_occupancy
  Na  Na0  1  0.50000000  0.00000000  0.50000000  1.0
  Na  Na1  1  0.00000000  0.00000000  0.00000000  1.0
  Al  Al2  1  1.00000000  0.50000000  1.00000000  1.0
  Al  Al3  1  1.00000000  1.00000000  1.50000000  1.0
  C  C4  1  0.76801816  0.51801816  1.25000000  1.0
  C  C5  1  1.23198184  0.48198184  0.75000000  1.0
  O  O6  1  1.16878052  0.59795281  0.92917229  1.0
  O  O7  1  0.83121948  0.76039177  1.42917229  1.0
  O  O8  1  1.16878052  1.23960823  1.57082771  1.0
  O  O9  1  0.83121948  0.40204719  1.07082771  1.0
  O  O10  1  1.17022815  0.80114144  1.36908671  1.0
  O  O11  1  1.06794527  0.19885856  0.86908671  1.0
  O  O12  1  0.82977185  0.19885856  0.63091329  1.0
  O  O13  1  0.93205473  0.80114144  1.13091329  1.0
  O  O14  1  0.65308146  0.40308146  0.25000000  1.0
  O  O15  1  0.34691854  0.59691854  0.75000000  1.0
