# generated using pymatgen
data_LiCoH24C8(N2O3)4
_symmetry_space_group_name_H-M   'P 1'
_cell_length_a   9.12988339
_cell_length_b   9.12988339
_cell_length_c   7.13886052
_cell_angle_alpha   90.00000000
_cell_angle_beta   90.00000000
_cell_angle_gamma   120.00000000
_symmetry_Int_Tables_number   1
_chemical_formula_structural   LiCoH24C8(N2O3)4
_chemical_formula_sum   'Li1 Co1 H24 C8 N8 O12'
_cell_volume   515.33541533
_cell_formula_units_Z   1
loop_
 _symmetry_equiv_pos_site_id
 _symmetry_equiv_pos_as_xyz
  1  'x, y, z'
loop_
 _atom_site_type_symbol
 _atom_site_label
 _atom_site_symmetry_multiplicity
 _atom_site_fract_x
 _atom_site_fract_y
 _atom_site_fract_z
 _atom_site_occupancy
  Li  Li0  1  -0.00000000  0.00000000  0.50000000  1.0
  Co  Co1  1  0.00000000  0.00000000  0.00000000  1.0
  H  H2  1  0.90850268  0.55311090  0.34235869  1.0
  H  H3  1  0.64460822  0.09149732  0.34235869  1.0
  H  H4  1  0.44688910  0.35539178  0.34235869  1.0
  H  H5  1  0.90850268  0.35539178  0.34235869  1.0
  H  H6  1  0.44688910  0.09149732  0.34235869  1.0
  H  H7  1  0.64460822  0.55311090  0.34235869  1.0
  H  H8  1  0.09149732  0.44688910  0.65764131  1.0
  H  H9  1  0.35539178  0.90850268  0.65764131  1.0
  H  H10  1  0.55311090  0.64460822  0.65764131  1.0
  H  H11  1  0.09149732  0.64460822  0.65764131  1.0
  H  H12  1  0.55311090  0.90850268  0.65764131  1.0
  H  H13  1  0.35539178  0.44688910  0.65764131  1.0
  H  H14  1  0.84370081  0.42185040  0.13771778  1.0
  H  H15  1  0.57814960  0.15629919  0.13771778  1.0
  H  H16  1  0.57814960  0.42185040  0.13771778  1.0
  H  H17  1  0.15629919  0.57814960  0.86228222  1.0
  H  H18  1  0.42185040  0.84370081  0.86228222  1.0
  H  H19  1  0.42185040  0.57814960  0.86228222  1.0
  H  H20  1  0.53544627  0.26772314  0.62133232  1.0
  H  H21  1  0.73227686  0.46455373  0.62133232  1.0
  H  H22  1  0.73227686  0.26772314  0.62133232  1.0
  H  H23  1  0.46455373  0.73227686  0.37866768  1.0
  H  H24  1  0.26772314  0.53544627  0.37866768  1.0
  H  H25  1  0.26772314  0.73227686  0.37866768  1.0
  C  C26  1  0.84548285  0.42274142  0.29078373  1.0
  C  C27  1  0.57725858  0.15451715  0.29078373  1.0
  C  C28  1  0.57725858  0.42274142  0.29078373  1.0
  C  C29  1  0.15451715  0.57725858  0.70921627  1.0
  C  C30  1  0.42274142  0.84548285  0.70921627  1.0
  C  C31  1  0.42274142  0.57725858  0.70921627  1.0
  C  C32  1  0.66666667  0.33333333  0.57169535  1.0
  C  C33  1  0.33333333  0.66666667  0.42830465  1.0
  N  N34  1  0.21007882  0.10503941  0.84919759  1.0
  N  N35  1  0.89496059  0.78992118  0.84919759  1.0
  N  N36  1  0.89496059  0.10503941  0.84919759  1.0
  N  N37  1  0.78992118  0.89496059  0.15080241  1.0
  N  N38  1  0.10503941  0.21007882  0.15080241  1.0
  N  N39  1  0.10503941  0.89496059  0.15080241  1.0
  N  N40  1  0.66666667  0.33333333  0.36125685  1.0
  N  N41  1  0.33333333  0.66666667  0.63874315  1.0
  O  O42  1  0.20832469  0.10416235  0.67385010  1.0
  O  O43  1  0.89583765  0.79167531  0.67385010  1.0
  O  O44  1  0.89583765  0.10416235  0.67385010  1.0
  O  O45  1  0.79167531  0.89583765  0.32614990  1.0
  O  O46  1  0.10416235  0.20832469  0.32614990  1.0
  O  O47  1  0.10416235  0.89583765  0.32614990  1.0
  O  O48  1  0.34712428  0.17356214  0.93278766  1.0
  O  O49  1  0.82643786  0.65287572  0.93278766  1.0
  O  O50  1  0.82643786  0.17356214  0.93278766  1.0
  O  O51  1  0.65287572  0.82643786  0.06721234  1.0
  O  O52  1  0.17356214  0.34712428  0.06721234  1.0
  O  O53  1  0.17356214  0.82643786  0.06721234  1.0
