# generated using pymatgen
data_Y2Si4Mo3
_symmetry_space_group_name_H-M   'P 1'
_cell_length_a   6.86077031
_cell_length_b   6.92631321
_cell_length_c   6.75469278
_cell_angle_alpha   90.00000000
_cell_angle_beta   108.91221433
_cell_angle_gamma   90.00000000
_symmetry_Int_Tables_number   1
_chemical_formula_structural   Y2Si4Mo3
_chemical_formula_sum   'Y4 Si8 Mo6'
_cell_volume   303.65414960
_cell_formula_units_Z   2
loop_
 _symmetry_equiv_pos_site_id
 _symmetry_equiv_pos_as_xyz
  1  'x, y, z'
loop_
 _atom_site_type_symbol
 _atom_site_label
 _atom_site_symmetry_multiplicity
 _atom_site_fract_x
 _atom_site_fract_y
 _atom_site_fract_z
 _atom_site_occupancy
  Y  Y0  1  0.30931775  0.66990804  0.93804229  1.0
  Y  Y1  1  0.30931775  0.83009196  0.43804229  1.0
  Y  Y2  1  0.69068225  0.16990804  0.56195771  1.0
  Y  Y3  1  0.69068225  0.33009196  0.06195771  1.0
  Si  Si4  1  0.99506879  0.86837809  0.62795409  1.0
  Si  Si5  1  0.99506879  0.63162191  0.12795409  1.0
  Si  Si6  1  0.00493121  0.36837809  0.87204591  1.0
  Si  Si7  1  0.00493121  0.13162191  0.37204591  1.0
  Si  Si8  1  0.59044798  0.95496824  0.86829480  1.0
  Si  Si9  1  0.59044798  0.54503176  0.36829480  1.0
  Si  Si10  1  0.40955202  0.45496824  0.63170520  1.0
  Si  Si11  1  0.40955202  0.04503176  0.13170520  1.0
  Mo  Mo12  1  0.75009147  0.66240122  0.74868715  1.0
  Mo  Mo13  1  0.75009147  0.83759878  0.24868715  1.0
  Mo  Mo14  1  0.24990853  0.16240122  0.75131285  1.0
  Mo  Mo15  1  0.24990853  0.33759878  0.25131285  1.0
  Mo  Mo16  1  0.00000000  0.00000000  0.00000000  1.0
  Mo  Mo17  1  0.00000000  0.50000000  0.50000000  1.0
