# generated using pymatgen
data_LaCN2Cl
_symmetry_space_group_name_H-M   'P 1'
_cell_length_a   5.37267604
_cell_length_b   4.03617118
_cell_length_c   7.64506322
_cell_angle_alpha   90.00000000
_cell_angle_beta   100.18407271
_cell_angle_gamma   90.00000000
_symmetry_Int_Tables_number   1
_chemical_formula_structural   LaCN2Cl
_chemical_formula_sum   'La2 C2 N4 Cl2'
_cell_volume   163.17155009
_cell_formula_units_Z   2
loop_
 _symmetry_equiv_pos_site_id
 _symmetry_equiv_pos_as_xyz
  1  'x, y, z'
loop_
 _atom_site_type_symbol
 _atom_site_label
 _atom_site_symmetry_multiplicity
 _atom_site_fract_x
 _atom_site_fract_y
 _atom_site_fract_z
 _atom_site_occupancy
  La  La0  1  0.67653994  0.25000000  0.23595698  1.0
  La  La1  1  0.32346006  0.75000000  0.76404302  1.0
  C  C2  1  0.84670003  0.25000000  0.85779535  1.0
  C  C3  1  0.15329997  0.75000000  0.14220465  1.0
  N  N4  1  0.62323463  0.25000000  0.88181551  1.0
  N  N5  1  0.37676537  0.75000000  0.11818449  1.0
  N  N6  1  0.06708404  0.25000000  0.83807370  1.0
  N  N7  1  0.93291596  0.75000000  0.16192630  1.0
  Cl  Cl8  1  0.24638591  0.25000000  0.45914133  1.0
  Cl  Cl9  1  0.75361409  0.75000000  0.54085867  1.0
