# generated using pymatgen
data_GaCoAg2F7
_symmetry_space_group_name_H-M   'P 1'
_cell_length_a   7.54378897
_cell_length_b   7.54378897
_cell_length_c   7.54378897
_cell_angle_alpha   121.76185085
_cell_angle_beta   91.40570439
_cell_angle_gamma   116.68457651
_symmetry_Int_Tables_number   1
_chemical_formula_structural   GaCoAg2F7
_chemical_formula_sum   'Ga2 Co2 Ag4 F14'
_cell_volume   306.29898442
_cell_formula_units_Z   2
loop_
 _symmetry_equiv_pos_site_id
 _symmetry_equiv_pos_as_xyz
  1  'x, y, z'
loop_
 _atom_site_type_symbol
 _atom_site_label
 _atom_site_symmetry_multiplicity
 _atom_site_fract_x
 _atom_site_fract_y
 _atom_site_fract_z
 _atom_site_occupancy
  Ag  Ag0  1  1.61300997  0.86247816  0.75053182  1.0
  Ag  Ag1  1  1.11194634  0.86247816  0.24946818  1.0
  Ag  Ag2  1  0.61167132  0.36148546  0.74981414  1.0
  Ag  Ag3  1  0.61167132  0.86185718  1.25018586  1.0
  Co  Co4  1  1.11235781  0.86232537  0.74996757  1.0
  Co  Co5  1  1.11235781  1.36239024  1.25003243  1.0
  Ga  Ga6  1  1.11226439  1.36227375  0.74999064  1.0
  Ga  Ga7  1  1.61228312  1.36227375  1.25000936  1.0
  F  F8  1  1.06519899  1.23822009  0.44480460  1.0
  F  F9  1  1.79341548  1.23822009  1.17302110  1.0
  F  F10  1  1.06519899  1.62039439  0.82697890  1.0
  F  F11  1  1.79341548  1.62039439  1.55519540  1.0
  F  F12  1  1.15943123  1.10418318  0.67296125  1.0
  F  F13  1  1.43122194  1.10418318  0.94475195  1.0
  F  F14  1  1.15943123  1.48646998  1.05524805  1.0
  F  F15  1  1.43122194  1.48646998  1.32703875  1.0
  F  F16  1  0.41709147  0.57980257  0.83728889  1.0
  F  F17  1  0.74251368  0.57980257  1.16271111  1.0
  F  F18  1  0.80746291  0.14464933  0.66281358  1.0
  F  F19  1  0.48183575  0.14464933  0.33718642  1.0
  F  F20  1  1.19532424  0.69532424  0.50000000  1.0
  F  F21  1  0.02917461  0.02917461  0.00000000  1.0
