# generated using pymatgen
data_SiC
_symmetry_space_group_name_H-M   'P 1'
_cell_length_a   3.09266516
_cell_length_b   3.09266516
_cell_length_c   5.07603070
_cell_angle_alpha   90.00000000
_cell_angle_beta   90.00000000
_cell_angle_gamma   120.00000000
_symmetry_Int_Tables_number   1
_chemical_formula_structural   SiC
_chemical_formula_sum   'Si2 C2'
_cell_volume   42.04561168
_cell_formula_units_Z   2
loop_
 _symmetry_equiv_pos_site_id
 _symmetry_equiv_pos_as_xyz
  1  'x, y, z'
loop_
 _atom_site_type_symbol
 _atom_site_label
 _atom_site_symmetry_multiplicity
 _atom_site_fract_x
 _atom_site_fract_y
 _atom_site_fract_z
 _atom_site_occupancy
  Si  Si0  1  0.33333333  0.66666667  0.00011432  1.0
  Si  Si1  1  0.66666667  0.33333333  0.50011432  1.0
  C  C2  1  0.33333333  0.66666667  0.37588568  1.0
  C  C3  1  0.66666667  0.33333333  0.87588568  1.0
