# generated using pymatgen
data_BaTeW2O9
_symmetry_space_group_name_H-M   'P 1'
_cell_length_a   5.62293492
_cell_length_b   7.58522114
_cell_length_c   9.03648990
_cell_angle_alpha   90.00000000
_cell_angle_beta   90.09123595
_cell_angle_gamma   90.00000000
_symmetry_Int_Tables_number   1
_chemical_formula_structural   BaTeW2O9
_chemical_formula_sum   'Ba2 Te2 W4 O18'
_cell_volume   385.41669274
_cell_formula_units_Z   2
loop_
 _symmetry_equiv_pos_site_id
 _symmetry_equiv_pos_as_xyz
  1  'x, y, z'
loop_
 _atom_site_type_symbol
 _atom_site_label
 _atom_site_symmetry_multiplicity
 _atom_site_fract_x
 _atom_site_fract_y
 _atom_site_fract_z
 _atom_site_occupancy
  Ba  Ba0  1  0.74350621  0.54409775  0.93749769  1.0
  Ba  Ba1  1  0.25649379  0.04409775  0.06250231  1.0
  Te  Te2  1  0.37852931  0.78417156  0.59187105  1.0
  Te  Te3  1  0.62147069  0.28417156  0.40812895  1.0
  W  W4  1  0.77195060  0.84551966  0.32324317  1.0
  W  W5  1  0.22804940  0.34551966  0.67675683  1.0
  W  W6  1  0.78062989  0.02815081  0.76134758  1.0
  W  W7  1  0.21937011  0.52815081  0.23865242  1.0
  O  O8  1  0.97760779  0.86467222  0.83117204  1.0
  O  O9  1  0.02239221  0.36467222  0.16882796  1.0
  O  O10  1  0.99668450  0.50335042  0.67486894  1.0
  O  O11  1  0.00331550  0.00335042  0.32513106  1.0
  O  O12  1  0.96858720  0.64461628  0.35683637  1.0
  O  O13  1  0.03141280  0.14461628  0.64316363  1.0
  O  O14  1  0.77094994  0.17612266  0.91292907  1.0
  O  O15  1  0.22905006  0.67612266  0.08707093  1.0
  O  O16  1  0.71223538  0.81777121  0.13114578  1.0
  O  O17  1  0.28776462  0.31777121  0.86885422  1.0
  O  O18  1  0.71099070  0.87147119  0.55528573  1.0
  O  O19  1  0.28900930  0.37147119  0.44471427  1.0
  O  O20  1  0.49124948  0.90485020  0.79850757  1.0
  O  O21  1  0.50875052  0.40485020  0.20149243  1.0
  O  O22  1  0.47114336  0.55731292  0.67753762  1.0
  O  O23  1  0.52885664  0.05731292  0.32246238  1.0
  O  O24  1  0.45223790  0.70359311  0.37446880  1.0
  O  O25  1  0.54776210  0.20359311  0.62553120  1.0
