# generated using pymatgen
data_KBiO3
_symmetry_space_group_name_H-M   'P 1'
_cell_length_a   10.17490492
_cell_length_b   10.17490492
_cell_length_c   10.17490492
_cell_angle_alpha   90.00000000
_cell_angle_beta   90.00000000
_cell_angle_gamma   90.00000000
_symmetry_Int_Tables_number   1
_chemical_formula_structural   KBiO3
_chemical_formula_sum   'K12 Bi12 O36'
_cell_volume   1053.39457908
_cell_formula_units_Z   12
loop_
 _symmetry_equiv_pos_site_id
 _symmetry_equiv_pos_as_xyz
  1  'x, y, z'
loop_
 _atom_site_type_symbol
 _atom_site_label
 _atom_site_symmetry_multiplicity
 _atom_site_fract_x
 _atom_site_fract_y
 _atom_site_fract_z
 _atom_site_occupancy
  K  K0  1  0.75000000  0.25000000  0.25000000  1.0
  K  K1  1  0.25000000  0.25000000  0.75000000  1.0
  K  K2  1  0.25000000  0.75000000  0.25000000  1.0
  K  K3  1  0.75000000  0.75000000  0.75000000  1.0
  K  K4  1  0.34485912  0.65514088  0.65514088  1.0
  K  K5  1  0.65514088  0.65514088  0.34485912  1.0
  K  K6  1  0.65514088  0.34485912  0.65514088  1.0
  K  K7  1  0.34485912  0.34485912  0.34485912  1.0
  K  K8  1  0.15514088  0.84485912  0.84485912  1.0
  K  K9  1  0.84485912  0.84485912  0.15514088  1.0
  K  K10  1  0.84485912  0.15514088  0.84485912  1.0
  K  K11  1  0.15514088  0.15514088  0.15514088  1.0
  Bi  Bi12  1  0.50000000  0.84083664  0.00000000  1.0
  Bi  Bi13  1  0.50000000  0.15916336  0.00000000  1.0
  Bi  Bi14  1  0.00000000  0.50000000  0.84083664  1.0
  Bi  Bi15  1  0.00000000  0.50000000  0.15916336  1.0
  Bi  Bi16  1  0.84083664  0.00000000  0.50000000  1.0
  Bi  Bi17  1  0.15916336  0.00000000  0.50000000  1.0
  Bi  Bi18  1  0.00000000  0.65916336  0.50000000  1.0
  Bi  Bi19  1  0.00000000  0.34083664  0.50000000  1.0
  Bi  Bi20  1  0.50000000  0.00000000  0.65916336  1.0
  Bi  Bi21  1  0.50000000  0.00000000  0.34083664  1.0
  Bi  Bi22  1  0.65916336  0.50000000  0.00000000  1.0
  Bi  Bi23  1  0.34083664  0.50000000  0.00000000  1.0
  O  O24  1  0.50000000  0.85977949  0.50000000  1.0
  O  O25  1  0.50000000  0.14022051  0.50000000  1.0
  O  O26  1  0.50000000  0.50000000  0.85977949  1.0
  O  O27  1  0.50000000  0.50000000  0.14022051  1.0
  O  O28  1  0.85977949  0.50000000  0.50000000  1.0
  O  O29  1  0.14022051  0.50000000  0.50000000  1.0
  O  O30  1  0.00000000  0.64022051  0.00000000  1.0
  O  O31  1  0.00000000  0.35977949  0.00000000  1.0
  O  O32  1  0.00000000  0.00000000  0.64022051  1.0
  O  O33  1  0.00000000  0.00000000  0.35977949  1.0
  O  O34  1  0.64022051  0.00000000  0.00000000  1.0
  O  O35  1  0.35977949  0.00000000  0.00000000  1.0
  O  O36  1  0.16500529  0.78645281  0.50287636  1.0
  O  O37  1  0.83499471  0.78645281  0.49712364  1.0
  O  O38  1  0.83499471  0.21354719  0.50287636  1.0
  O  O39  1  0.16500529  0.21354719  0.49712364  1.0
  O  O40  1  0.50287636  0.16500529  0.78645281  1.0
  O  O41  1  0.49712364  0.83499471  0.78645281  1.0
  O  O42  1  0.50287636  0.83499471  0.21354719  1.0
  O  O43  1  0.49712364  0.16500529  0.21354719  1.0
  O  O44  1  0.78645281  0.50287636  0.16500529  1.0
  O  O45  1  0.78645281  0.49712364  0.83499471  1.0
  O  O46  1  0.21354719  0.50287636  0.83499471  1.0
  O  O47  1  0.21354719  0.49712364  0.16500529  1.0
  O  O48  1  0.33499471  0.71354719  -0.00287636  1.0
  O  O49  1  0.66500529  0.71354719  0.00287636  1.0
  O  O50  1  0.66500529  0.28645281  -0.00287636  1.0
  O  O51  1  0.33499471  0.28645281  0.00287636  1.0
  O  O52  1  -0.00287636  0.33499471  0.71354719  1.0
  O  O53  1  0.00287636  0.66500529  0.71354719  1.0
  O  O54  1  -0.00287636  0.66500529  0.28645281  1.0
  O  O55  1  0.00287636  0.33499471  0.28645281  1.0
  O  O56  1  0.71354719  -0.00287636  0.33499471  1.0
  O  O57  1  0.71354719  0.00287636  0.66500529  1.0
  O  O58  1  0.28645281  -0.00287636  0.66500529  1.0
  O  O59  1  0.28645281  0.00287636  0.33499471  1.0
