# generated using pymatgen
data_SiO2
_symmetry_space_group_name_H-M   'P 1'
_cell_length_a   11.66616989
_cell_length_b   11.66616989
_cell_length_c   7.75023841
_cell_angle_alpha   80.50410889
_cell_angle_beta   99.49589111
_cell_angle_gamma   108.45624647
_symmetry_Int_Tables_number   1
_chemical_formula_structural   SiO2
_chemical_formula_sum   'Si16 O32'
_cell_volume   979.64812655
_cell_formula_units_Z   16
loop_
 _symmetry_equiv_pos_site_id
 _symmetry_equiv_pos_as_xyz
  1  'x, y, z'
loop_
 _atom_site_type_symbol
 _atom_site_label
 _atom_site_symmetry_multiplicity
 _atom_site_fract_x
 _atom_site_fract_y
 _atom_site_fract_z
 _atom_site_occupancy
  Si  Si0  1  1.73760555  0.03059288  0.59708608  1.0
  Si  Si1  1  0.96940712  -0.73760555  0.59708608  1.0
  Si  Si2  1  1.03059288  0.73760555  0.40291392  1.0
  Si  Si3  1  0.26239445  -0.03059288  0.40291392  1.0
  Si  Si4  1  1.63874506  0.13289289  0.87444409  1.0
  Si  Si5  1  0.86710711  -0.63874506  0.87444409  1.0
  Si  Si6  1  1.13289289  0.63874506  0.12555591  1.0
  Si  Si7  1  0.36125494  -0.13289289  0.12555591  1.0
  Si  Si8  1  1.36460635  0.04211884  0.77239458  1.0
  Si  Si9  1  0.95788116  -0.36460635  0.77239458  1.0
  Si  Si10  1  1.04211884  0.36460635  0.22760542  1.0
  Si  Si11  1  0.63539365  -0.04211884  0.22760542  1.0
  Si  Si12  1  1.12611787  0.10105694  0.80078723  1.0
  Si  Si13  1  0.89894306  -0.12611787  0.80078723  1.0
  Si  Si14  1  1.10105694  0.12611787  0.19921277  1.0
  Si  Si15  1  0.87388213  -0.10105694  0.19921277  1.0
  O  O16  1  0.79666967  -0.08087847  0.66229658  1.0
  O  O17  1  1.08087847  0.20333033  0.66229658  1.0
  O  O18  1  0.91912153  -0.20333033  0.33770342  1.0
  O  O19  1  1.20333033  0.08087847  0.33770342  1.0
  O  O20  1  1.66722918  0.04588458  0.75251131  1.0
  O  O21  1  0.95411542  -0.66722918  0.75251131  1.0
  O  O22  1  1.04588458  0.66722918  0.24748869  1.0
  O  O23  1  0.33277082  -0.04588458  0.24748869  1.0
  O  O24  1  0.34155717  -0.07798285  0.91910276  1.0
  O  O25  1  1.07798285  0.65844283  0.91910276  1.0
  O  O26  1  0.92201715  -0.65844283  0.08089724  1.0
  O  O27  1  1.65844283  0.07798285  0.08089724  1.0
  O  O28  1  1.49897511  0.13683762  0.81947974  1.0
  O  O29  1  0.86316238  -0.49897511  0.81947974  1.0
  O  O30  1  1.13683762  0.49897511  0.18052026  1.0
  O  O31  1  0.50102489  -0.13683762  0.18052026  1.0
  O  O32  1  1.35743238  0.00041487  0.57924966  1.0
  O  O33  1  0.99958513  -0.35743238  0.57924966  1.0
  O  O34  1  1.00041487  0.35743238  0.42075034  1.0
  O  O35  1  0.64256762  -0.00041487  0.42075034  1.0
  O  O36  1  1.26291980  0.11121065  0.76879077  1.0
  O  O37  1  0.88878935  -0.26291980  0.76879077  1.0
  O  O38  1  1.11121065  0.26291980  0.23120923  1.0
  O  O39  1  0.73708020  -0.11121065  0.23120923  1.0
  O  O40  1  0.96451132  -0.96451132  0.22952538  1.0
  O  O41  1  0.03548868  -0.03548868  0.77047462  1.0
  O  O42  1  0.84341620  -0.84341620  0.54950204  1.0
  O  O43  1  0.15658380  -0.15658380  0.45049796  1.0
  O  O44  1  0.72870396  -0.72870396  0.84631355  1.0
  O  O45  1  0.27129604  -0.27129604  0.15368645  1.0
  O  O46  1  0.87313794  -0.12686206  -0.00000000  1.0
  O  O47  1  1.12686206  0.12686206  -0.00000000  1.0
