# generated using pymatgen
data_C2SeN2
_symmetry_space_group_name_H-M   'P 1'
_cell_length_a   5.75786001
_cell_length_b   5.75786001
_cell_length_c   15.50672734
_cell_angle_alpha   90.00000000
_cell_angle_beta   90.00000000
_cell_angle_gamma   79.16941541
_symmetry_Int_Tables_number   1
_chemical_formula_structural   C2SeN2
_chemical_formula_sum   'C8 Se4 N8'
_cell_volume   504.93627736
_cell_formula_units_Z   4
loop_
 _symmetry_equiv_pos_site_id
 _symmetry_equiv_pos_as_xyz
  1  'x, y, z'
loop_
 _atom_site_type_symbol
 _atom_site_label
 _atom_site_symmetry_multiplicity
 _atom_site_fract_x
 _atom_site_fract_y
 _atom_site_fract_z
 _atom_site_occupancy
  C  C0  1  -0.45747122  1.15756337  0.37560474  1.0
  C  C1  1  0.04252878  0.65756337  0.12439526  1.0
  C  C2  1  0.15756337  0.54252878  0.62439526  1.0
  C  C3  1  -0.34243663  1.04252878  0.87560474  1.0
  C  C4  1  -0.15756337  1.45747122  0.37560474  1.0
  C  C5  1  0.34243663  0.95747122  0.12439526  1.0
  C  C6  1  0.45747122  0.84243663  0.62439526  1.0
  C  C7  1  -0.04252878  1.34243663  0.87560474  1.0
  Se  Se8  1  -0.12740774  1.12740774  0.37529105  1.0
  Se  Se9  1  0.37259226  0.62740774  0.12470895  1.0
  Se  Se10  1  0.12740774  0.87259226  0.62470895  1.0
  Se  Se11  1  -0.37259226  1.37259226  0.87529105  1.0
  N  N12  1  0.33843690  1.16822782  0.37594338  1.0
  N  N13  1  -0.16156310  0.66822782  0.12405662  1.0
  N  N14  1  0.16822782  1.33843690  0.62405662  1.0
  N  N15  1  -0.33177218  0.83843690  0.87594338  1.0
  N  N16  1  -0.16822782  0.66156310  0.37594338  1.0
  N  N17  1  0.33177218  1.16156310  0.12405662  1.0
  N  N18  1  -0.33843690  0.83177218  0.62405662  1.0
  N  N19  1  0.16156310  1.33177218  0.87594338  1.0
