# generated using pymatgen
data_HfVSi
_symmetry_space_group_name_H-M   'P 1'
_cell_length_a   3.66072768
_cell_length_b   3.66072768
_cell_length_c   7.16869505
_cell_angle_alpha   90.00000000
_cell_angle_beta   90.00000000
_cell_angle_gamma   90.00000000
_symmetry_Int_Tables_number   1
_chemical_formula_structural   HfVSi
_chemical_formula_sum   'Hf2 V2 Si2'
_cell_volume   96.06715997
_cell_formula_units_Z   2
loop_
 _symmetry_equiv_pos_site_id
 _symmetry_equiv_pos_as_xyz
  1  'x, y, z'
loop_
 _atom_site_type_symbol
 _atom_site_label
 _atom_site_symmetry_multiplicity
 _atom_site_fract_x
 _atom_site_fract_y
 _atom_site_fract_z
 _atom_site_occupancy
  Hf  Hf0  1  0.50000000  0.00000000  0.63929800  1.0
  Hf  Hf1  1  0.00000000  0.50000000  0.36070200  1.0
  V  V2  1  0.00000000  0.00000000  0.00000000  1.0
  V  V3  1  0.50000000  0.50000000  0.00000000  1.0
  Si  Si4  1  0.50000000  0.00000000  0.24708463  1.0
  Si  Si5  1  0.00000000  0.50000000  0.75291537  1.0
