# generated using pymatgen
data_Y5CuPb3
_symmetry_space_group_name_H-M   'P 1'
_cell_length_a   9.20610628
_cell_length_b   9.20610628
_cell_length_c   6.69783706
_cell_angle_alpha   90.00000000
_cell_angle_beta   90.00000000
_cell_angle_gamma   120.00000000
_symmetry_Int_Tables_number   1
_chemical_formula_structural   Y5CuPb3
_chemical_formula_sum   'Y10 Cu2 Pb6'
_cell_volume   491.60600400
_cell_formula_units_Z   2
loop_
 _symmetry_equiv_pos_site_id
 _symmetry_equiv_pos_as_xyz
  1  'x, y, z'
loop_
 _atom_site_type_symbol
 _atom_site_label
 _atom_site_symmetry_multiplicity
 _atom_site_fract_x
 _atom_site_fract_y
 _atom_site_fract_z
 _atom_site_occupancy
  Y  Y0  1  0.74630012  0.74630012  0.25000000  1.0
  Y  Y1  1  0.74630012  0.00000000  0.75000000  1.0
  Y  Y2  1  -0.00000000  0.74630012  0.75000000  1.0
  Y  Y3  1  0.00000000  0.25369988  0.25000000  1.0
  Y  Y4  1  0.25369988  0.25369988  0.75000000  1.0
  Y  Y5  1  0.25369988  0.00000000  0.25000000  1.0
  Y  Y6  1  0.33333333  0.66666667  0.50000000  1.0
  Y  Y7  1  0.33333333  0.66666667  0.00000000  1.0
  Y  Y8  1  0.66666667  0.33333333  0.50000000  1.0
  Y  Y9  1  0.66666667  0.33333333  0.00000000  1.0
  Cu  Cu10  1  0.00000000  0.00000000  0.50000000  1.0
  Cu  Cu11  1  0.00000000  0.00000000  0.00000000  1.0
  Pb  Pb12  1  0.38937263  0.38937263  0.25000000  1.0
  Pb  Pb13  1  0.38937263  0.00000000  0.75000000  1.0
  Pb  Pb14  1  0.00000000  0.38937263  0.75000000  1.0
  Pb  Pb15  1  -0.00000000  0.61062737  0.25000000  1.0
  Pb  Pb16  1  0.61062737  0.61062737  0.75000000  1.0
  Pb  Pb17  1  0.61062737  0.00000000  0.25000000  1.0
