# generated using pymatgen
data_KSrH6Ir
_symmetry_space_group_name_H-M   'P 1'
_cell_length_a   5.50820217
_cell_length_b   5.50820217
_cell_length_c   5.50820217
_cell_angle_alpha   60.00000000
_cell_angle_beta   60.00000000
_cell_angle_gamma   60.00000000
_symmetry_Int_Tables_number   1
_chemical_formula_structural   KSrH6Ir
_chemical_formula_sum   'K1 Sr1 H6 Ir1'
_cell_volume   118.17200910
_cell_formula_units_Z   1
loop_
 _symmetry_equiv_pos_site_id
 _symmetry_equiv_pos_as_xyz
  1  'x, y, z'
loop_
 _atom_site_type_symbol
 _atom_site_label
 _atom_site_symmetry_multiplicity
 _atom_site_fract_x
 _atom_site_fract_y
 _atom_site_fract_z
 _atom_site_occupancy
  K  K0  1  0.00000000  0.00000000  0.00000000  1.0
  Sr  Sr1  1  -0.50000000  0.50000000  0.50000000  1.0
  H  H2  1  0.53350761  0.96649239  -0.03350761  1.0
  H  H3  1  0.96649239  0.96649239  -0.46649239  1.0
  H  H4  1  0.96649239  0.53350761  -0.03350761  1.0
  H  H5  1  0.53350761  0.53350761  -0.03350761  1.0
  H  H6  1  0.53350761  0.96649239  -0.46649239  1.0
  H  H7  1  0.96649239  0.53350761  -0.46649239  1.0
  Ir  Ir8  1  0.75000000  0.75000000  -0.25000000  1.0
