# generated using pymatgen
data_Ca3(SiAs2)2
_symmetry_space_group_name_H-M   'P 1'
_cell_length_a   7.31522006
_cell_length_b   17.79956621
_cell_length_c   7.18203682
_cell_angle_alpha   90.00000000
_cell_angle_beta   111.68709977
_cell_angle_gamma   90.00000000
_symmetry_Int_Tables_number   1
_chemical_formula_structural   Ca3(SiAs2)2
_chemical_formula_sum   'Ca12 Si8 As16'
_cell_volume   868.96248100
_cell_formula_units_Z   4
loop_
 _symmetry_equiv_pos_site_id
 _symmetry_equiv_pos_as_xyz
  1  'x, y, z'
loop_
 _atom_site_type_symbol
 _atom_site_label
 _atom_site_symmetry_multiplicity
 _atom_site_fract_x
 _atom_site_fract_y
 _atom_site_fract_z
 _atom_site_occupancy
  Ca  Ca0  1  0.78132249  0.18391579  0.98651340  1.0
  Ca  Ca1  1  0.78132249  0.31608421  0.48651340  1.0
  Ca  Ca2  1  0.21867751  0.68391579  0.51348660  1.0
  Ca  Ca3  1  0.21867751  0.81608421  0.01348660  1.0
  Ca  Ca4  1  0.74553767  0.44104836  0.98789443  1.0
  Ca  Ca5  1  0.74553767  0.05895164  0.48789443  1.0
  Ca  Ca6  1  0.25446233  0.94104836  0.51210557  1.0
  Ca  Ca7  1  0.25446233  0.55895164  0.01210557  1.0
  Ca  Ca8  1  0.73822393  0.93922814  0.99829187  1.0
  Ca  Ca9  1  0.73822393  0.56077186  0.49829187  1.0
  Ca  Ca10  1  0.26177607  0.43922814  0.50170813  1.0
  Ca  Ca11  1  0.26177607  0.06077186  0.00170813  1.0
  Si  Si12  1  0.78775697  0.62963902  0.97018620  1.0
  Si  Si13  1  0.78775697  0.87036098  0.47018620  1.0
  Si  Si14  1  0.21224303  0.12963902  0.52981380  1.0
  Si  Si15  1  0.21224303  0.37036098  0.02981380  1.0
  Si  Si16  1  0.68384598  0.75962857  0.57920558  1.0
  Si  Si17  1  0.68384598  0.74037143  0.07920558  1.0
  Si  Si18  1  0.31615402  0.25962857  0.92079442  1.0
  Si  Si19  1  0.31615402  0.24037143  0.42079442  1.0
  As  As20  1  0.99287425  0.93858500  0.75027274  1.0
  As  As21  1  0.99287425  0.56141500  0.25027274  1.0
  As  As22  1  0.00712575  0.43858500  0.74972726  1.0
  As  As23  1  0.00712575  0.06141500  0.24972726  1.0
  As  As24  1  0.96353786  0.68727273  0.77838121  1.0
  As  As25  1  0.96353786  0.81272727  0.27838121  1.0
  As  As26  1  0.03646214  0.18727273  0.72161879  1.0
  As  As27  1  0.03646214  0.31272727  0.22161879  1.0
  As  As28  1  0.49974193  0.56794230  0.75699462  1.0
  As  As29  1  0.49974193  0.93205770  0.25699462  1.0
  As  As30  1  0.50025807  0.06794230  0.74300538  1.0
  As  As31  1  0.50025807  0.43205770  0.24300538  1.0
  As  As32  1  0.49393502  0.80335362  0.77016323  1.0
  As  As33  1  0.49393502  0.69664638  0.27016323  1.0
  As  As34  1  0.50606498  0.30335362  0.72983677  1.0
  As  As35  1  0.50606498  0.19664638  0.22983677  1.0
