# generated using pymatgen
data_BaV(AsO4)2
_symmetry_space_group_name_H-M   'P 1'
_cell_length_a   7.84874142
_cell_length_b   14.94603032
_cell_length_c   6.83665528
_cell_angle_alpha   90.00000000
_cell_angle_beta   114.95683015
_cell_angle_gamma   90.00000000
_symmetry_Int_Tables_number   1
_chemical_formula_structural   BaV(AsO4)2
_chemical_formula_sum   'Ba4 V4 As8 O32'
_cell_volume   727.10596946
_cell_formula_units_Z   4
loop_
 _symmetry_equiv_pos_site_id
 _symmetry_equiv_pos_as_xyz
  1  'x, y, z'
loop_
 _atom_site_type_symbol
 _atom_site_label
 _atom_site_symmetry_multiplicity
 _atom_site_fract_x
 _atom_site_fract_y
 _atom_site_fract_z
 _atom_site_occupancy
  Ba  Ba0  1  0.33948236  0.87428067  0.79582384  1.0
  Ba  Ba1  1  0.33948236  0.62571933  0.29582384  1.0
  Ba  Ba2  1  0.66051764  0.37428067  0.70417616  1.0
  Ba  Ba3  1  0.66051764  0.12571933  0.20417616  1.0
  V  V4  1  0.98757589  0.65028456  0.70642102  1.0
  V  V5  1  0.98757589  0.84971544  0.20642102  1.0
  V  V6  1  0.01242411  0.15028456  0.79357898  1.0
  V  V7  1  0.01242411  0.34971544  0.29357898  1.0
  As  As8  1  0.78315347  0.96596079  0.78349805  1.0
  As  As9  1  0.78315347  0.53403921  0.28349805  1.0
  As  As10  1  0.21684653  0.46596079  0.71650195  1.0
  As  As11  1  0.21684653  0.03403921  0.21650195  1.0
  As  As12  1  0.68289760  0.68344479  0.90561466  1.0
  As  As13  1  0.68289760  0.81655521  0.40561466  1.0
  As  As14  1  0.31710240  0.18344479  0.59438534  1.0
  As  As15  1  0.31710240  0.31655521  0.09438534  1.0
  O  O16  1  0.98426344  0.90385704  0.94030069  1.0
  O  O17  1  0.98426344  0.59614296  0.44030069  1.0
  O  O18  1  0.01573656  0.40385704  0.55969931  1.0
  O  O19  1  0.01573656  0.09614296  0.05969931  1.0
  O  O20  1  0.86274924  0.23014202  0.69284391  1.0
  O  O21  1  0.86274924  0.26985798  0.19284391  1.0
  O  O22  1  0.13725076  0.73014202  0.80715609  1.0
  O  O23  1  0.13725076  0.76985798  0.30715609  1.0
  O  O24  1  0.87512576  0.62399411  0.90148949  1.0
  O  O25  1  0.87512576  0.87600589  0.40148949  1.0
  O  O26  1  0.12487424  0.12399411  0.59851051  1.0
  O  O27  1  0.12487424  0.37600589  0.09851051  1.0
  O  O28  1  0.75260929  0.71448895  0.53768174  1.0
  O  O29  1  0.75260929  0.78551105  0.03768174  1.0
  O  O30  1  0.24739071  0.21448895  0.96231826  1.0
  O  O31  1  0.24739071  0.28551105  0.46231826  1.0
  O  O32  1  0.64934266  0.99006028  0.91896447  1.0
  O  O33  1  0.64934266  0.50993972  0.41896447  1.0
  O  O34  1  0.35065734  0.49006028  0.58103553  1.0
  O  O35  1  0.35065734  0.00993972  0.08103553  1.0
  O  O36  1  0.62290997  0.89042784  0.58077353  1.0
  O  O37  1  0.62290997  0.60957216  0.08077353  1.0
  O  O38  1  0.37709003  0.39042784  0.91922647  1.0
  O  O39  1  0.37709003  0.10957216  0.41922647  1.0
  O  O40  1  0.47030213  0.69993261  0.69685793  1.0
  O  O41  1  0.47030213  0.80006739  0.19685793  1.0
  O  O42  1  0.52969787  0.19993261  0.80314207  1.0
  O  O43  1  0.52969787  0.30006739  0.30314207  1.0
  O  O44  1  0.15616586  0.54678013  0.85882149  1.0
  O  O45  1  0.15616586  0.95321987  0.35882149  1.0
  O  O46  1  0.84383414  0.04678013  0.64117851  1.0
  O  O47  1  0.84383414  0.45321987  0.14117851  1.0
