# generated using pymatgen
data_RbP(HO2)2
_symmetry_space_group_name_H-M   'P 1'
_cell_length_a   9.08518816
_cell_length_b   6.30534337
_cell_length_c   9.73916878
_cell_angle_alpha   90.00000000
_cell_angle_beta   125.32607264
_cell_angle_gamma   90.00000000
_symmetry_Int_Tables_number   1
_chemical_formula_structural   RbP(HO2)2
_chemical_formula_sum   'Rb4 P4 H8 O16'
_cell_volume   455.18500448
_cell_formula_units_Z   4
loop_
 _symmetry_equiv_pos_site_id
 _symmetry_equiv_pos_as_xyz
  1  'x, y, z'
loop_
 _atom_site_type_symbol
 _atom_site_label
 _atom_site_symmetry_multiplicity
 _atom_site_fract_x
 _atom_site_fract_y
 _atom_site_fract_z
 _atom_site_occupancy
  Rb  Rb0  1  0.26870873  0.24189251  0.21313035  1.0
  Rb  Rb1  1  0.26870873  0.25810749  0.71313035  1.0
  Rb  Rb2  1  0.73129127  0.74189251  0.28686965  1.0
  Rb  Rb3  1  0.73129127  0.75810749  0.78686965  1.0
  P  P4  1  0.76163298  0.21340336  0.52628447  1.0
  P  P5  1  0.76163298  0.28659664  1.02628447  1.0
  P  P6  1  0.23836702  0.71340336  -0.02628447  1.0
  P  P7  1  0.23836702  0.78659664  0.47371553  1.0
  H  H8  1  0.95558253  0.47961008  0.69001497  1.0
  H  H9  1  0.95558253  0.02038992  1.19001497  1.0
  H  H10  1  0.04441747  0.97961008  -0.19001497  1.0
  H  H11  1  0.04441747  0.52038992  0.30998503  1.0
  H  H12  1  0.64801499  0.23905618  0.18232981  1.0
  H  H13  1  0.64801499  0.26094382  0.68232981  1.0
  H  H14  1  0.35198501  0.73905618  0.31767019  1.0
  H  H15  1  0.35198501  0.76094382  0.81767019  1.0
  O  O16  1  0.61210221  0.27046725  0.06328135  1.0
  O  O17  1  0.61210221  0.22953275  0.56328135  1.0
  O  O18  1  0.38789779  0.77046725  0.43671865  1.0
  O  O19  1  0.38789779  0.72953275  0.93671865  1.0
  O  O20  1  0.65518931  0.17940033  0.33699567  1.0
  O  O21  1  0.65518931  0.32059967  0.83699567  1.0
  O  O22  1  0.34481069  0.67940033  0.16300433  1.0
  O  O23  1  0.34481069  0.82059967  0.66300433  1.0
  O  O24  1  0.89959508  0.45988642  0.13230751  1.0
  O  O25  1  0.89959508  0.04011358  0.63230751  1.0
  O  O26  1  0.10040492  0.95988642  0.36769249  1.0
  O  O27  1  0.10040492  0.54011358  0.86769249  1.0
  O  O28  1  0.85677177  0.44131339  0.56612492  1.0
  O  O29  1  0.85677177  0.05868661  1.06612492  1.0
  O  O30  1  0.14322823  0.94131339  -0.06612492  1.0
  O  O31  1  0.14322823  0.55868661  0.43387508  1.0
