# generated using pymatgen
data_K4CdAs2
_symmetry_space_group_name_H-M   'P 1'
_cell_length_a   9.95888403
_cell_length_b   9.95888403
_cell_length_c   9.95888403
_cell_angle_alpha   34.06099402
_cell_angle_beta   34.06099402
_cell_angle_gamma   34.06099402
_symmetry_Int_Tables_number   1
_chemical_formula_structural   K4CdAs2
_chemical_formula_sum   'K4 Cd1 As2'
_cell_volume   276.20385294
_cell_formula_units_Z   1
loop_
 _symmetry_equiv_pos_site_id
 _symmetry_equiv_pos_as_xyz
  1  'x, y, z'
loop_
 _atom_site_type_symbol
 _atom_site_label
 _atom_site_symmetry_multiplicity
 _atom_site_fract_x
 _atom_site_fract_y
 _atom_site_fract_z
 _atom_site_occupancy
  K  K0  1  0.79179240  0.79179240  0.79179240  1.0
  K  K1  1  1.20820760  1.20820760  0.20820760  1.0
  K  K2  1  1.60795459  0.60795459  0.60795459  1.0
  K  K3  1  1.39204541  0.39204541  0.39204541  1.0
  Cd  Cd4  1  0.00000000  0.00000000  0.00000000  1.0
  As  As5  1  0.91051991  0.91051991  0.91051991  1.0
  As  As6  1  1.08948009  1.08948009  0.08948009  1.0
