# generated using pymatgen
data_Na2CoGeO4
_symmetry_space_group_name_H-M   'P 1'
_cell_length_a   6.46231110
_cell_length_b   6.26541518
_cell_length_c   5.43973852
_cell_angle_alpha   90.00000000
_cell_angle_beta   90.00000000
_cell_angle_gamma   90.00000000
_symmetry_Int_Tables_number   1
_chemical_formula_structural   Na2CoGeO4
_chemical_formula_sum   'Na4 Co2 Ge2 O8'
_cell_volume   220.24991055
_cell_formula_units_Z   2
loop_
 _symmetry_equiv_pos_site_id
 _symmetry_equiv_pos_as_xyz
  1  'x, y, z'
loop_
 _atom_site_type_symbol
 _atom_site_label
 _atom_site_symmetry_multiplicity
 _atom_site_fract_x
 _atom_site_fract_y
 _atom_site_fract_z
 _atom_site_occupancy
  Na  Na0  1  0.24798522  0.16585377  -0.00374933  1.0
  Na  Na1  1  0.74798522  0.83414623  0.49625067  1.0
  Na  Na2  1  0.75201478  0.16585377  -0.00374933  1.0
  Na  Na3  1  0.25201478  0.83414623  0.49625067  1.0
  Co  Co4  1  0.50000000  0.64941625  0.00212410  1.0
  Co  Co5  1  0.00000000  0.35058375  0.50212410  1.0
  Ge  Ge6  1  0.50000000  0.34847097  0.50710249  1.0
  Ge  Ge7  1  -0.00000000  0.65152903  0.00710249  1.0
  O  O8  1  0.27031286  0.19926274  0.42737759  1.0
  O  O9  1  0.77031286  0.80073726  0.92737759  1.0
  O  O10  1  0.72968714  0.19926274  0.42737759  1.0
  O  O11  1  0.22968714  0.80073726  0.92737759  1.0
  O  O12  1  0.50000000  0.37627635  0.83352431  1.0
  O  O13  1  0.00000000  0.62372365  0.33352431  1.0
  O  O14  1  0.50000000  0.60300487  0.36249259  1.0
  O  O15  1  -0.00000000  0.39699513  0.86249259  1.0
