# generated using pymatgen
data_KCaBe2B2O6F
_symmetry_space_group_name_H-M   'P 1'
_cell_length_a   4.74343832
_cell_length_b   4.74343832
_cell_length_c   14.77882459
_cell_angle_alpha   90.00000000
_cell_angle_beta   90.00000000
_cell_angle_gamma   120.00000000
_symmetry_Int_Tables_number   1
_chemical_formula_structural   KCaBe2B2O6F
_chemical_formula_sum   'K2 Ca2 Be4 B4 O12 F2'
_cell_volume   287.97649482
_cell_formula_units_Z   2
loop_
 _symmetry_equiv_pos_site_id
 _symmetry_equiv_pos_as_xyz
  1  'x, y, z'
loop_
 _atom_site_type_symbol
 _atom_site_label
 _atom_site_symmetry_multiplicity
 _atom_site_fract_x
 _atom_site_fract_y
 _atom_site_fract_z
 _atom_site_occupancy
  K  K0  1  0.00000000  0.00000000  0.25000000  1.0
  K  K1  1  0.00000000  0.00000000  0.75000000  1.0
  Ca  Ca2  1  0.00000000  0.00000000  0.00000000  1.0
  Ca  Ca3  1  0.00000000  0.00000000  0.50000000  1.0
  Be  Be4  1  0.33333333  0.66666667  0.13251295  1.0
  Be  Be5  1  0.33333333  0.66666667  0.36748705  1.0
  Be  Be6  1  0.66666667  0.33333333  0.63251295  1.0
  Be  Be7  1  0.66666667  0.33333333  0.86748705  1.0
  B  B8  1  0.33333333  0.66666667  0.60529803  1.0
  B  B9  1  0.33333333  0.66666667  0.89470197  1.0
  B  B10  1  0.66666667  0.33333333  0.10529803  1.0
  B  B11  1  0.66666667  0.33333333  0.39470197  1.0
  O  O12  1  0.62400295  0.60136039  0.10410909  1.0
  O  O13  1  0.62400295  0.02264256  0.39589091  1.0
  O  O14  1  0.60136039  0.62400295  0.60410909  1.0
  O  O15  1  0.60136039  0.97735744  0.89589091  1.0
  O  O16  1  0.97735744  0.60136039  0.39589091  1.0
  O  O17  1  0.97735744  0.37599705  0.10410909  1.0
  O  O18  1  0.39863961  0.37599705  0.39589091  1.0
  O  O19  1  0.39863961  0.02264256  0.10410909  1.0
  O  O20  1  0.37599705  0.97735744  0.60410909  1.0
  O  O21  1  0.37599705  0.39863961  0.89589091  1.0
  O  O22  1  0.02264256  0.62400295  0.89589091  1.0
  O  O23  1  0.02264256  0.39863961  0.60410909  1.0
  F  F24  1  0.33333333  0.66666667  0.25000000  1.0
  F  F25  1  0.66666667  0.33333333  0.75000000  1.0
