# generated using pymatgen
data_Sr2Co2O5
_symmetry_space_group_name_H-M   'P 1'
_cell_length_a   5.38680656
_cell_length_b   16.26545798
_cell_length_c   5.45561028
_cell_angle_alpha   90.00000000
_cell_angle_beta   90.00000000
_cell_angle_gamma   90.00000000
_symmetry_Int_Tables_number   1
_chemical_formula_structural   Sr2Co2O5
_chemical_formula_sum   'Sr8 Co8 O20'
_cell_volume   478.01443921
_cell_formula_units_Z   4
loop_
 _symmetry_equiv_pos_site_id
 _symmetry_equiv_pos_as_xyz
  1  'x, y, z'
loop_
 _atom_site_type_symbol
 _atom_site_label
 _atom_site_symmetry_multiplicity
 _atom_site_fract_x
 _atom_site_fract_y
 _atom_site_fract_z
 _atom_site_occupancy
  Sr  Sr0  1  0.49922458  0.38936943  0.00802122  1.0
  Sr  Sr1  1  0.49922458  0.11063057  0.00802122  1.0
  Sr  Sr2  1  0.99922458  0.38936943  0.49197878  1.0
  Sr  Sr3  1  0.99922458  0.11063057  0.49197878  1.0
  Sr  Sr4  1  0.50077542  0.88936943  0.99197878  1.0
  Sr  Sr5  1  0.50077542  0.61063057  0.99197878  1.0
  Sr  Sr6  1  0.00077542  0.88936943  0.50802122  1.0
  Sr  Sr7  1  0.00077542  0.61063057  0.50802122  1.0
  Co  Co8  1  0.46358704  0.25000000  0.56370188  1.0
  Co  Co9  1  -0.03641296  0.25000000  0.93629812  1.0
  Co  Co10  1  0.53641296  0.75000000  0.43629812  1.0
  Co  Co11  1  1.03641296  0.75000000  0.06370188  1.0
  Co  Co12  1  0.50000000  0.50000000  0.50000000  1.0
  Co  Co13  1  0.50000000  0.00000000  0.50000000  1.0
  Co  Co14  1  0.00000000  0.50000000  -0.00000000  1.0
  Co  Co15  1  0.00000000  0.00000000  0.00000000  1.0
  O  O16  1  0.49034122  0.85718114  0.52649107  1.0
  O  O17  1  0.49034122  0.64281886  0.52649107  1.0
  O  O18  1  -0.00965878  0.85718114  0.97350893  1.0
  O  O19  1  -0.00965878  0.64281886  0.97350893  1.0
  O  O20  1  0.50965878  0.35718114  0.47350893  1.0
  O  O21  1  0.50965878  0.14281886  0.47350893  1.0
  O  O22  1  1.00965878  0.35718114  0.02649107  1.0
  O  O23  1  1.00965878  0.14281886  0.02649107  1.0
  O  O24  1  0.25124016  0.49670441  0.75093588  1.0
  O  O25  1  0.25124016  0.00329559  0.75093588  1.0
  O  O26  1  0.75124016  0.49670441  0.74906412  1.0
  O  O27  1  0.75124016  0.00329559  0.74906412  1.0
  O  O28  1  0.74875984  0.99670441  0.24906412  1.0
  O  O29  1  0.74875984  0.50329559  0.24906412  1.0
  O  O30  1  0.24875984  0.99670441  0.25093588  1.0
  O  O31  1  0.24875984  0.50329559  0.25093588  1.0
  O  O32  1  0.10935677  0.25000000  0.61663500  1.0
  O  O33  1  0.60935677  0.25000000  0.88336500  1.0
  O  O34  1  0.89064323  0.75000000  0.38336500  1.0
  O  O35  1  0.39064323  0.75000000  0.11663500  1.0
