# generated using pymatgen
data_Al2(FeSi)3
_symmetry_space_group_name_H-M   'P 1'
_cell_length_a   6.32393673
_cell_length_b   4.60436275
_cell_length_c   7.55148300
_cell_angle_alpha   71.08026245
_cell_angle_beta   71.59409048
_cell_angle_gamma   79.39341018
_symmetry_Int_Tables_number   1
_chemical_formula_structural   Al2(FeSi)3
_chemical_formula_sum   'Al4 Fe6 Si6'
_cell_volume   196.54273482
_cell_formula_units_Z   2
loop_
 _symmetry_equiv_pos_site_id
 _symmetry_equiv_pos_as_xyz
  1  'x, y, z'
loop_
 _atom_site_type_symbol
 _atom_site_label
 _atom_site_symmetry_multiplicity
 _atom_site_fract_x
 _atom_site_fract_y
 _atom_site_fract_z
 _atom_site_occupancy
  Al  Al0  1  -0.35492411  0.22075240  0.72752651  1.0
  Al  Al1  1  -0.64507589  -0.22075240  0.27247349  1.0
  Al  Al2  1  -0.32497742  -0.36210440  0.94794236  1.0
  Al  Al3  1  -0.67502258  0.36210440  0.05205764  1.0
  Fe  Fe4  1  -0.70741187  0.37539144  0.58451081  1.0
  Fe  Fe5  1  -0.29258813  -0.37539144  0.41548919  1.0
  Fe  Fe6  1  -0.68230216  -0.07844592  0.94335693  1.0
  Fe  Fe7  1  -0.31769784  0.07844592  0.05664307  1.0
  Fe  Fe8  1  -0.97194510  -0.13169413  0.76718820  1.0
  Fe  Fe9  1  -0.02805490  0.13169413  0.23281180  1.0
  Si  Si10  1  -0.95739107  0.25688272  0.46719119  1.0
  Si  Si11  1  -0.04260893  -0.25688272  0.53280881  1.0
  Si  Si12  1  -0.58704007  -0.19483663  0.65218352  1.0
  Si  Si13  1  -0.41295993  0.19483663  0.34781648  1.0
  Si  Si14  1  -0.97626437  -0.70655196  0.88639195  1.0
  Si  Si15  1  -0.02373563  0.70655196  0.11360805  1.0
