# generated using pymatgen
data_TiSi2
_symmetry_space_group_name_H-M   'P 1'
_cell_length_a   4.73109502
_cell_length_b   4.73109502
_cell_length_c   6.58998930
_cell_angle_alpha   90.00000000
_cell_angle_beta   90.00000000
_cell_angle_gamma   120.00000000
_symmetry_Int_Tables_number   1
_chemical_formula_structural   TiSi2
_chemical_formula_sum   'Ti3 Si6'
_cell_volume   127.74346179
_cell_formula_units_Z   3
loop_
 _symmetry_equiv_pos_site_id
 _symmetry_equiv_pos_as_xyz
  1  'x, y, z'
loop_
 _atom_site_type_symbol
 _atom_site_label
 _atom_site_symmetry_multiplicity
 _atom_site_fract_x
 _atom_site_fract_y
 _atom_site_fract_z
 _atom_site_occupancy
  Ti  Ti0  1  0.50000000  0.50000000  0.83333333  1.0
  Ti  Ti1  1  0.50000000  0.00000000  0.50000000  1.0
  Ti  Ti2  1  -0.00000000  0.50000000  0.16666667  1.0
  Si  Si3  1  0.16224295  0.83775705  0.83333333  1.0
  Si  Si4  1  0.16224295  0.32448590  0.50000000  1.0
  Si  Si5  1  0.67551410  0.83775705  0.16666667  1.0
  Si  Si6  1  0.83775705  0.16224295  0.83333333  1.0
  Si  Si7  1  0.83775705  0.67551410  0.50000000  1.0
  Si  Si8  1  0.32448590  0.16224295  0.16666667  1.0
