# generated using pymatgen
data_Ca2FeBrO3
_symmetry_space_group_name_H-M   'P 1'
_cell_length_a   3.84144848
_cell_length_b   3.84144848
_cell_length_c   15.83541321
_cell_angle_alpha   90.00000000
_cell_angle_beta   90.00000000
_cell_angle_gamma   90.00000000
_symmetry_Int_Tables_number   1
_chemical_formula_structural   Ca2FeBrO3
_chemical_formula_sum   'Ca4 Fe2 Br2 O6'
_cell_volume   233.67886011
_cell_formula_units_Z   2
loop_
 _symmetry_equiv_pos_site_id
 _symmetry_equiv_pos_as_xyz
  1  'x, y, z'
loop_
 _atom_site_type_symbol
 _atom_site_label
 _atom_site_symmetry_multiplicity
 _atom_site_fract_x
 _atom_site_fract_y
 _atom_site_fract_z
 _atom_site_occupancy
  Ca  Ca0  1  0.50000000  0.00000000  0.58163790  1.0
  Ca  Ca1  1  0.00000000  0.50000000  0.41836210  1.0
  Ca  Ca2  1  0.50000000  0.00000000  0.79402015  1.0
  Ca  Ca3  1  0.00000000  0.50000000  0.20597985  1.0
  Fe  Fe4  1  0.50000000  0.00000000  0.31907165  1.0
  Fe  Fe5  1  0.00000000  0.50000000  0.68092835  1.0
  Br  Br6  1  0.50000000  0.00000000  0.11490455  1.0
  Br  Br7  1  0.00000000  0.50000000  0.88509545  1.0
  O  O8  1  0.00000000  0.00000000  0.30005754  1.0
  O  O9  1  0.50000000  0.50000000  0.69994246  1.0
  O  O10  1  0.50000000  0.50000000  0.30005754  1.0
  O  O11  1  0.00000000  0.00000000  0.69994246  1.0
  O  O12  1  0.50000000  0.00000000  0.44038371  1.0
  O  O13  1  0.00000000  0.50000000  0.55961629  1.0
