# generated using pymatgen
data_Mg3Ru2
_symmetry_space_group_name_H-M   'P 1'
_cell_length_a   6.94809707
_cell_length_b   6.94809707
_cell_length_c   6.94809707
_cell_angle_alpha   90.00000000
_cell_angle_beta   90.00000000
_cell_angle_gamma   90.00000000
_symmetry_Int_Tables_number   1
_chemical_formula_structural   Mg3Ru2
_chemical_formula_sum   'Mg12 Ru8'
_cell_volume   335.42670233
_cell_formula_units_Z   4
loop_
 _symmetry_equiv_pos_site_id
 _symmetry_equiv_pos_as_xyz
  1  'x, y, z'
loop_
 _atom_site_type_symbol
 _atom_site_label
 _atom_site_symmetry_multiplicity
 _atom_site_fract_x
 _atom_site_fract_y
 _atom_site_fract_z
 _atom_site_occupancy
  Mg  Mg0  1  0.37500000  0.79427510  0.95572490  1.0
  Mg  Mg1  1  0.12500000  0.20572490  0.45572490  1.0
  Mg  Mg2  1  0.62500000  0.29427510  0.54427510  1.0
  Mg  Mg3  1  0.87500000  0.70572490  0.04427510  1.0
  Mg  Mg4  1  0.29427510  0.54427510  0.62500000  1.0
  Mg  Mg5  1  0.04427510  0.87500000  0.70572490  1.0
  Mg  Mg6  1  0.54427510  0.62500000  0.29427510  1.0
  Mg  Mg7  1  0.79427510  0.95572490  0.37500000  1.0
  Mg  Mg8  1  0.70572490  0.04427510  0.87500000  1.0
  Mg  Mg9  1  0.45572490  0.12500000  0.20572490  1.0
  Mg  Mg10  1  0.95572490  0.37500000  0.79427510  1.0
  Mg  Mg11  1  0.20572490  0.45572490  0.12500000  1.0
  Ru  Ru12  1  0.42504168  0.92504168  0.57495832  1.0
  Ru  Ru13  1  0.17504168  0.82495832  0.32495832  1.0
  Ru  Ru14  1  0.67504168  0.67504168  0.67504168  1.0
  Ru  Ru15  1  0.92504168  0.57495832  0.42504168  1.0
  Ru  Ru16  1  0.57495832  0.42504168  0.92504168  1.0
  Ru  Ru17  1  0.32495832  0.17504168  0.82495832  1.0
  Ru  Ru18  1  0.82495832  0.32495832  0.17504168  1.0
  Ru  Ru19  1  0.07495832  0.07495832  0.07495832  1.0
