# generated using pymatgen
data_Gd2(Al3Pd)3
_symmetry_space_group_name_H-M   'P 1'
_cell_length_a   7.67061344
_cell_length_b   7.67061344
_cell_length_c   9.50183765
_cell_angle_alpha   90.00000000
_cell_angle_beta   90.00000000
_cell_angle_gamma   60.43197084
_symmetry_Int_Tables_number   1
_chemical_formula_structural   Gd2(Al3Pd)3
_chemical_formula_sum   'Gd4 Al18 Pd6'
_cell_volume   486.26434887
_cell_formula_units_Z   2
loop_
 _symmetry_equiv_pos_site_id
 _symmetry_equiv_pos_as_xyz
  1  'x, y, z'
loop_
 _atom_site_type_symbol
 _atom_site_label
 _atom_site_symmetry_multiplicity
 _atom_site_fract_x
 _atom_site_fract_y
 _atom_site_fract_z
 _atom_site_occupancy
  Gd  Gd0  1  -0.00599783  1.33018277  0.25000000  1.0
  Gd  Gd1  1  0.33018277  0.99400217  0.75000000  1.0
  Gd  Gd2  1  -0.33018277  1.00599783  0.25000000  1.0
  Gd  Gd3  1  0.00599783  0.66981723  0.75000000  1.0
  Al  Al4  1  0.00115525  0.66518003  0.42538101  1.0
  Al  Al5  1  0.00115525  0.66518003  0.07461899  1.0
  Al  Al6  1  -0.33481997  1.00115525  0.92538101  1.0
  Al  Al7  1  -0.33481997  1.00115525  0.57461899  1.0
  Al  Al8  1  0.33481997  0.99884475  0.42538101  1.0
  Al  Al9  1  0.33481997  0.99884475  0.07461899  1.0
  Al  Al10  1  -0.00115525  1.33481997  0.92538101  1.0
  Al  Al11  1  -0.00115525  1.33481997  0.57461899  1.0
  Al  Al12  1  0.33898648  0.45394574  0.25000000  1.0
  Al  Al13  1  -0.54605426  1.33898648  0.75000000  1.0
  Al  Al14  1  0.54605426  0.66101352  0.25000000  1.0
  Al  Al15  1  -0.33898648  1.54605426  0.75000000  1.0
  Al  Al16  1  0.33353931  0.66646069  0.94385341  1.0
  Al  Al17  1  0.33353931  0.66646069  0.55614659  1.0
  Al  Al18  1  -0.33353931  1.33353931  0.44385341  1.0
  Al  Al19  1  -0.33353931  1.33353931  0.05614659  1.0
  Al  Al20  1  0.13068913  0.86931087  0.25000000  1.0
  Al  Al21  1  -0.13068913  1.13068913  0.75000000  1.0
  Pd  Pd22  1  0.67140258  0.67140258  0.50000000  1.0
  Pd  Pd23  1  0.67140258  0.67140258  0.00000000  1.0
  Pd  Pd24  1  0.32859742  0.32859742  0.50000000  1.0
  Pd  Pd25  1  0.32859742  0.32859742  0.00000000  1.0
  Pd  Pd26  1  -0.00000000  -0.00000000  0.50000000  1.0
  Pd  Pd27  1  -0.00000000  0.00000000  0.00000000  1.0
