# generated using pymatgen
data_Mg(PO5)2
_symmetry_space_group_name_H-M   'P 1'
_cell_length_a   10.97566344
_cell_length_b   10.97566344
_cell_length_c   10.97566344
_cell_angle_alpha   132.36155200
_cell_angle_beta   132.36155200
_cell_angle_gamma   69.65859075
_symmetry_Int_Tables_number   1
_chemical_formula_structural   Mg(PO5)2
_chemical_formula_sum   'Mg4 P8 O40'
_cell_volume   708.05181287
_cell_formula_units_Z   4
loop_
 _symmetry_equiv_pos_site_id
 _symmetry_equiv_pos_as_xyz
  1  'x, y, z'
loop_
 _atom_site_type_symbol
 _atom_site_label
 _atom_site_symmetry_multiplicity
 _atom_site_fract_x
 _atom_site_fract_y
 _atom_site_fract_z
 _atom_site_occupancy
  Mg  Mg0  1  0.25000000  0.75000000  0.50000000  1.0
  Mg  Mg1  1  0.75000000  0.25000000  0.50000000  1.0
  Mg  Mg2  1  0.50000000  0.50000000  1.00000000  1.0
  Mg  Mg3  1  0.00000000  0.00000000  0.00000000  1.0
  O  O4  1  1.16131418  0.90736289  1.42847824  1.0
  O  O5  1  0.66131418  0.23283594  0.25395128  1.0
  O  O6  1  0.27111535  0.51716406  0.92847824  1.0
  O  O7  1  0.77111535  -0.15736289  0.75395128  1.0
  O  O8  1  0.47888465  0.73283594  0.57152176  1.0
  O  O9  1  0.97888465  0.40736289  0.74604872  1.0
  O  O10  1  0.58868582  0.34263711  1.07152176  1.0
  O  O11  1  0.08868582  0.01716406  0.24604872  1.0
  O  O12  1  0.09263711  0.52111535  0.25395128  1.0
  O  O13  1  0.76716406  1.02111535  1.42847824  1.0
  O  O14  1  0.48283594  0.41131418  0.75395128  1.0
  O  O15  1  0.15736289  0.91131418  0.92847824  1.0
  O  O16  1  0.26716406  0.83868582  0.74604872  1.0
  O  O17  1  0.59263711  0.33868582  0.57152176  1.0
  O  O18  1  0.65736289  0.72888465  1.24604872  1.0
  O  O19  1  -0.01716406  0.22888465  0.07152176  1.0
  O  O20  1  0.40451509  0.90451509  0.50000000  1.0
  O  O21  1  0.90451509  0.40451509  0.50000000  1.0
  O  O22  1  0.34548491  0.34548491  0.00000000  1.0
  O  O23  1  0.84548491  0.84548491  1.00000000  1.0
  O  O24  1  0.09548491  0.59548491  0.50000000  1.0
  O  O25  1  0.59548491  0.09548491  0.50000000  1.0
  O  O26  1  0.65451509  0.65451509  1.00000000  1.0
  O  O27  1  0.15451509  0.15451509  -0.00000000  1.0
  O  O28  1  1.18875069  0.61852176  1.14729643  1.0
  O  O29  1  0.68875069  0.54145426  0.57022893  1.0
  O  O30  1  1.27877467  1.20854574  1.64729643  1.0
  O  O31  1  0.77877467  1.13147824  1.07022893  1.0
  O  O32  1  0.47122533  1.04145426  0.85270357  1.0
  O  O33  1  0.97122533  1.11852176  1.42977107  1.0
  O  O34  1  0.56124931  0.63147824  0.35270357  1.0
  O  O35  1  1.06124931  0.70854574  0.92977107  1.0
  O  O36  1  0.38147824  0.52877467  0.57022893  1.0
  O  O37  1  0.45854574  1.02877467  1.14729643  1.0
  O  O38  1  0.79145426  0.43875069  1.07022893  1.0
  O  O39  1  0.86852176  0.93875069  1.64729643  1.0
  O  O40  1  0.95854574  0.81124931  1.42977107  1.0
  O  O41  1  0.88147824  0.31124931  0.85270357  1.0
  O  O42  1  0.36852176  0.72122533  0.92977107  1.0
  O  O43  1  0.29145426  0.22122533  0.35270357  1.0
  P  P44  1  1.12500000  0.56339312  0.93839312  1.0
  P  P45  1  0.62500000  0.68660688  0.56160688  1.0
  P  P46  1  1.12500000  1.06339312  1.43839312  1.0
  P  P47  1  0.62500000  1.18660688  1.06160688  1.0
  P  P48  1  0.43660688  0.37500000  0.56160688  1.0
  P  P49  1  0.31339312  0.87500000  0.93839312  1.0
  P  P50  1  0.93660688  0.37500000  1.06160688  1.0
  P  P51  1  0.81339312  0.87500000  1.43839312  1.0
