# generated using pymatgen
data_BaZrF6
_symmetry_space_group_name_H-M   'P 1'
_cell_length_a   6.80063391
_cell_length_b   9.65470765
_cell_length_c   9.27745788
_cell_angle_alpha   90.00000000
_cell_angle_beta   127.63614417
_cell_angle_gamma   90.00000000
_symmetry_Int_Tables_number   1
_chemical_formula_structural   BaZrF6
_chemical_formula_sum   'Ba4 Zr4 F24'
_cell_volume   482.38119948
_cell_formula_units_Z   4
loop_
 _symmetry_equiv_pos_site_id
 _symmetry_equiv_pos_as_xyz
  1  'x, y, z'
loop_
 _atom_site_type_symbol
 _atom_site_label
 _atom_site_symmetry_multiplicity
 _atom_site_fract_x
 _atom_site_fract_y
 _atom_site_fract_z
 _atom_site_occupancy
  Ba  Ba0  1  0.90959650  0.18073657  0.13476901  1.0
  Ba  Ba1  1  0.90959650  0.31926343  0.63476901  1.0
  Ba  Ba2  1  0.09040350  0.68073657  0.36523099  1.0
  Ba  Ba3  1  0.09040350  0.81926343  0.86523099  1.0
  Zr  Zr4  1  0.61522932  0.96552420  0.36602053  1.0
  Zr  Zr5  1  0.61522932  0.53447580  0.86602053  1.0
  Zr  Zr6  1  0.38477068  0.46552420  0.13397947  1.0
  Zr  Zr7  1  0.38477068  0.03447580  0.63397947  1.0
  F  F8  1  0.93655219  0.46795994  0.11613200  1.0
  F  F9  1  0.93655219  0.03204006  0.61613200  1.0
  F  F10  1  0.06344781  0.96795994  0.38386800  1.0
  F  F11  1  0.06344781  0.53204006  0.88386800  1.0
  F  F12  1  0.81788893  0.78656824  0.46881734  1.0
  F  F13  1  0.81788893  0.71343176  0.96881734  1.0
  F  F14  1  0.18211107  0.28656824  0.03118266  1.0
  F  F15  1  0.18211107  0.21343176  0.53118266  1.0
  F  F16  1  0.76557374  0.46567326  0.32469679  1.0
  F  F17  1  0.76557374  0.03432674  0.82469679  1.0
  F  F18  1  0.23442626  0.96567326  0.17530321  1.0
  F  F19  1  0.23442626  0.53432674  0.67530321  1.0
  F  F20  1  0.67013187  0.15139519  0.29266781  1.0
  F  F21  1  0.67013187  0.34860481  0.79266781  1.0
  F  F22  1  0.32986813  0.65139519  0.20733219  1.0
  F  F23  1  0.32986813  0.84860481  0.70733219  1.0
  F  F24  1  0.48527975  0.12433414  0.47329921  1.0
  F  F25  1  0.48527975  0.37566586  0.97329921  1.0
  F  F26  1  0.51472025  0.62433414  0.02670079  1.0
  F  F27  1  0.51472025  0.87566586  0.52670079  1.0
  F  F28  1  0.43052962  0.39726238  0.35711855  1.0
  F  F29  1  0.43052962  0.10273762  0.85711855  1.0
  F  F30  1  0.56947038  0.89726238  0.14288145  1.0
  F  F31  1  0.56947038  0.60273762  0.64288145  1.0
