# generated using pymatgen
data_Se
_symmetry_space_group_name_H-M   'P 1'
_cell_length_a   10.37144404
_cell_length_b   8.58164864
_cell_length_c   13.77342751
_cell_angle_alpha   90.00000000
_cell_angle_beta   95.89364275
_cell_angle_gamma   90.00000000
_symmetry_Int_Tables_number   1
_chemical_formula_structural   Se
_chemical_formula_sum   Se32
_cell_volume   1219.41156629
_cell_formula_units_Z   32
loop_
 _symmetry_equiv_pos_site_id
 _symmetry_equiv_pos_as_xyz
  1  'x, y, z'
loop_
 _atom_site_type_symbol
 _atom_site_label
 _atom_site_symmetry_multiplicity
 _atom_site_fract_x
 _atom_site_fract_y
 _atom_site_fract_z
 _atom_site_occupancy
  Se  Se0  1  0.91270341  0.31109160  0.09165918  1.0
  Se  Se1  1  0.91270341  0.18890840  0.59165918  1.0
  Se  Se2  1  0.08729659  0.81109160  0.40834082  1.0
  Se  Se3  1  0.08729659  0.68890840  0.90834082  1.0
  Se  Se4  1  0.86216379  0.73291738  0.17017625  1.0
  Se  Se5  1  0.86216379  0.76708262  0.67017625  1.0
  Se  Se6  1  0.13783621  0.23291738  0.32982375  1.0
  Se  Se7  1  0.13783621  0.26708262  0.82982375  1.0
  Se  Se8  1  0.82970966  0.46902359  0.21093351  1.0
  Se  Se9  1  0.82970966  0.03097641  0.71093351  1.0
  Se  Se10  1  0.17029034  0.96902359  0.28906649  1.0
  Se  Se11  1  0.17029034  0.53097641  0.78906649  1.0
  Se  Se12  1  0.73678221  0.26597508  0.47979782  1.0
  Se  Se13  1  0.73678221  0.23402492  0.97979782  1.0
  Se  Se14  1  0.26321779  0.76597508  0.02020218  1.0
  Se  Se15  1  0.26321779  0.73402492  0.52020218  1.0
  Se  Se16  1  0.73150934  0.09845056  0.34290602  1.0
  Se  Se17  1  0.73150934  0.40154944  0.84290602  1.0
  Se  Se18  1  0.26849066  0.59845056  0.15709398  1.0
  Se  Se19  1  0.26849066  0.90154944  0.65709398  1.0
  Se  Se20  1  0.42764153  0.40670570  0.14072274  1.0
  Se  Se21  1  0.42764153  0.09329430  0.64072274  1.0
  Se  Se22  1  0.57235847  0.90670570  0.35927726  1.0
  Se  Se23  1  0.57235847  0.59329430  0.85927726  1.0
  Se  Se24  1  0.33543394  0.32857357  0.40748603  1.0
  Se  Se25  1  0.33543394  0.17142643  0.90748603  1.0
  Se  Se26  1  0.66456606  0.82857357  0.09251397  1.0
  Se  Se27  1  0.66456606  0.67142643  0.59251397  1.0
  Se  Se28  1  0.32119551  0.17918689  0.07806824  1.0
  Se  Se29  1  0.32119551  0.32081311  0.57806824  1.0
  Se  Se30  1  0.67880449  0.67918689  0.42193176  1.0
  Se  Se31  1  0.67880449  0.82081311  0.92193176  1.0
