# generated using pymatgen
data_Lu4Al21Ni10
_symmetry_space_group_name_H-M   'P 1'
_cell_length_a   10.59100571
_cell_length_b   10.59100571
_cell_length_c   15.47616818
_cell_angle_alpha   55.85097300
_cell_angle_beta   124.14902700
_cell_angle_gamma   158.06968934
_symmetry_Int_Tables_number   1
_chemical_formula_structural   Lu4Al21Ni10
_chemical_formula_sum   'Lu4 Al21 Ni10'
_cell_volume   531.90064871
_cell_formula_units_Z   1
loop_
 _symmetry_equiv_pos_site_id
 _symmetry_equiv_pos_as_xyz
  1  'x, y, z'
loop_
 _atom_site_type_symbol
 _atom_site_label
 _atom_site_symmetry_multiplicity
 _atom_site_fract_x
 _atom_site_fract_y
 _atom_site_fract_z
 _atom_site_occupancy
  Lu  Lu0  1  0.87926036  -0.87926036  0.66782146  1.0
  Lu  Lu1  1  0.12073964  -0.12073964  0.33217854  1.0
  Lu  Lu2  1  0.23012800  -0.23012800  0.82614028  1.0
  Lu  Lu3  1  0.76987200  -0.76987200  0.17385972  1.0
  Al  Al4  1  0.99155286  -0.99155286  0.90671825  1.0
  Al  Al5  1  0.00844714  -0.00844714  0.09328175  1.0
  Al  Al6  1  0.93676616  -0.93676616  0.20774526  1.0
  Al  Al7  1  0.06323384  -0.06323384  0.79225474  1.0
  Al  Al8  1  0.88149846  -0.88149846  0.44712410  1.0
  Al  Al9  1  0.11850154  -0.11850154  0.55287590  1.0
  Al  Al10  1  0.80013024  -0.80013024  0.00002996  1.0
  Al  Al11  1  0.19986976  -0.19986976  0.99997004  1.0
  Al  Al12  1  0.75263457  0.24736543  0.70699485  1.0
  Al  Al13  1  1.24736543  -0.24736543  0.29300515  1.0
  Al  Al14  1  0.70326575  0.29673425  0.50488577  1.0
  Al  Al15  1  1.29673425  -0.29673425  0.49511423  1.0
  Al  Al16  1  0.61320902  0.38679098  0.70253687  1.0
  Al  Al17  1  1.38679098  -0.38679098  0.29746313  1.0
  Al  Al18  1  0.60143310  0.39856690  0.99409299  1.0
  Al  Al19  1  1.39856690  -0.39856690  0.00590701  1.0
  Al  Al20  1  1.46171419  -0.46171419  0.63283459  1.0
  Al  Al21  1  0.53828581  0.46171419  0.36716541  1.0
  Al  Al22  1  0.37309993  -0.37309993  0.80871739  1.0
  Al  Al23  1  0.62690007  -0.62690007  0.19128261  1.0
  Al  Al24  1  0.50000000  0.50000000  0.50000000  1.0
  Ni  Ni25  1  0.97551718  -0.97551718  0.39447050  1.0
  Ni  Ni26  1  0.02448282  -0.02448282  0.60552950  1.0
  Ni  Ni27  1  0.86696443  0.13303557  0.89855076  1.0
  Ni  Ni28  1  1.13303557  -0.13303557  0.10144924  1.0
  Ni  Ni29  1  0.74666244  -0.74666244  0.38330932  1.0
  Ni  Ni30  1  0.25333756  -0.25333756  0.61669068  1.0
  Ni  Ni31  1  0.65346612  0.34653388  0.88622178  1.0
  Ni  Ni32  1  1.34653388  -0.34653388  0.11377822  1.0
  Ni  Ni33  1  1.49541936  -0.49541936  0.81210916  1.0
  Ni  Ni34  1  0.50458064  0.49541936  0.18789084  1.0
