# generated using pymatgen
data_KPt2S3
_symmetry_space_group_name_H-M   'P 1'
_cell_length_a   7.18628357
_cell_length_b   7.18628357
_cell_length_c   12.92001633
_cell_angle_alpha   90.00000000
_cell_angle_beta   90.00000000
_cell_angle_gamma   120.00000000
_symmetry_Int_Tables_number   1
_chemical_formula_structural   KPt2S3
_chemical_formula_sum   'K4 Pt8 S12'
_cell_volume   577.83307181
_cell_formula_units_Z   4
loop_
 _symmetry_equiv_pos_site_id
 _symmetry_equiv_pos_as_xyz
  1  'x, y, z'
loop_
 _atom_site_type_symbol
 _atom_site_label
 _atom_site_symmetry_multiplicity
 _atom_site_fract_x
 _atom_site_fract_y
 _atom_site_fract_z
 _atom_site_occupancy
  K  K0  1  0.33333333  0.66666667  0.58070497  1.0
  K  K1  1  0.66666667  0.33333333  0.08070497  1.0
  K  K2  1  0.00000000  0.00000000  -0.00166981  1.0
  K  K3  1  0.00000000  0.00000000  0.49833019  1.0
  Pt  Pt4  1  0.33243781  0.16621890  0.29104998  1.0
  Pt  Pt5  1  0.16621890  0.33243781  0.79104998  1.0
  Pt  Pt6  1  0.16621890  0.83378110  0.79104998  1.0
  Pt  Pt7  1  0.83378110  0.16621890  0.29104998  1.0
  Pt  Pt8  1  0.83378110  0.66756219  0.29104998  1.0
  Pt  Pt9  1  0.66756219  0.83378110  0.79104998  1.0
  Pt  Pt10  1  0.33333333  0.66666667  0.28777510  1.0
  Pt  Pt11  1  0.66666667  0.33333333  0.78777510  1.0
  S  S12  1  0.67723233  0.83861617  0.20121193  1.0
  S  S13  1  0.83861617  0.67723233  0.70121193  1.0
  S  S14  1  0.83861617  0.16138383  0.70121193  1.0
  S  S15  1  0.16138383  0.83861617  0.20121193  1.0
  S  S16  1  0.16138383  0.32276767  0.20121193  1.0
  S  S17  1  0.32276767  0.16138383  0.70121193  1.0
  S  S18  1  -0.00604236  0.49697882  0.37880133  1.0
  S  S19  1  0.49697882  -0.00604236  0.87880133  1.0
  S  S20  1  0.49697882  0.50302118  0.87880133  1.0
  S  S21  1  0.50302118  0.49697882  0.37880133  1.0
  S  S22  1  0.50302118  0.00604236  0.37880133  1.0
  S  S23  1  0.00604236  0.50302118  0.87880133  1.0
