# generated using pymatgen
data_Cs3Sb2Br9
_symmetry_space_group_name_H-M   'P 1'
_cell_length_a   8.13634013
_cell_length_b   8.13634013
_cell_length_c   9.94544248
_cell_angle_alpha   90.00000000
_cell_angle_beta   90.00000000
_cell_angle_gamma   120.00000000
_symmetry_Int_Tables_number   1
_chemical_formula_structural   Cs3Sb2Br9
_chemical_formula_sum   'Cs3 Sb2 Br9'
_cell_volume   570.18125174
_cell_formula_units_Z   1
loop_
 _symmetry_equiv_pos_site_id
 _symmetry_equiv_pos_as_xyz
  1  'x, y, z'
loop_
 _atom_site_type_symbol
 _atom_site_label
 _atom_site_symmetry_multiplicity
 _atom_site_fract_x
 _atom_site_fract_y
 _atom_site_fract_z
 _atom_site_occupancy
  Cs  Cs0  1  0.33333333  0.66666667  0.66936404  1.0
  Cs  Cs1  1  0.66666667  0.33333333  0.33063596  1.0
  Cs  Cs2  1  -0.00000000  -0.00000000  0.00000000  1.0
  Sb  Sb3  1  0.33333333  0.66666667  0.18436795  1.0
  Sb  Sb4  1  0.66666667  0.33333333  0.81563205  1.0
  Br  Br5  1  0.65295583  0.82647791  0.33311186  1.0
  Br  Br6  1  0.82647791  0.65295583  0.66688814  1.0
  Br  Br7  1  0.82647791  0.17352209  0.66688814  1.0
  Br  Br8  1  0.17352209  0.82647791  0.33311186  1.0
  Br  Br9  1  0.17352209  0.34704417  0.33311186  1.0
  Br  Br10  1  0.34704417  0.17352209  0.66688814  1.0
  Br  Br11  1  0.50000000  0.50000000  -0.00000000  1.0
  Br  Br12  1  0.50000000  -0.00000000  -0.00000000  1.0
  Br  Br13  1  0.00000000  0.50000000  -0.00000000  1.0
