# generated using pymatgen
data_Zn11Ni2
_symmetry_space_group_name_H-M   'P 1'
_cell_length_a   7.73808174
_cell_length_b   7.73808174
_cell_length_c   7.73808174
_cell_angle_alpha   109.47122063
_cell_angle_beta   109.47122063
_cell_angle_gamma   109.47122063
_symmetry_Int_Tables_number   1
_chemical_formula_structural   Zn11Ni2
_chemical_formula_sum   'Zn22 Ni4'
_cell_volume   356.67941719
_cell_formula_units_Z   2
loop_
 _symmetry_equiv_pos_site_id
 _symmetry_equiv_pos_as_xyz
  1  'x, y, z'
loop_
 _atom_site_type_symbol
 _atom_site_label
 _atom_site_symmetry_multiplicity
 _atom_site_fract_x
 _atom_site_fract_y
 _atom_site_fract_z
 _atom_site_occupancy
  Zn  Zn0  1  0.79077210  0.79077210  0.79077210  1.0
  Zn  Zn1  1  1.00000000  1.00000000  0.20922790  1.0
  Zn  Zn2  1  1.00000000  0.20922790  1.00000000  1.0
  Zn  Zn3  1  0.20922790  1.00000000  1.00000000  1.0
  Zn  Zn4  1  0.38677867  0.64868788  0.64868788  1.0
  Zn  Zn5  1  0.64868788  0.38677867  0.64868788  1.0
  Zn  Zn6  1  1.00000000  0.73809079  1.35131212  1.0
  Zn  Zn7  1  0.73809079  1.00000000  1.35131212  1.0
  Zn  Zn8  1  0.64868788  0.64868788  0.38677867  1.0
  Zn  Zn9  1  1.26190921  1.26190921  0.61322133  1.0
  Zn  Zn10  1  1.00000000  1.35131212  0.73809079  1.0
  Zn  Zn11  1  1.26190921  0.61322133  1.26190921  1.0
  Zn  Zn12  1  0.61322133  1.26190921  1.26190921  1.0
  Zn  Zn13  1  1.35131212  1.00000000  0.73809079  1.0
  Zn  Zn14  1  0.73809079  1.35131212  1.00000000  1.0
  Zn  Zn15  1  1.35131212  0.73809079  1.00000000  1.0
  Zn  Zn16  1  0.64447566  0.64447566  0.00000000  1.0
  Zn  Zn17  1  0.64447566  -0.00000000  0.64447566  1.0
  Zn  Zn18  1  -0.00000000  0.64447566  0.64447566  1.0
  Zn  Zn19  1  0.35552434  0.00000000  0.35552434  1.0
  Zn  Zn20  1  -0.00000000  0.35552434  0.35552434  1.0
  Zn  Zn21  1  0.35552434  0.35552434  0.00000000  1.0
  Ni  Ni22  1  0.34366642  0.34366642  0.34366642  1.0
  Ni  Ni23  1  1.00000000  1.00000000  0.65633358  1.0
  Ni  Ni24  1  1.00000000  0.65633358  1.00000000  1.0
  Ni  Ni25  1  0.65633358  1.00000000  1.00000000  1.0
