# generated using pymatgen
data_H4CN2O
_symmetry_space_group_name_H-M   'P 1'
_cell_length_a   5.73312853
_cell_length_b   5.73312853
_cell_length_c   4.69729859
_cell_angle_alpha   90.00000000
_cell_angle_beta   90.00000000
_cell_angle_gamma   90.00000000
_symmetry_Int_Tables_number   1
_chemical_formula_structural   H4CN2O
_chemical_formula_sum   'H8 C2 N4 O2'
_cell_volume   154.39439316
_cell_formula_units_Z   2
loop_
 _symmetry_equiv_pos_site_id
 _symmetry_equiv_pos_as_xyz
  1  'x, y, z'
loop_
 _atom_site_type_symbol
 _atom_site_label
 _atom_site_symmetry_multiplicity
 _atom_site_fract_x
 _atom_site_fract_y
 _atom_site_fract_z
 _atom_site_occupancy
  H  H0  1  0.86067959  0.36067959  1.03293361  1.0
  H  H1  1  0.63932041  0.86067959  -0.03293361  1.0
  H  H2  1  0.13932041  0.63932041  1.03293361  1.0
  H  H3  1  0.36067959  0.13932041  -0.03293361  1.0
  H  H4  1  0.74740895  0.24740895  0.71330980  1.0
  H  H5  1  0.75259105  0.74740895  0.28669020  1.0
  H  H6  1  0.25259105  0.75259105  0.71330980  1.0
  H  H7  1  0.24740895  0.25259105  0.28669020  1.0
  C  C8  1  0.00000000  0.50000000  0.66544351  1.0
  C  C9  1  0.50000000  0.00000000  0.33455649  1.0
  N  N10  1  0.85800021  0.35800021  0.81600826  1.0
  N  N11  1  0.64199979  0.85800021  0.18399174  1.0
  N  N12  1  0.14199979  0.64199979  0.81600826  1.0
  N  N13  1  0.35800021  0.14199979  0.18399174  1.0
  O  O14  1  0.00000000  0.50000000  0.39467794  1.0
  O  O15  1  0.50000000  0.00000000  0.60532206  1.0
