# generated using pymatgen
data_Pr6Cd4Pd13
_symmetry_space_group_name_H-M   'P 1'
_cell_length_a   8.55039034
_cell_length_b   8.55039034
_cell_length_c   8.55039034
_cell_angle_alpha   109.47122063
_cell_angle_beta   109.47122063
_cell_angle_gamma   109.47122063
_symmetry_Int_Tables_number   1
_chemical_formula_structural   Pr6Cd4Pd13
_chemical_formula_sum   'Pr6 Cd4 Pd13'
_cell_volume   481.21142964
_cell_formula_units_Z   1
loop_
 _symmetry_equiv_pos_site_id
 _symmetry_equiv_pos_as_xyz
  1  'x, y, z'
loop_
 _atom_site_type_symbol
 _atom_site_label
 _atom_site_symmetry_multiplicity
 _atom_site_fract_x
 _atom_site_fract_y
 _atom_site_fract_z
 _atom_site_occupancy
  Pr  Pr0  1  0.00000000  0.69831174  0.69831174  1.0
  Pr  Pr1  1  0.69831174  0.00000000  0.69831174  1.0
  Pr  Pr2  1  0.69831174  0.69831174  0.00000000  1.0
  Pr  Pr3  1  0.30168826  0.30168826  0.00000000  1.0
  Pr  Pr4  1  0.30168826  0.00000000  0.30168826  1.0
  Pr  Pr5  1  0.00000000  0.30168826  0.30168826  1.0
  Cd  Cd6  1  0.50000000  0.50000000  0.50000000  1.0
  Cd  Cd7  1  1.00000000  1.00000000  0.50000000  1.0
  Cd  Cd8  1  1.00000000  1.50000000  1.00000000  1.0
  Cd  Cd9  1  1.50000000  1.00000000  1.00000000  1.0
  Pd  Pd10  1  0.31374794  0.65687397  0.65687397  1.0
  Pd  Pd11  1  1.00000000  1.34312603  0.65687397  1.0
  Pd  Pd12  1  1.00000000  0.65687397  0.34312603  1.0
  Pd  Pd13  1  1.68625206  1.34312603  1.34312603  1.0
  Pd  Pd14  1  0.65687397  0.31374794  0.65687397  1.0
  Pd  Pd15  1  1.34312603  1.00000000  0.65687397  1.0
  Pd  Pd16  1  0.65687397  0.65687397  0.31374794  1.0
  Pd  Pd17  1  1.34312603  0.65687397  1.00000000  1.0
  Pd  Pd18  1  0.65687397  1.00000000  0.34312603  1.0
  Pd  Pd19  1  1.34312603  1.68625206  1.34312603  1.0
  Pd  Pd20  1  0.65687397  1.34312603  1.00000000  1.0
  Pd  Pd21  1  0.34312603  0.34312603  0.68625206  1.0
  Pd  Pd22  1  -0.00000000  -0.00000000  0.00000000  1.0
