# generated using pymatgen
data_Ca(BH)2
_symmetry_space_group_name_H-M   'P 1'
_cell_length_a   17.12077861
_cell_length_b   3.19972061
_cell_length_c   3.47397276
_cell_angle_alpha   90.00000000
_cell_angle_beta   90.00000000
_cell_angle_gamma   90.00000000
_symmetry_Int_Tables_number   1
_chemical_formula_structural   Ca(BH)2
_chemical_formula_sum   'Ca4 B8 H8'
_cell_volume   190.31016206
_cell_formula_units_Z   4
loop_
 _symmetry_equiv_pos_site_id
 _symmetry_equiv_pos_as_xyz
  1  'x, y, z'
loop_
 _atom_site_type_symbol
 _atom_site_label
 _atom_site_symmetry_multiplicity
 _atom_site_fract_x
 _atom_site_fract_y
 _atom_site_fract_z
 _atom_site_occupancy
  Ca  Ca0  1  0.11359591  0.75000000  0.95664594  1.0
  Ca  Ca1  1  0.61359591  0.75000000  0.54335406  1.0
  Ca  Ca2  1  0.88640409  0.25000000  0.04335406  1.0
  Ca  Ca3  1  0.38640409  0.25000000  0.45664594  1.0
  B  B4  1  0.98894022  0.75000000  0.44140604  1.0
  B  B5  1  0.48894022  0.75000000  0.05859396  1.0
  B  B6  1  0.01105978  0.25000000  0.55859396  1.0
  B  B7  1  0.51105978  0.25000000  0.94140604  1.0
  B  B8  1  0.76231709  0.75000000  0.64112565  1.0
  B  B9  1  0.26231709  0.75000000  0.85887435  1.0
  B  B10  1  0.23768291  0.25000000  0.35887435  1.0
  B  B11  1  0.73768291  0.25000000  0.14112565  1.0
  H  H12  1  0.33557961  0.75000000  0.88458064  1.0
  H  H13  1  0.83557961  0.75000000  0.61541936  1.0
  H  H14  1  0.66442039  0.25000000  0.11541936  1.0
  H  H15  1  0.16442039  0.25000000  0.38458064  1.0
  H  H16  1  0.96409239  0.75000000  0.10939199  1.0
  H  H17  1  0.46409239  0.75000000  0.39060801  1.0
  H  H18  1  0.03590761  0.25000000  0.89060801  1.0
  H  H19  1  0.53590761  0.25000000  0.60939199  1.0
