# generated using pymatgen
data_Li5(IO3)4
_symmetry_space_group_name_H-M   'P 1'
_cell_length_a   10.89117889
_cell_length_b   10.89117889
_cell_length_c   5.78910612
_cell_angle_alpha   90.00000000
_cell_angle_beta   90.00000000
_cell_angle_gamma   90.00000000
_symmetry_Int_Tables_number   1
_chemical_formula_structural   Li5(IO3)4
_chemical_formula_sum   'Li10 I8 O24'
_cell_volume   686.69090238
_cell_formula_units_Z   2
loop_
 _symmetry_equiv_pos_site_id
 _symmetry_equiv_pos_as_xyz
  1  'x, y, z'
loop_
 _atom_site_type_symbol
 _atom_site_label
 _atom_site_symmetry_multiplicity
 _atom_site_fract_x
 _atom_site_fract_y
 _atom_site_fract_z
 _atom_site_occupancy
  Li  Li0  1  0.50000000  0.50000000  0.50000000  1.0
  Li  Li1  1  0.00000000  0.00000000  0.00000000  1.0
  Li  Li2  1  0.25000000  0.25000000  0.75000000  1.0
  Li  Li3  1  0.75000000  0.75000000  0.75000000  1.0
  Li  Li4  1  0.25000000  0.75000000  0.25000000  1.0
  Li  Li5  1  0.75000000  0.25000000  0.25000000  1.0
  Li  Li6  1  0.25000000  0.25000000  0.25000000  1.0
  Li  Li7  1  0.75000000  0.75000000  0.25000000  1.0
  Li  Li8  1  0.25000000  0.75000000  0.75000000  1.0
  Li  Li9  1  0.75000000  0.25000000  0.75000000  1.0
  I  I10  1  0.33232672  0.99537369  0.20269519  1.0
  I  I11  1  0.83232672  0.49537369  0.29730481  1.0
  I  I12  1  0.99537369  0.66767328  0.79730481  1.0
  I  I13  1  0.49537369  0.16767328  0.70269519  1.0
  I  I14  1  0.66767328  0.00462631  0.20269519  1.0
  I  I15  1  0.16767328  0.50462631  0.29730481  1.0
  I  I16  1  0.00462631  0.33232672  0.79730481  1.0
  I  I17  1  0.50462631  0.83232672  0.70269519  1.0
  O  O18  1  0.37752915  0.18453482  0.94994898  1.0
  O  O19  1  0.87752915  0.68453482  0.55005102  1.0
  O  O20  1  0.18453482  0.62247085  0.05005102  1.0
  O  O21  1  0.68453482  0.12247085  0.44994898  1.0
  O  O22  1  0.62247085  0.81546518  0.94994898  1.0
  O  O23  1  0.12247085  0.31546518  0.55005102  1.0
  O  O24  1  0.81546518  0.37752915  0.05005102  1.0
  O  O25  1  0.31546518  0.87752915  0.44994898  1.0
  O  O26  1  0.32909993  0.44085528  0.33583906  1.0
  O  O27  1  0.82909993  0.94085528  0.16416094  1.0
  O  O28  1  0.44085528  0.67090007  0.66416094  1.0
  O  O29  1  0.94085528  0.17090007  0.83583906  1.0
  O  O30  1  0.67090007  0.55914472  0.33583906  1.0
  O  O31  1  0.17090007  0.05914472  0.16416094  1.0
  O  O32  1  0.55914472  0.32909993  0.66416094  1.0
  O  O33  1  0.05914472  0.82909993  0.83583906  1.0
  O  O34  1  0.16733585  0.64170847  0.51725170  1.0
  O  O35  1  0.66733585  0.14170847  -0.01725170  1.0
  O  O36  1  0.64170847  0.83266415  0.48274830  1.0
  O  O37  1  0.14170847  0.33266415  1.01725170  1.0
  O  O38  1  0.83266415  0.35829153  0.51725170  1.0
  O  O39  1  0.33266415  0.85829153  -0.01725170  1.0
  O  O40  1  0.35829153  0.16733585  0.48274830  1.0
  O  O41  1  0.85829153  0.66733585  1.01725170  1.0
