# generated using pymatgen
data_RbH3CN
_symmetry_space_group_name_H-M   'P 1'
_cell_length_a   6.32816390
_cell_length_b   6.32816390
_cell_length_c   11.66630790
_cell_angle_alpha   78.87711055
_cell_angle_beta   101.12288945
_cell_angle_gamma   135.38224725
_symmetry_Int_Tables_number   1
_chemical_formula_structural   RbH3CN
_chemical_formula_sum   'Rb4 H12 C4 N4'
_cell_volume   320.92519519
_cell_formula_units_Z   4
loop_
 _symmetry_equiv_pos_site_id
 _symmetry_equiv_pos_as_xyz
  1  'x, y, z'
loop_
 _atom_site_type_symbol
 _atom_site_label
 _atom_site_symmetry_multiplicity
 _atom_site_fract_x
 _atom_site_fract_y
 _atom_site_fract_z
 _atom_site_occupancy
  Rb  Rb0  1  0.81811334  0.18188666  0.39553222  1.0
  Rb  Rb1  1  0.18188666  -0.18188666  0.60446778  1.0
  Rb  Rb2  1  0.56257223  0.43742777  0.84118959  1.0
  Rb  Rb3  1  0.43742777  -0.43742777  0.15881041  1.0
  H  H4  1  0.74444545  -0.08860650  0.64317522  1.0
  H  H5  1  1.08860650  0.25555455  0.64317522  1.0
  H  H6  1  0.91139350  0.74444545  0.35682478  1.0
  H  H7  1  0.25555455  0.08860650  0.35682478  1.0
  H  H8  1  0.48339365  -0.13905980  0.89988932  1.0
  H  H9  1  1.13905980  0.51660635  0.89988932  1.0
  H  H10  1  0.86094020  0.48339365  0.10011068  1.0
  H  H11  1  0.51660635  0.13905980  0.10011068  1.0
  H  H12  1  0.88734003  0.11265997  0.75890844  1.0
  H  H13  1  0.11265997  -0.11265997  0.24109156  1.0
  H  H14  1  0.20160418  -0.20160418  0.93736454  1.0
  H  H15  1  0.79839582  0.20160418  0.06263546  1.0
  C  C16  1  0.94980327  0.05019673  0.96670970  1.0
  C  C17  1  0.05019673  -0.05019673  0.03329030  1.0
  C  C18  1  0.49341578  -0.49341578  0.55253866  1.0
  C  C19  1  0.50658422  0.49341578  0.44746134  1.0
  N  N20  1  0.87393383  0.12606617  0.66854517  1.0
  N  N21  1  0.12606617  -0.12606617  0.33145483  1.0
  N  N22  1  0.25730781  -0.25730781  0.87907491  1.0
  N  N23  1  0.74269219  0.25730781  0.12092509  1.0
