# generated using pymatgen
data_CaNi3
_symmetry_space_group_name_H-M   'P 1'
_cell_length_a   8.59673673
_cell_length_b   8.59673673
_cell_length_c   8.59673673
_cell_angle_alpha   33.82949289
_cell_angle_beta   33.82949289
_cell_angle_gamma   33.82949289
_symmetry_Int_Tables_number   1
_chemical_formula_structural   CaNi3
_chemical_formula_sum   'Ca3 Ni9'
_cell_volume   175.47599044
_cell_formula_units_Z   3
loop_
 _symmetry_equiv_pos_site_id
 _symmetry_equiv_pos_as_xyz
  1  'x, y, z'
loop_
 _atom_site_type_symbol
 _atom_site_label
 _atom_site_symmetry_multiplicity
 _atom_site_fract_x
 _atom_site_fract_y
 _atom_site_fract_z
 _atom_site_occupancy
  Ni  Ni0  1  1.50000000  0.50000000  0.50000000  1.0
  Ni  Ni1  1  1.66766894  0.66766894  0.66766894  1.0
  Ni  Ni2  1  1.33233106  0.33233106  0.33233106  1.0
  Ni  Ni3  1  1.42049216  1.42049216  -0.08307554  1.0
  Ni  Ni4  1  1.42049216  0.91692446  0.42049216  1.0
  Ni  Ni5  1  1.08307554  0.57950784  0.57950784  1.0
  Ni  Ni6  1  1.57950784  0.08307554  0.57950784  1.0
  Ni  Ni7  1  1.57950784  0.57950784  0.08307554  1.0
  Ni  Ni8  1  0.91692446  1.42049216  0.42049216  1.0
  Ca  Ca9  1  0.85979607  0.85979607  0.85979607  1.0
  Ca  Ca10  1  1.14020393  1.14020393  0.14020393  1.0
  Ca  Ca11  1  0.00000000  0.00000000  0.00000000  1.0
