# generated using pymatgen
data_Y3Al2
_symmetry_space_group_name_H-M   'P 1'
_cell_length_a   11.23762525
_cell_length_b   11.23762525
_cell_length_c   11.23762525
_cell_angle_alpha   117.46390904
_cell_angle_beta   117.46837652
_cell_angle_gamma   94.44782473
_symmetry_Int_Tables_number   1
_chemical_formula_structural   Y3Al2
_chemical_formula_sum   'Y24 Al16'
_cell_volume   1038.52676607
_cell_formula_units_Z   8
loop_
 _symmetry_equiv_pos_site_id
 _symmetry_equiv_pos_as_xyz
  1  'x, y, z'
loop_
 _atom_site_type_symbol
 _atom_site_label
 _atom_site_symmetry_multiplicity
 _atom_site_fract_x
 _atom_site_fract_y
 _atom_site_fract_z
 _atom_site_occupancy
  Y  Y0  1  1.04955413  1.25000000  0.79955413  1.0
  Y  Y1  1  0.45044587  0.25000000  0.20044587  1.0
  Y  Y2  1  0.95044587  0.75000000  0.20044587  1.0
  Y  Y3  1  0.54955413  0.75000000  0.79955413  1.0
  Y  Y4  1  0.25000000  0.59789308  0.34789308  1.0
  Y  Y5  1  0.25000000  0.90210692  0.65210692  1.0
  Y  Y6  1  0.75000000  0.40210692  0.65210692  1.0
  Y  Y7  1  0.75000000  1.09789308  1.34789308  1.0
  Y  Y8  1  1.49999403  0.79955103  1.29954506  1.0
  Y  Y9  1  0.50000597  0.20044897  0.70045494  1.0
  Y  Y10  1  0.00000597  0.29955103  0.29955700  1.0
  Y  Y11  1  0.99999403  0.70044897  0.70044300  1.0
  Y  Y12  1  0.34789285  0.50017189  0.84806474  1.0
  Y  Y13  1  0.65210715  0.49982811  0.15193526  1.0
  Y  Y14  1  0.15210715  0.00017189  0.15227905  1.0
  Y  Y15  1  0.84789285  -0.00017189  0.84772095  1.0
  Y  Y16  1  1.12497855  1.62507947  1.00005588  1.0
  Y  Y17  1  0.62502359  1.12492267  0.99994412  1.0
  Y  Y18  1  0.37502145  0.37507733  0.50010092  1.0
  Y  Y19  1  0.87497641  0.87492053  0.49989908  1.0
  Y  Y20  1  0.87502145  1.37492053  0.99994412  1.0
  Y  Y21  1  0.37497641  0.87507733  1.00005588  1.0
  Y  Y22  1  0.62497855  0.62492267  0.49989908  1.0
  Y  Y23  1  1.12502359  1.12507947  0.50010092  1.0
  Al  Al24  1  1.28224013  0.90116680  1.38109792  1.0
  Al  Al25  1  0.52006889  0.90114221  0.61890208  1.0
  Al  Al26  1  0.21775987  0.59885779  0.61892667  1.0
  Al  Al27  1  0.97993111  1.59883320  1.38107333  1.0
  Al  Al28  1  0.71775987  1.09883320  1.61890208  1.0
  Al  Al29  1  0.47993111  0.09885779  0.38109792  1.0
  Al  Al30  1  0.78224013  1.40114221  1.38107333  1.0
  Al  Al31  1  1.02006889  1.40116680  0.61892667  1.0
  Al  Al32  1  1.34889266  0.46775302  1.11896116  1.0
  Al  Al33  1  1.34879186  1.22993150  0.88103884  1.0
  Al  Al34  1  0.15110734  0.27006850  0.11886036  1.0
  Al  Al35  1  1.15120814  1.03224698  0.88113964  1.0
  Al  Al36  1  0.65110734  0.53224698  0.88103884  1.0
  Al  Al37  1  1.65120814  0.77006850  1.11896116  1.0
  Al  Al38  1  0.84889266  0.72993150  0.88113964  1.0
  Al  Al39  1  0.84879186  0.96775302  0.11886036  1.0
