# generated using pymatgen
data_Gd10S19
_symmetry_space_group_name_H-M   'P 1'
_cell_length_a   8.76165717
_cell_length_b   8.76165717
_cell_length_c   15.93391725
_cell_angle_alpha   90.00000000
_cell_angle_beta   90.00000000
_cell_angle_gamma   90.00000000
_symmetry_Int_Tables_number   1
_chemical_formula_structural   Gd10S19
_chemical_formula_sum   'Gd20 S38'
_cell_volume   1223.19323192
_cell_formula_units_Z   2
loop_
 _symmetry_equiv_pos_site_id
 _symmetry_equiv_pos_as_xyz
  1  'x, y, z'
loop_
 _atom_site_type_symbol
 _atom_site_label
 _atom_site_symmetry_multiplicity
 _atom_site_fract_x
 _atom_site_fract_y
 _atom_site_fract_z
 _atom_site_occupancy
  Gd  Gd0  1  0.50000000  0.00000000  0.63501761  1.0
  Gd  Gd1  1  0.50000000  0.00000000  0.13501761  1.0
  Gd  Gd2  1  0.00000000  0.50000000  0.86498239  1.0
  Gd  Gd3  1  0.00000000  0.50000000  0.36498239  1.0
  Gd  Gd4  1  0.09808881  0.20853253  0.12866497  1.0
  Gd  Gd5  1  0.90191119  0.79146747  0.12866497  1.0
  Gd  Gd6  1  0.70853253  0.40191119  0.62866497  1.0
  Gd  Gd7  1  0.29146747  0.59808881  0.62866497  1.0
  Gd  Gd8  1  0.40191119  0.29146747  0.37133503  1.0
  Gd  Gd9  1  0.59808881  0.70853253  0.37133503  1.0
  Gd  Gd10  1  0.79146747  0.09808881  0.87133503  1.0
  Gd  Gd11  1  0.20853253  0.90191119  0.87133503  1.0
  Gd  Gd12  1  0.10402153  0.19557048  0.64673138  1.0
  Gd  Gd13  1  0.89597847  0.80442952  0.64673138  1.0
  Gd  Gd14  1  0.69557048  0.39597847  0.14673138  1.0
  Gd  Gd15  1  0.30442952  0.60402153  0.14673138  1.0
  Gd  Gd16  1  0.39597847  0.30442952  0.85326862  1.0
  Gd  Gd17  1  0.60402153  0.69557048  0.85326862  1.0
  Gd  Gd18  1  0.80442952  0.10402153  0.35326862  1.0
  Gd  Gd19  1  0.19557048  0.89597847  0.35326862  1.0
  S  S20  1  0.50000000  0.00000000  0.81509023  1.0
  S  S21  1  0.50000000  0.00000000  0.31509023  1.0
  S  S22  1  0.00000000  0.50000000  0.68490977  1.0
  S  S23  1  0.00000000  0.50000000  0.18490977  1.0
  S  S24  1  0.09816828  0.20144965  0.82283752  1.0
  S  S25  1  0.90183172  0.79855035  0.82283752  1.0
  S  S26  1  0.70144965  0.40183172  0.32283752  1.0
  S  S27  1  0.29855035  0.59816828  0.32283752  1.0
  S  S28  1  0.40183172  0.29855035  0.67716248  1.0
  S  S29  1  0.59816828  0.70144965  0.67716248  1.0
  S  S30  1  0.79855035  0.09816828  0.17716248  1.0
  S  S31  1  0.20144965  0.90183172  0.17716248  1.0
  S  S32  1  0.10136998  0.19635686  0.31223399  1.0
  S  S33  1  0.89863002  0.80364314  0.31223399  1.0
  S  S34  1  0.69635686  0.39863002  0.81223399  1.0
  S  S35  1  0.30364314  0.60136998  0.81223399  1.0
  S  S36  1  0.39863002  0.30364314  0.18776601  1.0
  S  S37  1  0.60136998  0.69635686  0.18776601  1.0
  S  S38  1  0.80364314  0.10136998  0.68776601  1.0
  S  S39  1  0.19635686  0.89863002  0.68776601  1.0
  S  S40  1  0.50000000  0.50000000  0.50000000  1.0
  S  S41  1  0.00000000  0.00000000  0.00000000  1.0
  S  S42  1  0.44274524  0.78000827  0.00063018  1.0
  S  S43  1  0.55725476  0.21999173  0.00063018  1.0
  S  S44  1  0.28000827  0.05725476  0.50063018  1.0
  S  S45  1  0.71999173  0.94274524  0.50063018  1.0
  S  S46  1  0.05725476  0.71999173  0.49936982  1.0
  S  S47  1  0.94274524  0.28000827  0.49936982  1.0
  S  S48  1  0.21999173  0.44274524  0.99936982  1.0
  S  S49  1  0.78000827  0.55725476  0.99936982  1.0
  S  S50  1  0.36318602  0.82300629  0.49977759  1.0
  S  S51  1  0.63681398  0.17699371  0.49977759  1.0
  S  S52  1  0.32300629  0.13681398  -0.00022241  1.0
  S  S53  1  0.67699371  0.86318602  -0.00022241  1.0
  S  S54  1  0.13681398  0.67699371  1.00022241  1.0
  S  S55  1  0.86318602  0.32300629  1.00022241  1.0
  S  S56  1  0.17699371  0.36318602  0.50022241  1.0
  S  S57  1  0.82300629  0.63681398  0.50022241  1.0
