# generated using pymatgen
data_Sc5NCl8
_symmetry_space_group_name_H-M   'P 1'
_cell_length_a   9.38406359
_cell_length_b   9.38406359
_cell_length_c   12.18373185
_cell_angle_alpha   50.39497636
_cell_angle_beta   129.60502364
_cell_angle_gamma   158.42442315
_symmetry_Int_Tables_number   1
_chemical_formula_structural   Sc5NCl8
_chemical_formula_sum   'Sc5 N1 Cl8'
_cell_volume   300.17343184
_cell_formula_units_Z   1
loop_
 _symmetry_equiv_pos_site_id
 _symmetry_equiv_pos_as_xyz
  1  'x, y, z'
loop_
 _atom_site_type_symbol
 _atom_site_label
 _atom_site_symmetry_multiplicity
 _atom_site_fract_x
 _atom_site_fract_y
 _atom_site_fract_z
 _atom_site_occupancy
  Sc  Sc0  1  0.84546203  -0.84546203  0.34053475  1.0
  Sc  Sc1  1  0.15453797  -0.15453797  0.65946525  1.0
  Sc  Sc2  1  1.49548064  -0.49548064  0.61698318  1.0
  Sc  Sc3  1  0.50451936  0.49548064  0.38301682  1.0
  Sc  Sc4  1  0.00000000  0.00000000  0.00000000  1.0
  N  N5  1  0.00000000  -0.00000000  0.50000000  1.0
  Cl  Cl6  1  0.98858838  -0.98858838  0.77734464  1.0
  Cl  Cl7  1  0.01141162  -0.01141162  0.22265536  1.0
  Cl  Cl8  1  0.68764654  0.31235346  0.54590174  1.0
  Cl  Cl9  1  1.31235346  -0.31235346  0.45409826  1.0
  Cl  Cl10  1  0.67647013  0.32352987  0.83007674  1.0
  Cl  Cl11  1  1.32352987  -0.32352987  0.16992326  1.0
  Cl  Cl12  1  0.36966111  -0.36966111  0.88055639  1.0
  Cl  Cl13  1  0.63033889  -0.63033889  0.11944361  1.0
