# generated using pymatgen
data_Mg3BeAl8O16
_symmetry_space_group_name_H-M   'P 1'
_cell_length_a   5.72503412
_cell_length_b   5.72503412
_cell_length_c   18.57802389
_cell_angle_alpha   90.00000000
_cell_angle_beta   90.00000000
_cell_angle_gamma   120.00000000
_symmetry_Int_Tables_number   1
_chemical_formula_structural   Mg3BeAl8O16
_chemical_formula_sum   'Mg6 Be2 Al16 O32'
_cell_volume   527.33464879
_cell_formula_units_Z   2
loop_
 _symmetry_equiv_pos_site_id
 _symmetry_equiv_pos_as_xyz
  1  'x, y, z'
loop_
 _atom_site_type_symbol
 _atom_site_label
 _atom_site_symmetry_multiplicity
 _atom_site_fract_x
 _atom_site_fract_y
 _atom_site_fract_z
 _atom_site_occupancy
  Mg  Mg0  1  0.33333333  0.66666667  0.04511435  1.0
  Mg  Mg1  1  0.66666667  0.33333333  0.54511435  1.0
  Mg  Mg2  1  0.33333333  0.66666667  0.85726529  1.0
  Mg  Mg3  1  0.66666667  0.33333333  0.35726529  1.0
  Mg  Mg4  1  0.00000000  0.00000000  0.10780929  1.0
  Mg  Mg5  1  0.00000000  0.00000000  0.60780929  1.0
  Be  Be6  1  0.33333333  0.66666667  0.30810092  1.0
  Be  Be7  1  0.66666667  0.33333333  0.80810092  1.0
  Al  Al8  1  0.67007855  0.83503927  0.44802829  1.0
  Al  Al9  1  0.83503927  0.67007855  0.94802829  1.0
  Al  Al10  1  0.83503927  0.16496073  0.94802829  1.0
  Al  Al11  1  0.16496073  0.83503927  0.44802829  1.0
  Al  Al12  1  0.16496073  0.32992145  0.44802829  1.0
  Al  Al13  1  0.32992145  0.16496073  0.94802829  1.0
  Al  Al14  1  -0.00373843  0.49813078  0.20272760  1.0
  Al  Al15  1  0.49813078  -0.00373843  0.70272760  1.0
  Al  Al16  1  0.49813078  0.50186922  0.70272760  1.0
  Al  Al17  1  0.50186922  0.49813078  0.20272760  1.0
  Al  Al18  1  0.50186922  1.00373843  0.20272760  1.0
  Al  Al19  1  1.00373843  0.50186922  0.70272760  1.0
  Al  Al20  1  0.33333333  0.66666667  0.57465111  1.0
  Al  Al21  1  0.66666667  0.33333333  0.07465111  1.0
  Al  Al22  1  0.00000000  0.00000000  0.31804604  1.0
  Al  Al23  1  0.00000000  0.00000000  0.81804604  1.0
  O  O24  1  0.64218558  0.82109279  0.26465738  1.0
  O  O25  1  0.82109279  0.64218558  0.76465738  1.0
  O  O26  1  0.82109279  0.17890721  0.76465738  1.0
  O  O27  1  0.17890721  0.82109279  0.26465738  1.0
  O  O28  1  0.17890721  0.35781442  0.26465738  1.0
  O  O29  1  0.35781442  0.17890721  0.76465738  1.0
  O  O30  1  0.96478797  0.48239398  0.00773601  1.0
  O  O31  1  0.48239398  0.96478797  0.50773601  1.0
  O  O32  1  0.48239398  0.51760602  0.50773601  1.0
  O  O33  1  0.51760602  0.48239398  0.00773601  1.0
  O  O34  1  0.51760602  0.03521203  0.00773601  1.0
  O  O35  1  0.03521203  0.51760602  0.50773601  1.0
  O  O36  1  0.36937862  0.18468931  0.14164900  1.0
  O  O37  1  0.18468931  0.36937862  0.64164900  1.0
  O  O38  1  0.18468931  0.81531069  0.64164900  1.0
  O  O39  1  0.81531069  0.18468931  0.14164900  1.0
  O  O40  1  0.81531069  0.63062138  0.14164900  1.0
  O  O41  1  0.63062138  0.81531069  0.64164900  1.0
  O  O42  1  0.29549543  0.14774772  0.38878320  1.0
  O  O43  1  0.14774772  0.29549543  0.88878320  1.0
  O  O44  1  0.14774772  0.85225228  0.88878320  1.0
  O  O45  1  0.85225228  0.14774772  0.38878320  1.0
  O  O46  1  0.85225228  0.70450457  0.38878320  1.0
  O  O47  1  0.70450457  0.85225228  0.88878320  1.0
  O  O48  1  0.33333333  0.66666667  0.15180163  1.0
  O  O49  1  0.66666667  0.33333333  0.65180163  1.0
  O  O50  1  0.33333333  0.66666667  0.39314430  1.0
  O  O51  1  0.66666667  0.33333333  0.89314430  1.0
  O  O52  1  0.33333333  0.66666667  0.75376055  1.0
  O  O53  1  0.66666667  0.33333333  0.25376055  1.0
  O  O54  1  0.00000000  0.00000000  0.00266209  1.0
  O  O55  1  0.00000000  0.00000000  0.50266209  1.0
