# generated using pymatgen
data_SrC2(NO)2
_symmetry_space_group_name_H-M   'P 1'
_cell_length_a   8.13717054
_cell_length_b   8.13717054
_cell_length_c   8.13717054
_cell_angle_alpha   94.75684351
_cell_angle_beta   94.75684351
_cell_angle_gamma   94.75684351
_symmetry_Int_Tables_number   1
_chemical_formula_structural   SrC2(NO)2
_chemical_formula_sum   'Sr6 C12 N12 O12'
_cell_volume   532.89352565
_cell_formula_units_Z   6
loop_
 _symmetry_equiv_pos_site_id
 _symmetry_equiv_pos_as_xyz
  1  'x, y, z'
loop_
 _atom_site_type_symbol
 _atom_site_label
 _atom_site_symmetry_multiplicity
 _atom_site_fract_x
 _atom_site_fract_y
 _atom_site_fract_z
 _atom_site_occupancy
  Sr  Sr0  1  0.74102482  0.03363566  0.37963932  1.0
  Sr  Sr1  1  1.24102482  -0.12036068  0.53363566  1.0
  Sr  Sr2  1  1.53363566  0.24102482  -0.12036068  1.0
  Sr  Sr3  1  1.03363566  0.37963932  -0.25897518  1.0
  Sr  Sr4  1  0.87963932  0.53363566  0.24102482  1.0
  Sr  Sr5  1  1.37963932  -0.25897518  0.03363566  1.0
  C  C6  1  1.04531095  -0.12285676  0.08779169  1.0
  C  C7  1  0.54531095  0.58779169  0.37714324  1.0
  C  C8  1  1.37714324  0.54531095  -0.41220831  1.0
  C  C9  1  0.87714324  0.08779169  0.04531095  1.0
  C  C10  1  0.58779169  1.37714324  -0.45468905  1.0
  C  C11  1  1.08779169  0.04531095  -0.12285676  1.0
  C  C12  1  0.34138215  1.12215643  -0.73605795  1.0
  C  C13  1  0.84138215  0.76394205  0.62215643  1.0
  C  C14  1  1.62215643  0.84138215  -0.23605795  1.0
  C  C15  1  1.12215643  0.26394205  -0.65861785  1.0
  C  C16  1  0.76394205  1.62215643  -0.15861785  1.0
  C  C17  1  0.26394205  0.34138215  0.12215643  1.0
  N  N18  1  1.22086349  0.14142122  -0.63217868  1.0
  N  N19  1  1.72086349  -0.13217868  0.64142122  1.0
  N  N20  1  1.64142122  0.72086349  -0.13217868  1.0
  N  N21  1  1.14142122  -0.63217868  0.22086349  1.0
  N  N22  1  0.86782132  0.64142122  0.72086349  1.0
  N  N23  1  0.36782132  0.22086349  0.14142122  1.0
  N  N24  1  0.91542481  0.95846003  0.13270155  1.0
  N  N25  1  1.41542481  -0.36729845  0.45846003  1.0
  N  N26  1  1.45846003  0.41542481  -0.36729845  1.0
  N  N27  1  0.95846003  1.13270155  -0.08457519  1.0
  N  N28  1  0.63270155  0.45846003  0.41542481  1.0
  N  N29  1  1.13270155  0.91542481  -0.04153997  1.0
  O  O30  1  1.43146518  -0.00089339  0.28408425  1.0
  O  O31  1  0.93146518  0.78408425  0.49910661  1.0
  O  O32  1  1.49910661  0.93146518  -0.21591575  1.0
  O  O33  1  0.99910661  0.28408425  0.43146518  1.0
  O  O34  1  0.78408425  1.49910661  -0.06853482  1.0
  O  O35  1  1.28408425  0.43146518  -0.00089339  1.0
  O  O36  1  1.09394717  -0.24155084  0.17152889  1.0
  O  O37  1  0.59394717  0.67152889  0.25844916  1.0
  O  O38  1  1.25844916  0.59394717  -0.32847111  1.0
  O  O39  1  0.75844916  0.17152889  0.09394717  1.0
  O  O40  1  0.67152889  1.25844916  -0.40605283  1.0
  O  O41  1  1.17152889  0.09394717  -0.24155084  1.0
