# generated using pymatgen
data_V12Fe5C
_symmetry_space_group_name_H-M   'P 1'
_cell_length_a   9.22490670
_cell_length_b   9.22490670
_cell_length_c   9.22490670
_cell_angle_alpha   60.00000000
_cell_angle_beta   60.00000000
_cell_angle_gamma   60.00000000
_symmetry_Int_Tables_number   1
_chemical_formula_structural   V12Fe5C
_chemical_formula_sum   'V24 Fe10 C2'
_cell_volume   555.09964535
_cell_formula_units_Z   2
loop_
 _symmetry_equiv_pos_site_id
 _symmetry_equiv_pos_as_xyz
  1  'x, y, z'
loop_
 _atom_site_type_symbol
 _atom_site_label
 _atom_site_symmetry_multiplicity
 _atom_site_fract_x
 _atom_site_fract_y
 _atom_site_fract_z
 _atom_site_occupancy
  V  V0  1  0.95611739  -0.61870838  0.70647360  1.0
  V  V1  1  -0.04388261  0.70647360  0.38129162  1.0
  V  V2  1  -0.13129162  0.29388261  0.29388261  1.0
  V  V3  1  0.54352640  0.29388261  0.29388261  1.0
  V  V4  1  -0.61870838  0.95611739  0.70647360  1.0
  V  V5  1  0.95611739  -0.04388261  0.70647360  1.0
  V  V6  1  0.95611739  -0.29352640  0.95611739  1.0
  V  V7  1  -0.61870838  0.70647360  0.95611739  1.0
  V  V8  1  0.29388261  -0.13129162  0.29388261  1.0
  V  V9  1  0.29388261  0.29388261  -0.13129162  1.0
  V  V10  1  0.54352640  0.29388261  -0.13129162  1.0
  V  V11  1  0.54352640  -0.13129162  0.29388261  1.0
  V  V12  1  0.70647360  -0.04388261  0.95611739  1.0
  V  V13  1  -0.61870838  0.95611739  0.95611739  1.0
  V  V14  1  0.29388261  0.54352640  -0.13129162  1.0
  V  V15  1  0.29388261  -0.13129162  0.54352640  1.0
  V  V16  1  -0.29352640  0.95611739  0.38129162  1.0
  V  V17  1  0.70647360  -0.61870838  0.95611739  1.0
  V  V18  1  0.95611739  -0.61870838  0.95611739  1.0
  V  V19  1  -0.04388261  0.95611739  0.38129162  1.0
  V  V20  1  0.29388261  0.54352640  0.29388261  1.0
  V  V21  1  -0.13129162  0.54352640  0.29388261  1.0
  V  V22  1  -0.13129162  0.29388261  0.54352640  1.0
  V  V23  1  0.29388261  0.29388261  0.54352640  1.0
  Fe  Fe24  1  0.66471139  -0.33528861  1.00586583  1.0
  Fe  Fe25  1  0.66471139  0.00586583  0.66471139  1.0
  Fe  Fe26  1  0.58528861  -0.41471139  0.58528861  1.0
  Fe  Fe27  1  1.24413417  -0.41471139  0.58528861  1.0
  Fe  Fe28  1  1.00586583  -0.33528861  0.66471139  1.0
  Fe  Fe29  1  0.66471139  -0.33528861  0.66471139  1.0
  Fe  Fe30  1  0.58528861  0.24413417  0.58528861  1.0
  Fe  Fe31  1  0.58528861  -0.41471139  1.24413417  1.0
  Fe  Fe32  1  0.50000000  0.50000000  -0.50000000  1.0
  Fe  Fe33  1  0.75000000  -0.25000000  0.75000000  1.0
  C  C34  1  0.00000000  1.00000000  -0.00000000  1.0
  C  C35  1  0.25000000  0.25000000  0.25000000  1.0
