# generated using pymatgen
data_Cs3Nb2Br9
_symmetry_space_group_name_H-M   'P 1'
_cell_length_a   7.98973393
_cell_length_b   7.98973393
_cell_length_c   18.75575995
_cell_angle_alpha   90.00000000
_cell_angle_beta   90.00000000
_cell_angle_gamma   120.00000000
_symmetry_Int_Tables_number   1
_chemical_formula_structural   Cs3Nb2Br9
_chemical_formula_sum   'Cs6 Nb4 Br18'
_cell_volume   1036.88342345
_cell_formula_units_Z   2
loop_
 _symmetry_equiv_pos_site_id
 _symmetry_equiv_pos_as_xyz
  1  'x, y, z'
loop_
 _atom_site_type_symbol
 _atom_site_label
 _atom_site_symmetry_multiplicity
 _atom_site_fract_x
 _atom_site_fract_y
 _atom_site_fract_z
 _atom_site_occupancy
  Cs  Cs0  1  0.33333333  0.66666667  0.43163709  1.0
  Cs  Cs1  1  0.33333333  0.66666667  0.06836291  1.0
  Cs  Cs2  1  0.66666667  0.33333333  0.93163709  1.0
  Cs  Cs3  1  0.66666667  0.33333333  0.56836291  1.0
  Cs  Cs4  1  0.00000000  0.00000000  0.25000000  1.0
  Cs  Cs5  1  0.00000000  0.00000000  0.75000000  1.0
  Nb  Nb6  1  0.33333333  0.66666667  0.82240292  1.0
  Nb  Nb7  1  0.33333333  0.66666667  0.67759708  1.0
  Nb  Nb8  1  0.66666667  0.33333333  0.32240292  1.0
  Nb  Nb9  1  0.66666667  0.33333333  0.17759708  1.0
  Br  Br10  1  0.17766430  0.82233570  0.90243263  1.0
  Br  Br11  1  0.17766430  0.82233570  0.59756737  1.0
  Br  Br12  1  0.17766430  0.35532861  0.90243263  1.0
  Br  Br13  1  0.17766430  0.35532861  0.59756737  1.0
  Br  Br14  1  0.82233570  0.17766430  0.40243263  1.0
  Br  Br15  1  0.82233570  0.17766430  0.09756737  1.0
  Br  Br16  1  0.82233570  0.64467139  0.40243263  1.0
  Br  Br17  1  0.82233570  0.64467139  0.09756737  1.0
  Br  Br18  1  0.64467139  0.82233570  0.90243263  1.0
  Br  Br19  1  0.64467139  0.82233570  0.59756737  1.0
  Br  Br20  1  0.35532861  0.17766430  0.40243263  1.0
  Br  Br21  1  0.35532861  0.17766430  0.09756737  1.0
  Br  Br22  1  0.49879950  0.50120050  0.25000000  1.0
  Br  Br23  1  0.49879950  -0.00240100  0.25000000  1.0
  Br  Br24  1  0.50120050  0.49879950  0.75000000  1.0
  Br  Br25  1  0.50120050  1.00240100  0.75000000  1.0
  Br  Br26  1  1.00240100  0.50120050  0.25000000  1.0
  Br  Br27  1  -0.00240100  0.49879950  0.75000000  1.0
