# generated using pymatgen
data_Y3ClO4
_symmetry_space_group_name_H-M   'P 1'
_cell_length_a   6.17585114
_cell_length_b   6.17585114
_cell_length_c   11.65757744
_cell_angle_alpha   90.00000000
_cell_angle_beta   90.00000000
_cell_angle_gamma   141.74721419
_symmetry_Int_Tables_number   1
_chemical_formula_structural   Y3ClO4
_chemical_formula_sum   'Y6 Cl2 O8'
_cell_volume   275.28673969
_cell_formula_units_Z   2
loop_
 _symmetry_equiv_pos_site_id
 _symmetry_equiv_pos_as_xyz
  1  'x, y, z'
loop_
 _atom_site_type_symbol
 _atom_site_label
 _atom_site_symmetry_multiplicity
 _atom_site_fract_x
 _atom_site_fract_y
 _atom_site_fract_z
 _atom_site_occupancy
  Y  Y0  1  0.31951094  0.68048906  0.89867462  1.0
  Y  Y1  1  0.31951094  0.68048906  0.60132538  1.0
  Y  Y2  1  -0.31951094  0.31951094  0.39867462  1.0
  Y  Y3  1  -0.31951094  0.31951094  0.10132538  1.0
  Y  Y4  1  -0.37621136  0.37621136  0.75000000  1.0
  Y  Y5  1  0.37621136  0.62378864  0.25000000  1.0
  Cl  Cl6  1  0.00000000  0.00000000  0.00000000  1.0
  Cl  Cl7  1  0.00000000  0.00000000  0.50000000  1.0
  O  O8  1  0.26713250  0.73286750  0.41112366  1.0
  O  O9  1  0.26713250  0.73286750  0.08887634  1.0
  O  O10  1  -0.26713250  0.26713250  0.91112366  1.0
  O  O11  1  -0.26713250  0.26713250  0.58887634  1.0
  O  O12  1  0.19716115  0.80283885  0.75000000  1.0
  O  O13  1  -0.19716115  0.19716115  0.25000000  1.0
  O  O14  1  0.43875563  0.56124437  0.75000000  1.0
  O  O15  1  -0.43875563  0.43875563  0.25000000  1.0
