# generated using pymatgen
data_Er2CdS4
_symmetry_space_group_name_H-M   'P 1'
_cell_length_a   7.95324015
_cell_length_b   7.95324015
_cell_length_c   7.95324015
_cell_angle_alpha   60.00000000
_cell_angle_beta   60.00000000
_cell_angle_gamma   60.00000000
_symmetry_Int_Tables_number   1
_chemical_formula_structural   Er2CdS4
_chemical_formula_sum   'Er4 Cd2 S8'
_cell_volume   355.72737794
_cell_formula_units_Z   2
loop_
 _symmetry_equiv_pos_site_id
 _symmetry_equiv_pos_as_xyz
  1  'x, y, z'
loop_
 _atom_site_type_symbol
 _atom_site_label
 _atom_site_symmetry_multiplicity
 _atom_site_fract_x
 _atom_site_fract_y
 _atom_site_fract_z
 _atom_site_occupancy
  Er  Er0  1  0.62500000  1.12500000  0.12500000  1.0
  Er  Er1  1  0.12500000  1.62500000  0.12500000  1.0
  Er  Er2  1  0.12500000  0.12500000  1.62500000  1.0
  Er  Er3  1  0.12500000  0.12500000  0.12500000  1.0
  Cd  Cd4  1  0.50000000  -0.50000000  0.50000000  1.0
  Cd  Cd5  1  0.75000000  0.75000000  0.75000000  1.0
  S  S6  1  -0.10101117  1.36700372  0.36700372  1.0
  S  S7  1  0.36700372  0.89898883  0.36700372  1.0
  S  S8  1  0.36700372  1.36700372  -0.10101117  1.0
  S  S9  1  0.36700372  1.36700372  0.36700372  1.0
  S  S10  1  -0.64898883  0.88299628  0.88299628  1.0
  S  S11  1  0.88299628  -0.64898883  0.88299628  1.0
  S  S12  1  0.88299628  0.88299628  -0.64898883  1.0
  S  S13  1  0.88299628  0.88299628  0.88299628  1.0
