# generated using pymatgen
data_SbIrSe
_symmetry_space_group_name_H-M   'P 1'
_cell_length_a   6.26345850
_cell_length_b   6.26345850
_cell_length_c   6.26345850
_cell_angle_alpha   90.00000000
_cell_angle_beta   90.00000000
_cell_angle_gamma   90.00000000
_symmetry_Int_Tables_number   1
_chemical_formula_structural   SbIrSe
_chemical_formula_sum   'Sb4 Ir4 Se4'
_cell_volume   245.72119150
_cell_formula_units_Z   4
loop_
 _symmetry_equiv_pos_site_id
 _symmetry_equiv_pos_as_xyz
  1  'x, y, z'
loop_
 _atom_site_type_symbol
 _atom_site_label
 _atom_site_symmetry_multiplicity
 _atom_site_fract_x
 _atom_site_fract_y
 _atom_site_fract_z
 _atom_site_occupancy
  Sb  Sb0  1  0.12501884  0.62501884  0.87498116  1.0
  Sb  Sb1  1  0.62501884  0.87498116  0.12501884  1.0
  Sb  Sb2  1  0.87498116  0.12501884  0.62501884  1.0
  Sb  Sb3  1  0.37498116  0.37498116  0.37498116  1.0
  Ir  Ir4  1  0.49450020  0.99450020  0.50549980  1.0
  Ir  Ir5  1  0.99450020  0.50549980  0.49450020  1.0
  Ir  Ir6  1  0.50549980  0.49450020  0.99450020  1.0
  Ir  Ir7  1  0.00549980  0.00549980  0.00549980  1.0
  Se  Se8  1  0.87934072  0.37934072  0.12065928  1.0
  Se  Se9  1  0.37934072  0.12065928  0.87934072  1.0
  Se  Se10  1  0.12065928  0.87934072  0.37934072  1.0
  Se  Se11  1  0.62065928  0.62065928  0.62065928  1.0
