# generated using pymatgen
data_TbGa3
_symmetry_space_group_name_H-M   'P 1'
_cell_length_a   6.33749342
_cell_length_b   6.33749342
_cell_length_c   4.50649865
_cell_angle_alpha   90.00000000
_cell_angle_beta   90.00000000
_cell_angle_gamma   120.00000000
_symmetry_Int_Tables_number   1
_chemical_formula_structural   TbGa3
_chemical_formula_sum   'Tb2 Ga6'
_cell_volume   156.74905050
_cell_formula_units_Z   2
loop_
 _symmetry_equiv_pos_site_id
 _symmetry_equiv_pos_as_xyz
  1  'x, y, z'
loop_
 _atom_site_type_symbol
 _atom_site_label
 _atom_site_symmetry_multiplicity
 _atom_site_fract_x
 _atom_site_fract_y
 _atom_site_fract_z
 _atom_site_occupancy
  Tb  Tb0  1  0.33333333  0.66666667  0.75000000  1.0
  Tb  Tb1  1  0.66666667  0.33333333  0.25000000  1.0
  Ga  Ga2  1  0.14856548  0.85143452  0.25000000  1.0
  Ga  Ga3  1  0.14856548  0.29713095  0.25000000  1.0
  Ga  Ga4  1  0.85143452  0.14856548  0.75000000  1.0
  Ga  Ga5  1  0.85143452  0.70286905  0.75000000  1.0
  Ga  Ga6  1  0.70286905  0.85143452  0.25000000  1.0
  Ga  Ga7  1  0.29713095  0.14856548  0.75000000  1.0
