# generated using pymatgen
data_Sc2B4Os5
_symmetry_space_group_name_H-M   'P 1'
_cell_length_a   8.55619548
_cell_length_b   3.02400735
_cell_length_c   10.14154082
_cell_angle_alpha   90.00000000
_cell_angle_beta   90.00020441
_cell_angle_gamma   90.00000000
_symmetry_Int_Tables_number   1
_chemical_formula_structural   Sc2B4Os5
_chemical_formula_sum   'Sc4 B8 Os10'
_cell_volume   262.40220667
_cell_formula_units_Z   2
loop_
 _symmetry_equiv_pos_site_id
 _symmetry_equiv_pos_as_xyz
  1  'x, y, z'
loop_
 _atom_site_type_symbol
 _atom_site_label
 _atom_site_symmetry_multiplicity
 _atom_site_fract_x
 _atom_site_fract_y
 _atom_site_fract_z
 _atom_site_occupancy
  Sc  Sc0  1  0.84309236  0.50000000  0.18045897  1.0
  Sc  Sc1  1  0.15690764  0.50000000  0.81954103  1.0
  Sc  Sc2  1  0.65690798  0.50000000  0.68044308  1.0
  Sc  Sc3  1  0.34309202  0.50000000  0.31955692  1.0
  B  B4  1  0.96220478  0.50000000  0.58964579  1.0
  B  B5  1  0.03779522  0.50000000  0.41035421  1.0
  B  B6  1  0.85192723  0.50000000  0.89827928  1.0
  B  B7  1  0.14807277  0.50000000  0.10172072  1.0
  B  B8  1  0.64805904  0.50000000  0.39825574  1.0
  B  B9  1  0.35194096  0.50000000  0.60174426  1.0
  B  B10  1  0.46218313  0.50000000  0.91037135  1.0
  B  B11  1  0.53781687  0.50000000  0.08962865  1.0
  Os  Os12  1  0.90498659  0.00000000  0.73822432  1.0
  Os  Os13  1  0.09501341  0.00000000  0.26177568  1.0
  Os  Os14  1  0.84066026  0.00000000  0.45197905  1.0
  Os  Os15  1  0.15933974  0.00000000  0.54802095  1.0
  Os  Os16  1  0.65934289  0.00000000  0.95198129  1.0
  Os  Os17  1  0.34065711  0.00000000  0.04801871  1.0
  Os  Os18  1  0.40499814  0.00000000  0.76178398  1.0
  Os  Os19  1  0.59500186  0.00000000  0.23821602  1.0
  Os  Os20  1  0.50000000  0.00000000  0.50000000  1.0
  Os  Os21  1  0.00000000  0.00000000  0.00000000  1.0
