# generated using pymatgen
data_CsVP3HO10
_symmetry_space_group_name_H-M   'P 1'
_cell_length_a   7.58043794
_cell_length_b   7.58043794
_cell_length_c   9.16989545
_cell_angle_alpha   73.00566071
_cell_angle_beta   106.99433929
_cell_angle_gamma   108.99162022
_symmetry_Int_Tables_number   1
_chemical_formula_structural   CsVP3HO10
_chemical_formula_sum   'Cs2 V2 P6 H2 O20'
_cell_volume   465.02698548
_cell_formula_units_Z   2
loop_
 _symmetry_equiv_pos_site_id
 _symmetry_equiv_pos_as_xyz
  1  'x, y, z'
loop_
 _atom_site_type_symbol
 _atom_site_label
 _atom_site_symmetry_multiplicity
 _atom_site_fract_x
 _atom_site_fract_y
 _atom_site_fract_z
 _atom_site_occupancy
  Cs  Cs0  1  0.93974583  0.93974583  0.75000000  1.0
  Cs  Cs1  1  0.06025417  0.06025417  0.25000000  1.0
  V  V2  1  1.00000000  0.50000000  0.50000000  1.0
  V  V3  1  1.50000000  0.00000000  -0.00000000  1.0
  P  P4  1  0.37488966  0.37488966  0.75000000  1.0
  P  P5  1  0.62511034  0.62511034  0.25000000  1.0
  P  P6  1  0.76714884  0.35455020  0.79811566  1.0
  P  P7  1  1.35455020  -0.23285116  0.70188434  1.0
  P  P8  1  1.23285116  -0.35455020  0.20188434  1.0
  P  P9  1  0.64544980  0.23285116  0.29811566  1.0
  H  H10  1  1.00000000  0.50000000  -0.00000000  1.0
  H  H11  1  1.50000000  -0.00000000  0.50000000  1.0
  O  O12  1  1.40483354  -0.43283796  0.80632687  1.0
  O  O13  1  0.56716204  0.40483354  0.69367313  1.0
  O  O14  1  0.59516646  0.43283796  0.19367313  1.0
  O  O15  1  1.43283796  -0.40483354  0.30632687  1.0
  O  O16  1  0.86144386  0.50864580  0.89550747  1.0
  O  O17  1  1.50864580  -0.13855614  0.60449253  1.0
  O  O18  1  1.13855614  -0.50864580  0.10449253  1.0
  O  O19  1  0.49135420  0.13855614  0.39550747  1.0
  O  O20  1  0.87998777  0.36413046  0.68169305  1.0
  O  O21  1  1.36413046  -0.12001223  0.81830695  1.0
  O  O22  1  1.12001223  -0.36413046  0.31830695  1.0
  O  O23  1  0.63586954  0.12001223  0.18169305  1.0
  O  O24  1  1.21213149  -0.64162356  0.60768063  1.0
  O  O25  1  0.35837644  0.21213149  0.89231937  1.0
  O  O26  1  0.78786851  0.64162356  0.39231937  1.0
  O  O27  1  1.64162356  -0.21213149  0.10768063  1.0
  O  O28  1  1.14930599  -0.28031738  0.60230976  1.0
  O  O29  1  0.71968262  0.14930599  0.89769024  1.0
  O  O30  1  0.85069401  0.28031738  0.39769024  1.0
  O  O31  1  1.28031738  -0.14930599  0.10230976  1.0
