# generated using pymatgen
data_AgF2
_symmetry_space_group_name_H-M   'P 1'
_cell_length_a   5.29462142
_cell_length_b   5.72487571
_cell_length_c   6.00920338
_cell_angle_alpha   90.00000000
_cell_angle_beta   90.00000000
_cell_angle_gamma   90.00000000
_symmetry_Int_Tables_number   1
_chemical_formula_structural   AgF2
_chemical_formula_sum   'Ag4 F8'
_cell_volume   182.14526153
_cell_formula_units_Z   4
loop_
 _symmetry_equiv_pos_site_id
 _symmetry_equiv_pos_as_xyz
  1  'x, y, z'
loop_
 _atom_site_type_symbol
 _atom_site_label
 _atom_site_symmetry_multiplicity
 _atom_site_fract_x
 _atom_site_fract_y
 _atom_site_fract_z
 _atom_site_occupancy
  Ag  Ag0  1  0.50000000  0.00000000  0.50000000  1.0
  Ag  Ag1  1  0.50000000  0.50000000  0.00000000  1.0
  Ag  Ag2  1  0.00000000  0.00000000  0.00000000  1.0
  Ag  Ag3  1  0.00000000  0.50000000  0.50000000  1.0
  F  F4  1  0.30604740  0.70199015  0.61674883  1.0
  F  F5  1  0.30604740  0.79800985  0.11674883  1.0
  F  F6  1  0.80604740  0.70199015  0.88325117  1.0
  F  F7  1  0.80604740  0.79800985  0.38325117  1.0
  F  F8  1  0.69395260  0.20199015  0.88325117  1.0
  F  F9  1  0.69395260  0.29800985  0.38325117  1.0
  F  F10  1  0.19395260  0.20199015  0.61674883  1.0
  F  F11  1  0.19395260  0.29800985  0.11674883  1.0
