# generated using pymatgen
data_Sc(VGa2)2
_symmetry_space_group_name_H-M   'P 1'
_cell_length_a   5.27666343
_cell_length_b   5.27666343
_cell_length_c   5.27666343
_cell_angle_alpha   104.04020029
_cell_angle_beta   104.04020029
_cell_angle_gamma   120.98373717
_symmetry_Int_Tables_number   1
_chemical_formula_structural   Sc(VGa2)2
_chemical_formula_sum   'Sc1 V2 Ga4'
_cell_volume   109.61745625
_cell_formula_units_Z   1
loop_
 _symmetry_equiv_pos_site_id
 _symmetry_equiv_pos_as_xyz
  1  'x, y, z'
loop_
 _atom_site_type_symbol
 _atom_site_label
 _atom_site_symmetry_multiplicity
 _atom_site_fract_x
 _atom_site_fract_y
 _atom_site_fract_z
 _atom_site_occupancy
  Sc  Sc0  1  0.00000000  0.00000000  0.00000000  1.0
  V  V1  1  0.25000000  0.75000000  0.50000000  1.0
  V  V2  1  0.75000000  1.25000000  0.50000000  1.0
  Ga  Ga3  1  0.69993791  0.69993791  0.39987582  1.0
  Ga  Ga4  1  1.30006209  0.69993791  1.00000000  1.0
  Ga  Ga5  1  0.69993791  0.30006209  1.00000000  1.0
  Ga  Ga6  1  0.30006209  0.30006209  0.60012418  1.0
