# generated using pymatgen
data_AlH6BrO4
_symmetry_space_group_name_H-M   'P 1'
_cell_length_a   8.21001643
_cell_length_b   8.21001643
_cell_length_c   5.23008366
_cell_angle_alpha   72.30674000
_cell_angle_beta   107.69326000
_cell_angle_gamma   67.35528917
_symmetry_Int_Tables_number   1
_chemical_formula_structural   AlH6BrO4
_chemical_formula_sum   'Al2 H12 Br2 O8'
_cell_volume   272.13454338
_cell_formula_units_Z   2
loop_
 _symmetry_equiv_pos_site_id
 _symmetry_equiv_pos_as_xyz
  1  'x, y, z'
loop_
 _atom_site_type_symbol
 _atom_site_label
 _atom_site_symmetry_multiplicity
 _atom_site_fract_x
 _atom_site_fract_y
 _atom_site_fract_z
 _atom_site_occupancy
  Al  Al0  1  1.45090722  0.45090722  0.75000000  1.0
  Al  Al1  1  0.54909278  0.54909278  0.25000000  1.0
  H  H2  1  1.33509899  -0.18811697  0.67399001  1.0
  H  H3  1  1.18811697  0.66490101  0.17399001  1.0
  H  H4  1  0.81188303  0.33509899  0.82600999  1.0
  H  H5  1  1.66490101  0.18811697  0.32600999  1.0
  H  H6  1  1.60936617  0.09439723  0.78796665  1.0
  H  H7  1  0.90560277  0.39063383  0.28796665  1.0
  H  H8  1  1.09439723  0.60936617  0.71203335  1.0
  H  H9  1  1.39063383  -0.09439723  0.21203335  1.0
  H  H10  1  1.37496466  0.19968163  0.60798043  1.0
  H  H11  1  0.80031837  0.62503534  0.10798043  1.0
  H  H12  1  1.19968163  0.37496466  0.89201957  1.0
  H  H13  1  1.62503534  -0.19968163  0.39201957  1.0
  Br  Br14  1  0.83892686  0.83892686  0.75000000  1.0
  Br  Br15  1  1.16107314  0.16107314  0.25000000  1.0
  O  O16  1  1.40497102  -0.32878365  0.82488721  1.0
  O  O17  1  1.32878365  0.59502898  0.32488721  1.0
  O  O18  1  0.67121635  0.40497102  0.67511279  1.0
  O  O19  1  1.59502898  0.32878365  0.17511279  1.0
  O  O20  1  1.48340678  0.19426115  0.76681708  1.0
  O  O21  1  0.80573885  0.51659322  0.26681708  1.0
  O  O22  1  1.19426115  0.48340678  0.73318292  1.0
  O  O23  1  1.51659322  -0.19426115  0.23318292  1.0
