# generated using pymatgen
data_TiHgO3
_symmetry_space_group_name_H-M   'P 1'
_cell_length_a   5.56800304
_cell_length_b   5.56800304
_cell_length_c   5.56800304
_cell_angle_alpha   58.30874903
_cell_angle_beta   58.30874903
_cell_angle_gamma   58.30874903
_symmetry_Int_Tables_number   1
_chemical_formula_structural   TiHgO3
_chemical_formula_sum   'Ti2 Hg2 O6'
_cell_volume   117.33531908
_cell_formula_units_Z   2
loop_
 _symmetry_equiv_pos_site_id
 _symmetry_equiv_pos_as_xyz
  1  'x, y, z'
loop_
 _atom_site_type_symbol
 _atom_site_label
 _atom_site_symmetry_multiplicity
 _atom_site_fract_x
 _atom_site_fract_y
 _atom_site_fract_z
 _atom_site_occupancy
  Ti  Ti0  1  0.50000000  0.50000000  -0.50000000  1.0
  Ti  Ti1  1  0.00000000  0.00000000  0.00000000  1.0
  Hg  Hg2  1  0.75000000  -0.25000000  -0.25000000  1.0
  Hg  Hg3  1  0.25000000  0.25000000  0.25000000  1.0
  O  O4  1  0.33339075  0.16660925  -0.25000000  1.0
  O  O5  1  0.16660925  0.75000000  -0.66660925  1.0
  O  O6  1  0.75000000  0.33339075  -0.83339075  1.0
  O  O7  1  0.83339075  0.25000000  -0.33339075  1.0
  O  O8  1  0.25000000  0.66660925  -0.16660925  1.0
  O  O9  1  0.66660925  -0.16660925  0.25000000  1.0
