# generated using pymatgen
data_Ba3Sc2F12
_symmetry_space_group_name_H-M   'P 1'
_cell_length_a   9.64227577
_cell_length_b   9.64227577
_cell_length_c   5.64473414
_cell_angle_alpha   90.00000000
_cell_angle_beta   90.00000000
_cell_angle_gamma   90.00000000
_symmetry_Int_Tables_number   1
_chemical_formula_structural   Ba3Sc2F12
_chemical_formula_sum   'Ba6 Sc4 F24'
_cell_volume   524.81058738
_cell_formula_units_Z   2
loop_
 _symmetry_equiv_pos_site_id
 _symmetry_equiv_pos_as_xyz
  1  'x, y, z'
loop_
 _atom_site_type_symbol
 _atom_site_label
 _atom_site_symmetry_multiplicity
 _atom_site_fract_x
 _atom_site_fract_y
 _atom_site_fract_z
 _atom_site_occupancy
  Ba  Ba0  1  0.32192789  0.17807211  0.50000000  1.0
  Ba  Ba1  1  0.82192789  0.32192789  0.50000000  1.0
  Ba  Ba2  1  0.67807211  0.82192789  0.50000000  1.0
  Ba  Ba3  1  0.17807211  0.67807211  0.50000000  1.0
  Ba  Ba4  1  0.50000000  0.50000000  0.00000000  1.0
  Ba  Ba5  1  0.00000000  0.00000000  0.00000000  1.0
  Sc  Sc6  1  0.86774870  0.63225130  0.00000000  1.0
  Sc  Sc7  1  0.36774870  0.86774870  0.00000000  1.0
  Sc  Sc8  1  0.13225130  0.36774870  0.00000000  1.0
  Sc  Sc9  1  0.63225130  0.13225130  0.00000000  1.0
  F  F10  1  0.44448426  0.73011542  0.74909834  1.0
  F  F11  1  0.44448426  0.73011542  0.25090166  1.0
  F  F12  1  0.94448426  0.76988458  0.74909834  1.0
  F  F13  1  0.94448426  0.76988458  0.25090166  1.0
  F  F14  1  0.26988458  0.44448426  0.74909834  1.0
  F  F15  1  0.26988458  0.44448426  0.25090166  1.0
  F  F16  1  0.76988458  0.05551574  0.74909834  1.0
  F  F17  1  0.76988458  0.05551574  0.25090166  1.0
  F  F18  1  0.55551574  0.26988458  0.74909834  1.0
  F  F19  1  0.55551574  0.26988458  0.25090166  1.0
  F  F20  1  0.05551574  0.23011542  0.74909834  1.0
  F  F21  1  0.05551574  0.23011542  0.25090166  1.0
  F  F22  1  0.73011542  0.55551574  0.74909834  1.0
  F  F23  1  0.73011542  0.55551574  0.25090166  1.0
  F  F24  1  0.23011542  0.94448426  0.74909834  1.0
  F  F25  1  0.23011542  0.94448426  0.25090166  1.0
  F  F26  1  0.28532450  0.21467550  0.00000000  1.0
  F  F27  1  0.78532450  0.28532450  0.00000000  1.0
  F  F28  1  0.71467550  0.78532450  0.00000000  1.0
  F  F29  1  0.21467550  0.71467550  0.00000000  1.0
  F  F30  1  0.50000000  0.00000000  0.78307717  1.0
  F  F31  1  0.50000000  0.00000000  0.21692283  1.0
  F  F32  1  0.00000000  0.50000000  0.78307717  1.0
  F  F33  1  0.00000000  0.50000000  0.21692283  1.0
