# generated using pymatgen
data_Ba2(InP)5
_symmetry_space_group_name_H-M   'P 1'
_cell_length_a   17.51999492
_cell_length_b   4.22006973
_cell_length_c   17.72606869
_cell_angle_alpha   90.00000000
_cell_angle_beta   90.00000000
_cell_angle_gamma   90.00000000
_symmetry_Int_Tables_number   1
_chemical_formula_structural   Ba2(InP)5
_chemical_formula_sum   'Ba8 In20 P20'
_cell_volume   1310.58752958
_cell_formula_units_Z   4
loop_
 _symmetry_equiv_pos_site_id
 _symmetry_equiv_pos_as_xyz
  1  'x, y, z'
loop_
 _atom_site_type_symbol
 _atom_site_label
 _atom_site_symmetry_multiplicity
 _atom_site_fract_x
 _atom_site_fract_y
 _atom_site_fract_z
 _atom_site_occupancy
  Ba  Ba0  1  0.98066972  0.75000000  0.62116442  1.0
  Ba  Ba1  1  0.48066972  0.75000000  0.87883558  1.0
  Ba  Ba2  1  0.01933028  0.25000000  0.37883558  1.0
  Ba  Ba3  1  0.51933028  0.25000000  0.12116442  1.0
  Ba  Ba4  1  0.95729322  0.75000000  0.12795069  1.0
  Ba  Ba5  1  0.45729322  0.75000000  0.37204931  1.0
  Ba  Ba6  1  0.04270678  0.25000000  0.87204931  1.0
  Ba  Ba7  1  0.54270678  0.25000000  0.62795069  1.0
  In  In8  1  0.84284524  0.75000000  0.80778172  1.0
  In  In9  1  0.34284524  0.75000000  0.69221828  1.0
  In  In10  1  0.15715476  0.25000000  0.19221828  1.0
  In  In11  1  0.65715476  0.25000000  0.30778172  1.0
  In  In12  1  0.82906295  0.75000000  0.44031358  1.0
  In  In13  1  0.32906295  0.75000000  0.05968642  1.0
  In  In14  1  0.17093705  0.25000000  0.55968642  1.0
  In  In15  1  0.67093705  0.25000000  0.94031358  1.0
  In  In16  1  0.71149683  0.75000000  0.12455515  1.0
  In  In17  1  0.21149683  0.75000000  0.37544485  1.0
  In  In18  1  0.28850317  0.25000000  0.87544485  1.0
  In  In19  1  0.78850317  0.25000000  0.62455515  1.0
  In  In20  1  0.68615743  0.75000000  0.77579913  1.0
  In  In21  1  0.18615743  0.75000000  0.72420087  1.0
  In  In22  1  0.31384257  0.25000000  0.22420087  1.0
  In  In23  1  0.81384257  0.25000000  0.27579913  1.0
  In  In24  1  0.67018299  0.75000000  0.47038231  1.0
  In  In25  1  0.17018299  0.75000000  0.02961769  1.0
  In  In26  1  0.32981701  0.25000000  0.52961769  1.0
  In  In27  1  0.82981701  0.25000000  0.97038231  1.0
  P  P28  1  0.89643433  0.75000000  0.30791955  1.0
  P  P29  1  0.39643433  0.75000000  0.19208045  1.0
  P  P30  1  0.10356567  0.25000000  0.69208045  1.0
  P  P31  1  0.60356567  0.25000000  0.80791955  1.0
  P  P32  1  0.69622501  0.75000000  0.62352128  1.0
  P  P33  1  0.19622501  0.75000000  0.87647872  1.0
  P  P34  1  0.30377499  0.25000000  0.37647872  1.0
  P  P35  1  0.80377499  0.25000000  0.12352128  1.0
  P  P36  1  0.61508399  0.75000000  0.01118697  1.0
  P  P37  1  0.11508399  0.75000000  0.48881303  1.0
  P  P38  1  0.38491601  0.25000000  0.98881303  1.0
  P  P39  1  0.88491601  0.25000000  0.51118697  1.0
  P  P40  1  0.60842576  0.75000000  0.23272040  1.0
  P  P41  1  0.10842576  0.75000000  0.26727960  1.0
  P  P42  1  0.39157424  0.25000000  0.76727960  1.0
  P  P43  1  0.89157424  0.25000000  0.73272040  1.0
  P  P44  1  0.41635832  0.75000000  0.56110137  1.0
  P  P45  1  0.91635832  0.75000000  0.93889863  1.0
  P  P46  1  0.58364168  0.25000000  0.43889863  1.0
  P  P47  1  0.08364168  0.25000000  0.06110137  1.0
