# generated using pymatgen
data_Mg9Si5
_symmetry_space_group_name_H-M   'P 1'
_cell_length_a   7.16879699
_cell_length_b   7.16879699
_cell_length_c   12.29210817
_cell_angle_alpha   90.00000000
_cell_angle_beta   90.00000000
_cell_angle_gamma   120.00000000
_symmetry_Int_Tables_number   1
_chemical_formula_structural   Mg9Si5
_chemical_formula_sum   'Mg18 Si10'
_cell_volume   547.07840042
_cell_formula_units_Z   2
loop_
 _symmetry_equiv_pos_site_id
 _symmetry_equiv_pos_as_xyz
  1  'x, y, z'
loop_
 _atom_site_type_symbol
 _atom_site_label
 _atom_site_symmetry_multiplicity
 _atom_site_fract_x
 _atom_site_fract_y
 _atom_site_fract_z
 _atom_site_occupancy
  Mg  Mg0  1  0.67918775  0.59487709  0.41697720  1.0
  Mg  Mg1  1  0.67918775  0.59487709  0.08302280  1.0
  Mg  Mg2  1  0.59487709  0.91568934  0.91697720  1.0
  Mg  Mg3  1  0.59487709  0.91568934  0.58302280  1.0
  Mg  Mg4  1  0.91568934  0.32081225  0.41697720  1.0
  Mg  Mg5  1  0.91568934  0.32081225  0.08302280  1.0
  Mg  Mg6  1  0.40512291  0.08431066  0.41697720  1.0
  Mg  Mg7  1  0.40512291  0.08431066  0.08302280  1.0
  Mg  Mg8  1  0.32081225  0.40512291  0.91697720  1.0
  Mg  Mg9  1  0.32081225  0.40512291  0.58302280  1.0
  Mg  Mg10  1  0.08431066  0.67918775  0.91697720  1.0
  Mg  Mg11  1  0.08431066  0.67918775  0.58302280  1.0
  Mg  Mg12  1  0.07230744  0.72559469  0.25000000  1.0
  Mg  Mg13  1  0.72559469  0.65328725  0.75000000  1.0
  Mg  Mg14  1  0.65328725  0.92769256  0.25000000  1.0
  Mg  Mg15  1  0.27440531  0.34671275  0.25000000  1.0
  Mg  Mg16  1  0.92769256  0.27440531  0.75000000  1.0
  Mg  Mg17  1  0.34671275  0.07230744  0.75000000  1.0
  Si  Si18  1  0.33333333  0.66666667  0.41216980  1.0
  Si  Si19  1  0.33333333  0.66666667  0.08783020  1.0
  Si  Si20  1  0.66666667  0.33333333  0.91216980  1.0
  Si  Si21  1  0.66666667  0.33333333  0.58783020  1.0
  Si  Si22  1  0.00000000  0.00000000  0.39863965  1.0
  Si  Si23  1  0.00000000  0.00000000  0.10136035  1.0
  Si  Si24  1  0.00000000  0.00000000  0.89863965  1.0
  Si  Si25  1  0.00000000  0.00000000  0.60136035  1.0
  Si  Si26  1  0.66666667  0.33333333  0.25000000  1.0
  Si  Si27  1  0.33333333  0.66666667  0.75000000  1.0
