# generated using pymatgen
data_MgTeO4
_symmetry_space_group_name_H-M   'P 1'
_cell_length_a   4.78975566
_cell_length_b   5.73592990
_cell_length_c   5.17378797
_cell_angle_alpha   90.00000000
_cell_angle_beta   93.28673334
_cell_angle_gamma   90.00000000
_symmetry_Int_Tables_number   1
_chemical_formula_structural   MgTeO4
_chemical_formula_sum   'Mg2 Te2 O8'
_cell_volume   141.90930388
_cell_formula_units_Z   2
loop_
 _symmetry_equiv_pos_site_id
 _symmetry_equiv_pos_as_xyz
  1  'x, y, z'
loop_
 _atom_site_type_symbol
 _atom_site_label
 _atom_site_symmetry_multiplicity
 _atom_site_fract_x
 _atom_site_fract_y
 _atom_site_fract_z
 _atom_site_occupancy
  Mg  Mg0  1  0.00000000  0.84586499  0.25000000  1.0
  Mg  Mg1  1  0.00000000  0.15413501  0.75000000  1.0
  Te  Te2  1  0.50000000  0.33046637  0.25000000  1.0
  Te  Te3  1  0.50000000  0.66953363  0.75000000  1.0
  O  O4  1  0.76433743  0.88405511  0.91010911  1.0
  O  O5  1  0.76433743  0.11594489  0.41010911  1.0
  O  O6  1  0.23566257  0.88405511  0.58989089  1.0
  O  O7  1  0.23566257  0.11594489  0.08989089  1.0
  O  O8  1  0.72347232  0.60504217  0.43321834  1.0
  O  O9  1  0.72347232  0.39495783  0.93321834  1.0
  O  O10  1  0.27652768  0.60504217  0.06678166  1.0
  O  O11  1  0.27652768  0.39495783  0.56678166  1.0
