# generated using pymatgen
data_FeB4
_symmetry_space_group_name_H-M   'P 1'
_cell_length_a   3.67357380
_cell_length_b   3.67357380
_cell_length_c   3.67357380
_cell_angle_alpha   60.00000000
_cell_angle_beta   60.00000000
_cell_angle_gamma   60.00000000
_symmetry_Int_Tables_number   1
_chemical_formula_structural   FeB4
_chemical_formula_sum   'Fe1 B4'
_cell_volume   35.05510810
_cell_formula_units_Z   1
loop_
 _symmetry_equiv_pos_site_id
 _symmetry_equiv_pos_as_xyz
  1  'x, y, z'
loop_
 _atom_site_type_symbol
 _atom_site_label
 _atom_site_symmetry_multiplicity
 _atom_site_fract_x
 _atom_site_fract_y
 _atom_site_fract_z
 _atom_site_occupancy
  Fe  Fe0  1  -0.00000000  -0.00000000  0.00000000  1.0
  B  B1  1  1.13113470  0.62295510  -0.37704490  1.0
  B  B2  1  0.62295510  1.13113470  -0.37704490  1.0
  B  B3  1  -0.37704490  0.62295510  1.13113470  1.0
  B  B4  1  -0.37704490  0.62295510  0.62295510  1.0
