# generated using pymatgen
data_K3In(IO3)6
_symmetry_space_group_name_H-M   'P 1'
_cell_length_a   7.14828545
_cell_length_b   6.97844797
_cell_length_c   10.82145364
_cell_angle_alpha   70.16383985
_cell_angle_beta   73.22287926
_cell_angle_gamma   77.43722325
_symmetry_Int_Tables_number   1
_chemical_formula_structural   K3In(IO3)6
_chemical_formula_sum   'K3 In1 I6 O18'
_cell_volume   481.87053341
_cell_formula_units_Z   1
loop_
 _symmetry_equiv_pos_site_id
 _symmetry_equiv_pos_as_xyz
  1  'x, y, z'
loop_
 _atom_site_type_symbol
 _atom_site_label
 _atom_site_symmetry_multiplicity
 _atom_site_fract_x
 _atom_site_fract_y
 _atom_site_fract_z
 _atom_site_occupancy
  K  K0  1  -0.46556331  -0.07336921  0.70578941  1.0
  K  K1  1  -0.53443669  0.07336921  0.29421059  1.0
  K  K2  1  -0.50000000  -0.50000000  0.50000000  1.0
  In  In3  1  0.00000000  0.00000000  0.00000000  1.0
  I  I4  1  -0.94964185  0.24535520  0.61945431  1.0
  I  I5  1  -0.05035815  -0.24535520  0.38054569  1.0
  I  I6  1  -0.96653063  -0.37155979  0.80619099  1.0
  I  I7  1  -0.03346937  0.37155979  0.19380901  1.0
  I  I8  1  -0.46720276  -0.67486854  0.89931749  1.0
  I  I9  1  -0.53279724  0.67486854  0.10068251  1.0
  O  O10  1  -0.65613356  0.72227820  0.26843360  1.0
  O  O11  1  -0.34386644  -0.72227820  0.73156640  1.0
  O  O12  1  -0.88513852  0.16939793  0.79218758  1.0
  O  O13  1  -0.11486148  -0.16939793  0.20781242  1.0
  O  O14  1  -0.67776770  -0.10627463  0.98756193  1.0
  O  O15  1  -0.32223230  0.10627463  0.01243807  1.0
  O  O16  1  -0.69371958  0.17935618  0.52551368  1.0
  O  O17  1  -0.30628042  -0.17935618  0.47448632  1.0
  O  O18  1  -0.04105269  -0.27786396  0.96616901  1.0
  O  O19  1  -0.95894731  0.27786396  0.03383099  1.0
  O  O20  1  -0.96420826  0.11576982  0.31526421  1.0
  O  O21  1  -0.03579174  -0.11576982  0.68473579  1.0
  O  O22  1  -0.34699621  -0.44640303  0.88080862  1.0
  O  O23  1  -0.65300379  0.44640303  0.11919138  1.0
  O  O24  1  -0.68868002  -0.38576623  0.76374688  1.0
  O  O25  1  -0.31131998  0.38576623  0.23625312  1.0
  O  O26  1  -0.93416615  -0.46919928  0.59718999  1.0
  O  O27  1  -0.06583385  0.46919928  0.40281001  1.0
