# generated using pymatgen
data_Li6PBrO5
_symmetry_space_group_name_H-M   'P 1'
_cell_length_a   5.91418992
_cell_length_b   5.91418992
_cell_length_c   5.91418992
_cell_angle_alpha   60.00000000
_cell_angle_beta   60.00000000
_cell_angle_gamma   60.00000000
_symmetry_Int_Tables_number   1
_chemical_formula_structural   Li6PBrO5
_chemical_formula_sum   'Li6 P1 Br1 O5'
_cell_volume   146.27523422
_cell_formula_units_Z   1
loop_
 _symmetry_equiv_pos_site_id
 _symmetry_equiv_pos_as_xyz
  1  'x, y, z'
loop_
 _atom_site_type_symbol
 _atom_site_label
 _atom_site_symmetry_multiplicity
 _atom_site_fract_x
 _atom_site_fract_y
 _atom_site_fract_z
 _atom_site_occupancy
  Li  Li0  1  -0.76764863  0.76764863  0.76764863  1.0
  Li  Li1  1  -0.23235137  0.76764863  0.23235137  1.0
  Li  Li2  1  -0.23235137  0.23235137  0.76764863  1.0
  Li  Li3  1  0.23235137  1.23235137  -0.23235137  1.0
  Li  Li4  1  0.23235137  -0.23235137  0.23235137  1.0
  Li  Li5  1  -0.23235137  0.23235137  0.23235137  1.0
  P  P6  1  0.75000000  0.75000000  -0.25000000  1.0
  Br  Br7  1  0.25000000  0.25000000  0.25000000  1.0
  O  O8  1  -0.35799791  0.64200209  0.64200209  1.0
  O  O9  1  1.07399373  0.64200209  -0.35799791  1.0
  O  O10  1  -0.35799791  0.64200209  1.07399373  1.0
  O  O11  1  0.64200209  1.07399373  -0.35799791  1.0
  O  O12  1  0.00000000  0.00000000  0.00000000  1.0
