# generated using pymatgen
data_CS2
_symmetry_space_group_name_H-M   'P 1'
_cell_length_a   4.78659947
_cell_length_b   4.78659947
_cell_length_c   9.61658703
_cell_angle_alpha   90.00000000
_cell_angle_beta   90.00000000
_cell_angle_gamma   80.36147875
_symmetry_Int_Tables_number   1
_chemical_formula_structural   CS2
_chemical_formula_sum   'C2 S4'
_cell_volume   217.22050815
_cell_formula_units_Z   2
loop_
 _symmetry_equiv_pos_site_id
 _symmetry_equiv_pos_as_xyz
  1  'x, y, z'
loop_
 _atom_site_type_symbol
 _atom_site_label
 _atom_site_symmetry_multiplicity
 _atom_site_fract_x
 _atom_site_fract_y
 _atom_site_fract_z
 _atom_site_occupancy
  C  C0  1  -0.50000000  0.50000000  0.50000000  1.0
  C  C1  1  -0.00000000  1.00000000  0.00000000  1.0
  S  S2  1  -0.31888287  1.31888287  0.38676092  1.0
  S  S3  1  0.18111713  0.81888287  0.11323908  1.0
  S  S4  1  0.31888287  0.68111713  0.61323908  1.0
  S  S5  1  -0.18111713  1.18111713  0.88676092  1.0
