# generated using pymatgen
data_MgF2
_symmetry_space_group_name_H-M   'P 1'
_cell_length_a   5.86936345
_cell_length_b   5.83558219
_cell_length_c   3.91134494
_cell_angle_alpha   109.62087333
_cell_angle_beta   70.51511400
_cell_angle_gamma   113.81378095
_symmetry_Int_Tables_number   1
_chemical_formula_structural   MgF2
_chemical_formula_sum   'Mg2 F4'
_cell_volume   112.35789160
_cell_formula_units_Z   2
loop_
 _symmetry_equiv_pos_site_id
 _symmetry_equiv_pos_as_xyz
  1  'x, y, z'
loop_
 _atom_site_type_symbol
 _atom_site_label
 _atom_site_symmetry_multiplicity
 _atom_site_fract_x
 _atom_site_fract_y
 _atom_site_fract_z
 _atom_site_occupancy
  Mg  Mg0  1  -0.86007256  -0.63774971  -0.88894785  1.0
  Mg  Mg1  1  -0.13992744  -0.36225029  -0.11105215  1.0
  F  F2  1  -0.08926564  -0.41576637  -0.66319199  1.0
  F  F3  1  -0.91073436  -0.58423363  -0.33680801  1.0
  F  F4  1  -0.50000000  -0.50000000  0.00000000  1.0
  F  F5  1  0.00000000  0.00000000  0.00000000  1.0
