# generated using pymatgen
data_KMnCl3
_symmetry_space_group_name_H-M   'P 1'
_cell_length_a   8.99987882
_cell_length_b   3.90736309
_cell_length_c   14.54899506
_cell_angle_alpha   90.00000000
_cell_angle_beta   90.00000000
_cell_angle_gamma   90.00000000
_symmetry_Int_Tables_number   1
_chemical_formula_structural   KMnCl3
_chemical_formula_sum   'K4 Mn4 Cl12'
_cell_volume   511.62696773
_cell_formula_units_Z   4
loop_
 _symmetry_equiv_pos_site_id
 _symmetry_equiv_pos_as_xyz
  1  'x, y, z'
loop_
 _atom_site_type_symbol
 _atom_site_label
 _atom_site_symmetry_multiplicity
 _atom_site_fract_x
 _atom_site_fract_y
 _atom_site_fract_z
 _atom_site_occupancy
  K  K0  1  0.55879476  0.75000000  0.67785299  1.0
  K  K1  1  0.05879476  0.75000000  0.82214701  1.0
  K  K2  1  0.44120524  0.25000000  0.32214701  1.0
  K  K3  1  0.94120524  0.25000000  0.17785299  1.0
  Mn  Mn4  1  0.83412735  0.75000000  0.44784716  1.0
  Mn  Mn5  1  0.33412735  0.75000000  0.05215284  1.0
  Mn  Mn6  1  0.16587265  0.25000000  0.55215284  1.0
  Mn  Mn7  1  0.66587265  0.25000000  0.94784716  1.0
  Cl  Cl8  1  0.98229443  0.75000000  0.59788652  1.0
  Cl  Cl9  1  0.48229443  0.75000000  0.90211348  1.0
  Cl  Cl10  1  0.01770557  0.25000000  0.40211348  1.0
  Cl  Cl11  1  0.51770557  0.25000000  0.09788652  1.0
  Cl  Cl12  1  0.82374392  0.75000000  0.00888684  1.0
  Cl  Cl13  1  0.32374392  0.75000000  0.49111316  1.0
  Cl  Cl14  1  0.17625608  0.25000000  0.99111316  1.0
  Cl  Cl15  1  0.67625608  0.25000000  0.50888684  1.0
  Cl  Cl16  1  0.72415017  0.75000000  0.29632915  1.0
  Cl  Cl17  1  0.22415017  0.75000000  0.20367085  1.0
  Cl  Cl18  1  0.27584983  0.25000000  0.70367085  1.0
  Cl  Cl19  1  0.77584983  0.25000000  0.79632915  1.0
