# generated using pymatgen
data_La3AgSnS7
_symmetry_space_group_name_H-M   'P 1'
_cell_length_a   10.49025176
_cell_length_b   10.49025176
_cell_length_c   6.08294802
_cell_angle_alpha   90.00000000
_cell_angle_beta   90.00000000
_cell_angle_gamma   120.00000000
_symmetry_Int_Tables_number   1
_chemical_formula_structural   La3AgSnS7
_chemical_formula_sum   'La6 Ag2 Sn2 S14'
_cell_volume   579.71769811
_cell_formula_units_Z   2
loop_
 _symmetry_equiv_pos_site_id
 _symmetry_equiv_pos_as_xyz
  1  'x, y, z'
loop_
 _atom_site_type_symbol
 _atom_site_label
 _atom_site_symmetry_multiplicity
 _atom_site_fract_x
 _atom_site_fract_y
 _atom_site_fract_z
 _atom_site_occupancy
  La  La0  1  0.22752411  0.86880996  0.08069061  1.0
  La  La1  1  0.86880996  0.64128584  0.58069061  1.0
  La  La2  1  0.64128584  0.77247589  0.08069061  1.0
  La  La3  1  0.13119004  0.35871416  0.08069061  1.0
  La  La4  1  0.77247589  0.13119004  0.58069061  1.0
  La  La5  1  0.35871416  0.22752411  0.58069061  1.0
  Ag  Ag6  1  0.00000000  0.00000000  0.01204620  1.0
  Ag  Ag7  1  0.00000000  0.00000000  0.51204620  1.0
  Sn  Sn8  1  0.33333333  0.66666667  0.65758418  1.0
  Sn  Sn9  1  0.66666667  0.33333333  0.15758418  1.0
  S  S10  1  0.89903090  0.73267173  0.05231992  1.0
  S  S11  1  0.73267173  0.83364083  0.55231992  1.0
  S  S12  1  0.83364083  0.10096910  0.05231992  1.0
  S  S13  1  0.26732827  0.16635917  0.05231992  1.0
  S  S14  1  0.10096910  0.26732827  0.55231992  1.0
  S  S15  1  0.16635917  0.89903090  0.55231992  1.0
  S  S16  1  0.57879163  0.48477673  0.32847492  1.0
  S  S17  1  0.48477673  0.90598510  0.82847492  1.0
  S  S18  1  0.90598510  0.42120837  0.32847492  1.0
  S  S19  1  0.51522327  0.09401490  0.32847492  1.0
  S  S20  1  0.42120837  0.51522327  0.82847492  1.0
  S  S21  1  0.09401490  0.57879163  0.82847492  1.0
  S  S22  1  0.33333333  0.66666667  0.26621324  1.0
  S  S23  1  0.66666667  0.33333333  0.76621324  1.0
