# generated using pymatgen
data_WBr5
_symmetry_space_group_name_H-M   'P 1'
_cell_length_a   14.20131339
_cell_length_b   14.20131339
_cell_length_c   6.46364733
_cell_angle_alpha   89.79382851
_cell_angle_beta   90.20617149
_cell_angle_gamma   93.85076687
_symmetry_Int_Tables_number   1
_chemical_formula_structural   WBr5
_chemical_formula_sum   'W6 Br30'
_cell_volume   1300.61217376
_cell_formula_units_Z   6
loop_
 _symmetry_equiv_pos_site_id
 _symmetry_equiv_pos_as_xyz
  1  'x, y, z'
loop_
 _atom_site_type_symbol
 _atom_site_label
 _atom_site_symmetry_multiplicity
 _atom_site_fract_x
 _atom_site_fract_y
 _atom_site_fract_z
 _atom_site_occupancy
  W  W0  1  1.56062942  0.22735176  0.48569147  1.0
  W  W1  1  0.77264824  -0.56062942  0.48569147  1.0
  W  W2  1  1.22735176  0.56062942  0.51430853  1.0
  W  W3  1  0.43937058  -0.22735176  0.51430853  1.0
  W  W4  1  0.89387813  -0.10612187  0.00000000  1.0
  W  W5  1  1.10612187  0.10612187  0.00000000  1.0
  Br  Br6  1  0.76196481  -0.13668439  0.76351727  1.0
  Br  Br7  1  1.13668439  0.23803519  0.76351727  1.0
  Br  Br8  1  0.86331561  -0.23803519  0.23648273  1.0
  Br  Br9  1  1.23803519  0.13668439  0.23648273  1.0
  Br  Br10  1  0.52607746  -0.33446310  0.73135701  1.0
  Br  Br11  1  1.33446310  0.47392254  0.73135701  1.0
  Br  Br12  1  0.66553690  -0.47392254  0.26864299  1.0
  Br  Br13  1  1.47392254  0.33446310  0.26864299  1.0
  Br  Br14  1  0.47043593  -0.09472421  0.74698588  1.0
  Br  Br15  1  1.09472421  0.52956407  0.74698588  1.0
  Br  Br16  1  0.90527579  -0.52956407  0.25301412  1.0
  Br  Br17  1  1.52956407  0.09472421  0.25301412  1.0
  Br  Br18  1  1.66799911  0.14093653  0.70314799  1.0
  Br  Br19  1  0.85906347  -0.66799911  0.70314799  1.0
  Br  Br20  1  1.14093653  0.66799911  0.29685201  1.0
  Br  Br21  1  0.33200089  -0.14093653  0.29685201  1.0
  Br  Br22  1  1.42872735  0.19703506  0.72105970  1.0
  Br  Br23  1  0.80296494  -0.42872735  0.72105970  1.0
  Br  Br24  1  1.19703506  0.42872735  0.27894030  1.0
  Br  Br25  1  0.57127265  -0.19703506  0.27894030  1.0
  Br  Br26  1  0.19246709  -0.00147462  0.78628004  1.0
  Br  Br27  1  1.00147462  0.80753291  0.78628004  1.0
  Br  Br28  1  0.99852538  -0.80753291  0.21371996  1.0
  Br  Br29  1  1.80753291  0.00147462  0.21371996  1.0
  Br  Br30  1  0.95323752  -0.95323752  0.78052203  1.0
  Br  Br31  1  0.04676248  -0.04676248  0.21947797  1.0
  Br  Br32  1  0.61966386  -0.61966386  0.70310082  1.0
  Br  Br33  1  0.38033614  -0.38033614  0.29689918  1.0
  Br  Br34  1  0.28642162  -0.28642162  0.73206984  1.0
  Br  Br35  1  0.71357838  -0.71357838  0.26793016  1.0
