# generated using pymatgen
data_Sr(NiP2)2
_symmetry_space_group_name_H-M   'P 1'
_cell_length_a   10.66580543
_cell_length_b   9.87543969
_cell_length_c   5.46494395
_cell_angle_alpha   82.74522621
_cell_angle_beta   66.70557945
_cell_angle_gamma   30.54919434
_symmetry_Int_Tables_number   1
_chemical_formula_structural   Sr(NiP2)2
_chemical_formula_sum   'Sr2 Ni4 P8'
_cell_volume   238.74553700
_cell_formula_units_Z   2
loop_
 _symmetry_equiv_pos_site_id
 _symmetry_equiv_pos_as_xyz
  1  'x, y, z'
loop_
 _atom_site_type_symbol
 _atom_site_label
 _atom_site_symmetry_multiplicity
 _atom_site_fract_x
 _atom_site_fract_y
 _atom_site_fract_z
 _atom_site_occupancy
  Sr  Sr0  1  0.00000000  0.00000000  0.00000000  1.0
  Sr  Sr1  1  1.25000000  0.25000000  0.25000000  1.0
  Ni  Ni2  1  -0.38021807  0.61978193  0.38021807  1.0
  Ni  Ni3  1  0.38021807  1.38021807  -0.38021807  1.0
  Ni  Ni4  1  0.63021807  0.63021807  0.86978193  1.0
  Ni  Ni5  1  0.86978193  0.86978193  0.63021807  1.0
  P  P6  1  -0.19016589  0.30343138  1.57540000  1.0
  P  P7  1  1.31133451  0.57540000  0.30343138  1.0
  P  P8  1  1.57540000  0.31133451  -0.19016589  1.0
  P  P9  1  0.30343138  -0.19016589  1.31133451  1.0
  P  P10  1  0.44016589  0.94656862  -0.32540000  1.0
  P  P11  1  0.93866549  0.67460000  0.94656862  1.0
  P  P12  1  0.67460000  0.93866549  -0.55983411  1.0
  P  P13  1  0.94656862  0.44016589  0.93866549  1.0
