# generated using pymatgen
data_La3BCBr3
_symmetry_space_group_name_H-M   'P 1'
_cell_length_a   8.81615823
_cell_length_b   3.82934806
_cell_length_c   11.93877318
_cell_angle_alpha   90.00000000
_cell_angle_beta   98.16613083
_cell_angle_gamma   90.00000000
_symmetry_Int_Tables_number   1
_chemical_formula_structural   La3BCBr3
_chemical_formula_sum   'La6 B2 C2 Br6'
_cell_volume   398.96781000
_cell_formula_units_Z   2
loop_
 _symmetry_equiv_pos_site_id
 _symmetry_equiv_pos_as_xyz
  1  'x, y, z'
loop_
 _atom_site_type_symbol
 _atom_site_label
 _atom_site_symmetry_multiplicity
 _atom_site_fract_x
 _atom_site_fract_y
 _atom_site_fract_z
 _atom_site_occupancy
  La  La0  1  0.88798471  0.25000000  0.17516111  1.0
  La  La1  1  0.11201529  0.75000000  0.82483889  1.0
  La  La2  1  0.82402218  0.25000000  0.62571593  1.0
  La  La3  1  0.17597782  0.75000000  0.37428407  1.0
  La  La4  1  0.27327514  0.25000000  0.10596142  1.0
  La  La5  1  0.72672486  0.75000000  0.89403858  1.0
  B  B6  1  0.96630971  0.25000000  0.96092814  1.0
  B  B7  1  0.03369029  0.75000000  0.03907186  1.0
  C  C8  1  0.91037166  0.25000000  0.82945601  1.0
  C  C9  1  0.08962834  0.75000000  0.17054399  1.0
  Br  Br10  1  0.43512442  0.25000000  0.35371526  1.0
  Br  Br11  1  0.56487558  0.75000000  0.64628474  1.0
  Br  Br12  1  0.40972637  0.25000000  0.87640295  1.0
  Br  Br13  1  0.59027363  0.75000000  0.12359705  1.0
  Br  Br14  1  0.16295767  0.25000000  0.59471636  1.0
  Br  Br15  1  0.83704233  0.75000000  0.40528364  1.0
