# generated using pymatgen
data_Li2TiO3
_symmetry_space_group_name_H-M   'P 1'
_cell_length_a   5.09841985
_cell_length_b   5.09841985
_cell_length_c   9.78819047
_cell_angle_alpha   84.89672676
_cell_angle_beta   95.10327324
_cell_angle_gamma   59.86382469
_symmetry_Int_Tables_number   1
_chemical_formula_structural   Li2TiO3
_chemical_formula_sum   'Li8 Ti4 O12'
_cell_volume   216.51784171
_cell_formula_units_Z   4
loop_
 _symmetry_equiv_pos_site_id
 _symmetry_equiv_pos_as_xyz
  1  'x, y, z'
loop_
 _atom_site_type_symbol
 _atom_site_label
 _atom_site_symmetry_multiplicity
 _atom_site_fract_x
 _atom_site_fract_y
 _atom_site_fract_z
 _atom_site_occupancy
  Li  Li0  1  0.67957708  0.16062153  1.00054826  1.0
  Li  Li1  1  0.83937847  -0.67957708  0.50054826  1.0
  Li  Li2  1  1.16062153  -0.32042292  0.49945174  1.0
  Li  Li3  1  0.32042292  -0.16062153  -0.00054826  1.0
  Li  Li4  1  0.91569618  -0.08430382  0.75000000  1.0
  Li  Li5  1  0.08430382  0.08430382  0.25000000  1.0
  Li  Li6  1  0.50000000  0.00000000  0.50000000  1.0
  Li  Li7  1  1.00000000  -0.50000000  0.00000000  1.0
  Ti  Ti8  1  0.58259974  -0.41740026  0.75000000  1.0
  Ti  Ti9  1  0.41740026  0.41740026  0.25000000  1.0
  Ti  Ti10  1  0.25039524  0.25039524  0.75000000  1.0
  Ti  Ti11  1  0.74960476  -0.25039524  0.25000000  1.0
  O  O12  1  0.76650057  0.04486513  0.36588475  1.0
  O  O13  1  0.95513487  -0.76650057  0.86588475  1.0
  O  O14  1  1.04486513  -0.23349943  0.13411525  1.0
  O  O15  1  0.23349943  -0.04486513  0.63411525  1.0
  O  O16  1  0.59590387  -0.12304321  0.86319411  1.0
  O  O17  1  1.12304321  -0.59590387  0.36319411  1.0
  O  O18  1  0.87695679  -0.40409613  0.63680589  1.0
  O  O19  1  0.40409613  0.12304321  0.13680589  1.0
  O  O20  1  0.52070251  0.31061552  0.63690681  1.0
  O  O21  1  0.68938448  -0.52070251  0.13690681  1.0
  O  O22  1  1.31061552  -0.47929749  0.86309319  1.0
  O  O23  1  0.47929749  -0.31061552  0.36309319  1.0
