# generated using pymatgen
data_BiXeF7
_symmetry_space_group_name_H-M   'P 1'
_cell_length_a   5.89109385
_cell_length_b   11.33725686
_cell_length_c   11.88285514
_cell_angle_alpha   90.00000000
_cell_angle_beta   94.33454901
_cell_angle_gamma   90.00000000
_symmetry_Int_Tables_number   1
_chemical_formula_structural   BiXeF7
_chemical_formula_sum   'Bi4 Xe4 F28'
_cell_volume   791.37213743
_cell_formula_units_Z   4
loop_
 _symmetry_equiv_pos_site_id
 _symmetry_equiv_pos_as_xyz
  1  'x, y, z'
loop_
 _atom_site_type_symbol
 _atom_site_label
 _atom_site_symmetry_multiplicity
 _atom_site_fract_x
 _atom_site_fract_y
 _atom_site_fract_z
 _atom_site_occupancy
  Bi  Bi0  1  0.39670914  0.50120087  0.72597228  1.0
  Bi  Bi1  1  0.39670914  0.99879913  0.22597228  1.0
  Bi  Bi2  1  0.60329086  0.00120087  0.77402772  1.0
  Bi  Bi3  1  0.60329086  0.49879913  0.27402772  1.0
  Xe  Xe4  1  -0.02695236  0.75598477  0.96710971  1.0
  Xe  Xe5  1  -0.02695236  0.74401523  0.46710971  1.0
  Xe  Xe6  1  1.02695236  0.25598477  0.53289029  1.0
  Xe  Xe7  1  1.02695236  0.24401523  0.03289029  1.0
  F  F8  1  0.86818918  0.39157033  0.98614608  1.0
  F  F9  1  0.86818918  0.10842967  0.48614608  1.0
  F  F10  1  0.13181082  0.89157033  0.51385392  1.0
  F  F11  1  0.13181082  0.60842967  0.01385392  1.0
  F  F12  1  0.88590159  0.09824351  0.75582548  1.0
  F  F13  1  0.88590159  0.40175649  0.25582548  1.0
  F  F14  1  0.11409841  0.59824351  0.74417452  1.0
  F  F15  1  0.11409841  0.90175649  0.24417452  1.0
  F  F16  1  0.80809168  0.92439770  0.92196106  1.0
  F  F17  1  0.80809168  0.57560230  0.42196106  1.0
  F  F18  1  0.19190832  0.42439770  0.57803894  1.0
  F  F19  1  0.19190832  0.07560230  0.07803894  1.0
  F  F20  1  0.73350892  0.86795175  0.68668293  1.0
  F  F21  1  0.73350892  0.63204825  0.18668293  1.0
  F  F22  1  0.26649108  0.36795175  0.81331707  1.0
  F  F23  1  0.26649108  0.13204825  0.31331707  1.0
  F  F24  1  0.57595510  0.57809210  0.85689739  1.0
  F  F25  1  0.57595510  0.92190790  0.35689739  1.0
  F  F26  1  0.42404490  0.07809210  0.64310261  1.0
  F  F27  1  0.42404490  0.42190790  0.14310261  1.0
  F  F28  1  0.48472672  0.61897700  0.60972699  1.0
  F  F29  1  0.48472672  0.88102300  0.10972699  1.0
  F  F30  1  0.51527328  0.11897700  0.89027301  1.0
  F  F31  1  0.51527328  0.38102300  0.39027301  1.0
  F  F32  1  0.35190978  0.89267854  0.81627879  1.0
  F  F33  1  0.35190978  0.60732146  0.31627879  1.0
  F  F34  1  0.64809022  0.39267854  0.68372121  1.0
  F  F35  1  0.64809022  0.10732146  0.18372121  1.0
