# generated using pymatgen
data_FeBi4S7
_symmetry_space_group_name_H-M   'P 1'
_cell_length_a   6.69742821
_cell_length_b   6.69742821
_cell_length_c   11.96923977
_cell_angle_alpha   76.32624911
_cell_angle_beta   103.67375089
_cell_angle_gamma   145.26039039
_symmetry_Int_Tables_number   1
_chemical_formula_structural   FeBi4S7
_chemical_formula_sum   'Fe1 Bi4 S7'
_cell_volume   296.41045343
_cell_formula_units_Z   1
loop_
 _symmetry_equiv_pos_site_id
 _symmetry_equiv_pos_as_xyz
  1  'x, y, z'
loop_
 _atom_site_type_symbol
 _atom_site_label
 _atom_site_symmetry_multiplicity
 _atom_site_fract_x
 _atom_site_fract_y
 _atom_site_fract_z
 _atom_site_occupancy
  Fe  Fe0  1  0.50000000  0.50000000  0.50000000  1.0
  Bi  Bi1  1  0.81546259  0.18453741  0.65593532  1.0
  Bi  Bi2  1  0.18453741  -0.18453741  0.34406468  1.0
  Bi  Bi3  1  0.61966941  0.38033059  0.92191379  1.0
  Bi  Bi4  1  0.38033059  -0.38033059  0.07808621  1.0
  S  S5  1  0.85518404  0.14481596  0.45033146  1.0
  S  S6  1  0.14481596  -0.14481596  0.54966854  1.0
  S  S7  1  0.46910339  -0.46910339  0.68802729  1.0
  S  S8  1  0.53089661  0.46910339  0.31197271  1.0
  S  S9  1  0.24689945  -0.24689945  0.85973652  1.0
  S  S10  1  0.75310055  0.24689945  0.14026348  1.0
  S  S11  1  0.00000000  0.00000000  0.00000000  1.0
