# generated using pymatgen
data_Sr2CuClO2
_symmetry_space_group_name_H-M   'P 1'
_cell_length_a   4.03341641
_cell_length_b   4.03341641
_cell_length_c   27.80512201
_cell_angle_alpha   90.00000000
_cell_angle_beta   90.00000000
_cell_angle_gamma   120.00000000
_symmetry_Int_Tables_number   1
_chemical_formula_structural   Sr2CuClO2
_chemical_formula_sum   'Sr6 Cu3 Cl3 O6'
_cell_volume   391.74328271
_cell_formula_units_Z   3
loop_
 _symmetry_equiv_pos_site_id
 _symmetry_equiv_pos_as_xyz
  1  'x, y, z'
loop_
 _atom_site_type_symbol
 _atom_site_label
 _atom_site_symmetry_multiplicity
 _atom_site_fract_x
 _atom_site_fract_y
 _atom_site_fract_z
 _atom_site_occupancy
  Sr  Sr0  1  0.66759266  0.66797601  0.74428052  1.0
  Sr  Sr1  1  0.66797601  0.66759266  0.25571948  1.0
  Sr  Sr2  1  0.00038334  0.33240734  0.41094718  1.0
  Sr  Sr3  1  0.33202399  -0.00038334  0.07761385  1.0
  Sr  Sr4  1  0.33240734  0.00038334  0.58905282  1.0
  Sr  Sr5  1  -0.00038334  0.33202399  0.92238615  1.0
  Cu  Cu6  1  0.66626201  0.66626201  0.50000000  1.0
  Cu  Cu7  1  0.00000000  0.33373799  0.16666667  1.0
  Cu  Cu8  1  0.33373799  0.00000000  0.83333333  1.0
  Cl  Cl9  1  0.66551746  0.66551746  0.00000000  1.0
  Cl  Cl10  1  -0.00000000  0.33448254  0.66666667  1.0
  Cl  Cl11  1  0.33448254  0.00000000  0.33333333  1.0
  O  O12  1  0.33295508  0.99869286  0.89869449  1.0
  O  O13  1  0.99869286  0.33295508  0.10130551  1.0
  O  O14  1  0.66573777  0.66704492  0.56536116  1.0
  O  O15  1  0.00130714  0.33426223  0.23202783  1.0
  O  O16  1  0.66704492  0.66573777  0.43463884  1.0
  O  O17  1  0.33426223  0.00130714  0.76797217  1.0
