# generated using pymatgen
data_NiH12(N3O2)2
_symmetry_space_group_name_H-M   'P 1'
_cell_length_a   6.30014666
_cell_length_b   6.30014666
_cell_length_c   6.02696231
_cell_angle_alpha   70.79034104
_cell_angle_beta   109.20965896
_cell_angle_gamma   112.59582211
_symmetry_Int_Tables_number   1
_chemical_formula_structural   NiH12(N3O2)2
_chemical_formula_sum   'Ni1 H12 N6 O4'
_cell_volume   202.85122325
_cell_formula_units_Z   1
loop_
 _symmetry_equiv_pos_site_id
 _symmetry_equiv_pos_as_xyz
  1  'x, y, z'
loop_
 _atom_site_type_symbol
 _atom_site_label
 _atom_site_symmetry_multiplicity
 _atom_site_fract_x
 _atom_site_fract_y
 _atom_site_fract_z
 _atom_site_occupancy
  Ni  Ni0  1  0.00000000  0.00000000  0.00000000  1.0
  H  H1  1  0.70951222  -0.32402063  0.75093342  1.0
  H  H2  1  1.32402063  0.29048778  0.75093342  1.0
  H  H3  1  0.67597937  -0.29048778  0.24906658  1.0
  H  H4  1  1.29048778  0.32402063  0.24906658  1.0
  H  H5  1  0.72779178  -0.06172358  0.56256590  1.0
  H  H6  1  1.06172358  0.27220822  0.56256590  1.0
  H  H7  1  0.93827642  -0.27220822  0.43743410  1.0
  H  H8  1  1.27220822  0.06172358  0.43743410  1.0
  H  H9  1  0.55349473  -0.16672622  0.75267074  1.0
  H  H10  1  1.16672622  0.44650527  0.75267074  1.0
  H  H11  1  0.83327378  -0.44650527  0.24732926  1.0
  H  H12  1  1.44650527  0.16672622  0.24732926  1.0
  N  N13  1  0.71439484  -0.15507491  0.73476718  1.0
  N  N14  1  1.15507491  0.28560516  0.73476718  1.0
  N  N15  1  0.84492509  -0.28560516  0.26523282  1.0
  N  N16  1  1.28560516  0.15507491  0.26523282  1.0
  N  N17  1  0.19591652  -0.19591652  0.98132895  1.0
  N  N18  1  0.80408348  -0.80408348  0.01867105  1.0
  O  O19  1  0.69536640  -0.69536640  0.83015602  1.0
  O  O20  1  0.30463360  -0.30463360  0.16984398  1.0
  O  O21  1  0.20823674  -0.20823674  0.78005796  1.0
  O  O22  1  0.79176326  -0.79176326  0.21994204  1.0
