# generated using pymatgen
data_Hf4Cr4Si7
_symmetry_space_group_name_H-M   'P 1'
_cell_length_a   9.70313244
_cell_length_b   9.70313244
_cell_length_c   9.70313244
_cell_angle_alpha   93.85887984
_cell_angle_beta   93.85887984
_cell_angle_gamma   149.92858227
_symmetry_Int_Tables_number   1
_chemical_formula_structural   Hf4Cr4Si7
_chemical_formula_sum   'Hf8 Cr8 Si14'
_cell_volume   442.09267576
_cell_formula_units_Z   2
loop_
 _symmetry_equiv_pos_site_id
 _symmetry_equiv_pos_as_xyz
  1  'x, y, z'
loop_
 _atom_site_type_symbol
 _atom_site_label
 _atom_site_symmetry_multiplicity
 _atom_site_fract_x
 _atom_site_fract_y
 _atom_site_fract_z
 _atom_site_occupancy
  Hf  Hf0  1  -0.00000000  0.80404008  0.80404008  1.0
  Hf  Hf1  1  0.80404008  1.00000000  0.80404008  1.0
  Hf  Hf2  1  1.19595992  1.00000000  1.19595992  1.0
  Hf  Hf3  1  -0.00000000  0.19595992  0.19595992  1.0
  Hf  Hf4  1  0.63844160  0.63844160  0.27688319  1.0
  Hf  Hf5  1  1.36155840  0.63844160  1.00000000  1.0
  Hf  Hf6  1  0.63844160  0.36155840  1.00000000  1.0
  Hf  Hf7  1  0.36155840  0.36155840  0.72311681  1.0
  Cr  Cr8  1  1.10197296  0.60197296  1.20394592  1.0
  Cr  Cr9  1  1.60197296  1.10197296  1.20394592  1.0
  Cr  Cr10  1  0.39802704  0.60197296  0.50000000  1.0
  Cr  Cr11  1  0.89802704  1.10197296  0.50000000  1.0
  Cr  Cr12  1  1.10197296  0.89802704  1.50000000  1.0
  Cr  Cr13  1  1.60197296  1.39802704  1.50000000  1.0
  Cr  Cr14  1  0.39802704  0.89802704  0.79605408  1.0
  Cr  Cr15  1  0.89802704  1.39802704  0.79605408  1.0
  Si  Si16  1  0.50000000  0.79294624  0.29294624  1.0
  Si  Si17  1  0.79294624  0.50000000  1.29294624  1.0
  Si  Si18  1  0.20705376  0.50000000  0.70705376  1.0
  Si  Si19  1  0.50000000  1.20705376  0.70705376  1.0
  Si  Si20  1  -0.00000000  0.59102552  0.59102552  1.0
  Si  Si21  1  0.59102552  1.00000000  0.59102552  1.0
  Si  Si22  1  1.40897448  1.00000000  1.40897448  1.0
  Si  Si23  1  0.00000000  0.40897448  0.40897448  1.0
  Si  Si24  1  0.79191878  0.79191878  0.58383757  1.0
  Si  Si25  1  1.20808122  0.79191878  1.00000000  1.0
  Si  Si26  1  0.79191878  0.20808122  1.00000000  1.0
  Si  Si27  1  0.20808122  0.20808122  0.41616243  1.0
  Si  Si28  1  0.75051741  0.75051741  -0.00000000  1.0
  Si  Si29  1  0.24948259  0.24948259  -0.00000000  1.0
