# generated using pymatgen
data_Na2TeC2
_symmetry_space_group_name_H-M   'P 1'
_cell_length_a   5.05365284
_cell_length_b   5.05365284
_cell_length_c   5.05365284
_cell_angle_alpha   111.56642439
_cell_angle_beta   111.56642439
_cell_angle_gamma   105.35748905
_symmetry_Int_Tables_number   1
_chemical_formula_structural   Na2TeC2
_chemical_formula_sum   'Na2 Te1 C2'
_cell_volume   98.97551661
_cell_formula_units_Z   1
loop_
 _symmetry_equiv_pos_site_id
 _symmetry_equiv_pos_as_xyz
  1  'x, y, z'
loop_
 _atom_site_type_symbol
 _atom_site_label
 _atom_site_symmetry_multiplicity
 _atom_site_fract_x
 _atom_site_fract_y
 _atom_site_fract_z
 _atom_site_occupancy
  Na  Na0  1  0.75000000  1.25000000  0.50000000  1.0
  Na  Na1  1  1.25000000  0.75000000  0.50000000  1.0
  Te  Te2  1  0.50000000  0.50000000  -0.00000000  1.0
  C  C3  1  0.89733008  0.89733008  -0.00000000  1.0
  C  C4  1  0.10266992  0.10266992  -0.00000000  1.0
