# generated using pymatgen
data_Zr5Te6
_symmetry_space_group_name_H-M   'P 1'
_cell_length_a   11.81722465
_cell_length_b   11.81722465
_cell_length_c   7.14270384
_cell_angle_alpha   90.00000000
_cell_angle_beta   90.00000000
_cell_angle_gamma   120.00000000
_symmetry_Int_Tables_number   1
_chemical_formula_structural   Zr5Te6
_chemical_formula_sum   'Zr15 Te18'
_cell_volume   863.82199601
_cell_formula_units_Z   3
loop_
 _symmetry_equiv_pos_site_id
 _symmetry_equiv_pos_as_xyz
  1  'x, y, z'
loop_
 _atom_site_type_symbol
 _atom_site_label
 _atom_site_symmetry_multiplicity
 _atom_site_fract_x
 _atom_site_fract_y
 _atom_site_fract_z
 _atom_site_occupancy
  Zr  Zr0  1  0.63743504  0.63743504  0.50000000  1.0
  Zr  Zr1  1  0.63743504  0.00000000  0.50000000  1.0
  Zr  Zr2  1  -0.00000000  0.63743504  0.50000000  1.0
  Zr  Zr3  1  -0.00000000  0.36256496  0.50000000  1.0
  Zr  Zr4  1  0.36256496  0.36256496  0.50000000  1.0
  Zr  Zr5  1  0.36256496  0.00000000  0.50000000  1.0
  Zr  Zr6  1  0.70222518  0.70222518  0.00000000  1.0
  Zr  Zr7  1  0.70222518  0.00000000  0.00000000  1.0
  Zr  Zr8  1  -0.00000000  0.70222518  0.00000000  1.0
  Zr  Zr9  1  -0.00000000  0.29777482  0.00000000  1.0
  Zr  Zr10  1  0.29777482  0.29777482  0.00000000  1.0
  Zr  Zr11  1  0.29777482  0.00000000  0.00000000  1.0
  Zr  Zr12  1  0.33333333  0.66666667  0.48819766  1.0
  Zr  Zr13  1  0.66666667  0.33333333  0.51180234  1.0
  Zr  Zr14  1  0.00000000  0.00000000  0.00000000  1.0
  Te  Te15  1  0.78727702  0.89363851  0.28986898  1.0
  Te  Te16  1  0.89363851  0.78727702  0.71013102  1.0
  Te  Te17  1  0.89363851  0.10636149  0.71013102  1.0
  Te  Te18  1  0.10636149  0.89363851  0.28986898  1.0
  Te  Te19  1  0.10636149  0.21272298  0.28986898  1.0
  Te  Te20  1  0.21272298  0.10636149  0.71013102  1.0
  Te  Te21  1  0.11776922  0.55888461  0.20831185  1.0
  Te  Te22  1  0.55888461  0.11776922  0.79168815  1.0
  Te  Te23  1  0.55888461  0.44111539  0.79168815  1.0
  Te  Te24  1  0.44111539  0.55888461  0.20831185  1.0
  Te  Te25  1  0.44111539  0.88223078  0.20831185  1.0
  Te  Te26  1  0.88223078  0.44111539  0.79168815  1.0
  Te  Te27  1  0.44901461  0.22450731  0.24515204  1.0
  Te  Te28  1  0.22450731  0.44901461  0.75484796  1.0
  Te  Te29  1  0.22450731  0.77549269  0.75484796  1.0
  Te  Te30  1  0.77549269  0.22450731  0.24515204  1.0
  Te  Te31  1  0.77549269  0.55098539  0.24515204  1.0
  Te  Te32  1  0.55098539  0.77549269  0.75484796  1.0
