# generated using pymatgen
data_YB4W
_symmetry_space_group_name_H-M   'P 1'
_cell_length_a   6.02189986
_cell_length_b   11.64576754
_cell_length_c   3.62149283
_cell_angle_alpha   90.00000000
_cell_angle_beta   90.00000000
_cell_angle_gamma   90.00000000
_symmetry_Int_Tables_number   1
_chemical_formula_structural   YB4W
_chemical_formula_sum   'Y4 B16 W4'
_cell_volume   253.97401009
_cell_formula_units_Z   4
loop_
 _symmetry_equiv_pos_site_id
 _symmetry_equiv_pos_as_xyz
  1  'x, y, z'
loop_
 _atom_site_type_symbol
 _atom_site_label
 _atom_site_symmetry_multiplicity
 _atom_site_fract_x
 _atom_site_fract_y
 _atom_site_fract_z
 _atom_site_occupancy
  Y  Y0  1  0.12672411  0.64969989  0.50000000  1.0
  Y  Y1  1  0.62672411  0.85030011  0.50000000  1.0
  Y  Y2  1  0.87327589  0.35030011  0.50000000  1.0
  Y  Y3  1  0.37327589  0.14969989  0.50000000  1.0
  B  B4  1  0.47664275  0.69327971  0.00000000  1.0
  B  B5  1  0.97664275  0.80672029  0.00000000  1.0
  B  B6  1  0.52335725  0.30672029  0.00000000  1.0
  B  B7  1  0.02335725  0.19327971  0.00000000  1.0
  B  B8  1  0.38628771  0.54730878  0.00000000  1.0
  B  B9  1  0.88628771  0.95269122  0.00000000  1.0
  B  B10  1  0.61371229  0.45269122  0.00000000  1.0
  B  B11  1  0.11371229  0.04730878  0.00000000  1.0
  B  B12  1  0.36612798  0.96782612  0.00000000  1.0
  B  B13  1  0.86612798  0.53217388  0.00000000  1.0
  B  B14  1  0.63387202  0.03217388  0.00000000  1.0
  B  B15  1  0.13387202  0.46782612  0.00000000  1.0
  B  B16  1  0.28687874  0.81368761  0.00000000  1.0
  B  B17  1  0.78687874  0.68631239  0.00000000  1.0
  B  B18  1  0.71312126  0.18631239  0.00000000  1.0
  B  B19  1  0.21312126  0.31368761  0.00000000  1.0
  W  W20  1  0.13071374  0.91550629  0.50000000  1.0
  W  W21  1  0.63071374  0.58449371  0.50000000  1.0
  W  W22  1  0.86928626  0.08449371  0.50000000  1.0
  W  W23  1  0.36928626  0.41550629  0.50000000  1.0
