# generated using pymatgen
data_VH12C2S2(O2F)6
_symmetry_space_group_name_H-M   'P 1'
_cell_length_a   10.22182591
_cell_length_b   10.22182591
_cell_length_c   6.58347982
_cell_angle_alpha   79.28708254
_cell_angle_beta   100.71291746
_cell_angle_gamma   139.33562258
_symmetry_Int_Tables_number   1
_chemical_formula_structural   VH12C2S2(O2F)6
_chemical_formula_sum   'V1 H12 C2 S2 O12 F6'
_cell_volume   439.34492589
_cell_formula_units_Z   1
loop_
 _symmetry_equiv_pos_site_id
 _symmetry_equiv_pos_as_xyz
  1  'x, y, z'
loop_
 _atom_site_type_symbol
 _atom_site_label
 _atom_site_symmetry_multiplicity
 _atom_site_fract_x
 _atom_site_fract_y
 _atom_site_fract_z
 _atom_site_occupancy
  V  V0  1  0.50000000  0.50000000  0.50000000  1.0
  H  H1  1  1.54504587  -0.32153581  0.82298324  1.0
  H  H2  1  1.32153581  -0.54504587  0.82298324  1.0
  H  H3  1  0.67846419  -0.45495413  0.17701676  1.0
  H  H4  1  1.45495413  0.32153581  0.17701676  1.0
  H  H5  1  1.72304982  -0.09974722  0.44312532  1.0
  H  H6  1  1.09974722  -0.72304982  0.44312532  1.0
  H  H7  1  0.90025278  -0.27695018  0.55687468  1.0
  H  H8  1  1.27695018  0.09974722  0.55687468  1.0
  H  H9  1  1.32465325  0.16353073  0.78458627  1.0
  H  H10  1  0.83646927  -0.32465325  0.78458627  1.0
  H  H11  1  1.16353073  -0.67534675  0.21541373  1.0
  H  H12  1  1.67534675  -0.16353073  0.21541373  1.0
  C  C13  1  0.78057016  -0.78057016  0.80376178  1.0
  C  C14  1  1.21942984  -0.21942984  0.19623822  1.0
  S  S15  1  0.87952346  -0.87952346  0.82397388  1.0
  S  S16  1  1.12047654  -0.12047654  0.17602612  1.0
  O  O17  1  1.72933456  -0.07783095  0.93736243  1.0
  O  O18  1  1.07783095  -0.72933456  0.93736243  1.0
  O  O19  1  0.92216905  -0.27066544  0.06263757  1.0
  O  O20  1  1.27066544  0.07783095  0.06263757  1.0
  O  O21  1  1.36173692  0.21524725  0.64088228  1.0
  O  O22  1  0.78475275  -0.36173692  0.64088228  1.0
  O  O23  1  1.21524725  -0.63826308  0.35911772  1.0
  O  O24  1  1.63826308  -0.21524725  0.35911772  1.0
  O  O25  1  0.88894280  -0.88894280  0.60750507  1.0
  O  O26  1  1.11105720  -0.11105720  0.39249493  1.0
  O  O27  1  1.45334560  -0.45334560  0.76777579  1.0
  O  O28  1  0.54665440  -0.54665440  0.23222421  1.0
  F  F29  1  1.59727215  0.09324899  0.70131656  1.0
  F  F30  1  0.90675101  -0.59727215  0.70131656  1.0
  F  F31  1  1.09324899  -0.40272785  0.29868344  1.0
  F  F32  1  1.40272785  -0.09324899  0.29868344  1.0
  F  F33  1  0.76529633  -0.76529633  0.99577211  1.0
  F  F34  1  1.23470367  -0.23470367  0.00422789  1.0
