# generated using pymatgen
data_ScGeAu
_symmetry_space_group_name_H-M   'P 1'
_cell_length_a   4.36190123
_cell_length_b   4.36190123
_cell_length_c   6.89699984
_cell_angle_alpha   90.00000000
_cell_angle_beta   90.00000000
_cell_angle_gamma   120.00000000
_symmetry_Int_Tables_number   1
_chemical_formula_structural   ScGeAu
_chemical_formula_sum   'Sc2 Ge2 Au2'
_cell_volume   113.64295107
_cell_formula_units_Z   2
loop_
 _symmetry_equiv_pos_site_id
 _symmetry_equiv_pos_as_xyz
  1  'x, y, z'
loop_
 _atom_site_type_symbol
 _atom_site_label
 _atom_site_symmetry_multiplicity
 _atom_site_fract_x
 _atom_site_fract_y
 _atom_site_fract_z
 _atom_site_occupancy
  Sc  Sc0  1  0.00000000  0.00000000  0.00076542  1.0
  Sc  Sc1  1  0.00000000  0.00000000  0.50076542  1.0
  Ge  Ge2  1  0.33333333  0.66666667  0.29711398  1.0
  Ge  Ge3  1  0.66666667  0.33333333  0.79711398  1.0
  Au  Au4  1  0.33333333  0.66666667  0.69772061  1.0
  Au  Au5  1  0.66666667  0.33333333  0.19772061  1.0
