# generated using pymatgen
data_Hf12Mn5
_symmetry_space_group_name_H-M   'P 1'
_cell_length_a   10.58612492
_cell_length_b   10.58612492
_cell_length_c   10.58612492
_cell_angle_alpha   60.00000000
_cell_angle_beta   60.00000000
_cell_angle_gamma   60.00000000
_symmetry_Int_Tables_number   1
_chemical_formula_structural   Hf12Mn5
_chemical_formula_sum   'Hf24 Mn10'
_cell_volume   838.87267028
_cell_formula_units_Z   2
loop_
 _symmetry_equiv_pos_site_id
 _symmetry_equiv_pos_as_xyz
  1  'x, y, z'
loop_
 _atom_site_type_symbol
 _atom_site_label
 _atom_site_symmetry_multiplicity
 _atom_site_fract_x
 _atom_site_fract_y
 _atom_site_fract_z
 _atom_site_occupancy
  Hf  Hf0  1  0.94806684  -0.57674244  0.68060875  1.0
  Hf  Hf1  1  -0.05193316  0.68060875  0.42325756  1.0
  Hf  Hf2  1  -0.17325756  0.30193316  0.30193316  1.0
  Hf  Hf3  1  0.56939125  0.30193316  0.30193316  1.0
  Hf  Hf4  1  -0.57674244  0.94806684  0.68060875  1.0
  Hf  Hf5  1  0.94806684  -0.05193316  0.68060875  1.0
  Hf  Hf6  1  0.94806684  -0.31939125  0.94806684  1.0
  Hf  Hf7  1  -0.57674244  0.68060875  0.94806684  1.0
  Hf  Hf8  1  0.30193316  -0.17325756  0.30193316  1.0
  Hf  Hf9  1  0.30193316  0.30193316  -0.17325756  1.0
  Hf  Hf10  1  0.56939125  0.30193316  -0.17325756  1.0
  Hf  Hf11  1  0.56939125  -0.17325756  0.30193316  1.0
  Hf  Hf12  1  0.68060875  -0.05193316  0.94806684  1.0
  Hf  Hf13  1  -0.57674244  0.94806684  0.94806684  1.0
  Hf  Hf14  1  0.30193316  0.56939125  -0.17325756  1.0
  Hf  Hf15  1  0.30193316  -0.17325756  0.56939125  1.0
  Hf  Hf16  1  -0.31939125  0.94806684  0.42325756  1.0
  Hf  Hf17  1  0.68060875  -0.57674244  0.94806684  1.0
  Hf  Hf18  1  0.94806684  -0.57674244  0.94806684  1.0
  Hf  Hf19  1  -0.05193316  0.94806684  0.42325756  1.0
  Hf  Hf20  1  0.30193316  0.56939125  0.30193316  1.0
  Hf  Hf21  1  -0.17325756  0.56939125  0.30193316  1.0
  Hf  Hf22  1  -0.17325756  0.30193316  0.56939125  1.0
  Hf  Hf23  1  0.30193316  0.30193316  0.56939125  1.0
  Mn  Mn24  1  0.66547119  -0.33452881  1.00358644  1.0
  Mn  Mn25  1  0.66547119  0.00358644  0.66547119  1.0
  Mn  Mn26  1  0.58452881  -0.41547119  0.58452881  1.0
  Mn  Mn27  1  1.24641356  -0.41547119  0.58452881  1.0
  Mn  Mn28  1  1.00358644  -0.33452881  0.66547119  1.0
  Mn  Mn29  1  0.66547119  -0.33452881  0.66547119  1.0
  Mn  Mn30  1  0.58452881  0.24641356  0.58452881  1.0
  Mn  Mn31  1  0.58452881  -0.41547119  1.24641356  1.0
  Mn  Mn32  1  0.50000000  0.50000000  -0.50000000  1.0
  Mn  Mn33  1  0.75000000  -0.25000000  0.75000000  1.0
