# generated using pymatgen
data_Ti4Cr2Ge5
_symmetry_space_group_name_H-M   'P 1'
_cell_length_a   9.49557009
_cell_length_b   9.49557009
_cell_length_c   9.49557009
_cell_angle_alpha   131.12302804
_cell_angle_beta   58.90308379
_cell_angle_gamma   149.18313953
_symmetry_Int_Tables_number   1
_chemical_formula_structural   Ti4Cr2Ge5
_chemical_formula_sum   'Ti8 Cr4 Ge10'
_cell_volume   327.80691091
_cell_formula_units_Z   2
loop_
 _symmetry_equiv_pos_site_id
 _symmetry_equiv_pos_as_xyz
  1  'x, y, z'
loop_
 _atom_site_type_symbol
 _atom_site_label
 _atom_site_symmetry_multiplicity
 _atom_site_fract_x
 _atom_site_fract_y
 _atom_site_fract_z
 _atom_site_occupancy
  Ti  Ti0  1  0.64368990  0.60509193  0.24878183  1.0
  Ti  Ti1  1  0.35631010  0.39490807  0.75121817  1.0
  Ti  Ti2  1  0.85631010  1.10509193  0.96140203  1.0
  Ti  Ti3  1  0.14368990  0.89490807  1.03859797  1.0
  Ti  Ti4  1  0.93584404  0.73866054  0.67450458  1.0
  Ti  Ti5  1  0.06415596  0.26133946  0.32549542  1.0
  Ti  Ti6  1  0.56415596  1.23866054  0.80281651  1.0
  Ti  Ti7  1  0.43584404  0.76133946  1.19718349  1.0
  Cr  Cr8  1  1.05728588  0.75000000  0.30728588  1.0
  Cr  Cr9  1  0.44271412  0.75000000  0.69271412  1.0
  Cr  Cr10  1  0.94271412  1.25000000  0.69271412  1.0
  Cr  Cr11  1  0.55728588  0.25000000  0.30728588  1.0
  Ge  Ge12  1  0.78573666  0.79748537  0.58322203  1.0
  Ge  Ge13  1  0.21426334  0.20251463  0.41677797  1.0
  Ge  Ge14  1  0.71426334  1.29748537  1.01174872  1.0
  Ge  Ge15  1  0.28573666  0.70251463  0.98825128  1.0
  Ge  Ge16  1  0.57236784  0.90221736  0.47458521  1.0
  Ge  Ge17  1  0.42763216  0.09778264  0.52541479  1.0
  Ge  Ge18  1  0.92763216  1.40221736  1.32984952  1.0
  Ge  Ge19  1  0.07236784  0.59778264  0.67015048  1.0
  Ge  Ge20  1  0.75000000  0.75000000  0.00000000  1.0
  Ge  Ge21  1  0.25000000  0.25000000  0.00000000  1.0
