# generated using pymatgen
data_La4P9Rh8
_symmetry_space_group_name_H-M   'P 1'
_cell_length_a   11.58314983
_cell_length_b   11.58314983
_cell_length_c   5.79880195
_cell_angle_alpha   90.00000000
_cell_angle_beta   90.00000000
_cell_angle_gamma   111.01780288
_symmetry_Int_Tables_number   1
_chemical_formula_structural   La4P9Rh8
_chemical_formula_sum   'La8 P18 Rh16'
_cell_volume   726.25901847
_cell_formula_units_Z   2
loop_
 _symmetry_equiv_pos_site_id
 _symmetry_equiv_pos_as_xyz
  1  'x, y, z'
loop_
 _atom_site_type_symbol
 _atom_site_label
 _atom_site_symmetry_multiplicity
 _atom_site_fract_x
 _atom_site_fract_y
 _atom_site_fract_z
 _atom_site_occupancy
  La  La0  1  -0.08962983  1.63928638  0.25000000  1.0
  La  La1  1  0.63928638  0.91037017  0.75000000  1.0
  La  La2  1  -0.63928638  1.08962983  0.25000000  1.0
  La  La3  1  0.08962983  0.36071362  0.75000000  1.0
  La  La4  1  0.38812266  0.61187734  0.25000000  1.0
  La  La5  1  -0.38812266  1.38812266  0.75000000  1.0
  La  La6  1  -0.13974429  1.13974429  0.25000000  1.0
  La  La7  1  0.13974429  0.86025571  0.75000000  1.0
  P  P8  1  -0.13503366  1.38319567  0.49838210  1.0
  P  P9  1  -0.13503366  1.38319567  0.00161790  1.0
  P  P10  1  0.38319567  0.86496634  0.99838210  1.0
  P  P11  1  0.38319567  0.86496634  0.50161790  1.0
  P  P12  1  -0.38319567  1.13503366  0.49838210  1.0
  P  P13  1  -0.38319567  1.13503366  0.00161790  1.0
  P  P14  1  0.13503366  0.61680433  0.99838210  1.0
  P  P15  1  0.13503366  0.61680433  0.50161790  1.0
  P  P16  1  0.14627044  0.28760425  0.25000000  1.0
  P  P17  1  -0.71239575  1.14627044  0.75000000  1.0
  P  P18  1  0.71239575  0.85372956  0.25000000  1.0
  P  P19  1  -0.14627044  1.71239575  0.75000000  1.0
  P  P20  1  -0.35562455  1.51572239  0.25000000  1.0
  P  P21  1  0.51572239  0.64437545  0.75000000  1.0
  P  P22  1  -0.51572239  1.35562455  0.25000000  1.0
  P  P23  1  0.35562455  0.48427761  0.75000000  1.0
  P  P24  1  0.07349594  0.92650406  0.25000000  1.0
  P  P25  1  -0.07349594  1.07349594  0.75000000  1.0
  Rh  Rh26  1  0.04717041  0.43939969  0.25000000  1.0
  Rh  Rh27  1  -0.56060031  1.04717041  0.75000000  1.0
  Rh  Rh28  1  0.56060031  0.95282959  0.25000000  1.0
  Rh  Rh29  1  -0.04717041  1.56060031  0.75000000  1.0
  Rh  Rh30  1  0.89443524  0.89443524  0.50000000  1.0
  Rh  Rh31  1  0.89443524  0.89443524  0.00000000  1.0
  Rh  Rh32  1  0.10556476  0.10556476  0.50000000  1.0
  Rh  Rh33  1  0.10556476  0.10556476  0.00000000  1.0
  Rh  Rh34  1  0.68069877  0.68069877  0.50000000  1.0
  Rh  Rh35  1  0.68069877  0.68069877  0.00000000  1.0
  Rh  Rh36  1  0.31930123  0.31930123  0.50000000  1.0
  Rh  Rh37  1  0.31930123  0.31930123  0.00000000  1.0
  Rh  Rh38  1  0.20716718  0.79283282  0.25000000  1.0
  Rh  Rh39  1  -0.20716718  1.20716718  0.75000000  1.0
  Rh  Rh40  1  -0.31606301  1.31606301  0.25000000  1.0
  Rh  Rh41  1  0.31606301  0.68393699  0.75000000  1.0
