# generated using pymatgen
data_La4H9
_symmetry_space_group_name_H-M   'P 1'
_cell_length_a   6.92569945
_cell_length_b   6.92569945
_cell_length_c   6.92569945
_cell_angle_alpha   132.08489458
_cell_angle_beta   132.08489458
_cell_angle_gamma   70.09497814
_symmetry_Int_Tables_number   1
_chemical_formula_structural   La4H9
_chemical_formula_sum   'La4 H9'
_cell_volume   179.36719615
_cell_formula_units_Z   1
loop_
 _symmetry_equiv_pos_site_id
 _symmetry_equiv_pos_as_xyz
  1  'x, y, z'
loop_
 _atom_site_type_symbol
 _atom_site_label
 _atom_site_symmetry_multiplicity
 _atom_site_fract_x
 _atom_site_fract_y
 _atom_site_fract_z
 _atom_site_occupancy
  La  La0  1  0.75438521  0.75438521  1.00000000  1.0
  La  La1  1  0.24561479  0.24561479  -0.00000000  1.0
  La  La2  1  0.50000000  0.00000000  0.50000000  1.0
  La  La3  1  0.00000000  0.50000000  0.50000000  1.0
  H  H4  1  1.13190077  1.13190077  1.51725614  1.0
  H  H5  1  0.61464463  0.61464463  0.48274386  1.0
  H  H6  1  1.13190077  0.61464463  1.00000000  1.0
  H  H7  1  0.61464463  1.13190077  1.00000000  1.0
  H  H8  1  0.86809923  0.86809923  1.48274386  1.0
  H  H9  1  0.38535537  0.38535537  0.51725614  1.0
  H  H10  1  0.86809923  0.38535537  1.00000000  1.0
  H  H11  1  0.38535537  0.86809923  1.00000000  1.0
  H  H12  1  0.00000000  0.00000000  0.00000000  1.0
