# generated using pymatgen
data_YbCoC2
_symmetry_space_group_name_H-M   'P 1'
_cell_length_a   3.69883157
_cell_length_b   3.69883157
_cell_length_c   3.59902121
_cell_angle_alpha   90.00000000
_cell_angle_beta   90.00000000
_cell_angle_gamma   105.07420970
_symmetry_Int_Tables_number   1
_chemical_formula_structural   YbCoC2
_chemical_formula_sum   'Yb1 Co1 C2'
_cell_volume   47.54514579
_cell_formula_units_Z   1
loop_
 _symmetry_equiv_pos_site_id
 _symmetry_equiv_pos_as_xyz
  1  'x, y, z'
loop_
 _atom_site_type_symbol
 _atom_site_label
 _atom_site_symmetry_multiplicity
 _atom_site_fract_x
 _atom_site_fract_y
 _atom_site_fract_z
 _atom_site_occupancy
  Yb  Yb0  1  0.38061030  0.61938970  0.50000000  1.0
  Co  Co1  1  -0.00431652  0.00431652  0.00000000  1.0
  C  C2  1  -0.47174544  1.16494834  0.00000000  1.0
  C  C3  1  -0.16494834  1.47174544  0.00000000  1.0
