# generated using pymatgen
data_KTl
_symmetry_space_group_name_H-M   'P 1'
_cell_length_a   11.09813257
_cell_length_b   11.09813257
_cell_length_c   8.10530521
_cell_angle_alpha   90.00000000
_cell_angle_beta   90.00000000
_cell_angle_gamma   88.85780106
_symmetry_Int_Tables_number   1
_chemical_formula_structural   KTl
_chemical_formula_sum   'K12 Tl12'
_cell_volume   998.12029712
_cell_formula_units_Z   12
loop_
 _symmetry_equiv_pos_site_id
 _symmetry_equiv_pos_as_xyz
  1  'x, y, z'
loop_
 _atom_site_type_symbol
 _atom_site_label
 _atom_site_symmetry_multiplicity
 _atom_site_fract_x
 _atom_site_fract_y
 _atom_site_fract_z
 _atom_site_occupancy
  K  K0  1  -0.47375819  0.97375819  0.25000000  1.0
  K  K1  1  0.02624181  1.47375819  0.25000000  1.0
  K  K2  1  -0.02624181  0.52624181  0.75000000  1.0
  K  K3  1  0.47375819  1.02624181  0.75000000  1.0
  K  K4  1  -0.29948132  1.29948132  0.42707326  1.0
  K  K5  1  0.20051868  0.79948132  0.07292674  1.0
  K  K6  1  0.29948132  0.70051868  0.57292674  1.0
  K  K7  1  -0.20051868  1.20051868  0.92707326  1.0
  K  K8  1  0.32019753  1.32019753  0.50000000  1.0
  K  K9  1  -0.17980247  0.82019753  0.00000000  1.0
  K  K10  1  -0.32019753  0.67980247  0.50000000  1.0
  K  K11  1  0.17980247  1.17980247  0.00000000  1.0
  Tl  Tl12  1  -0.03885438  1.03885438  0.28088725  1.0
  Tl  Tl13  1  0.46114562  0.53885438  0.21911275  1.0
  Tl  Tl14  1  0.03885438  0.96114562  0.71911275  1.0
  Tl  Tl15  1  -0.46114562  1.46114562  0.78088725  1.0
  Tl  Tl16  1  0.22243275  1.00783875  0.43289189  1.0
  Tl  Tl17  1  -0.27756725  0.50783875  0.06710811  1.0
  Tl  Tl18  1  0.00783875  1.22243275  0.56710811  1.0
  Tl  Tl19  1  -0.49216125  0.72243275  0.93289189  1.0
  Tl  Tl20  1  -0.00783875  0.77756725  0.43289189  1.0
  Tl  Tl21  1  0.49216125  1.27756725  0.06710811  1.0
  Tl  Tl22  1  -0.22243275  0.99216125  0.56710811  1.0
  Tl  Tl23  1  0.27756725  1.49216125  0.93289189  1.0
