# generated using pymatgen
data_Rb3B12H12I
_symmetry_space_group_name_H-M   'P 1'
_cell_length_a   7.24310071
_cell_length_b   7.24310071
_cell_length_c   7.24310071
_cell_angle_alpha   93.09032819
_cell_angle_beta   93.09032819
_cell_angle_gamma   93.09032819
_symmetry_Int_Tables_number   1
_chemical_formula_structural   Rb3B12H12I
_chemical_formula_sum   'Rb3 B12 H12 I1'
_cell_volume   378.27123646
_cell_formula_units_Z   1
loop_
 _symmetry_equiv_pos_site_id
 _symmetry_equiv_pos_as_xyz
  1  'x, y, z'
loop_
 _atom_site_type_symbol
 _atom_site_label
 _atom_site_symmetry_multiplicity
 _atom_site_fract_x
 _atom_site_fract_y
 _atom_site_fract_z
 _atom_site_occupancy
  Rb  Rb0  1  1.00000000  -0.50000000  0.00000000  1.0
  Rb  Rb1  1  1.00000000  -0.00000000  -0.50000000  1.0
  Rb  Rb2  1  0.50000000  0.00000000  -0.00000000  1.0
  B  B3  1  1.55723512  0.55723512  -0.27389474  1.0
  B  B4  1  1.55723512  -0.27389474  0.55723512  1.0
  B  B5  1  1.27389474  0.44276488  -0.55723512  1.0
  B  B6  1  0.44276488  1.27389474  -0.55723512  1.0
  B  B7  1  0.44276488  0.44276488  0.27389474  1.0
  B  B8  1  0.72610526  0.55723512  0.55723512  1.0
  B  B9  1  1.38196297  0.38196297  -0.34442040  1.0
  B  B10  1  1.38196297  -0.34442040  0.38196297  1.0
  B  B11  1  1.34442040  0.61803703  -0.38196297  1.0
  B  B12  1  0.61803703  1.34442040  -0.38196297  1.0
  B  B13  1  0.61803703  0.61803703  0.34442040  1.0
  B  B14  1  0.65557960  0.38196297  0.38196297  1.0
  H  H15  1  1.29726925  0.29726925  -0.23416776  1.0
  H  H16  1  1.29726925  -0.23416776  0.29726925  1.0
  H  H17  1  1.23416776  0.70273075  -0.29726925  1.0
  H  H18  1  0.70273075  1.23416776  -0.29726925  1.0
  H  H19  1  0.70273075  0.70273075  0.23416776  1.0
  H  H20  1  0.76583224  0.29726925  0.29726925  1.0
  H  H21  1  0.40246073  0.40246073  0.11298357  1.0
  H  H22  1  0.40246073  1.11298357  -0.59753927  1.0
  H  H23  1  0.88701643  0.59753927  0.59753927  1.0
  H  H24  1  1.59753927  -0.11298357  0.59753927  1.0
  H  H25  1  1.59753927  0.59753927  -0.11298357  1.0
  H  H26  1  1.11298357  0.40246073  -0.59753927  1.0
  I  I27  1  0.00000000  0.00000000  0.00000000  1.0
