# generated using pymatgen
data_CuH6(SeO4)2
_symmetry_space_group_name_H-M   'P 1'
_cell_length_a   6.42256687
_cell_length_b   6.41951103
_cell_length_c   9.19842450
_cell_angle_alpha   90.00000000
_cell_angle_beta   91.24357951
_cell_angle_gamma   90.00000000
_symmetry_Int_Tables_number   1
_chemical_formula_structural   CuH6(SeO4)2
_chemical_formula_sum   'Cu2 H12 Se4 O16'
_cell_volume   379.15931380
_cell_formula_units_Z   2
loop_
 _symmetry_equiv_pos_site_id
 _symmetry_equiv_pos_as_xyz
  1  'x, y, z'
loop_
 _atom_site_type_symbol
 _atom_site_label
 _atom_site_symmetry_multiplicity
 _atom_site_fract_x
 _atom_site_fract_y
 _atom_site_fract_z
 _atom_site_occupancy
  Cu  Cu0  1  0.00000000  0.50000000  0.50000000  1.0
  Cu  Cu1  1  0.00000000  0.00000000  0.00000000  1.0
  H  H2  1  0.62638316  0.79844258  0.43355476  1.0
  H  H3  1  0.62638316  0.70155742  0.93355476  1.0
  H  H4  1  0.37361684  0.29844258  0.06644524  1.0
  H  H5  1  0.37361684  0.20155742  0.56644524  1.0
  H  H6  1  0.43058749  0.26806791  0.33136992  1.0
  H  H7  1  0.43058749  0.23193209  0.83136992  1.0
  H  H8  1  0.56941251  0.76806791  0.16863008  1.0
  H  H9  1  0.56941251  0.73193209  0.66863008  1.0
  H  H10  1  0.24070359  0.05953338  0.46029442  1.0
  H  H11  1  0.24070359  0.44046662  0.96029442  1.0
  H  H12  1  0.75929641  0.55953338  0.03970558  1.0
  H  H13  1  0.75929641  0.94046662  0.53970558  1.0
  Se  Se14  1  0.77204535  0.22737416  0.25591285  1.0
  Se  Se15  1  0.77204535  0.27262584  0.75591285  1.0
  Se  Se16  1  0.22795465  0.72737416  0.24408715  1.0
  Se  Se17  1  0.22795465  0.77262584  0.74408715  1.0
  O  O18  1  0.90217984  0.45194394  0.30069300  1.0
  O  O19  1  0.90217984  0.04805606  0.80069300  1.0
  O  O20  1  0.09782016  0.95194394  0.19930700  1.0
  O  O21  1  0.09782016  0.54805606  0.69930700  1.0
  O  O22  1  0.80927885  0.22493973  0.07217917  1.0
  O  O23  1  0.80927885  0.27506027  0.57217917  1.0
  O  O24  1  0.19072115  0.72493973  0.42782083  1.0
  O  O25  1  0.19072115  0.77506027  0.92782083  1.0
  O  O26  1  0.50725597  0.32495162  0.24369858  1.0
  O  O27  1  0.50725597  0.17504838  0.74369858  1.0
  O  O28  1  0.49274403  0.82495162  0.25630142  1.0
  O  O29  1  0.49274403  0.67504838  0.75630142  1.0
  O  O30  1  0.29779286  0.20019517  0.47159941  1.0
  O  O31  1  0.29779286  0.29980483  0.97159941  1.0
  O  O32  1  0.70220714  0.70019517  0.02840059  1.0
  O  O33  1  0.70220714  0.79980483  0.52840059  1.0
