# generated using pymatgen
data_SrNiN
_symmetry_space_group_name_H-M   'P 1'
_cell_length_a   9.12534870
_cell_length_b   13.29833667
_cell_length_c   5.22932194
_cell_angle_alpha   90.00000000
_cell_angle_beta   90.00000000
_cell_angle_gamma   90.00000000
_symmetry_Int_Tables_number   1
_chemical_formula_structural   SrNiN
_chemical_formula_sum   'Sr12 Ni12 N12'
_cell_volume   634.58846250
_cell_formula_units_Z   12
loop_
 _symmetry_equiv_pos_site_id
 _symmetry_equiv_pos_as_xyz
  1  'x, y, z'
loop_
 _atom_site_type_symbol
 _atom_site_label
 _atom_site_symmetry_multiplicity
 _atom_site_fract_x
 _atom_site_fract_y
 _atom_site_fract_z
 _atom_site_occupancy
  Sr  Sr0  1  0.33179340  0.91301783  0.97703582  1.0
  Sr  Sr1  1  0.33179340  0.58698217  0.97703582  1.0
  Sr  Sr2  1  0.83179340  0.91301783  0.52296418  1.0
  Sr  Sr3  1  0.83179340  0.58698217  0.52296418  1.0
  Sr  Sr4  1  0.66820660  0.41301783  0.02296418  1.0
  Sr  Sr5  1  0.66820660  0.08698217  0.02296418  1.0
  Sr  Sr6  1  0.16820660  0.41301783  0.47703582  1.0
  Sr  Sr7  1  0.16820660  0.08698217  0.47703582  1.0
  Sr  Sr8  1  0.50774331  0.75000000  0.50677358  1.0
  Sr  Sr9  1  0.00774331  0.75000000  -0.00677358  1.0
  Sr  Sr10  1  0.49225669  0.25000000  0.49322642  1.0
  Sr  Sr11  1  0.99225669  0.25000000  0.00677358  1.0
  Ni  Ni12  1  0.34106639  0.33904763  0.96240574  1.0
  Ni  Ni13  1  0.34106639  0.16095237  0.96240574  1.0
  Ni  Ni14  1  0.84106639  0.33904763  0.53759426  1.0
  Ni  Ni15  1  0.84106639  0.16095237  0.53759426  1.0
  Ni  Ni16  1  0.65893361  0.83904763  0.03759426  1.0
  Ni  Ni17  1  0.65893361  0.66095237  0.03759426  1.0
  Ni  Ni18  1  0.15893361  0.83904763  0.46240574  1.0
  Ni  Ni19  1  0.15893361  0.66095237  0.46240574  1.0
  Ni  Ni20  1  0.50000000  0.00000000  0.50000000  1.0
  Ni  Ni21  1  0.50000000  0.50000000  0.50000000  1.0
  Ni  Ni22  1  0.00000000  0.00000000  0.00000000  1.0
  Ni  Ni23  1  0.00000000  0.50000000  0.00000000  1.0
  N  N24  1  0.42059056  0.42262808  0.73498183  1.0
  N  N25  1  0.42059056  0.07737192  0.73498183  1.0
  N  N26  1  0.92059056  0.42262808  0.76501817  1.0
  N  N27  1  0.92059056  0.07737192  0.76501817  1.0
  N  N28  1  0.57940944  0.92262808  0.26501817  1.0
  N  N29  1  0.57940944  0.57737192  0.26501817  1.0
  N  N30  1  0.07940944  0.92262808  0.23498183  1.0
  N  N31  1  0.07940944  0.57737192  0.23498183  1.0
  N  N32  1  0.24061047  0.75000000  0.69070277  1.0
  N  N33  1  0.74061047  0.75000000  0.80929723  1.0
  N  N34  1  0.75938953  0.25000000  0.30929723  1.0
  N  N35  1  0.25938953  0.25000000  0.19070277  1.0
