# generated using pymatgen
data_CrGeTe3
_symmetry_space_group_name_H-M   'P 1'
_cell_length_a   8.50671664
_cell_length_b   8.50671664
_cell_length_c   8.50671664
_cell_angle_alpha   47.98564873
_cell_angle_beta   47.98564873
_cell_angle_gamma   47.98564873
_symmetry_Int_Tables_number   1
_chemical_formula_structural   CrGeTe3
_chemical_formula_sum   'Cr2 Ge2 Te6'
_cell_volume   311.30006179
_cell_formula_units_Z   2
loop_
 _symmetry_equiv_pos_site_id
 _symmetry_equiv_pos_as_xyz
  1  'x, y, z'
loop_
 _atom_site_type_symbol
 _atom_site_label
 _atom_site_symmetry_multiplicity
 _atom_site_fract_x
 _atom_site_fract_y
 _atom_site_fract_z
 _atom_site_occupancy
  Cr  Cr0  1  0.33372297  0.33372297  0.33372297  1.0
  Cr  Cr1  1  0.66627703  -0.33372297  -0.33372297  1.0
  Ge  Ge2  1  0.05359455  0.05359455  0.05359455  1.0
  Ge  Ge3  1  0.94640545  -0.05359455  -0.05359455  1.0
  Te  Te4  1  0.07551992  0.70443635  -0.54983051  1.0
  Te  Te5  1  0.54983051  0.92448008  -0.70443635  1.0
  Te  Te6  1  0.29556365  0.54983051  -0.07551992  1.0
  Te  Te7  1  0.92448008  0.29556365  -0.45016949  1.0
  Te  Te8  1  0.45016949  0.07551992  -0.29556365  1.0
  Te  Te9  1  0.70443635  0.45016949  -0.92448008  1.0
