# generated using pymatgen
data_Ca(Cu2P)2
_symmetry_space_group_name_H-M   'P 1'
_cell_length_a   7.31444105
_cell_length_b   7.31444105
_cell_length_c   3.79787477
_cell_angle_alpha   90.00000000
_cell_angle_beta   90.00000000
_cell_angle_gamma   90.00000000
_symmetry_Int_Tables_number   1
_chemical_formula_structural   Ca(Cu2P)2
_chemical_formula_sum   'Ca2 Cu8 P4'
_cell_volume   203.19027982
_cell_formula_units_Z   2
loop_
 _symmetry_equiv_pos_site_id
 _symmetry_equiv_pos_as_xyz
  1  'x, y, z'
loop_
 _atom_site_type_symbol
 _atom_site_label
 _atom_site_symmetry_multiplicity
 _atom_site_fract_x
 _atom_site_fract_y
 _atom_site_fract_z
 _atom_site_occupancy
  Ca  Ca0  1  0.50000000  0.50000000  0.50000000  1.0
  Ca  Ca1  1  0.00000000  0.00000000  0.00000000  1.0
  Cu  Cu2  1  0.33519932  0.08331733  0.50000000  1.0
  Cu  Cu3  1  0.83519932  0.41668267  0.00000000  1.0
  Cu  Cu4  1  0.91668267  0.66480068  0.50000000  1.0
  Cu  Cu5  1  0.41668267  0.83519932  0.00000000  1.0
  Cu  Cu6  1  0.66480068  0.91668267  0.50000000  1.0
  Cu  Cu7  1  0.16480068  0.58331733  0.00000000  1.0
  Cu  Cu8  1  0.08331733  0.33519932  0.50000000  1.0
  Cu  Cu9  1  0.58331733  0.16480068  0.00000000  1.0
  P  P10  1  0.21946866  0.78053134  0.50000000  1.0
  P  P11  1  0.71946866  0.71946866  0.00000000  1.0
  P  P12  1  0.78053134  0.21946866  0.50000000  1.0
  P  P13  1  0.28053134  0.28053134  0.00000000  1.0
