# generated using pymatgen
data_K2NiH8(CO5)2
_symmetry_space_group_name_H-M   'P 1'
_cell_length_a   6.92463543
_cell_length_b   6.26221247
_cell_length_c   12.35167548
_cell_angle_alpha   90.00000000
_cell_angle_beta   114.92275512
_cell_angle_gamma   90.00000000
_symmetry_Int_Tables_number   1
_chemical_formula_structural   K2NiH8(CO5)2
_chemical_formula_sum   'K4 Ni2 H16 C4 O20'
_cell_volume   485.73437825
_cell_formula_units_Z   2
loop_
 _symmetry_equiv_pos_site_id
 _symmetry_equiv_pos_as_xyz
  1  'x, y, z'
loop_
 _atom_site_type_symbol
 _atom_site_label
 _atom_site_symmetry_multiplicity
 _atom_site_fract_x
 _atom_site_fract_y
 _atom_site_fract_z
 _atom_site_occupancy
  K  K0  1  0.23431870  0.66002069  0.81737484  1.0
  K  K1  1  0.23431870  0.83997931  0.31737484  1.0
  K  K2  1  0.76568130  0.33997931  0.18262516  1.0
  K  K3  1  0.76568130  0.16002069  0.68262516  1.0
  Ni  Ni4  1  0.00000000  0.00000000  0.00000000  1.0
  Ni  Ni5  1  0.00000000  0.50000000  0.50000000  1.0
  H  H6  1  0.20654162  0.30177384  0.98740863  1.0
  H  H7  1  0.20654162  0.19822616  0.48740863  1.0
  H  H8  1  0.79345838  0.69822616  0.01259137  1.0
  H  H9  1  0.79345838  0.80177384  0.51259137  1.0
  H  H10  1  0.80400457  0.66408268  0.62857426  1.0
  H  H11  1  0.80400457  0.83591732  0.12857426  1.0
  H  H12  1  0.19599543  0.33591732  0.37142574  1.0
  H  H13  1  0.19599543  0.16408268  0.87142574  1.0
  H  H14  1  0.42355739  0.88615427  0.10857108  1.0
  H  H15  1  0.42355739  0.61384573  0.60857108  1.0
  H  H16  1  0.57644261  0.11384573  0.89142892  1.0
  H  H17  1  0.57644261  0.38615427  0.39142892  1.0
  H  H18  1  0.29125203  0.67287499  0.07792408  1.0
  H  H19  1  0.29125203  0.82712501  0.57792408  1.0
  H  H20  1  0.70874797  0.32712501  0.92207592  1.0
  H  H21  1  0.70874797  0.17287499  0.42207592  1.0
  C  C22  1  0.74270380  0.66186567  0.81524934  1.0
  C  C23  1  0.74270380  0.83813433  0.31524934  1.0
  C  C24  1  0.25729620  0.33813433  0.18475066  1.0
  C  C25  1  0.25729620  0.16186567  0.68475066  1.0
  O  O26  1  0.87490072  0.82093193  0.84402050  1.0
  O  O27  1  0.87490072  0.67906807  0.34402050  1.0
  O  O28  1  0.12509928  0.17906807  0.15597950  1.0
  O  O29  1  0.12509928  0.32093193  0.65597950  1.0
  O  O30  1  0.68301246  0.57480006  0.71075271  1.0
  O  O31  1  0.68301246  0.92519994  0.21075271  1.0
  O  O32  1  0.31698754  0.42519994  0.28924729  1.0
  O  O33  1  0.31698754  0.07480006  0.78924729  1.0
  O  O34  1  0.67007617  0.58804040  0.88952434  1.0
  O  O35  1  0.67007617  0.91195960  0.38952434  1.0
  O  O36  1  0.32992383  0.41195960  0.11047566  1.0
  O  O37  1  0.32992383  0.08804040  0.61047566  1.0
  O  O38  1  0.89266648  0.77617929  0.08840400  1.0
  O  O39  1  0.89266648  0.72382071  0.58840400  1.0
  O  O40  1  0.10733352  0.22382071  0.91159600  1.0
  O  O41  1  0.10733352  0.27617929  0.41159600  1.0
  O  O42  1  0.28727817  0.82367245  0.04940063  1.0
  O  O43  1  0.28727817  0.67632755  0.54940063  1.0
  O  O44  1  0.71272183  0.17632755  0.95059937  1.0
  O  O45  1  0.71272183  0.32367245  0.45059937  1.0
