# generated using pymatgen
data_Ta2Be
_symmetry_space_group_name_H-M   'P 1'
_cell_length_a   4.91547395
_cell_length_b   4.91547395
_cell_length_c   4.91547395
_cell_angle_alpha   104.39986925
_cell_angle_beta   104.39986925
_cell_angle_gamma   120.17379765
_symmetry_Int_Tables_number   1
_chemical_formula_structural   Ta2Be
_chemical_formula_sum   'Ta4 Be2'
_cell_volume   88.99668651
_cell_formula_units_Z   2
loop_
 _symmetry_equiv_pos_site_id
 _symmetry_equiv_pos_as_xyz
  1  'x, y, z'
loop_
 _atom_site_type_symbol
 _atom_site_label
 _atom_site_symmetry_multiplicity
 _atom_site_fract_x
 _atom_site_fract_y
 _atom_site_fract_z
 _atom_site_occupancy
  Ta  Ta0  1  0.83929854  0.33929854  1.17859708  1.0
  Ta  Ta1  1  0.66070146  0.83929854  0.50000000  1.0
  Ta  Ta2  1  1.33929854  1.16070146  1.50000000  1.0
  Ta  Ta3  1  0.16070146  0.66070146  0.82140292  1.0
  Be  Be4  1  0.25000000  0.25000000  -0.00000000  1.0
  Be  Be5  1  0.75000000  0.75000000  -0.00000000  1.0
