# generated using pymatgen
data_MnNiO3
_symmetry_space_group_name_H-M   'P 1'
_cell_length_a   5.37064992
_cell_length_b   5.37064992
_cell_length_c   5.37064992
_cell_angle_alpha   54.92490074
_cell_angle_beta   54.92490074
_cell_angle_gamma   54.92490074
_symmetry_Int_Tables_number   1
_chemical_formula_structural   MnNiO3
_chemical_formula_sum   'Mn2 Ni2 O6'
_cell_volume   96.59970320
_cell_formula_units_Z   2
loop_
 _symmetry_equiv_pos_site_id
 _symmetry_equiv_pos_as_xyz
  1  'x, y, z'
loop_
 _atom_site_type_symbol
 _atom_site_label
 _atom_site_symmetry_multiplicity
 _atom_site_fract_x
 _atom_site_fract_y
 _atom_site_fract_z
 _atom_site_occupancy
  Mn  Mn0  1  0.15744234  0.15744234  0.15744234  1.0
  Mn  Mn1  1  0.84255766  -0.15744234  -0.15744234  1.0
  Ni  Ni2  1  0.35180088  0.35180088  -0.64819912  1.0
  Ni  Ni3  1  0.64819912  0.64819912  -0.35180088  1.0
  O  O4  1  0.43826841  0.05609354  -0.23108227  1.0
  O  O5  1  1.23108227  -0.43826841  -0.05609354  1.0
  O  O6  1  0.94390646  0.23108227  -0.43826841  1.0
  O  O7  1  0.56173159  -0.05609354  0.23108227  1.0
  O  O8  1  0.76891773  -0.56173159  0.05609354  1.0
  O  O9  1  1.05609354  -0.23108227  -0.56173159  1.0
