# generated using pymatgen
data_S5N3
_symmetry_space_group_name_H-M   'P 1'
_cell_length_a   8.98621826
_cell_length_b   13.80462487
_cell_length_c   6.98066280
_cell_angle_alpha   90.00000000
_cell_angle_beta   90.00000000
_cell_angle_gamma   90.00000000
_symmetry_Int_Tables_number   1
_chemical_formula_structural   S5N3
_chemical_formula_sum   'S20 N12'
_cell_volume   865.96079886
_cell_formula_units_Z   4
loop_
 _symmetry_equiv_pos_site_id
 _symmetry_equiv_pos_as_xyz
  1  'x, y, z'
loop_
 _atom_site_type_symbol
 _atom_site_label
 _atom_site_symmetry_multiplicity
 _atom_site_fract_x
 _atom_site_fract_y
 _atom_site_fract_z
 _atom_site_occupancy
  N  N0  1  0.19982034  0.75000000  0.69591388  1.0
  N  N1  1  0.69982034  0.75000000  0.80408612  1.0
  N  N2  1  0.80017966  0.25000000  0.30408612  1.0
  N  N3  1  0.30017966  0.25000000  0.19591388  1.0
  N  N4  1  0.34994321  0.90704957  0.52672604  1.0
  N  N5  1  0.34994321  0.59295043  0.52672604  1.0
  N  N6  1  0.84994321  0.90704957  0.97327396  1.0
  N  N7  1  0.84994321  0.59295043  0.97327396  1.0
  N  N8  1  0.65005679  0.40704957  0.47327396  1.0
  N  N9  1  0.65005679  0.09295043  0.47327396  1.0
  N  N10  1  0.15005679  0.40704957  0.02672604  1.0
  N  N11  1  0.15005679  0.09295043  0.02672604  1.0
  S  S12  1  0.35703755  0.75000000  0.21376890  1.0
  S  S13  1  0.85703755  0.75000000  0.28623110  1.0
  S  S14  1  0.64296245  0.25000000  0.78623110  1.0
  S  S15  1  0.14296245  0.25000000  0.71376890  1.0
  S  S16  1  0.23593061  0.86235472  0.67670330  1.0
  S  S17  1  0.23593061  0.63764528  0.67670330  1.0
  S  S18  1  0.73593061  0.86235472  0.82329670  1.0
  S  S19  1  0.73593061  0.63764528  0.82329670  1.0
  S  S20  1  0.76406939  0.36235472  0.32329670  1.0
  S  S21  1  0.76406939  0.13764528  0.32329670  1.0
  S  S22  1  0.26406939  0.36235472  0.17670330  1.0
  S  S23  1  0.26406939  0.13764528  0.17670330  1.0
  S  S24  1  0.44961907  0.87155017  0.34462335  1.0
  S  S25  1  0.44961907  0.62844983  0.34462335  1.0
  S  S26  1  0.94961907  0.87155017  0.15537665  1.0
  S  S27  1  0.94961907  0.62844983  0.15537665  1.0
  S  S28  1  0.55038093  0.37155017  0.65537665  1.0
  S  S29  1  0.55038093  0.12844983  0.65537665  1.0
  S  S30  1  0.05038093  0.37155017  0.84462335  1.0
  S  S31  1  0.05038093  0.12844983  0.84462335  1.0
