# generated using pymatgen
data_K2PtBr2(NO2)4
_symmetry_space_group_name_H-M   'P 1'
_cell_length_a   7.48793292
_cell_length_b   9.63463738
_cell_length_c   9.74104169
_cell_angle_alpha   90.00000000
_cell_angle_beta   119.05987850
_cell_angle_gamma   90.00000000
_symmetry_Int_Tables_number   1
_chemical_formula_structural   K2PtBr2(NO2)4
_chemical_formula_sum   'K4 Pt2 Br4 N8 O16'
_cell_volume   614.28524633
_cell_formula_units_Z   2
loop_
 _symmetry_equiv_pos_site_id
 _symmetry_equiv_pos_as_xyz
  1  'x, y, z'
loop_
 _atom_site_type_symbol
 _atom_site_label
 _atom_site_symmetry_multiplicity
 _atom_site_fract_x
 _atom_site_fract_y
 _atom_site_fract_z
 _atom_site_occupancy
  K  K0  1  0.67525953  0.96170094  0.34527554  1.0
  K  K1  1  0.67525953  0.53829906  0.84527554  1.0
  K  K2  1  0.32474047  0.46170094  0.15472446  1.0
  K  K3  1  0.32474047  0.03829906  0.65472446  1.0
  Pt  Pt4  1  0.00000000  0.50000000  0.50000000  1.0
  Pt  Pt5  1  0.00000000  -0.00000000  0.00000000  1.0
  Br  Br6  1  0.29999149  0.37626633  0.50973248  1.0
  Br  Br7  1  0.29999149  0.12373367  0.00973248  1.0
  Br  Br8  1  0.70000851  0.87626633  -0.00973248  1.0
  Br  Br9  1  0.70000851  0.62373367  0.49026752  1.0
  N  N10  1  0.88568895  0.96868638  0.75588129  1.0
  N  N11  1  0.88568895  0.53131362  0.25588129  1.0
  N  N12  1  0.11431105  0.46868638  0.74411871  1.0
  N  N13  1  0.11431105  0.03131362  0.24411871  1.0
  N  N14  1  0.85027841  0.30579535  0.46423431  1.0
  N  N15  1  0.85027841  0.19420465  0.96423431  1.0
  N  N16  1  0.14972159  0.80579535  0.03576569  1.0
  N  N17  1  0.14972159  0.69420465  0.53576569  1.0
  O  O18  1  1.00670474  0.56936249  0.21179172  1.0
  O  O19  1  1.00670474  -0.06936249  0.71179172  1.0
  O  O20  1  -0.00670474  1.06936249  0.28820828  1.0
  O  O21  1  -0.00670474  0.43063751  0.78820828  1.0
  O  O22  1  0.94791342  0.20857295  0.55049665  1.0
  O  O23  1  0.94791342  0.29142705  1.05049665  1.0
  O  O24  1  0.05208658  0.70857295  -0.05049665  1.0
  O  O25  1  0.05208658  0.79142705  0.44950335  1.0
  O  O26  1  0.67155689  0.29275519  0.35953063  1.0
  O  O27  1  0.67155689  0.20724481  0.85953063  1.0
  O  O28  1  0.32844311  0.79275519  0.14046937  1.0
  O  O29  1  0.32844311  0.70724481  0.64046937  1.0
  O  O30  1  0.29711245  0.01235157  0.33692435  1.0
  O  O31  1  0.29711245  0.48764843  0.83692435  1.0
  O  O32  1  0.70288755  0.51235157  0.16307565  1.0
  O  O33  1  0.70288755  0.98764843  0.66307565  1.0
