# generated using pymatgen
data_YAl3Ni
_symmetry_space_group_name_H-M   'P 1'
_cell_length_a   8.16120651
_cell_length_b   4.04933887
_cell_length_c   10.66117418
_cell_angle_alpha   90.00000000
_cell_angle_beta   90.00000000
_cell_angle_gamma   90.00000000
_symmetry_Int_Tables_number   1
_chemical_formula_structural   YAl3Ni
_chemical_formula_sum   'Y4 Al12 Ni4'
_cell_volume   352.32505519
_cell_formula_units_Z   4
loop_
 _symmetry_equiv_pos_site_id
 _symmetry_equiv_pos_as_xyz
  1  'x, y, z'
loop_
 _atom_site_type_symbol
 _atom_site_label
 _atom_site_symmetry_multiplicity
 _atom_site_fract_x
 _atom_site_fract_y
 _atom_site_fract_z
 _atom_site_occupancy
  Y  Y0  1  0.81424495  0.75000000  0.00890348  1.0
  Y  Y1  1  0.31424495  0.75000000  0.49109652  1.0
  Y  Y2  1  0.18575505  0.25000000  0.99109652  1.0
  Y  Y3  1  0.68575505  0.25000000  0.50890348  1.0
  Al  Al4  1  0.64398042  0.75000000  0.72196545  1.0
  Al  Al5  1  0.14398042  0.75000000  0.77803455  1.0
  Al  Al6  1  0.35601958  0.25000000  0.27803455  1.0
  Al  Al7  1  0.85601958  0.25000000  0.22196545  1.0
  Al  Al8  1  0.61448915  0.75000000  0.28624904  1.0
  Al  Al9  1  0.11448915  0.75000000  0.21375096  1.0
  Al  Al10  1  0.38551085  0.25000000  0.71375096  1.0
  Al  Al11  1  0.88551085  0.25000000  0.78624904  1.0
  Al  Al12  1  0.94456075  0.75000000  0.58343751  1.0
  Al  Al13  1  0.44456075  0.75000000  0.91656249  1.0
  Al  Al14  1  0.05543925  0.25000000  0.41656249  1.0
  Al  Al15  1  0.55543925  0.25000000  0.08343751  1.0
  Ni  Ni16  1  0.89395051  0.75000000  0.35695469  1.0
  Ni  Ni17  1  0.39395051  0.75000000  0.14304531  1.0
  Ni  Ni18  1  0.10604949  0.25000000  0.64304531  1.0
  Ni  Ni19  1  0.60604949  0.25000000  0.85695469  1.0
