# generated using pymatgen
data_YCrO3
_symmetry_space_group_name_H-M   'P 1'
_cell_length_a   5.57802748
_cell_length_b   7.58693996
_cell_length_c   5.26438046
_cell_angle_alpha   90.00000000
_cell_angle_beta   90.00000000
_cell_angle_gamma   90.00000000
_symmetry_Int_Tables_number   1
_chemical_formula_structural   YCrO3
_chemical_formula_sum   'Y4 Cr4 O12'
_cell_volume   222.78942105
_cell_formula_units_Z   4
loop_
 _symmetry_equiv_pos_site_id
 _symmetry_equiv_pos_as_xyz
  1  'x, y, z'
loop_
 _atom_site_type_symbol
 _atom_site_label
 _atom_site_symmetry_multiplicity
 _atom_site_fract_x
 _atom_site_fract_y
 _atom_site_fract_z
 _atom_site_occupancy
  Y  Y0  1  0.06934852  0.75000000  0.51933612  1.0
  Y  Y1  1  0.56934852  0.75000000  0.98066388  1.0
  Y  Y2  1  0.93065148  0.25000000  0.48066388  1.0
  Y  Y3  1  0.43065148  0.25000000  0.01933612  1.0
  Cr  Cr4  1  0.50000000  0.00000000  0.50000000  1.0
  Cr  Cr5  1  0.50000000  0.50000000  0.50000000  1.0
  Cr  Cr6  1  0.00000000  0.00000000  0.00000000  1.0
  Cr  Cr7  1  0.00000000  0.50000000  0.00000000  1.0
  O  O8  1  0.30268070  0.94367193  0.80758637  1.0
  O  O9  1  0.30268070  0.55632807  0.80758637  1.0
  O  O10  1  0.80268070  0.94367193  0.69241363  1.0
  O  O11  1  0.80268070  0.55632807  0.69241363  1.0
  O  O12  1  0.69731930  0.44367193  0.19241363  1.0
  O  O13  1  0.69731930  0.05632807  0.19241363  1.0
  O  O14  1  0.19731930  0.44367193  0.30758637  1.0
  O  O15  1  0.19731930  0.05632807  0.30758637  1.0
  O  O16  1  0.96156205  0.75000000  0.11014584  1.0
  O  O17  1  0.46156205  0.75000000  0.38985416  1.0
  O  O18  1  0.03843795  0.25000000  0.88985416  1.0
  O  O19  1  0.53843795  0.25000000  0.61014584  1.0
