# generated using pymatgen
data_RbCO
_symmetry_space_group_name_H-M   'P 1'
_cell_length_a   7.24008667
_cell_length_b   7.24008667
_cell_length_c   7.24008667
_cell_angle_alpha   146.31762276
_cell_angle_beta   146.31762276
_cell_angle_gamma   48.37522685
_symmetry_Int_Tables_number   1
_chemical_formula_structural   RbCO
_chemical_formula_sum   'Rb2 C2 O2'
_cell_volume   116.23641524
_cell_formula_units_Z   2
loop_
 _symmetry_equiv_pos_site_id
 _symmetry_equiv_pos_as_xyz
  1  'x, y, z'
loop_
 _atom_site_type_symbol
 _atom_site_label
 _atom_site_symmetry_multiplicity
 _atom_site_fract_x
 _atom_site_fract_y
 _atom_site_fract_z
 _atom_site_occupancy
  Rb  Rb0  1  0.64010244  0.64010244  1.00000000  1.0
  Rb  Rb1  1  0.35989756  0.35989756  0.00000000  1.0
  C  C2  1  0.95297344  0.95297344  1.00000000  1.0
  C  C3  1  0.04702656  0.04702656  0.00000000  1.0
  O  O4  1  0.85412551  0.85412551  1.00000000  1.0
  O  O5  1  0.14587449  0.14587449  0.00000000  1.0
