# generated using pymatgen
data_LuAlRh
_symmetry_space_group_name_H-M   'P 1'
_cell_length_a   6.73256885
_cell_length_b   4.18260648
_cell_length_c   7.88556838
_cell_angle_alpha   90.00000000
_cell_angle_beta   90.00000000
_cell_angle_gamma   90.00000000
_symmetry_Int_Tables_number   1
_chemical_formula_structural   LuAlRh
_chemical_formula_sum   'Lu4 Al4 Rh4'
_cell_volume   222.05513033
_cell_formula_units_Z   4
loop_
 _symmetry_equiv_pos_site_id
 _symmetry_equiv_pos_as_xyz
  1  'x, y, z'
loop_
 _atom_site_type_symbol
 _atom_site_label
 _atom_site_symmetry_multiplicity
 _atom_site_fract_x
 _atom_site_fract_y
 _atom_site_fract_z
 _atom_site_occupancy
  Lu  Lu0  1  0.96551591  0.75000000  0.67832548  1.0
  Lu  Lu1  1  0.46551591  0.75000000  0.82167452  1.0
  Lu  Lu2  1  0.03448409  0.25000000  0.32167452  1.0
  Lu  Lu3  1  0.53448409  0.25000000  0.17832548  1.0
  Al  Al4  1  0.86146273  0.75000000  0.05946782  1.0
  Al  Al5  1  0.36146273  0.75000000  0.44053218  1.0
  Al  Al6  1  0.13853727  0.25000000  0.94053218  1.0
  Al  Al7  1  0.63853727  0.25000000  0.55946782  1.0
  Rh  Rh8  1  0.73595897  0.75000000  0.37662413  1.0
  Rh  Rh9  1  0.23595897  0.75000000  0.12337587  1.0
  Rh  Rh10  1  0.26404103  0.25000000  0.62337587  1.0
  Rh  Rh11  1  0.76404103  0.25000000  0.87662413  1.0
