# generated using pymatgen
data_Fe(BMo)2
_symmetry_space_group_name_H-M   'P 1'
_cell_length_a   6.52258700
_cell_length_b   6.52258700
_cell_length_c   2.75763235
_cell_angle_alpha   90.00000000
_cell_angle_beta   90.00000000
_cell_angle_gamma   90.00000000
_symmetry_Int_Tables_number   1
_chemical_formula_structural   Fe(BMo)2
_chemical_formula_sum   'Fe2 B4 Mo4'
_cell_volume   117.32109974
_cell_formula_units_Z   2
loop_
 _symmetry_equiv_pos_site_id
 _symmetry_equiv_pos_as_xyz
  1  'x, y, z'
loop_
 _atom_site_type_symbol
 _atom_site_label
 _atom_site_symmetry_multiplicity
 _atom_site_fract_x
 _atom_site_fract_y
 _atom_site_fract_z
 _atom_site_occupancy
  Fe  Fe0  1  0.00000000  0.00000000  0.00000000  1.0
  Fe  Fe1  1  0.50000000  0.50000000  0.00000000  1.0
  B  B2  1  0.15883930  0.65883930  0.50000000  1.0
  B  B3  1  0.34116070  0.15883930  0.50000000  1.0
  B  B4  1  0.84116070  0.34116070  0.50000000  1.0
  B  B5  1  0.65883930  0.84116070  0.50000000  1.0
  Mo  Mo6  1  0.36297989  0.86297989  0.00000000  1.0
  Mo  Mo7  1  0.13702011  0.36297989  0.00000000  1.0
  Mo  Mo8  1  0.63702011  0.13702011  0.00000000  1.0
  Mo  Mo9  1  0.86297989  0.63702011  0.00000000  1.0
