# generated using pymatgen
data_ScBr3
_symmetry_space_group_name_H-M   'P 1'
_cell_length_a   8.09476493
_cell_length_b   8.09476493
_cell_length_c   8.09476493
_cell_angle_alpha   49.65343628
_cell_angle_beta   49.65343628
_cell_angle_gamma   49.65343628
_symmetry_Int_Tables_number   1
_chemical_formula_structural   ScBr3
_chemical_formula_sum   'Sc2 Br6'
_cell_volume   283.30724167
_cell_formula_units_Z   2
loop_
 _symmetry_equiv_pos_site_id
 _symmetry_equiv_pos_as_xyz
  1  'x, y, z'
loop_
 _atom_site_type_symbol
 _atom_site_label
 _atom_site_symmetry_multiplicity
 _atom_site_fract_x
 _atom_site_fract_y
 _atom_site_fract_z
 _atom_site_occupancy
  Sc  Sc0  1  0.16668322  0.16668322  0.16668322  1.0
  Sc  Sc1  1  0.83331678  -0.16668322  -0.16668322  1.0
  Br  Br2  1  0.42709101  0.06427223  -0.21003545  1.0
  Br  Br3  1  0.21003545  0.57290899  -0.06427223  1.0
  Br  Br4  1  0.93572777  0.21003545  -0.42709101  1.0
  Br  Br5  1  0.57290899  0.93572777  -0.78996455  1.0
  Br  Br6  1  0.78996455  -0.57290899  0.06427223  1.0
  Br  Br7  1  1.06427223  -0.21003545  -0.57290899  1.0
