# generated using pymatgen
data_CaSi(HO2)2
_symmetry_space_group_name_H-M   'P 1'
_cell_length_a   10.43808384
_cell_length_b   6.38533717
_cell_length_c   11.46759703
_cell_angle_alpha   64.37994915
_cell_angle_beta   33.47613720
_cell_angle_gamma   82.14391365
_symmetry_Int_Tables_number   1
_chemical_formula_structural   CaSi(HO2)2
_chemical_formula_sum   'Ca4 Si4 H8 O16'
_cell_volume   339.41000525
_cell_formula_units_Z   4
loop_
 _symmetry_equiv_pos_site_id
 _symmetry_equiv_pos_as_xyz
  1  'x, y, z'
loop_
 _atom_site_type_symbol
 _atom_site_label
 _atom_site_symmetry_multiplicity
 _atom_site_fract_x
 _atom_site_fract_y
 _atom_site_fract_z
 _atom_site_occupancy
  Ca  Ca0  1  0.41467662  0.58767807  0.23728677  1.0
  Ca  Ca1  1  1.01271323  0.48964146  -0.16467662  1.0
  Ca  Ca2  1  0.58767807  0.41467662  -0.23964146  1.0
  Ca  Ca3  1  0.48964146  1.01271323  -0.33767807  1.0
  Si  Si4  1  0.02100731  -0.02353879  0.84628709  1.0
  Si  Si5  1  0.40371291  0.09375561  0.22899269  1.0
  Si  Si6  1  -0.02353879  0.02100731  0.15624439  1.0
  Si  Si7  1  0.09375561  0.40371291  0.27353879  1.0
  H  H8  1  0.59560178  0.56147023  0.34542947  1.0
  H  H9  1  0.90457053  0.75250148  -0.34560178  1.0
  H  H10  1  0.56147023  0.59560178  -0.50250148  1.0
  H  H11  1  0.75250148  0.90457053  -0.31147023  1.0
  H  H12  1  0.41190217  0.06125225  0.45001221  1.0
  H  H13  1  0.79998779  1.17316662  -0.16190217  1.0
  H  H14  1  0.06125225  0.41190217  0.07683338  1.0
  H  H15  1  1.17316662  0.79998779  -0.81125225  1.0
  O  O16  1  0.05774631  0.24662909  0.69404054  1.0
  O  O17  1  0.55595946  0.24841593  0.19225369  1.0
  O  O18  1  0.24662909  0.05774631  0.00158407  1.0
  O  O19  1  0.24841593  0.55595946  0.00337091  1.0
  O  O20  1  -0.21076173  0.20748142  0.53542375  1.0
  O  O21  1  0.71457625  0.78214344  -0.53923827  1.0
  O  O22  1  0.20748142  -0.21076173  0.46785656  1.0
  O  O23  1  0.78214344  0.71457625  0.04251858  1.0
  O  O24  1  0.29377518  -0.06052615  0.63320049  1.0
  O  O25  1  0.61679951  0.11644952  -0.04377518  1.0
  O  O26  1  -0.06052615  0.29377518  0.13355048  1.0
  O  O27  1  0.11644952  0.61679951  0.31052615  1.0
  O  O28  1  0.99847196  -0.00152804  0.00152804  1.0
  O  O29  1  0.24847196  0.24847196  0.25152804  1.0
  O  O30  1  1.47653427  0.47653427  -0.47653427  1.0
  O  O31  1  0.72653427  0.72653427  -0.22653427  1.0
