# generated using pymatgen
data_Rb3H12N5
_symmetry_space_group_name_H-M   'P 1'
_cell_length_a   8.77761934
_cell_length_b   8.77761934
_cell_length_c   8.77761934
_cell_angle_alpha   109.47122063
_cell_angle_beta   109.47122063
_cell_angle_gamma   109.47122063
_symmetry_Int_Tables_number   1
_chemical_formula_structural   Rb3H12N5
_chemical_formula_sum   'Rb6 H24 N10'
_cell_volume   520.60500314
_cell_formula_units_Z   2
loop_
 _symmetry_equiv_pos_site_id
 _symmetry_equiv_pos_as_xyz
  1  'x, y, z'
loop_
 _atom_site_type_symbol
 _atom_site_label
 _atom_site_symmetry_multiplicity
 _atom_site_fract_x
 _atom_site_fract_y
 _atom_site_fract_z
 _atom_site_occupancy
  Rb  Rb0  1  1.16996715  0.91996715  1.25000000  1.0
  Rb  Rb1  1  0.25000000  1.16996715  0.91996715  1.0
  Rb  Rb2  1  0.75000000  1.33003285  0.58003285  1.0
  Rb  Rb3  1  0.91996715  0.25000000  1.16996715  1.0
  Rb  Rb4  1  0.58003285  0.75000000  0.33003285  1.0
  Rb  Rb5  1  0.33003285  0.58003285  0.75000000  1.0
  H  H6  1  0.83192288  0.97061599  0.76133298  1.0
  H  H7  1  0.70928300  1.07058990  0.73866702  1.0
  H  H8  1  0.76133298  0.83192288  0.97061599  1.0
  H  H9  1  0.36130690  0.79071700  0.52938401  1.0
  H  H10  1  0.97061599  0.76133298  0.83192288  1.0
  H  H11  1  1.42941010  1.13869310  1.66807712  1.0
  H  H12  1  0.79071700  0.52938401  0.36130690  1.0
  H  H13  1  1.66807712  1.42941010  1.13869310  1.0
  H  H14  1  1.13869310  0.66807712  1.42941010  1.0
  H  H15  1  0.73866702  0.70928300  0.07058990  1.0
  H  H16  1  0.07058990  0.73866702  0.70928300  1.0
  H  H17  1  1.52938401  1.36130690  1.79071700  1.0
  H  H18  1  1.45510098  1.37714019  1.32034849  1.0
  H  H19  1  1.55679170  1.13475249  1.17965151  1.0
  H  H20  1  1.32034849  1.45510098  1.37714019  1.0
  H  H21  1  1.57796079  0.94320830  1.12285981  1.0
  H  H22  1  1.37714019  1.32034849  1.45510098  1.0
  H  H23  1  1.36524751  0.92203921  1.04489902  1.0
  H  H24  1  0.94320830  1.12285981  0.57796079  1.0
  H  H25  1  1.04489902  0.36524751  0.92203921  1.0
  H  H26  1  0.92203921  1.04489902  0.36524751  1.0
  H  H27  1  1.17965151  0.55679170  1.13475249  1.0
  H  H28  1  1.13475249  1.17965151  1.55679170  1.0
  H  H29  1  1.12285981  1.57796079  0.94320830  1.0
  N  N30  1  1.34143197  1.34143197  1.34143197  1.0
  N  N31  1  1.50000000  1.00000000  1.15856803  1.0
  N  N32  1  1.00000000  1.15856803  1.50000000  1.0
  N  N33  1  1.15856803  0.50000000  1.00000000  1.0
  N  N34  1  1.66536281  1.41536281  1.25000000  1.0
  N  N35  1  0.25000000  0.66536281  0.41536281  1.0
  N  N36  1  0.75000000  0.83463719  0.08463719  1.0
  N  N37  1  1.41536281  1.25000000  1.66536281  1.0
  N  N38  1  0.08463719  0.75000000  0.83463719  1.0
  N  N39  1  0.83463719  1.08463719  0.75000000  1.0
