# generated using pymatgen
data_H2SO5
_symmetry_space_group_name_H-M   'P 1'
_cell_length_a   6.50493085
_cell_length_b   14.04998233
_cell_length_c   8.67769607
_cell_angle_alpha   90.00000000
_cell_angle_beta   90.00000000
_cell_angle_gamma   90.00000000
_symmetry_Int_Tables_number   1
_chemical_formula_structural   H2SO5
_chemical_formula_sum   'H16 S8 O40'
_cell_volume   793.09077275
_cell_formula_units_Z   8
loop_
 _symmetry_equiv_pos_site_id
 _symmetry_equiv_pos_as_xyz
  1  'x, y, z'
loop_
 _atom_site_type_symbol
 _atom_site_label
 _atom_site_symmetry_multiplicity
 _atom_site_fract_x
 _atom_site_fract_y
 _atom_site_fract_z
 _atom_site_occupancy
  H  H0  1  0.29557020  0.76656651  0.38487172  1.0
  H  H1  1  0.79557020  0.73343349  0.61512828  1.0
  H  H2  1  0.70442980  0.26656651  0.11512828  1.0
  H  H3  1  0.20442980  0.23343349  0.88487172  1.0
  H  H4  1  0.70442980  0.23343349  0.61512828  1.0
  H  H5  1  0.20442980  0.26656651  0.38487172  1.0
  H  H6  1  0.29557020  0.73343349  0.88487172  1.0
  H  H7  1  0.79557020  0.76656651  0.11512828  1.0
  H  H8  1  0.84572434  0.57715197  0.57855384  1.0
  H  H9  1  0.34572434  0.92284803  0.42144616  1.0
  H  H10  1  0.15427566  0.07715197  0.92144616  1.0
  H  H11  1  0.65427566  0.42284803  0.07855384  1.0
  H  H12  1  0.15427566  0.42284803  0.42144616  1.0
  H  H13  1  0.65427566  0.07715197  0.57855384  1.0
  H  H14  1  0.84572434  0.92284803  0.07855384  1.0
  H  H15  1  0.34572434  0.57715197  0.92144616  1.0
  S  S16  1  0.26438742  0.61864521  0.44829071  1.0
  S  S17  1  0.76438742  0.88135479  0.55170929  1.0
  S  S18  1  0.73561258  0.11864521  0.05170929  1.0
  S  S19  1  0.23561258  0.38135479  0.94829071  1.0
  S  S20  1  0.73561258  0.38135479  0.55170929  1.0
  S  S21  1  0.23561258  0.11864521  0.44829071  1.0
  S  S22  1  0.26438742  0.88135479  0.94829071  1.0
  S  S23  1  0.76438742  0.61864521  0.05170929  1.0
  O  O24  1  0.11043840  0.63807560  0.59662727  1.0
  O  O25  1  0.61043840  0.86192440  0.40337273  1.0
  O  O26  1  0.88956160  0.13807560  0.90337273  1.0
  O  O27  1  0.38956160  0.36192440  0.09662727  1.0
  O  O28  1  0.88956160  0.36192440  0.40337273  1.0
  O  O29  1  0.38956160  0.13807560  0.59662727  1.0
  O  O30  1  0.11043840  0.86192440  0.09662727  1.0
  O  O31  1  0.61043840  0.63807560  0.90337273  1.0
  O  O32  1  0.89675164  0.64126392  0.54411806  1.0
  O  O33  1  0.39675164  0.85873608  0.45588194  1.0
  O  O34  1  0.10324836  0.14126392  0.95588194  1.0
  O  O35  1  0.60324836  0.35873608  0.04411806  1.0
  O  O36  1  0.10324836  0.35873608  0.45588194  1.0
  O  O37  1  0.60324836  0.14126392  0.54411806  1.0
  O  O38  1  0.89675164  0.85873608  0.04411806  1.0
  O  O39  1  0.39675164  0.64126392  0.95588194  1.0
  O  O40  1  0.23150100  0.70531629  0.34081627  1.0
  O  O41  1  0.73150100  0.79468371  0.65918373  1.0
  O  O42  1  0.76849900  0.20531629  0.15918373  1.0
  O  O43  1  0.26849900  0.29468371  0.84081627  1.0
  O  O44  1  0.76849900  0.29468371  0.65918373  1.0
  O  O45  1  0.26849900  0.20531629  0.34081627  1.0
  O  O46  1  0.23150100  0.79468371  0.84081627  1.0
  O  O47  1  0.73150100  0.70531629  0.15918373  1.0
  O  O48  1  0.19170363  0.53696790  0.36300183  1.0
  O  O49  1  0.69170363  0.96303210  0.63699817  1.0
  O  O50  1  0.80829637  0.03696790  0.13699817  1.0
  O  O51  1  0.30829637  0.46303210  0.86300183  1.0
  O  O52  1  0.80829637  0.46303210  0.63699817  1.0
  O  O53  1  0.30829637  0.03696790  0.36300183  1.0
  O  O54  1  0.19170363  0.96303210  0.86300183  1.0
  O  O55  1  0.69170363  0.53696790  0.13699817  1.0
  O  O56  1  0.45984408  0.61934764  0.52528195  1.0
  O  O57  1  0.95984408  0.88065236  0.47471805  1.0
  O  O58  1  0.54015592  0.11934764  0.97471805  1.0
  O  O59  1  0.04015592  0.38065236  0.02528195  1.0
  O  O60  1  0.54015592  0.38065236  0.47471805  1.0
  O  O61  1  0.04015592  0.11934764  0.52528195  1.0
  O  O62  1  0.45984408  0.88065236  0.02528195  1.0
  O  O63  1  0.95984408  0.61934764  0.97471805  1.0
