# generated using pymatgen
data_Al5Rh2
_symmetry_space_group_name_H-M   'P 1'
_cell_length_a   7.94496295
_cell_length_b   7.94496295
_cell_length_c   7.89064804
_cell_angle_alpha   90.00000000
_cell_angle_beta   90.00000000
_cell_angle_gamma   120.00000000
_symmetry_Int_Tables_number   1
_chemical_formula_structural   Al5Rh2
_chemical_formula_sum   'Al20 Rh8'
_cell_volume   431.34727246
_cell_formula_units_Z   4
loop_
 _symmetry_equiv_pos_site_id
 _symmetry_equiv_pos_as_xyz
  1  'x, y, z'
loop_
 _atom_site_type_symbol
 _atom_site_label
 _atom_site_symmetry_multiplicity
 _atom_site_fract_x
 _atom_site_fract_y
 _atom_site_fract_z
 _atom_site_occupancy
  Al  Al0  1  0.52901739  0.47098261  0.25000000  1.0
  Al  Al1  1  0.52901739  0.05803478  0.25000000  1.0
  Al  Al2  1  0.47098261  0.52901739  0.75000000  1.0
  Al  Al3  1  0.47098261  0.94196522  0.75000000  1.0
  Al  Al4  1  0.94196522  0.47098261  0.25000000  1.0
  Al  Al5  1  0.05803478  0.52901739  0.75000000  1.0
  Al  Al6  1  0.19272820  0.80727180  0.44171316  1.0
  Al  Al7  1  0.19272820  0.80727180  0.05828684  1.0
  Al  Al8  1  0.19272820  0.38545641  0.44171316  1.0
  Al  Al9  1  0.19272820  0.38545641  0.05828684  1.0
  Al  Al10  1  0.80727180  0.19272820  0.94171316  1.0
  Al  Al11  1  0.80727180  0.19272820  0.55828684  1.0
  Al  Al12  1  0.80727180  0.61454359  0.94171316  1.0
  Al  Al13  1  0.80727180  0.61454359  0.55828684  1.0
  Al  Al14  1  0.61454359  0.80727180  0.44171316  1.0
  Al  Al15  1  0.61454359  0.80727180  0.05828684  1.0
  Al  Al16  1  0.38545641  0.19272820  0.94171316  1.0
  Al  Al17  1  0.38545641  0.19272820  0.55828684  1.0
  Al  Al18  1  0.00000000  0.00000000  0.50000000  1.0
  Al  Al19  1  0.00000000  0.00000000  0.00000000  1.0
  Rh  Rh20  1  0.87025284  0.12974716  0.25000000  1.0
  Rh  Rh21  1  0.87025284  0.74050569  0.25000000  1.0
  Rh  Rh22  1  0.12974716  0.87025284  0.75000000  1.0
  Rh  Rh23  1  0.12974716  0.25949431  0.75000000  1.0
  Rh  Rh24  1  0.25949431  0.12974716  0.25000000  1.0
  Rh  Rh25  1  0.74050569  0.87025284  0.75000000  1.0
  Rh  Rh26  1  0.33333333  0.66666667  0.25000000  1.0
  Rh  Rh27  1  0.66666667  0.33333333  0.75000000  1.0
