# generated using pymatgen
data_KNiPS4
_symmetry_space_group_name_H-M   'P 1'
_cell_length_a   8.39059388
_cell_length_b   8.39059388
_cell_length_c   11.13591110
_cell_angle_alpha   90.00000000
_cell_angle_beta   90.00000000
_cell_angle_gamma   90.00000000
_symmetry_Int_Tables_number   1
_chemical_formula_structural   KNiPS4
_chemical_formula_sum   'K4 Ni4 P4 S16'
_cell_volume   783.99114463
_cell_formula_units_Z   4
loop_
 _symmetry_equiv_pos_site_id
 _symmetry_equiv_pos_as_xyz
  1  'x, y, z'
loop_
 _atom_site_type_symbol
 _atom_site_label
 _atom_site_symmetry_multiplicity
 _atom_site_fract_x
 _atom_site_fract_y
 _atom_site_fract_z
 _atom_site_occupancy
  K  K0  1  0.50000000  0.00000000  0.25000000  1.0
  K  K1  1  0.50000000  0.00000000  0.75000000  1.0
  K  K2  1  0.00000000  0.50000000  0.75000000  1.0
  K  K3  1  0.00000000  0.50000000  0.25000000  1.0
  Ni  Ni4  1  0.50000000  0.50000000  0.00000000  1.0
  Ni  Ni5  1  0.00000000  0.00000000  0.50000000  1.0
  Ni  Ni6  1  0.50000000  0.50000000  0.50000000  1.0
  Ni  Ni7  1  0.00000000  0.00000000  0.00000000  1.0
  P  P8  1  0.25031739  0.74968261  0.50000000  1.0
  P  P9  1  0.75031739  0.75031739  0.00000000  1.0
  P  P10  1  0.74968261  0.25031739  0.50000000  1.0
  P  P11  1  0.24968261  0.24968261  0.00000000  1.0
  S  S12  1  0.36566830  0.63433170  0.36200634  1.0
  S  S13  1  0.36566830  0.63433170  0.63799366  1.0
  S  S14  1  0.86566830  0.86566830  0.86200634  1.0
  S  S15  1  0.86566830  0.86566830  0.13799366  1.0
  S  S16  1  0.63433170  0.36566830  0.36200634  1.0
  S  S17  1  0.63433170  0.36566830  0.63799366  1.0
  S  S18  1  0.13433170  0.13433170  0.86200634  1.0
  S  S19  1  0.13433170  0.13433170  0.13799366  1.0
  S  S20  1  0.26292045  0.99496294  0.50000000  1.0
  S  S21  1  0.76292045  0.50503706  0.00000000  1.0
  S  S22  1  0.00503706  0.73707955  0.50000000  1.0
  S  S23  1  0.50503706  0.76292045  0.00000000  1.0
  S  S24  1  0.73707955  0.00503706  0.50000000  1.0
  S  S25  1  0.23707955  0.49496294  0.00000000  1.0
  S  S26  1  0.99496294  0.26292045  0.50000000  1.0
  S  S27  1  0.49496294  0.23707955  0.00000000  1.0
