# generated using pymatgen
data_Nb6Co7
_symmetry_space_group_name_H-M   'P 1'
_cell_length_a   9.12060925
_cell_length_b   9.12060925
_cell_length_c   9.12060925
_cell_angle_alpha   30.92568216
_cell_angle_beta   30.92568216
_cell_angle_gamma   30.92568216
_symmetry_Int_Tables_number   1
_chemical_formula_structural   Nb6Co7
_chemical_formula_sum   'Nb6 Co7'
_cell_volume   177.74762443
_cell_formula_units_Z   1
loop_
 _symmetry_equiv_pos_site_id
 _symmetry_equiv_pos_as_xyz
  1  'x, y, z'
loop_
 _atom_site_type_symbol
 _atom_site_label
 _atom_site_symmetry_multiplicity
 _atom_site_fract_x
 _atom_site_fract_y
 _atom_site_fract_z
 _atom_site_occupancy
  Nb  Nb0  1  0.34361663  0.34361663  -0.65638337  1.0
  Nb  Nb1  1  0.65638337  0.65638337  -0.34361663  1.0
  Nb  Nb2  1  0.16491366  0.16491366  0.16491366  1.0
  Nb  Nb3  1  0.83508634  -0.16491366  -0.16491366  1.0
  Nb  Nb4  1  0.44900367  0.44900367  -0.55099633  1.0
  Nb  Nb5  1  0.55099633  0.55099633  -0.44900367  1.0
  Co  Co6  1  1.08931525  -0.40654689  0.08931525  1.0
  Co  Co7  1  1.08931525  0.08931525  -0.40654689  1.0
  Co  Co8  1  0.59345311  0.08931525  0.08931525  1.0
  Co  Co9  1  0.91068475  -0.59345311  -0.08931525  1.0
  Co  Co10  1  0.91068475  -0.08931525  -0.59345311  1.0
  Co  Co11  1  0.40654689  -0.08931525  -0.08931525  1.0
  Co  Co12  1  -0.00000000  0.00000000  -0.00000000  1.0
