# generated using pymatgen
data_MoN
_symmetry_space_group_name_H-M   'P 1'
_cell_length_a   6.17590936
_cell_length_b   6.17590936
_cell_length_c   7.55977489
_cell_angle_alpha   90.00000000
_cell_angle_beta   90.00000000
_cell_angle_gamma   120.00000000
_symmetry_Int_Tables_number   1
_chemical_formula_structural   MoN
_chemical_formula_sum   'Mo8 N8'
_cell_volume   249.71309783
_cell_formula_units_Z   8
loop_
 _symmetry_equiv_pos_site_id
 _symmetry_equiv_pos_as_xyz
  1  'x, y, z'
loop_
 _atom_site_type_symbol
 _atom_site_label
 _atom_site_symmetry_multiplicity
 _atom_site_fract_x
 _atom_site_fract_y
 _atom_site_fract_z
 _atom_site_occupancy
  Mo  Mo0  1  -0.00059555  0.49970222  0.17171253  1.0
  Mo  Mo1  1  0.49970222  -0.00059555  0.82828747  1.0
  Mo  Mo2  1  0.49970222  0.50029778  0.82828747  1.0
  Mo  Mo3  1  0.50029778  0.49970222  0.17171253  1.0
  Mo  Mo4  1  0.50029778  1.00059555  0.17171253  1.0
  Mo  Mo5  1  1.00059555  0.50029778  0.82828747  1.0
  Mo  Mo6  1  0.00000000  0.00000000  0.33655743  1.0
  Mo  Mo7  1  -0.00000000  -0.00000000  0.66344257  1.0
  N  N8  1  0.65173106  0.82586553  0.28650279  1.0
  N  N9  1  0.82586553  0.65173106  0.71349721  1.0
  N  N10  1  0.82586553  0.17413447  0.71349721  1.0
  N  N11  1  0.17413447  0.82586553  0.28650279  1.0
  N  N12  1  0.17413447  0.34826894  0.28650279  1.0
  N  N13  1  0.34826894  0.17413447  0.71349721  1.0
  N  N14  1  0.33333333  0.66666667  -0.04546482  1.0
  N  N15  1  0.66666667  0.33333333  0.04546482  1.0
