# generated using pymatgen
data_YTlTe2
_symmetry_space_group_name_H-M   'P 1'
_cell_length_a   8.57368176
_cell_length_b   8.57368176
_cell_length_c   8.57368176
_cell_angle_alpha   30.11910223
_cell_angle_beta   30.11910223
_cell_angle_gamma   30.11910223
_symmetry_Int_Tables_number   1
_chemical_formula_structural   YTlTe2
_chemical_formula_sum   'Y1 Tl1 Te2'
_cell_volume   140.59360657
_cell_formula_units_Z   1
loop_
 _symmetry_equiv_pos_site_id
 _symmetry_equiv_pos_as_xyz
  1  'x, y, z'
loop_
 _atom_site_type_symbol
 _atom_site_label
 _atom_site_symmetry_multiplicity
 _atom_site_fract_x
 _atom_site_fract_y
 _atom_site_fract_z
 _atom_site_occupancy
  Y  Y0  1  1.50000000  0.50000000  0.50000000  1.0
  Tl  Tl1  1  0.00000000  0.00000000  0.00000000  1.0
  Te  Te2  1  0.76226597  0.76226597  0.76226597  1.0
  Te  Te3  1  1.23773403  1.23773403  0.23773403  1.0
