# generated using pymatgen
data_ZrMnP
_symmetry_space_group_name_H-M   'P 1'
_cell_length_a   6.43968082
_cell_length_b   3.63401653
_cell_length_c   7.51434197
_cell_angle_alpha   90.00000000
_cell_angle_beta   90.00000000
_cell_angle_gamma   90.00000000
_symmetry_Int_Tables_number   1
_chemical_formula_structural   ZrMnP
_chemical_formula_sum   'Zr4 Mn4 P4'
_cell_volume   175.84992855
_cell_formula_units_Z   4
loop_
 _symmetry_equiv_pos_site_id
 _symmetry_equiv_pos_as_xyz
  1  'x, y, z'
loop_
 _atom_site_type_symbol
 _atom_site_label
 _atom_site_symmetry_multiplicity
 _atom_site_fract_x
 _atom_site_fract_y
 _atom_site_fract_z
 _atom_site_occupancy
  Zr  Zr0  1  0.96960504  0.75000000  0.67576019  1.0
  Zr  Zr1  1  0.46960504  0.75000000  0.82423981  1.0
  Zr  Zr2  1  0.03039496  0.25000000  0.32423981  1.0
  Zr  Zr3  1  0.53039496  0.25000000  0.17576019  1.0
  Mn  Mn4  1  0.86496554  0.75000000  0.05980031  1.0
  Mn  Mn5  1  0.36496554  0.75000000  0.44019969  1.0
  Mn  Mn6  1  0.13503446  0.25000000  0.94019969  1.0
  Mn  Mn7  1  0.63503446  0.25000000  0.55980031  1.0
  P  P8  1  0.73180763  0.75000000  0.37341000  1.0
  P  P9  1  0.23180763  0.75000000  0.12659000  1.0
  P  P10  1  0.26819237  0.25000000  0.62659000  1.0
  P  P11  1  0.76819237  0.25000000  0.87341000  1.0
