# generated using pymatgen
data_LaF3
_symmetry_space_group_name_H-M   'P 1'
_cell_length_a   7.27523642
_cell_length_b   7.27523642
_cell_length_c   7.18360512
_cell_angle_alpha   90.00000000
_cell_angle_beta   90.00000000
_cell_angle_gamma   120.00000000
_symmetry_Int_Tables_number   1
_chemical_formula_structural   LaF3
_chemical_formula_sum   'La6 F18'
_cell_volume   329.28147962
_cell_formula_units_Z   6
loop_
 _symmetry_equiv_pos_site_id
 _symmetry_equiv_pos_as_xyz
  1  'x, y, z'
loop_
 _atom_site_type_symbol
 _atom_site_label
 _atom_site_symmetry_multiplicity
 _atom_site_fract_x
 _atom_site_fract_y
 _atom_site_fract_z
 _atom_site_occupancy
  La  La0  1  0.67132517  0.67132517  0.00000000  1.0
  La  La1  1  0.67132517  0.00000000  0.50000000  1.0
  La  La2  1  0.00000000  0.67132517  0.50000000  1.0
  La  La3  1  -0.00000000  0.32867483  0.00000000  1.0
  La  La4  1  0.32867483  0.32867483  0.50000000  1.0
  La  La5  1  0.32867483  0.00000000  0.00000000  1.0
  F  F6  1  0.33333333  0.66666667  0.00005640  1.0
  F  F7  1  0.33333333  0.66666667  0.49994360  1.0
  F  F8  1  0.66666667  0.33333333  0.99994360  1.0
  F  F9  1  0.66666667  0.33333333  0.50005640  1.0
  F  F10  1  0.65630770  0.65625028  0.33302330  1.0
  F  F11  1  0.65630770  0.00005741  0.16697670  1.0
  F  F12  1  0.65625028  0.65630770  0.66697670  1.0
  F  F13  1  0.65625028  0.99994259  0.83302330  1.0
  F  F14  1  0.99994259  0.65625028  0.16697670  1.0
  F  F15  1  0.99994259  0.34369230  0.33302330  1.0
  F  F16  1  0.34374972  0.34369230  0.16697670  1.0
  F  F17  1  0.34374972  0.00005741  0.33302330  1.0
  F  F18  1  0.34369230  0.99994259  0.66697670  1.0
  F  F19  1  0.34369230  0.34374972  0.83302330  1.0
  F  F20  1  0.00005741  0.65630770  0.83302330  1.0
  F  F21  1  0.00005741  0.34374972  0.66697670  1.0
  F  F22  1  0.00000000  0.00000000  0.25000000  1.0
  F  F23  1  0.00000000  0.00000000  0.75000000  1.0
