# generated using pymatgen
data_SrAg2
_symmetry_space_group_name_H-M   'P 1'
_cell_length_a   6.19374571
_cell_length_b   6.19374571
_cell_length_c   6.19374571
_cell_angle_alpha   133.70634314
_cell_angle_beta   102.55068074
_cell_angle_gamma   95.26339641
_symmetry_Int_Tables_number   1
_chemical_formula_structural   SrAg2
_chemical_formula_sum   'Sr2 Ag4'
_cell_volume   157.50123634
_cell_formula_units_Z   2
loop_
 _symmetry_equiv_pos_site_id
 _symmetry_equiv_pos_as_xyz
  1  'x, y, z'
loop_
 _atom_site_type_symbol
 _atom_site_label
 _atom_site_symmetry_multiplicity
 _atom_site_fract_x
 _atom_site_fract_y
 _atom_site_fract_z
 _atom_site_occupancy
  Sr  Sr0  1  1.70694357  1.45694357  1.25000000  1.0
  Sr  Sr1  1  0.29305643  0.54305643  0.75000000  1.0
  Ag  Ag2  1  1.28345774  0.83672290  1.44673484  1.0
  Ag  Ag3  1  1.11001194  0.16327710  0.94673484  1.0
  Ag  Ag4  1  0.71654226  1.16327710  0.55326516  1.0
  Ag  Ag5  1  0.88998806  0.83672290  0.05326516  1.0
