# generated using pymatgen
data_CuH12N2(OF2)2
_symmetry_space_group_name_H-M   'P 1'
_cell_length_a   7.29970247
_cell_length_b   7.29970247
_cell_length_c   7.31217311
_cell_angle_alpha   73.65616118
_cell_angle_beta   106.34383882
_cell_angle_gamma   103.65882623
_symmetry_Int_Tables_number   1
_chemical_formula_structural   CuH12N2(OF2)2
_chemical_formula_sum   'Cu2 H24 N4 O4 F8'
_cell_volume   353.52986290
_cell_formula_units_Z   2
loop_
 _symmetry_equiv_pos_site_id
 _symmetry_equiv_pos_as_xyz
  1  'x, y, z'
loop_
 _atom_site_type_symbol
 _atom_site_label
 _atom_site_symmetry_multiplicity
 _atom_site_fract_x
 _atom_site_fract_y
 _atom_site_fract_z
 _atom_site_occupancy
  Cu  Cu0  1  0.70414792  0.70414792  0.75000000  1.0
  Cu  Cu1  1  0.29585208  0.29585208  0.25000000  1.0
  H  H2  1  0.39941118  0.11165922  0.61193137  1.0
  H  H3  1  0.88834078  0.60058882  0.11193137  1.0
  H  H4  1  1.11165922  -0.60058882  0.88806863  1.0
  H  H5  1  1.60058882  -0.11165922  0.38806863  1.0
  H  H6  1  0.67140087  0.04348710  0.89779647  1.0
  H  H7  1  0.95651290  0.32859913  0.39779647  1.0
  H  H8  1  1.04348710  -0.32859913  0.60220353  1.0
  H  H9  1  1.32859913  -0.04348710  0.10220353  1.0
  H  H10  1  0.72442536  0.21748035  0.40163971  1.0
  H  H11  1  0.78251965  0.27557464  0.90163971  1.0
  H  H12  1  1.21748035  -0.27557464  0.09836029  1.0
  H  H13  1  1.27557464  -0.21748035  0.59836029  1.0
  H  H14  1  1.34174728  -0.13834832  0.92132650  1.0
  H  H15  1  1.13834832  -0.34174728  0.42132650  1.0
  H  H16  1  0.86165168  0.34174728  0.57867350  1.0
  H  H17  1  0.65825272  0.13834832  0.07867350  1.0
  H  H18  1  1.12489252  -0.09465116  0.92233234  1.0
  H  H19  1  1.09465116  -0.12489252  0.42233234  1.0
  H  H20  1  0.90534884  0.12489252  0.57766766  1.0
  H  H21  1  0.87510748  0.09465116  0.07766766  1.0
  H  H22  1  1.33843730  -0.58997360  0.89296052  1.0
  H  H23  1  1.58997360  -0.33843730  0.39296052  1.0
  H  H24  1  0.41002640  0.33843730  0.60703948  1.0
  H  H25  1  0.66156270  0.58997360  0.10703948  1.0
  N  N26  1  0.74606273  0.13830530  0.98748494  1.0
  N  N27  1  0.86169470  0.25393727  0.48748494  1.0
  N  N28  1  1.13830530  -0.25393727  0.51251506  1.0
  N  N29  1  1.25393727  -0.13830530  0.01251506  1.0
  O  O30  1  1.23292552  -0.65686179  0.96297772  1.0
  O  O31  1  1.65686179  -0.23292552  0.46297772  1.0
  O  O32  1  0.34313821  0.23292552  0.53702228  1.0
  O  O33  1  0.76707448  0.65686179  0.03702228  1.0
  F  F34  1  1.47055190  -0.07958819  0.74340460  1.0
  F  F35  1  1.07958819  -0.47055190  0.24340460  1.0
  F  F36  1  0.92041181  0.47055190  0.75659540  1.0
  F  F37  1  0.52944810  0.07958819  0.25659540  1.0
  F  F38  1  0.91898379  0.91898379  0.75000000  1.0
  F  F39  1  0.08101621  0.08101621  0.25000000  1.0
  F  F40  1  0.48873012  0.48873012  0.75000000  1.0
  F  F41  1  0.51126988  0.51126988  0.25000000  1.0
