# generated using pymatgen
data_AlTlSe2
_symmetry_space_group_name_H-M   'P 1'
_cell_length_a   7.74295710
_cell_length_b   7.74295710
_cell_length_c   16.06031369
_cell_angle_alpha   83.29831765
_cell_angle_beta   96.70168235
_cell_angle_gamma   90.18620084
_symmetry_Int_Tables_number   1
_chemical_formula_structural   AlTlSe2
_chemical_formula_sum   'Al8 Tl8 Se16'
_cell_volume   949.70448631
_cell_formula_units_Z   8
loop_
 _symmetry_equiv_pos_site_id
 _symmetry_equiv_pos_as_xyz
  1  'x, y, z'
loop_
 _atom_site_type_symbol
 _atom_site_label
 _atom_site_symmetry_multiplicity
 _atom_site_fract_x
 _atom_site_fract_y
 _atom_site_fract_z
 _atom_site_occupancy
  Al  Al0  1  1.70989198  -0.08853252  0.83473246  1.0
  Al  Al1  1  1.08853252  -0.70989198  0.33473246  1.0
  Al  Al2  1  0.91146748  0.70989198  0.66526754  1.0
  Al  Al3  1  0.29010802  0.08853252  0.16526754  1.0
  Al  Al4  1  1.41883212  -0.29211711  0.66403305  1.0
  Al  Al5  1  1.29211711  -0.41883212  0.16403305  1.0
  Al  Al6  1  0.70788289  0.41883212  0.83596695  1.0
  Al  Al7  1  0.58116788  0.29211711  0.33596695  1.0
  Tl  Tl8  1  0.65617363  0.17506970  0.61654623  1.0
  Tl  Tl9  1  0.82493030  0.34382637  0.11654623  1.0
  Tl  Tl10  1  1.17506970  -0.34382637  0.88345377  1.0
  Tl  Tl11  1  1.34382637  -0.17506970  0.38345377  1.0
  Tl  Tl12  1  0.27712844  0.15321270  0.89455954  1.0
  Tl  Tl13  1  0.84678730  0.72287156  0.39455954  1.0
  Tl  Tl14  1  1.15321270  -0.72287156  0.60544046  1.0
  Tl  Tl15  1  1.72287156  -0.15321270  0.10544046  1.0
  Se  Se16  1  1.64361032  -0.25363711  0.57086252  1.0
  Se  Se17  1  1.25363711  -0.64361032  0.07086252  1.0
  Se  Se18  1  0.74636289  0.64361032  0.92913748  1.0
  Se  Se19  1  0.35638968  0.25363711  0.42913748  1.0
  Se  Se20  1  0.71474093  0.14256162  0.92552196  1.0
  Se  Se21  1  0.85743838  0.28525907  0.42552196  1.0
  Se  Se22  1  1.14256162  -0.28525907  0.57447804  1.0
  Se  Se23  1  1.28525907  -0.14256162  0.07447804  1.0
  Se  Se24  1  1.43086601  -0.05569076  0.74939163  1.0
  Se  Se25  1  1.05569076  -0.43086601  0.24939163  1.0
  Se  Se26  1  0.94430924  0.43086601  0.75060837  1.0
  Se  Se27  1  0.56913399  0.05569076  0.25060837  1.0
  Se  Se28  1  0.94896968  0.94896968  0.75000000  1.0
  Se  Se29  1  0.05103032  0.05103032  0.25000000  1.0
  Se  Se30  1  0.43158978  0.43158978  0.75000000  1.0
  Se  Se31  1  0.56841022  0.56841022  0.25000000  1.0
