# generated using pymatgen
data_Mn2GeTe4
_symmetry_space_group_name_H-M   'P 1'
_cell_length_a   13.86681014
_cell_length_b   8.07104484
_cell_length_c   7.10450625
_cell_angle_alpha   90.00000000
_cell_angle_beta   90.00000000
_cell_angle_gamma   90.00000000
_symmetry_Int_Tables_number   1
_chemical_formula_structural   Mn2GeTe4
_chemical_formula_sum   'Mn8 Ge4 Te16'
_cell_volume   795.13382746
_cell_formula_units_Z   4
loop_
 _symmetry_equiv_pos_site_id
 _symmetry_equiv_pos_as_xyz
  1  'x, y, z'
loop_
 _atom_site_type_symbol
 _atom_site_label
 _atom_site_symmetry_multiplicity
 _atom_site_fract_x
 _atom_site_fract_y
 _atom_site_fract_z
 _atom_site_occupancy
  Mn  Mn0  1  0.76324913  0.25000000  0.48743141  1.0
  Mn  Mn1  1  0.26324913  0.25000000  1.01256859  1.0
  Mn  Mn2  1  0.23675087  0.75000000  0.51256859  1.0
  Mn  Mn3  1  0.73675087  0.75000000  -0.01256859  1.0
  Mn  Mn4  1  0.00000000  0.50000000  0.00000000  1.0
  Mn  Mn5  1  0.00000000  0.00000000  -0.00000000  1.0
  Mn  Mn6  1  0.50000000  0.50000000  0.50000000  1.0
  Mn  Mn7  1  0.50000000  0.00000000  0.50000000  1.0
  Ge  Ge8  1  0.58840803  0.25000000  0.08512645  1.0
  Ge  Ge9  1  0.08840803  0.25000000  0.41487355  1.0
  Ge  Ge10  1  0.41159197  0.75000000  0.91487355  1.0
  Ge  Ge11  1  0.91159197  0.75000000  0.58512645  1.0
  Te  Te12  1  0.66956396  0.51044848  0.27460426  1.0
  Te  Te13  1  0.66956396  -0.01044848  0.27460426  1.0
  Te  Te14  1  0.16956396  0.51044848  0.22539574  1.0
  Te  Te15  1  0.16956396  -0.01044848  0.22539574  1.0
  Te  Te16  1  0.33043604  1.01044848  0.72539574  1.0
  Te  Te17  1  0.33043604  0.48955152  0.72539574  1.0
  Te  Te18  1  0.83043604  1.01044848  0.77460426  1.0
  Te  Te19  1  0.83043604  0.48955152  0.77460426  1.0
  Te  Te20  1  0.91521267  0.25000000  0.23161553  1.0
  Te  Te21  1  0.41521267  0.25000000  0.26838447  1.0
  Te  Te22  1  0.08478733  0.75000000  0.76838447  1.0
  Te  Te23  1  0.58478733  0.75000000  0.73161553  1.0
  Te  Te24  1  0.59037220  0.25000000  0.68189608  1.0
  Te  Te25  1  0.09037220  0.25000000  0.81810392  1.0
  Te  Te26  1  0.40962780  0.75000000  0.31810392  1.0
  Te  Te27  1  0.90962780  0.75000000  0.18189608  1.0
