# generated using pymatgen
data_Ca2NiSn2
_symmetry_space_group_name_H-M   'P 1'
_cell_length_a   4.62356292
_cell_length_b   9.87560782
_cell_length_c   11.04347852
_cell_angle_alpha   90.00000000
_cell_angle_beta   90.00000000
_cell_angle_gamma   90.00000000
_symmetry_Int_Tables_number   1
_chemical_formula_structural   Ca2NiSn2
_chemical_formula_sum   'Ca8 Ni4 Sn8'
_cell_volume   504.25068580
_cell_formula_units_Z   4
loop_
 _symmetry_equiv_pos_site_id
 _symmetry_equiv_pos_as_xyz
  1  'x, y, z'
loop_
 _atom_site_type_symbol
 _atom_site_label
 _atom_site_symmetry_multiplicity
 _atom_site_fract_x
 _atom_site_fract_y
 _atom_site_fract_z
 _atom_site_occupancy
  Ca  Ca0  1  0.00000000  0.69000149  0.13509018  1.0
  Ca  Ca1  1  0.00000000  0.30999851  0.13509018  1.0
  Ca  Ca2  1  0.50000000  0.19000149  0.86490982  1.0
  Ca  Ca3  1  0.50000000  0.80999851  0.86490982  1.0
  Ca  Ca4  1  0.00000000  0.50000000  0.44880051  1.0
  Ca  Ca5  1  0.50000000  0.00000000  0.55119949  1.0
  Ca  Ca6  1  0.00000000  0.50000000  0.78134065  1.0
  Ca  Ca7  1  0.50000000  0.00000000  0.21865935  1.0
  Ni  Ni8  1  0.00000000  0.23243956  0.63346940  1.0
  Ni  Ni9  1  0.00000000  0.76756044  0.63346940  1.0
  Ni  Ni10  1  0.50000000  0.73243956  0.36653060  1.0
  Ni  Ni11  1  0.50000000  0.26756044  0.36653060  1.0
  Sn  Sn12  1  0.00000000  0.16145097  0.39761956  1.0
  Sn  Sn13  1  0.00000000  0.83854903  0.39761956  1.0
  Sn  Sn14  1  0.50000000  0.66145097  0.60238044  1.0
  Sn  Sn15  1  0.50000000  0.33854903  0.60238044  1.0
  Sn  Sn16  1  0.00000000  0.00000000  0.01095370  1.0
  Sn  Sn17  1  0.50000000  0.50000000  0.98904630  1.0
  Sn  Sn18  1  0.00000000  0.00000000  0.74289970  1.0
  Sn  Sn19  1  0.50000000  0.50000000  0.25710030  1.0
