# generated using pymatgen
data_Rb3TiF7
_symmetry_space_group_name_H-M   'P 1'
_cell_length_a   8.31926203
_cell_length_b   8.31926203
_cell_length_c   6.04346612
_cell_angle_alpha   90.00000000
_cell_angle_beta   90.00000000
_cell_angle_gamma   90.00000000
_symmetry_Int_Tables_number   1
_chemical_formula_structural   Rb3TiF7
_chemical_formula_sum   'Rb6 Ti2 F14'
_cell_volume   418.26901993
_cell_formula_units_Z   2
loop_
 _symmetry_equiv_pos_site_id
 _symmetry_equiv_pos_as_xyz
  1  'x, y, z'
loop_
 _atom_site_type_symbol
 _atom_site_label
 _atom_site_symmetry_multiplicity
 _atom_site_fract_x
 _atom_site_fract_y
 _atom_site_fract_z
 _atom_site_occupancy
  Rb  Rb0  1  0.30634573  0.19365427  0.50000000  1.0
  Rb  Rb1  1  0.80634573  0.30634573  0.50000000  1.0
  Rb  Rb2  1  0.69365427  0.80634573  0.50000000  1.0
  Rb  Rb3  1  0.19365427  0.69365427  0.50000000  1.0
  Rb  Rb4  1  0.50000000  0.50000000  0.00000000  1.0
  Rb  Rb5  1  0.00000000  0.00000000  0.00000000  1.0
  Ti  Ti6  1  0.50000000  0.00000000  0.00000000  1.0
  Ti  Ti7  1  0.00000000  0.50000000  0.00000000  1.0
  F  F8  1  0.88853305  0.61146695  0.77544032  1.0
  F  F9  1  0.88853305  0.61146695  0.22455968  1.0
  F  F10  1  0.38853305  0.88853305  0.77544032  1.0
  F  F11  1  0.38853305  0.88853305  0.22455968  1.0
  F  F12  1  0.11146695  0.38853305  0.77544032  1.0
  F  F13  1  0.11146695  0.38853305  0.22455968  1.0
  F  F14  1  0.61146695  0.11146695  0.77544032  1.0
  F  F15  1  0.61146695  0.11146695  0.22455968  1.0
  F  F16  1  0.33955069  0.16044931  0.00000000  1.0
  F  F17  1  0.83955069  0.33955069  0.00000000  1.0
  F  F18  1  0.66044931  0.83955069  0.00000000  1.0
  F  F19  1  0.16044931  0.66044931  0.00000000  1.0
  F  F20  1  0.50000000  0.50000000  0.50000000  1.0
  F  F21  1  0.00000000  0.00000000  0.50000000  1.0
