# generated using pymatgen
data_MnP4
_symmetry_space_group_name_H-M   'P 1'
_cell_length_a   16.36250467
_cell_length_b   5.85446037
_cell_length_c   5.11349221
_cell_angle_alpha   115.61395188
_cell_angle_beta   95.16797386
_cell_angle_gamma   89.26131898
_symmetry_Int_Tables_number   1
_chemical_formula_structural   MnP4
_chemical_formula_sum   'Mn6 P24'
_cell_volume   439.72145426
_cell_formula_units_Z   6
loop_
 _symmetry_equiv_pos_site_id
 _symmetry_equiv_pos_as_xyz
  1  'x, y, z'
loop_
 _atom_site_type_symbol
 _atom_site_label
 _atom_site_symmetry_multiplicity
 _atom_site_fract_x
 _atom_site_fract_y
 _atom_site_fract_z
 _atom_site_occupancy
  Mn  Mn0  1  0.59369108  0.68265348  -0.99855359  1.0
  Mn  Mn1  1  0.40630892  0.31734652  -0.00144641  1.0
  Mn  Mn2  1  0.92475262  0.61991568  -0.37092792  1.0
  Mn  Mn3  1  0.07524738  0.38008432  -0.62907208  1.0
  Mn  Mn4  1  0.74117535  0.94959609  -0.00876307  1.0
  Mn  Mn5  1  0.25882465  0.05040391  -0.99123693  1.0
  P  P6  1  0.88342829  0.92808028  -0.93535659  1.0
  P  P7  1  0.11657171  0.07191972  -0.06464341  1.0
  P  P8  1  0.54860682  0.36580143  -0.88313062  1.0
  P  P9  1  0.45139318  0.63419857  -0.11686938  1.0
  P  P10  1  0.72749730  0.64148575  -0.86580532  1.0
  P  P11  1  0.27250270  0.35851425  -0.13419468  1.0
  P  P12  1  0.23022901  0.74831747  -0.84458831  1.0
  P  P13  1  0.76977099  0.25168253  -0.15541169  1.0
  P  P14  1  0.94410303  0.30865368  -0.80817367  1.0
  P  P15  1  0.05589697  0.69134632  -0.19182633  1.0
  P  P16  1  0.10020678  0.67416652  -0.78227103  1.0
  P  P17  1  0.89979322  0.32583348  -0.21772897  1.0
  P  P18  1  0.72646573  0.25857087  -0.57411531  1.0
  P  P19  1  0.27353427  0.74142913  -0.42588469  1.0
  P  P20  1  0.56557004  0.97272573  -0.55708565  1.0
  P  P21  1  0.43442996  0.02727427  -0.44291435  1.0
  P  P22  1  0.40021098  0.62045641  -0.54768450  1.0
  P  P23  1  0.59978902  0.37954359  -0.45231550  1.0
  P  P24  1  0.93503768  0.92717953  -0.51233071  1.0
  P  P25  1  0.06496232  0.07282047  -0.48766929  1.0
  P  P26  1  0.78093226  0.64780768  -0.44325817  1.0
  P  P27  1  0.21906774  0.35219232  -0.55674183  1.0
  P  P28  1  0.60994267  0.99536530  -0.12847720  1.0
  P  P29  1  0.39005733  0.00463470  -0.87152280  1.0
