# generated using pymatgen
data_NaCaAsO4
_symmetry_space_group_name_H-M   'P 1'
_cell_length_a   5.54960915
_cell_length_b   5.54960915
_cell_length_c   7.24488943
_cell_angle_alpha   90.00000000
_cell_angle_beta   90.00000000
_cell_angle_gamma   115.41509149
_symmetry_Int_Tables_number   1
_chemical_formula_structural   NaCaAsO4
_chemical_formula_sum   'Na2 Ca2 As2 O8'
_cell_volume   201.53533368
_cell_formula_units_Z   2
loop_
 _symmetry_equiv_pos_site_id
 _symmetry_equiv_pos_as_xyz
  1  'x, y, z'
loop_
 _atom_site_type_symbol
 _atom_site_label
 _atom_site_symmetry_multiplicity
 _atom_site_fract_x
 _atom_site_fract_y
 _atom_site_fract_z
 _atom_site_occupancy
  Na  Na0  1  -0.32216247  1.32216247  0.25000000  1.0
  Na  Na1  1  0.32216247  0.67783753  0.75000000  1.0
  Ca  Ca2  1  0.00000000  0.00000000  0.50000000  1.0
  Ca  Ca3  1  0.00000000  0.00000000  0.00000000  1.0
  As  As4  1  0.34764762  0.65235238  0.25000000  1.0
  As  As5  1  -0.34764762  1.34764762  0.75000000  1.0
  O  O6  1  0.22408538  0.30238963  0.25000000  1.0
  O  O7  1  -0.69761037  1.22408538  0.75000000  1.0
  O  O8  1  0.69761037  0.77591462  0.25000000  1.0
  O  O9  1  -0.22408538  1.69761037  0.75000000  1.0
  O  O10  1  0.24266840  0.75733160  0.44439329  1.0
  O  O11  1  0.24266840  0.75733160  0.05560671  1.0
  O  O12  1  -0.24266840  1.24266840  0.94439329  1.0
  O  O13  1  -0.24266840  1.24266840  0.55560671  1.0
