# generated using pymatgen
data_K2NClO3
_symmetry_space_group_name_H-M   'P 1'
_cell_length_a   7.79537555
_cell_length_b   5.77295045
_cell_length_c   10.26514858
_cell_angle_alpha   90.00000000
_cell_angle_beta   90.00000000
_cell_angle_gamma   90.00000000
_symmetry_Int_Tables_number   1
_chemical_formula_structural   K2NClO3
_chemical_formula_sum   'K8 N4 Cl4 O12'
_cell_volume   461.95546858
_cell_formula_units_Z   4
loop_
 _symmetry_equiv_pos_site_id
 _symmetry_equiv_pos_as_xyz
  1  'x, y, z'
loop_
 _atom_site_type_symbol
 _atom_site_label
 _atom_site_symmetry_multiplicity
 _atom_site_fract_x
 _atom_site_fract_y
 _atom_site_fract_z
 _atom_site_occupancy
  K  K0  1  0.02316020  0.75000000  0.69330636  1.0
  K  K1  1  0.52316020  0.75000000  0.80669364  1.0
  K  K2  1  0.97683980  0.25000000  0.30669364  1.0
  K  K3  1  0.47683980  0.25000000  0.19330636  1.0
  K  K4  1  0.83459579  0.75000000  0.09678683  1.0
  K  K5  1  0.33459579  0.75000000  0.40321317  1.0
  K  K6  1  0.16540421  0.25000000  0.90321317  1.0
  K  K7  1  0.66540421  0.25000000  0.59678683  1.0
  N  N8  1  0.95591563  0.75000000  0.40136910  1.0
  N  N9  1  0.45591563  0.75000000  0.09863090  1.0
  N  N10  1  0.04408437  0.25000000  0.59863090  1.0
  N  N11  1  0.54408437  0.25000000  0.90136910  1.0
  Cl  Cl12  1  0.77279691  0.75000000  0.42350872  1.0
  Cl  Cl13  1  0.27279691  0.75000000  0.07649128  1.0
  Cl  Cl14  1  0.22720309  0.25000000  0.57649128  1.0
  Cl  Cl15  1  0.72720309  0.25000000  0.92350872  1.0
  O  O16  1  0.67715625  0.95987268  0.36658777  1.0
  O  O17  1  0.67715625  0.54012732  0.36658777  1.0
  O  O18  1  0.17715625  0.95987268  0.13341223  1.0
  O  O19  1  0.17715625  0.54012732  0.13341223  1.0
  O  O20  1  0.32284375  0.45987268  0.63341223  1.0
  O  O21  1  0.32284375  0.04012732  0.63341223  1.0
  O  O22  1  0.82284375  0.45987268  0.86658777  1.0
  O  O23  1  0.82284375  0.04012732  0.86658777  1.0
  O  O24  1  0.71504564  0.75000000  0.56742858  1.0
  O  O25  1  0.21504564  0.75000000  0.93257142  1.0
  O  O26  1  0.28495436  0.25000000  0.43257142  1.0
  O  O27  1  0.78495436  0.25000000  0.06742858  1.0
