# generated using pymatgen
data_InCl3
_symmetry_space_group_name_H-M   'P 1'
_cell_length_a   6.58762662
_cell_length_b   6.58762662
_cell_length_c   7.06721176
_cell_angle_alpha   81.21560676
_cell_angle_beta   98.78439324
_cell_angle_gamma   60.00440947
_symmetry_Int_Tables_number   1
_chemical_formula_structural   InCl3
_chemical_formula_sum   'In2 Cl6'
_cell_volume   252.92588816
_cell_formula_units_Z   2
loop_
 _symmetry_equiv_pos_site_id
 _symmetry_equiv_pos_as_xyz
  1  'x, y, z'
loop_
 _atom_site_type_symbol
 _atom_site_label
 _atom_site_symmetry_multiplicity
 _atom_site_fract_x
 _atom_site_fract_y
 _atom_site_fract_z
 _atom_site_occupancy
  In  In0  1  0.83343432  -0.16656568  -0.00000000  1.0
  In  In1  1  1.16656568  0.16656568  -0.00000000  1.0
  Cl  Cl2  1  0.42907224  -0.06701972  0.78308774  1.0
  Cl  Cl3  1  1.06701972  0.57092776  0.78308774  1.0
  Cl  Cl4  1  0.93298028  -0.57092776  0.21691226  1.0
  Cl  Cl5  1  1.57092776  0.06701972  0.21691226  1.0
  Cl  Cl6  1  0.79156030  -0.79156030  0.78225567  1.0
  Cl  Cl7  1  0.20843970  -0.20843970  0.21774433  1.0
