# generated using pymatgen
data_Eu4Rh
_symmetry_space_group_name_H-M   'P 1'
_cell_length_a   8.08980491
_cell_length_b   8.08980491
_cell_length_c   8.08980491
_cell_angle_alpha   60.00000000
_cell_angle_beta   60.00000000
_cell_angle_gamma   60.00000000
_symmetry_Int_Tables_number   1
_chemical_formula_structural   Eu4Rh
_chemical_formula_sum   'Eu8 Rh2'
_cell_volume   374.36836901
_cell_formula_units_Z   2
loop_
 _symmetry_equiv_pos_site_id
 _symmetry_equiv_pos_as_xyz
  1  'x, y, z'
loop_
 _atom_site_type_symbol
 _atom_site_label
 _atom_site_symmetry_multiplicity
 _atom_site_fract_x
 _atom_site_fract_y
 _atom_site_fract_z
 _atom_site_occupancy
  Eu  Eu0  1  -0.11611808  0.88388192  0.34835423  1.0
  Eu  Eu1  1  0.88388192  -0.65164577  0.88388192  1.0
  Eu  Eu2  1  0.36611808  0.36611808  0.36611808  1.0
  Eu  Eu3  1  -0.09835423  0.36611808  0.36611808  1.0
  Eu  Eu4  1  -0.65164577  0.88388192  0.88388192  1.0
  Eu  Eu5  1  0.88388192  -0.11611808  0.88388192  1.0
  Eu  Eu6  1  0.36611808  -0.09835423  0.36611808  1.0
  Eu  Eu7  1  0.36611808  0.36611808  -0.09835423  1.0
  Rh  Rh8  1  0.50000000  0.50000000  -0.50000000  1.0
  Rh  Rh9  1  0.75000000  -0.25000000  0.75000000  1.0
