# generated using pymatgen
data_AlH12(ClO2)3
_symmetry_space_group_name_H-M   'P 1'
_cell_length_a   7.96608518
_cell_length_b   7.96608518
_cell_length_c   7.96608518
_cell_angle_alpha   92.95971415
_cell_angle_beta   92.95971415
_cell_angle_gamma   92.95971415
_symmetry_Int_Tables_number   1
_chemical_formula_structural   AlH12(ClO2)3
_chemical_formula_sum   'Al2 H24 Cl6 O12'
_cell_volume   503.42039370
_cell_formula_units_Z   2
loop_
 _symmetry_equiv_pos_site_id
 _symmetry_equiv_pos_as_xyz
  1  'x, y, z'
loop_
 _atom_site_type_symbol
 _atom_site_label
 _atom_site_symmetry_multiplicity
 _atom_site_fract_x
 _atom_site_fract_y
 _atom_site_fract_z
 _atom_site_occupancy
  Al  Al0  1  0.50000000  0.50000000  0.50000000  1.0
  Al  Al1  1  0.00000000  0.00000000  0.00000000  1.0
  H  H2  1  1.29112345  -0.45437462  0.24691311  1.0
  H  H3  1  0.79112345  0.74691311  0.04562538  1.0
  H  H4  1  1.25308689  -0.04562538  0.20887655  1.0
  H  H5  1  0.75308689  0.70887655  0.45437462  1.0
  H  H6  1  1.45437462  0.75308689  -0.29112345  1.0
  H  H7  1  0.95437462  0.20887655  0.25308689  1.0
  H  H8  1  0.70887655  1.45437462  -0.24691311  1.0
  H  H9  1  1.20887655  0.25308689  -0.04562538  1.0
  H  H10  1  1.24691311  0.29112345  -0.45437462  1.0
  H  H11  1  0.74691311  1.04562538  -0.20887655  1.0
  H  H12  1  1.04562538  0.79112345  -0.25308689  1.0
  H  H13  1  0.54562538  0.24691311  0.29112345  1.0
  H  H14  1  1.20895120  0.61952725  -0.58247822  1.0
  H  H15  1  0.70895120  0.91752178  0.11952725  1.0
  H  H16  1  1.08247822  -0.11952725  0.29104880  1.0
  H  H17  1  1.58247822  -0.20895120  0.38047275  1.0
  H  H18  1  1.38047275  0.58247822  -0.20895120  1.0
  H  H19  1  0.88047275  0.29104880  0.08247822  1.0
  H  H20  1  0.79104880  0.38047275  0.58247822  1.0
  H  H21  1  1.29104880  0.08247822  -0.11952725  1.0
  H  H22  1  0.41752178  1.20895120  -0.38047275  1.0
  H  H23  1  0.91752178  1.11952725  -0.29104880  1.0
  H  H24  1  1.11952725  0.70895120  -0.08247822  1.0
  H  H25  1  0.61952725  0.41752178  0.20895120  1.0
  Cl  Cl26  1  0.99204160  0.25000000  0.50795840  1.0
  Cl  Cl27  1  0.49204160  1.00795840  -0.25000000  1.0
  Cl  Cl28  1  0.75000000  0.49204160  0.00795840  1.0
  Cl  Cl29  1  1.25000000  0.50795840  -0.00795840  1.0
  Cl  Cl30  1  1.00795840  0.75000000  -0.50795840  1.0
  Cl  Cl31  1  1.50795840  -0.00795840  0.25000000  1.0
  O  O32  1  1.30992137  -0.43207135  0.37140721  1.0
  O  O33  1  0.80992137  0.87140721  0.06792865  1.0
  O  O34  1  1.12859279  -0.06792865  0.19007863  1.0
  O  O35  1  0.62859279  0.69007863  0.43207135  1.0
  O  O36  1  1.43207135  0.62859279  -0.30992137  1.0
  O  O37  1  0.93207135  0.19007863  0.12859279  1.0
  O  O38  1  0.69007863  1.43207135  -0.37140721  1.0
  O  O39  1  1.19007863  0.12859279  -0.06792865  1.0
  O  O40  1  1.37140721  0.30992137  -0.43207135  1.0
  O  O41  1  0.87140721  1.06792865  -0.19007863  1.0
  O  O42  1  1.06792865  0.80992137  -0.12859279  1.0
  O  O43  1  0.56792865  0.37140721  0.30992137  1.0
