# generated using pymatgen
data_BaSO2
_symmetry_space_group_name_H-M   'P 1'
_cell_length_a   10.97975751
_cell_length_b   4.48178299
_cell_length_c   6.88286531
_cell_angle_alpha   90.00000000
_cell_angle_beta   90.00000000
_cell_angle_gamma   90.00000000
_symmetry_Int_Tables_number   1
_chemical_formula_structural   BaSO2
_chemical_formula_sum   'Ba4 S4 O8'
_cell_volume   338.69816478
_cell_formula_units_Z   4
loop_
 _symmetry_equiv_pos_site_id
 _symmetry_equiv_pos_as_xyz
  1  'x, y, z'
loop_
 _atom_site_type_symbol
 _atom_site_label
 _atom_site_symmetry_multiplicity
 _atom_site_fract_x
 _atom_site_fract_y
 _atom_site_fract_z
 _atom_site_occupancy
  Ba  Ba0  1  0.63725226  0.25000000  0.19418804  1.0
  Ba  Ba1  1  0.13725226  0.25000000  0.30581196  1.0
  Ba  Ba2  1  0.36274774  0.75000000  0.80581196  1.0
  Ba  Ba3  1  0.86274774  0.75000000  0.69418804  1.0
  S  S4  1  0.89038979  0.75000000  0.18244640  1.0
  S  S5  1  0.39038979  0.75000000  0.31755360  1.0
  S  S6  1  0.10961021  0.25000000  0.81755360  1.0
  S  S7  1  0.60961021  0.25000000  0.68244640  1.0
  O  O8  1  0.76776301  0.75000000  0.31564802  1.0
  O  O9  1  0.26776301  0.75000000  0.18435198  1.0
  O  O10  1  0.23223699  0.25000000  0.68435198  1.0
  O  O11  1  0.73223699  0.25000000  0.81564802  1.0
  O  O12  1  0.50096724  0.75000000  0.16276975  1.0
  O  O13  1  0.00096724  0.75000000  0.33723025  1.0
  O  O14  1  0.49903276  0.25000000  0.83723025  1.0
  O  O15  1  0.99903276  0.25000000  0.66276975  1.0
