# generated using pymatgen
data_H8C2BrN
_symmetry_space_group_name_H-M   'P 1'
_cell_length_a   7.64861456
_cell_length_b   7.64861456
_cell_length_c   13.63700786
_cell_angle_alpha   86.44342037
_cell_angle_beta   93.55657963
_cell_angle_gamma   135.96744983
_symmetry_Int_Tables_number   1
_chemical_formula_structural   H8C2BrN
_chemical_formula_sum   'H32 C8 Br4 N4'
_cell_volume   553.26960954
_cell_formula_units_Z   4
loop_
 _symmetry_equiv_pos_site_id
 _symmetry_equiv_pos_as_xyz
  1  'x, y, z'
loop_
 _atom_site_type_symbol
 _atom_site_label
 _atom_site_symmetry_multiplicity
 _atom_site_fract_x
 _atom_site_fract_y
 _atom_site_fract_z
 _atom_site_occupancy
  H  H0  1  1.17467569  0.73400621  0.14911627  1.0
  H  H1  1  0.73400621  0.17467569  0.35088373  1.0
  H  H2  1  0.82532431  0.26599379  0.85088373  1.0
  H  H3  1  0.26599379  -0.17467569  0.64911627  1.0
  H  H4  1  0.25556228  -0.04144961  0.22006218  1.0
  H  H5  1  0.95855039  0.25556228  0.27993782  1.0
  H  H6  1  0.74443772  0.04144961  0.77993782  1.0
  H  H7  1  1.04144961  0.74443772  0.72006218  1.0
  H  H8  1  0.80459475  0.61089977  0.20369666  1.0
  H  H9  1  0.61089977  -0.19540525  0.29630334  1.0
  H  H10  1  1.19540525  0.38910023  0.79630334  1.0
  H  H11  1  0.38910023  0.19540525  0.70369666  1.0
  H  H12  1  0.91576462  0.89432614  0.14741705  1.0
  H  H13  1  0.89432615  -0.08423538  0.35258295  1.0
  H  H14  1  1.08423538  0.10567386  0.85258295  1.0
  H  H15  1  0.10567386  0.08423538  0.64741705  1.0
  H  H16  1  0.83140615  0.65706936  0.07234016  1.0
  H  H17  1  0.65706936  -0.16859385  0.42765984  1.0
  H  H18  1  1.16859385  0.34293064  0.92765984  1.0
  H  H19  1  0.34293064  0.16859385  0.57234016  1.0
  H  H20  1  0.52812683  0.14657856  0.08288089  1.0
  H  H21  1  1.14657856  0.52812683  0.41711911  1.0
  H  H22  1  0.47187317  -0.14657856  0.91711911  1.0
  H  H23  1  0.85342144  0.47187317  0.58288089  1.0
  H  H24  1  0.25822284  -0.02612929  0.00093361  1.0
  H  H25  1  0.97387071  0.25822284  0.49906639  1.0
  H  H26  1  0.74177716  0.02612929  0.99906639  1.0
  H  H27  1  1.02612929  0.74177716  0.50093361  1.0
  H  H28  1  0.34374026  0.21134025  0.07665453  1.0
  H  H29  1  1.21134025  0.34374026  0.42334547  1.0
  H  H30  1  0.65625974  -0.21134025  0.92334547  1.0
  H  H31  1  0.78865975  0.65625974  0.57665453  1.0
  C  C32  1  0.91276710  0.74955721  0.14329098  1.0
  C  C33  1  0.74955721  -0.08723290  0.35670902  1.0
  C  C34  1  1.08723290  0.25044279  0.85670902  1.0
  C  C35  1  0.25044279  0.08723290  0.64329098  1.0
  C  C36  1  0.33838806  0.06495949  0.07218545  1.0
  C  C37  1  1.06495949  0.33838806  0.42781455  1.0
  C  C38  1  0.66161194  -0.06495949  0.92781455  1.0
  C  C39  1  0.93504051  0.66161194  0.57218545  1.0
  Br  Br40  1  1.16280209  0.43624180  0.13930765  1.0
  Br  Br41  1  0.43624180  0.16280209  0.36069235  1.0
  Br  Br42  1  0.83719791  0.56375820  0.86069235  1.0
  Br  Br43  1  0.56375820  -0.16280209  0.63930765  1.0
  N  N44  1  0.17591777  -0.12733708  0.15117944  1.0
  N  N45  1  0.87266292  0.17591777  0.34882056  1.0
  N  N46  1  0.82408223  0.12733708  0.84882056  1.0
  N  N47  1  1.12733708  0.82408223  0.65117944  1.0
