# generated using pymatgen
data_CsW3Cl7
_symmetry_space_group_name_H-M   'P 1'
_cell_length_a   9.90962826
_cell_length_b   9.90962826
_cell_length_c   14.95346479
_cell_angle_alpha   90.00000000
_cell_angle_beta   90.00000000
_cell_angle_gamma   120.00000000
_symmetry_Int_Tables_number   1
_chemical_formula_structural   CsW3Cl7
_chemical_formula_sum   'Cs4 W12 Cl28'
_cell_volume   1271.70737772
_cell_formula_units_Z   4
loop_
 _symmetry_equiv_pos_site_id
 _symmetry_equiv_pos_as_xyz
  1  'x, y, z'
loop_
 _atom_site_type_symbol
 _atom_site_label
 _atom_site_symmetry_multiplicity
 _atom_site_fract_x
 _atom_site_fract_y
 _atom_site_fract_z
 _atom_site_occupancy
  Cs  Cs0  1  0.66666667  0.33333333  0.25000000  1.0
  Cs  Cs1  1  0.33333333  0.66666667  0.75000000  1.0
  Cs  Cs2  1  0.00000000  0.00000000  0.00000000  1.0
  Cs  Cs3  1  0.00000000  0.00000000  0.50000000  1.0
  W  W4  1  0.33428441  0.82054804  0.17844015  1.0
  W  W5  1  0.33428441  0.51373637  0.32155985  1.0
  W  W6  1  0.82054804  0.33428441  0.67844015  1.0
  W  W7  1  0.82054804  0.48626363  0.82155985  1.0
  W  W8  1  0.48626363  0.82054804  0.32155985  1.0
  W  W9  1  0.48626363  0.66571559  0.17844015  1.0
  W  W10  1  0.17945196  0.66571559  0.32155985  1.0
  W  W11  1  0.17945196  0.51373637  0.17844015  1.0
  W  W12  1  0.66571559  0.48626363  0.67844015  1.0
  W  W13  1  0.66571559  0.17945196  0.82155985  1.0
  W  W14  1  0.51373637  0.33428441  0.82155985  1.0
  W  W15  1  0.51373637  0.17945196  0.67844015  1.0
  Cl  Cl16  1  0.33333333  0.66666667  0.04536652  1.0
  Cl  Cl17  1  0.33333333  0.66666667  0.45463348  1.0
  Cl  Cl18  1  0.66666667  0.33333333  0.54536652  1.0
  Cl  Cl19  1  0.66666667  0.33333333  0.95463348  1.0
  Cl  Cl20  1  0.32917800  0.95778055  0.32045946  1.0
  Cl  Cl21  1  0.32917800  0.37139745  0.17954054  1.0
  Cl  Cl22  1  0.95778055  0.32917800  0.82045946  1.0
  Cl  Cl23  1  0.95778055  0.62860255  0.67954054  1.0
  Cl  Cl24  1  0.62860255  0.95778055  0.17954054  1.0
  Cl  Cl25  1  0.62860255  0.67082200  0.32045946  1.0
  Cl  Cl26  1  0.04221945  0.67082200  0.17954054  1.0
  Cl  Cl27  1  0.04221945  0.37139745  0.32045946  1.0
  Cl  Cl28  1  0.67082200  0.62860255  0.82045946  1.0
  Cl  Cl29  1  0.67082200  0.04221945  0.67954054  1.0
  Cl  Cl30  1  0.37139745  0.32917800  0.67954054  1.0
  Cl  Cl31  1  0.37139745  0.04221945  0.82045946  1.0
  Cl  Cl32  1  0.68980538  0.65528074  0.09143598  1.0
  Cl  Cl33  1  0.68980538  0.03452463  0.40856402  1.0
  Cl  Cl34  1  0.65528074  0.68980538  0.59143598  1.0
  Cl  Cl35  1  0.65528074  0.96547537  0.90856402  1.0
  Cl  Cl36  1  0.96547537  0.65528074  0.40856402  1.0
  Cl  Cl37  1  0.96547537  0.31019462  0.09143598  1.0
  Cl  Cl38  1  0.34471926  0.31019462  0.40856402  1.0
  Cl  Cl39  1  0.34471926  0.03452463  0.09143598  1.0
  Cl  Cl40  1  0.31019462  0.96547537  0.59143598  1.0
  Cl  Cl41  1  0.31019462  0.34471926  0.90856402  1.0
  Cl  Cl42  1  0.03452463  0.68980538  0.90856402  1.0
  Cl  Cl43  1  0.03452463  0.34471926  0.59143598  1.0
