# generated using pymatgen
data_CsMoN3O11
_symmetry_space_group_name_H-M   'P 1'
_cell_length_a   8.01983725
_cell_length_b   8.01983725
_cell_length_c   10.15278146
_cell_angle_alpha   70.43338171
_cell_angle_beta   109.56661829
_cell_angle_gamma   115.72081041
_symmetry_Int_Tables_number   1
_chemical_formula_structural   CsMoN3O11
_chemical_formula_sum   'Cs2 Mo2 N6 O22'
_cell_volume   540.33422936
_cell_formula_units_Z   2
loop_
 _symmetry_equiv_pos_site_id
 _symmetry_equiv_pos_as_xyz
  1  'x, y, z'
loop_
 _atom_site_type_symbol
 _atom_site_label
 _atom_site_symmetry_multiplicity
 _atom_site_fract_x
 _atom_site_fract_y
 _atom_site_fract_z
 _atom_site_occupancy
  Cs  Cs0  1  0.60375189  0.60375189  0.50000000  1.0
  Cs  Cs1  1  -0.00450234  -0.00450234  -0.00000000  1.0
  Mo  Mo2  1  1.31258461  -0.08982378  0.72304031  1.0
  Mo  Mo3  1  0.91017622  0.31258461  0.27695969  1.0
  N  N4  1  1.28751483  -0.45949435  0.78260362  1.0
  N  N5  1  0.54050565  0.28751483  0.21739638  1.0
  N  N6  1  0.81903117  0.47103358  0.95231535  1.0
  N  N7  1  1.47103358  -0.18096883  0.04768465  1.0
  N  N8  1  1.13206580  -0.17198558  0.42601319  1.0
  N  N9  1  0.82801442  0.13206580  0.57398681  1.0
  O  O10  1  0.88999156  0.29570370  0.58688731  1.0
  O  O11  1  1.29570370  -0.11000844  0.41311269  1.0
  O  O12  1  1.29068669  -0.61777405  0.80885402  1.0
  O  O13  1  0.38222595  0.29068669  0.19114598  1.0
  O  O14  1  1.39389390  -0.31478316  0.70297899  1.0
  O  O15  1  0.68521684  0.39389390  0.29702101  1.0
  O  O16  1  1.11967772  -0.54950014  0.36578082  1.0
  O  O17  1  0.45049986  0.11967772  0.63421918  1.0
  O  O18  1  1.18374780  -0.41865697  0.82946309  1.0
  O  O19  1  0.58134303  0.18374780  0.17053691  1.0
  O  O20  1  0.79367409  0.31692786  0.93758764  1.0
  O  O21  1  1.31692786  -0.20632591  0.06241236  1.0
  O  O22  1  1.09982718  -0.18266217  0.55382253  1.0
  O  O23  1  0.81733783  0.09982718  0.44617747  1.0
  O  O24  1  1.16614099  -0.03945941  0.77913606  1.0
  O  O25  1  0.96054059  0.16614099  0.22086394  1.0
  O  O26  1  0.79254222  0.60597255  0.85866652  1.0
  O  O27  1  1.60597255  -0.20745778  0.14133348  1.0
  O  O28  1  1.77316754  -0.01312938  0.66406575  1.0
  O  O29  1  0.98687062  0.77316754  0.33593425  1.0
  O  O30  1  1.50660291  -0.11256725  0.91072492  1.0
  O  O31  1  0.88743275  0.50660291  0.08927508  1.0
