# generated using pymatgen
data_KVTeO5
_symmetry_space_group_name_H-M   'P 1'
_cell_length_a   6.56243540
_cell_length_b   11.63554792
_cell_length_c   7.07694665
_cell_angle_alpha   90.00000000
_cell_angle_beta   106.93045663
_cell_angle_gamma   90.00000000
_symmetry_Int_Tables_number   1
_chemical_formula_structural   KVTeO5
_chemical_formula_sum   'K4 V4 Te4 O20'
_cell_volume   516.95760342
_cell_formula_units_Z   4
loop_
 _symmetry_equiv_pos_site_id
 _symmetry_equiv_pos_as_xyz
  1  'x, y, z'
loop_
 _atom_site_type_symbol
 _atom_site_label
 _atom_site_symmetry_multiplicity
 _atom_site_fract_x
 _atom_site_fract_y
 _atom_site_fract_z
 _atom_site_occupancy
  K  K0  1  0.82344057  0.68304162  0.34295339  1.0
  K  K1  1  0.82344057  0.81695838  0.84295339  1.0
  K  K2  1  0.17655943  0.18304162  0.15704661  1.0
  K  K3  1  0.17655943  0.31695838  0.65704661  1.0
  V  V4  1  0.64762136  0.37521199  0.40351370  1.0
  V  V5  1  0.64762136  0.12478801  0.90351370  1.0
  V  V6  1  0.35237864  0.87521199  0.09648630  1.0
  V  V7  1  0.35237864  0.62478801  0.59648630  1.0
  Te  Te8  1  0.76680535  0.05912075  0.40057987  1.0
  Te  Te9  1  0.76680535  0.44087925  0.90057987  1.0
  Te  Te10  1  0.23319465  0.55912075  0.09942013  1.0
  Te  Te11  1  0.23319465  0.94087925  0.59942013  1.0
  O  O12  1  0.89040238  0.90615841  0.49119593  1.0
  O  O13  1  0.89040238  0.59384159  0.99119593  1.0
  O  O14  1  0.10959762  0.40615841  0.00880407  1.0
  O  O15  1  0.10959762  0.09384159  0.50880407  1.0
  O  O16  1  0.81685488  0.28965155  0.33201668  1.0
  O  O17  1  0.81685488  0.21034845  0.83201668  1.0
  O  O18  1  0.18314512  0.78965155  0.16798332  1.0
  O  O19  1  0.18314512  0.71034845  0.66798332  1.0
  O  O20  1  0.80420957  0.05101824  0.13046159  1.0
  O  O21  1  0.80420957  0.44898176  0.63046159  1.0
  O  O22  1  0.19579043  0.55101824  0.36953841  1.0
  O  O23  1  0.19579043  0.94898176  0.86953841  1.0
  O  O24  1  0.53926551  0.48136251  0.21875612  1.0
  O  O25  1  0.53926551  0.01863749  0.71875612  1.0
  O  O26  1  0.46073449  0.98136251  0.28124388  1.0
  O  O27  1  0.46073449  0.51863749  0.78124388  1.0
  O  O28  1  0.45965726  0.29659907  0.44795709  1.0
  O  O29  1  0.45965726  0.20340093  0.94795709  1.0
  O  O30  1  0.54034274  0.79659907  0.05204291  1.0
  O  O31  1  0.54034274  0.70340093  0.55204291  1.0
