# generated using pymatgen
data_Li3Ga(BO3)2
_symmetry_space_group_name_H-M   'P 1'
_cell_length_a   4.95712238
_cell_length_b   8.02975666
_cell_length_c   6.37337724
_cell_angle_alpha   106.69801693
_cell_angle_beta   89.17097440
_cell_angle_gamma   90.97142899
_symmetry_Int_Tables_number   1
_chemical_formula_structural   Li3Ga(BO3)2
_chemical_formula_sum   'Li6 Ga2 B4 O12'
_cell_volume   242.94443681
_cell_formula_units_Z   2
loop_
 _symmetry_equiv_pos_site_id
 _symmetry_equiv_pos_as_xyz
  1  'x, y, z'
loop_
 _atom_site_type_symbol
 _atom_site_label
 _atom_site_symmetry_multiplicity
 _atom_site_fract_x
 _atom_site_fract_y
 _atom_site_fract_z
 _atom_site_occupancy
  Li  Li0  1  -1.16836369  0.88937246  0.24187107  1.0
  Li  Li1  1  0.16836369  0.11062754  0.75812893  1.0
  Li  Li2  1  -0.82521822  0.75908842  0.46680199  1.0
  Li  Li3  1  -0.17478178  0.24091158  0.53319801  1.0
  Li  Li4  1  -0.67643451  0.42645130  0.59614094  1.0
  Li  Li5  1  -0.32356549  0.57354870  0.40385906  1.0
  Ga  Ga6  1  -0.64731964  0.77213334  0.94481680  1.0
  Ga  Ga7  1  -0.35268036  0.22786666  0.05518320  1.0
  B  B8  1  -0.34094901  0.92898221  0.67278978  1.0
  B  B9  1  -0.65905099  0.07101779  0.32721022  1.0
  B  B10  1  -0.16188406  0.59102460  0.82028965  1.0
  B  B11  1  -0.83811594  0.40897540  0.17971035  1.0
  O  O12  1  -0.87909521  0.59081266  0.82323152  1.0
  O  O13  1  -0.12090479  0.40918734  0.17676848  1.0
  O  O14  1  -0.77858633  0.91033355  0.21478697  1.0
  O  O15  1  -0.22141367  0.08966645  0.78521303  1.0
  O  O16  1  -0.70965441  0.27626860  1.01893359  1.0
  O  O17  1  -0.29034559  0.72373140  -0.01893359  1.0
  O  O18  1  -0.70217374  0.52902099  0.33644752  1.0
  O  O19  1  -0.29782626  0.47097901  0.66355248  1.0
  O  O20  1  -0.61105173  0.89808963  0.73202498  1.0
  O  O21  1  -0.38894827  0.10191037  0.26797502  1.0
  O  O22  1  -0.20866662  0.81727987  0.50671823  1.0
  O  O23  1  -0.79133338  0.18272013  0.49328177  1.0
