# generated using pymatgen
data_YBO3
_symmetry_space_group_name_H-M   'P 1'
_cell_length_a   6.57799057
_cell_length_b   6.57799057
_cell_length_c   9.62039838
_cell_angle_alpha   70.37866584
_cell_angle_beta   109.62133416
_cell_angle_gamma   119.93227544
_symmetry_Int_Tables_number   1
_chemical_formula_structural   YBO3
_chemical_formula_sum   'Y6 B6 O18'
_cell_volume   332.50616038
_cell_formula_units_Z   6
loop_
 _symmetry_equiv_pos_site_id
 _symmetry_equiv_pos_as_xyz
  1  'x, y, z'
loop_
 _atom_site_type_symbol
 _atom_site_label
 _atom_site_symmetry_multiplicity
 _atom_site_fract_x
 _atom_site_fract_y
 _atom_site_fract_z
 _atom_site_occupancy
  Y  Y0  1  0.65755874  -0.17059438  0.00058545  1.0
  Y  Y1  1  1.17059438  0.34244126  0.50058545  1.0
  Y  Y2  1  0.82940562  -0.34244126  0.49941455  1.0
  Y  Y3  1  1.34244126  0.17059438  0.99941455  1.0
  Y  Y4  1  1.50000000  -0.00000000  0.50000000  1.0
  Y  Y5  1  1.00000000  -0.50000000  0.00000000  1.0
  B  B6  1  1.84263178  0.08199972  0.25316534  1.0
  B  B7  1  0.91800028  -0.84263178  0.75316534  1.0
  B  B8  1  1.08199972  0.84263178  0.24683466  1.0
  B  B9  1  0.15736822  -0.08199972  0.74683466  1.0
  B  B10  1  1.32318770  0.32318770  0.25000000  1.0
  B  B11  1  0.67681230  -0.32318770  0.75000000  1.0
  O  O12  1  1.78217694  0.03391643  0.39673554  1.0
  O  O13  1  0.96608357  -0.78217694  0.89673554  1.0
  O  O14  1  1.03391643  0.78217694  0.10326446  1.0
  O  O15  1  0.21782306  -0.03391643  0.60326446  1.0
  O  O16  1  1.68551538  0.12979804  0.11143421  1.0
  O  O17  1  0.87020196  -0.68551538  0.61143421  1.0
  O  O18  1  1.12979804  0.68551538  0.38856579  1.0
  O  O19  1  0.31448462  -0.12979804  0.88856579  1.0
  O  O20  1  1.29930394  0.08317947  0.24793256  1.0
  O  O21  1  0.91682053  -0.29930394  0.74793256  1.0
  O  O22  1  1.08317947  0.29930394  0.25206744  1.0
  O  O23  1  0.70069606  -0.08317947  0.75206744  1.0
  O  O24  1  1.48140137  0.38482527  0.39171777  1.0
  O  O25  1  0.61517473  -0.48140137  0.89171777  1.0
  O  O26  1  1.38482527  0.48140137  0.10828223  1.0
  O  O27  1  0.51859863  -0.38482527  0.60828223  1.0
  O  O28  1  0.86519120  -0.13480880  0.25000000  1.0
  O  O29  1  1.13480880  0.13480880  0.75000000  1.0
