# generated using pymatgen
data_Sc5As3
_symmetry_space_group_name_H-M   'P 1'
_cell_length_a   10.74850836
_cell_length_b   8.18497174
_cell_length_c   7.25689780
_cell_angle_alpha   90.00000000
_cell_angle_beta   90.00000000
_cell_angle_gamma   90.00000000
_symmetry_Int_Tables_number   1
_chemical_formula_structural   Sc5As3
_chemical_formula_sum   'Sc20 As12'
_cell_volume   638.43456213
_cell_formula_units_Z   4
loop_
 _symmetry_equiv_pos_site_id
 _symmetry_equiv_pos_as_xyz
  1  'x, y, z'
loop_
 _atom_site_type_symbol
 _atom_site_label
 _atom_site_symmetry_multiplicity
 _atom_site_fract_x
 _atom_site_fract_y
 _atom_site_fract_z
 _atom_site_occupancy
  Sc  Sc0  1  0.92931006  0.44736097  0.19092633  1.0
  Sc  Sc1  1  0.92931006  0.05263903  0.19092633  1.0
  Sc  Sc2  1  0.42931006  0.44736097  0.30907367  1.0
  Sc  Sc3  1  0.42931006  0.05263903  0.30907367  1.0
  Sc  Sc4  1  0.07068994  0.94736097  0.80907367  1.0
  Sc  Sc5  1  0.07068994  0.55263903  0.80907367  1.0
  Sc  Sc6  1  0.57068994  0.94736097  0.69092633  1.0
  Sc  Sc7  1  0.57068994  0.55263903  0.69092633  1.0
  Sc  Sc8  1  0.99644797  0.25000000  0.52980076  1.0
  Sc  Sc9  1  0.49644797  0.25000000  0.97019924  1.0
  Sc  Sc10  1  0.00355203  0.75000000  0.47019924  1.0
  Sc  Sc11  1  0.50355203  0.75000000  0.02980076  1.0
  Sc  Sc12  1  0.77722488  0.25000000  0.83353034  1.0
  Sc  Sc13  1  0.27722488  0.25000000  0.66646966  1.0
  Sc  Sc14  1  0.22277512  0.75000000  0.16646966  1.0
  Sc  Sc15  1  0.72277512  0.75000000  0.33353034  1.0
  Sc  Sc16  1  0.70710352  0.25000000  0.34918417  1.0
  Sc  Sc17  1  0.20710352  0.25000000  0.15081583  1.0
  Sc  Sc18  1  0.29289648  0.75000000  0.65081583  1.0
  Sc  Sc19  1  0.79289648  0.75000000  0.84918417  1.0
  As  As20  1  0.67232913  0.49027693  0.06405261  1.0
  As  As21  1  0.67232913  0.00972307  0.06405261  1.0
  As  As22  1  0.17232913  0.49027693  0.43594739  1.0
  As  As23  1  0.17232913  0.00972307  0.43594739  1.0
  As  As24  1  0.32767087  0.99027693  0.93594739  1.0
  As  As25  1  0.32767087  0.50972307  0.93594739  1.0
  As  As26  1  0.82767087  0.99027693  0.56405261  1.0
  As  As27  1  0.82767087  0.50972307  0.56405261  1.0
  As  As28  1  0.51849048  0.25000000  0.58358851  1.0
  As  As29  1  0.01849048  0.25000000  0.91641149  1.0
  As  As30  1  0.48150952  0.75000000  0.41641149  1.0
  As  As31  1  0.98150952  0.75000000  0.08358851  1.0
