# generated using pymatgen
data_Ba3TaGa3(SiO7)2
_symmetry_space_group_name_H-M   'P 1'
_cell_length_a   8.63105852
_cell_length_b   8.63105852
_cell_length_c   5.24202769
_cell_angle_alpha   90.00000000
_cell_angle_beta   90.00000000
_cell_angle_gamma   120.00000000
_symmetry_Int_Tables_number   1
_chemical_formula_structural   Ba3TaGa3(SiO7)2
_chemical_formula_sum   'Ba3 Ta1 Ga3 Si2 O14'
_cell_volume   338.18789951
_cell_formula_units_Z   1
loop_
 _symmetry_equiv_pos_site_id
 _symmetry_equiv_pos_as_xyz
  1  'x, y, z'
loop_
 _atom_site_type_symbol
 _atom_site_label
 _atom_site_symmetry_multiplicity
 _atom_site_fract_x
 _atom_site_fract_y
 _atom_site_fract_z
 _atom_site_occupancy
  Ba  Ba0  1  0.42865164  0.42865164  0.00000000  1.0
  Ba  Ba1  1  -0.00000000  0.57134836  0.00000000  1.0
  Ba  Ba2  1  0.57134836  0.00000000  -0.00000000  1.0
  Ta  Ta3  1  -0.00000000  0.00000000  0.00000000  1.0
  Ga  Ga4  1  0.74323682  0.74323682  0.50000000  1.0
  Ga  Ga5  1  0.00000000  0.25676318  0.50000000  1.0
  Ga  Ga6  1  0.25676318  0.00000000  0.50000000  1.0
  Si  Si7  1  0.33333333  0.66666667  0.51973487  1.0
  Si  Si8  1  0.66666667  0.33333333  0.48026513  1.0
  O  O9  1  0.10743263  0.89082721  0.22512292  1.0
  O  O10  1  0.89082721  0.10743263  0.77487708  1.0
  O  O11  1  0.78339458  0.89256737  0.22512292  1.0
  O  O12  1  0.10917279  0.21660542  0.22512292  1.0
  O  O13  1  0.89256737  0.78339458  0.77487708  1.0
  O  O14  1  0.21660542  0.10917279  0.77487708  1.0
  O  O15  1  0.69875969  0.52402075  0.35262716  1.0
  O  O16  1  0.52402075  0.69875969  0.64737284  1.0
  O  O17  1  0.82526106  0.30124031  0.35262716  1.0
  O  O18  1  0.47597925  0.17473894  0.35262716  1.0
  O  O19  1  0.30124031  0.82526106  0.64737284  1.0
  O  O20  1  0.17473894  0.47597925  0.64737284  1.0
  O  O21  1  0.33333333  0.66666667  0.21275621  1.0
  O  O22  1  0.66666667  0.33333333  0.78724379  1.0
