# generated using pymatgen
data_Mg3Si2O9
_symmetry_space_group_name_H-M   'P 1'
_cell_length_a   5.41386095
_cell_length_b   5.41386095
_cell_length_c   15.42295515
_cell_angle_alpha   88.84562750
_cell_angle_beta   91.15437250
_cell_angle_gamma   59.97217985
_symmetry_Int_Tables_number   1
_chemical_formula_structural   Mg3Si2O9
_chemical_formula_sum   'Mg6 Si4 O18'
_cell_volume   391.05467982
_cell_formula_units_Z   2
loop_
 _symmetry_equiv_pos_site_id
 _symmetry_equiv_pos_as_xyz
  1  'x, y, z'
loop_
 _atom_site_type_symbol
 _atom_site_label
 _atom_site_symmetry_multiplicity
 _atom_site_fract_x
 _atom_site_fract_y
 _atom_site_fract_z
 _atom_site_occupancy
  O  O0  1  0.78279078  -0.18164944  0.49070261  1.0
  O  O1  1  1.18164944  0.21720922  -0.00929739  1.0
  O  O2  1  0.27966639  -0.17625188  0.49078722  1.0
  O  O3  1  1.17625188  0.72033361  0.99078722  1.0
  O  O4  1  0.77722669  -0.67904035  0.49103103  1.0
  O  O5  1  1.67904035  0.22277331  0.99103103  1.0
  O  O6  1  0.59703248  -0.32945375  0.34967973  1.0
  O  O7  1  1.32945375  0.40296752  0.84967973  1.0
  O  O8  1  0.92998463  0.00451253  0.34950419  1.0
  O  O9  1  0.99548747  0.07001537  0.84950419  1.0
  O  O10  1  1.55392490  0.04712221  0.21445744  1.0
  O  O11  1  0.95287779  -0.55392490  0.71445744  1.0
  O  O12  1  1.26036864  0.34076511  0.32279965  1.0
  O  O13  1  0.65923489  -0.26036864  0.82279965  1.0
  O  O14  1  1.24785857  0.65989624  0.21436582  1.0
  O  O15  1  0.34010376  -0.24785857  0.71436582  1.0
  O  O16  1  0.94194662  -0.64705861  0.21445823  1.0
  O  O17  1  1.64705861  0.05805338  0.71445823  1.0
  Mg  Mg18  1  0.89857539  -0.29745762  0.27327013  1.0
  Mg  Mg19  1  1.29745762  0.10142461  0.77327013  1.0
  Mg  Mg20  1  0.25495685  -0.00987766  0.27356307  1.0
  Mg  Mg21  1  1.00987766  0.74504315  0.77356307  1.0
  Mg  Mg22  1  1.61072482  0.34653543  0.27328144  1.0
  Mg  Mg23  1  0.65346457  -0.61072482  0.77328144  1.0
  Si  Si24  1  0.60942093  -0.34166542  0.45685118  1.0
  Si  Si25  1  1.34166542  0.39057907  0.95685118  1.0
  Si  Si26  1  0.94240720  -0.00821189  0.45659826  1.0
  Si  Si27  1  1.00821189  0.05759280  0.95659826  1.0
