# generated using pymatgen
data_PtS4N3Cl
_symmetry_space_group_name_H-M   'P 1'
_cell_length_a   11.22298891
_cell_length_b   13.89279994
_cell_length_c   5.77085765
_cell_angle_alpha   90.00000000
_cell_angle_beta   90.00000000
_cell_angle_gamma   90.00000000
_symmetry_Int_Tables_number   1
_chemical_formula_structural   PtS4N3Cl
_chemical_formula_sum   'Pt4 S16 N12 Cl4'
_cell_volume   899.78485231
_cell_formula_units_Z   4
loop_
 _symmetry_equiv_pos_site_id
 _symmetry_equiv_pos_as_xyz
  1  'x, y, z'
loop_
 _atom_site_type_symbol
 _atom_site_label
 _atom_site_symmetry_multiplicity
 _atom_site_fract_x
 _atom_site_fract_y
 _atom_site_fract_z
 _atom_site_occupancy
  Pt  Pt0  1  0.66544536  0.25000000  0.44059549  1.0
  Pt  Pt1  1  0.16544536  0.25000000  0.05940451  1.0
  Pt  Pt2  1  0.33455464  0.75000000  0.55940451  1.0
  Pt  Pt3  1  0.83455464  0.75000000  -0.05940451  1.0
  S  S4  1  0.66304153  0.41194681  0.42781205  1.0
  S  S5  1  0.16304153  0.08805319  0.07218795  1.0
  S  S6  1  0.33695847  0.91194681  0.57218795  1.0
  S  S7  1  0.83695847  0.58805319  0.92781205  1.0
  S  S8  1  0.33695847  0.58805319  0.57218795  1.0
  S  S9  1  0.83695847  0.91194681  0.92781205  1.0
  S  S10  1  0.66304153  0.08805319  0.42781205  1.0
  S  S11  1  0.16304153  0.41194681  0.07218795  1.0
  S  S12  1  0.50745761  0.14331899  0.06355239  1.0
  S  S13  1  0.00745761  0.35668101  0.43644761  1.0
  S  S14  1  0.49254239  0.64331899  0.93644761  1.0
  S  S15  1  0.99254239  0.85668101  0.56355239  1.0
  S  S16  1  0.49254239  0.85668101  0.93644761  1.0
  S  S17  1  0.99254239  0.64331899  0.56355239  1.0
  S  S18  1  0.50745761  0.35668101  0.06355239  1.0
  S  S19  1  0.00745761  0.14331899  0.43644761  1.0
  N  N20  1  0.55161157  0.25000000  0.17883987  1.0
  N  N21  1  0.05161157  0.25000000  0.32116013  1.0
  N  N22  1  0.44838843  0.75000000  0.82116013  1.0
  N  N23  1  0.94838843  0.75000000  0.67883987  1.0
  N  N24  1  0.57278870  0.43572452  0.21157058  1.0
  N  N25  1  0.07278870  0.06427548  0.28842942  1.0
  N  N26  1  0.42721130  0.93572452  0.78842942  1.0
  N  N27  1  0.92721130  0.56427548  0.71157058  1.0
  N  N28  1  0.42721130  0.56427548  0.78842942  1.0
  N  N29  1  0.92721130  0.93572452  0.71157058  1.0
  N  N30  1  0.57278870  0.06427548  0.21157058  1.0
  N  N31  1  0.07278870  0.43572452  0.28842942  1.0
  Cl  Cl32  1  0.79935714  0.25000000  0.74958477  1.0
  Cl  Cl33  1  0.29935714  0.25000000  0.75041523  1.0
  Cl  Cl34  1  0.20064286  0.75000000  0.25041523  1.0
  Cl  Cl35  1  0.70064286  0.75000000  0.24958477  1.0
