# generated using pymatgen
data_DyVO4
_symmetry_space_group_name_H-M   'P 1'
_cell_length_a   6.00188872
_cell_length_b   6.00188872
_cell_length_c   6.00188872
_cell_angle_alpha   106.18394331
_cell_angle_beta   106.18394331
_cell_angle_gamma   116.26708058
_symmetry_Int_Tables_number   1
_chemical_formula_structural   DyVO4
_chemical_formula_sum   'Dy2 V2 O8'
_cell_volume   164.65772807
_cell_formula_units_Z   2
loop_
 _symmetry_equiv_pos_site_id
 _symmetry_equiv_pos_as_xyz
  1  'x, y, z'
loop_
 _atom_site_type_symbol
 _atom_site_label
 _atom_site_symmetry_multiplicity
 _atom_site_fract_x
 _atom_site_fract_y
 _atom_site_fract_z
 _atom_site_occupancy
  Dy  Dy0  1  0.25000000  0.75000000  0.50000000  1.0
  Dy  Dy1  1  0.50000000  0.50000000  -0.00000000  1.0
  V  V2  1  0.00000000  0.00000000  0.00000000  1.0
  V  V3  1  0.75000000  1.25000000  0.50000000  1.0
  O  O4  1  0.17254417  0.35671520  0.18417103  1.0
  O  O5  1  1.10671520  1.42254417  0.68417103  1.0
  O  O6  1  0.73837314  0.42254417  0.31582897  1.0
  O  O7  1  0.17254417  0.98837314  0.81582897  1.0
  O  O8  1  0.57745583  0.89328480  0.31582897  1.0
  O  O9  1  1.64328480  0.82745583  0.81582897  1.0
  O  O10  1  1.01162686  0.82745583  1.18417103  1.0
  O  O11  1  0.57745583  1.26162686  0.68417103  1.0
