# generated using pymatgen
data_Cs3NaPb4
_symmetry_space_group_name_H-M   'P 1'
_cell_length_a   9.59000043
_cell_length_b   9.59000043
_cell_length_c   11.33210814
_cell_angle_alpha   90.00000000
_cell_angle_beta   90.00000000
_cell_angle_gamma   135.01337900
_symmetry_Int_Tables_number   1
_chemical_formula_structural   Cs3NaPb4
_chemical_formula_sum   'Cs6 Na2 Pb8'
_cell_volume   736.76931564
_cell_formula_units_Z   2
loop_
 _symmetry_equiv_pos_site_id
 _symmetry_equiv_pos_as_xyz
  1  'x, y, z'
loop_
 _atom_site_type_symbol
 _atom_site_label
 _atom_site_symmetry_multiplicity
 _atom_site_fract_x
 _atom_site_fract_y
 _atom_site_fract_z
 _atom_site_occupancy
  Cs  Cs0  1  0.38721688  0.61278312  0.94526372  1.0
  Cs  Cs1  1  0.38721688  0.61278312  0.55473628  1.0
  Cs  Cs2  1  -0.38721688  0.38721688  0.44526372  1.0
  Cs  Cs3  1  -0.38721688  0.38721688  0.05473628  1.0
  Cs  Cs4  1  -0.23546899  0.23546899  0.75000000  1.0
  Cs  Cs5  1  0.23546899  0.76453101  0.25000000  1.0
  Na  Na6  1  0.00000000  0.00000000  0.00000000  1.0
  Na  Na7  1  0.00000000  0.00000000  0.50000000  1.0
  Pb  Pb8  1  -0.17862693  0.72599571  0.75000000  1.0
  Pb  Pb9  1  0.72599571  0.82137307  0.25000000  1.0
  Pb  Pb10  1  0.27400429  1.17862693  0.75000000  1.0
  Pb  Pb11  1  0.17862693  0.27400429  0.25000000  1.0
  Pb  Pb12  1  0.17149856  0.82850144  0.88620245  1.0
  Pb  Pb13  1  0.17149856  0.82850144  0.61379755  1.0
  Pb  Pb14  1  -0.17149856  0.17149856  0.38620245  1.0
  Pb  Pb15  1  -0.17149856  0.17149856  0.11379755  1.0
