# generated using pymatgen
data_Mg2BeB2Ir5
_symmetry_space_group_name_H-M   'P 1'
_cell_length_a   9.27114203
_cell_length_b   9.27114203
_cell_length_c   2.88540771
_cell_angle_alpha   90.00000000
_cell_angle_beta   90.00000000
_cell_angle_gamma   90.00000000
_symmetry_Int_Tables_number   1
_chemical_formula_structural   Mg2BeB2Ir5
_chemical_formula_sum   'Mg4 Be2 B4 Ir10'
_cell_volume   248.01254930
_cell_formula_units_Z   2
loop_
 _symmetry_equiv_pos_site_id
 _symmetry_equiv_pos_as_xyz
  1  'x, y, z'
loop_
 _atom_site_type_symbol
 _atom_site_label
 _atom_site_symmetry_multiplicity
 _atom_site_fract_x
 _atom_site_fract_y
 _atom_site_fract_z
 _atom_site_occupancy
  Mg  Mg0  1  0.32403997  0.17596003  0.00000000  1.0
  Mg  Mg1  1  0.82403997  0.32403997  0.00000000  1.0
  Mg  Mg2  1  0.67596003  0.82403997  0.00000000  1.0
  Mg  Mg3  1  0.17596003  0.67596003  0.00000000  1.0
  Be  Be4  1  0.50000000  0.50000000  0.00000000  1.0
  Be  Be5  1  0.00000000  0.00000000  0.00000000  1.0
  B  B6  1  0.86990327  0.63009673  0.00000000  1.0
  B  B7  1  0.36990327  0.86990327  0.00000000  1.0
  B  B8  1  0.13009673  0.36990327  0.00000000  1.0
  B  B9  1  0.63009673  0.13009673  0.00000000  1.0
  Ir  Ir10  1  0.43086569  0.70625359  0.50000000  1.0
  Ir  Ir11  1  0.93086569  0.79374641  0.50000000  1.0
  Ir  Ir12  1  0.29374641  0.43086569  0.50000000  1.0
  Ir  Ir13  1  0.79374641  0.06913431  0.50000000  1.0
  Ir  Ir14  1  0.56913431  0.29374641  0.50000000  1.0
  Ir  Ir15  1  0.06913431  0.20625359  0.50000000  1.0
  Ir  Ir16  1  0.70625359  0.56913431  0.50000000  1.0
  Ir  Ir17  1  0.20625359  0.93086569  0.50000000  1.0
  Ir  Ir18  1  0.50000000  0.00000000  0.50000000  1.0
  Ir  Ir19  1  0.00000000  0.50000000  0.50000000  1.0
