# generated using pymatgen
data_FeP4
_symmetry_space_group_name_H-M   'P 1'
_cell_length_a   4.62541555
_cell_length_b   13.70574912
_cell_length_c   7.02631046
_cell_angle_alpha   90.00000000
_cell_angle_beta   101.48602250
_cell_angle_gamma   90.00000000
_symmetry_Int_Tables_number   1
_chemical_formula_structural   FeP4
_chemical_formula_sum   'Fe6 P24'
_cell_volume   436.51092539
_cell_formula_units_Z   6
loop_
 _symmetry_equiv_pos_site_id
 _symmetry_equiv_pos_as_xyz
  1  'x, y, z'
loop_
 _atom_site_type_symbol
 _atom_site_label
 _atom_site_symmetry_multiplicity
 _atom_site_fract_x
 _atom_site_fract_y
 _atom_site_fract_z
 _atom_site_occupancy
  Fe  Fe0  1  0.00000000  0.50000000  0.50000000  1.0
  Fe  Fe1  1  0.00000000  0.00000000  0.00000000  1.0
  Fe  Fe2  1  0.85839597  0.67001749  0.11810984  1.0
  Fe  Fe3  1  0.85839597  0.82998251  0.61810984  1.0
  Fe  Fe4  1  0.14160403  0.17001749  0.38189016  1.0
  Fe  Fe5  1  0.14160403  0.32998251  0.88189016  1.0
  P  P6  1  0.63201804  0.94397214  0.42962413  1.0
  P  P7  1  0.63201804  0.55602786  0.92962413  1.0
  P  P8  1  0.36798196  0.44397214  0.07037587  1.0
  P  P9  1  0.36798196  0.05602786  0.57037587  1.0
  P  P10  1  0.49242704  0.28029874  0.46911356  1.0
  P  P11  1  0.49242704  0.21970126  0.96911356  1.0
  P  P12  1  0.50757296  0.78029874  0.03088644  1.0
  P  P13  1  0.50757296  0.71970126  0.53088644  1.0
  P  P14  1  0.34396424  0.10694600  0.14720917  1.0
  P  P15  1  0.34396424  0.39305400  0.64720917  1.0
  P  P16  1  0.65603576  0.60694600  0.35279083  1.0
  P  P17  1  0.65603576  0.89305400  0.85279083  1.0
  P  P18  1  0.92964639  0.27488423  0.13569180  1.0
  P  P19  1  0.92964639  0.22511577  0.63569180  1.0
  P  P20  1  0.07035361  0.77488423  0.36430820  1.0
  P  P21  1  0.07035361  0.72511577  0.86430820  1.0
  P  P22  1  0.80561443  0.05414302  0.24956885  1.0
  P  P23  1  0.80561443  0.44585698  0.74956885  1.0
  P  P24  1  0.19438557  0.55414302  0.25043115  1.0
  P  P25  1  0.19438557  0.94585698  0.75043115  1.0
  P  P26  1  0.73691991  0.38734096  0.30559455  1.0
  P  P27  1  0.73691991  0.11265904  0.80559455  1.0
  P  P28  1  0.26308009  0.88734096  0.19440545  1.0
  P  P29  1  0.26308009  0.61265904  0.69440545  1.0
