# generated using pymatgen
data_NaCaVO4
_symmetry_space_group_name_H-M   'P 1'
_cell_length_a   5.54547282
_cell_length_b   5.54547282
_cell_length_c   7.20196331
_cell_angle_alpha   90.00000000
_cell_angle_beta   90.00000000
_cell_angle_gamma   115.45032106
_symmetry_Int_Tables_number   1
_chemical_formula_structural   NaCaVO4
_chemical_formula_sum   'Na2 Ca2 V2 O8'
_cell_volume   199.98421839
_cell_formula_units_Z   2
loop_
 _symmetry_equiv_pos_site_id
 _symmetry_equiv_pos_as_xyz
  1  'x, y, z'
loop_
 _atom_site_type_symbol
 _atom_site_label
 _atom_site_symmetry_multiplicity
 _atom_site_fract_x
 _atom_site_fract_y
 _atom_site_fract_z
 _atom_site_occupancy
  Na  Na0  1  -0.32101671  1.32101671  0.25000000  1.0
  Na  Na1  1  0.32101671  0.67898329  0.75000000  1.0
  Ca  Ca2  1  0.00000000  0.00000000  0.50000000  1.0
  Ca  Ca3  1  0.00000000  0.00000000  0.00000000  1.0
  V  V4  1  0.35141284  0.64858716  0.25000000  1.0
  V  V5  1  -0.35141284  1.35141284  0.75000000  1.0
  O  O6  1  0.22117717  0.29876908  0.25000000  1.0
  O  O7  1  -0.70123092  1.22117717  0.75000000  1.0
  O  O8  1  0.70123092  0.77882283  0.25000000  1.0
  O  O9  1  -0.22117717  1.70123092  0.75000000  1.0
  O  O10  1  0.24581726  0.75418274  0.44129394  1.0
  O  O11  1  0.24581726  0.75418274  0.05870606  1.0
  O  O12  1  -0.24581726  1.24581726  0.94129394  1.0
  O  O13  1  -0.24581726  1.24581726  0.55870606  1.0
