# generated using pymatgen
data_CdH5N2F3
_symmetry_space_group_name_H-M   'P 1'
_cell_length_a   14.38748314
_cell_length_b   4.49911997
_cell_length_c   6.93192186
_cell_angle_alpha   90.00000000
_cell_angle_beta   90.00000000
_cell_angle_gamma   90.00000000
_symmetry_Int_Tables_number   1
_chemical_formula_structural   CdH5N2F3
_chemical_formula_sum   'Cd4 H20 N8 F12'
_cell_volume   448.71032213
_cell_formula_units_Z   4
loop_
 _symmetry_equiv_pos_site_id
 _symmetry_equiv_pos_as_xyz
  1  'x, y, z'
loop_
 _atom_site_type_symbol
 _atom_site_label
 _atom_site_symmetry_multiplicity
 _atom_site_fract_x
 _atom_site_fract_y
 _atom_site_fract_z
 _atom_site_occupancy
  Cd  Cd0  1  0.04016836  0.75000000  0.81831463  1.0
  Cd  Cd1  1  0.54016836  0.75000000  0.68168537  1.0
  Cd  Cd2  1  0.95983164  0.25000000  0.18168537  1.0
  Cd  Cd3  1  0.45983164  0.25000000  0.31831463  1.0
  H  H4  1  0.38884203  0.93819380  0.91889696  1.0
  H  H5  1  0.38884203  0.56180620  0.91889696  1.0
  H  H6  1  0.88884203  0.93819380  0.58110304  1.0
  H  H7  1  0.88884203  0.56180620  0.58110304  1.0
  H  H8  1  0.61115797  0.43819380  0.08110304  1.0
  H  H9  1  0.61115797  0.06180620  0.08110304  1.0
  H  H10  1  0.11115797  0.43819380  0.41889696  1.0
  H  H11  1  0.11115797  0.06180620  0.41889696  1.0
  H  H12  1  0.31484159  0.94010568  0.61831844  1.0
  H  H13  1  0.31484159  0.55989432  0.61831844  1.0
  H  H14  1  0.81484159  0.94010568  0.88168156  1.0
  H  H15  1  0.81484159  0.55989432  0.88168156  1.0
  H  H16  1  0.68515841  0.44010568  0.38168156  1.0
  H  H17  1  0.68515841  0.05989432  0.38168156  1.0
  H  H18  1  0.18515841  0.44010568  0.11831844  1.0
  H  H19  1  0.18515841  0.05989432  0.11831844  1.0
  H  H20  1  0.25328933  0.75000000  0.79204392  1.0
  H  H21  1  0.75328933  0.75000000  0.70795608  1.0
  H  H22  1  0.74671067  0.25000000  0.20795608  1.0
  H  H23  1  0.24671067  0.25000000  0.29204392  1.0
  N  N24  1  0.39479446  0.75000000  0.83099779  1.0
  N  N25  1  0.89479446  0.75000000  0.66900221  1.0
  N  N26  1  0.60520554  0.25000000  0.16900221  1.0
  N  N27  1  0.10520554  0.25000000  0.33099779  1.0
  N  N28  1  0.31366210  0.75000000  0.70711640  1.0
  N  N29  1  0.81366210  0.75000000  0.79288360  1.0
  N  N30  1  0.68633790  0.25000000  0.29288360  1.0
  N  N31  1  0.18633790  0.25000000  0.20711640  1.0
  F  F32  1  0.17795383  0.75000000  0.98589911  1.0
  F  F33  1  0.67795383  0.75000000  0.51410089  1.0
  F  F34  1  0.82204617  0.25000000  0.01410089  1.0
  F  F35  1  0.32204617  0.25000000  0.48589911  1.0
  F  F36  1  0.12380994  0.75000000  0.55126069  1.0
  F  F37  1  0.62380994  0.75000000  0.94873931  1.0
  F  F38  1  0.87619006  0.25000000  0.44873931  1.0
  F  F39  1  0.37619006  0.25000000  0.05126069  1.0
  F  F40  1  0.96434610  0.75000000  0.11653618  1.0
  F  F41  1  0.46434610  0.75000000  0.38346382  1.0
  F  F42  1  0.03565390  0.25000000  0.88346382  1.0
  F  F43  1  0.53565390  0.25000000  0.61653618  1.0
