# generated using pymatgen
data_CrCu(PS3)2
_symmetry_space_group_name_H-M   'P 1'
_cell_length_a   5.98211663
_cell_length_b   10.37371117
_cell_length_c   15.05777658
_cell_angle_alpha   90.00000000
_cell_angle_beta   104.24414700
_cell_angle_gamma   90.00000000
_symmetry_Int_Tables_number   1
_chemical_formula_structural   CrCu(PS3)2
_chemical_formula_sum   'Cr4 Cu4 P8 S24'
_cell_volume   905.70840468
_cell_formula_units_Z   4
loop_
 _symmetry_equiv_pos_site_id
 _symmetry_equiv_pos_as_xyz
  1  'x, y, z'
loop_
 _atom_site_type_symbol
 _atom_site_label
 _atom_site_symmetry_multiplicity
 _atom_site_fract_x
 _atom_site_fract_y
 _atom_site_fract_z
 _atom_site_occupancy
  Cr  Cr0  1  0.72899177  0.83176596  0.36927082  1.0
  Cr  Cr1  1  0.72899177  0.16823404  0.86927082  1.0
  Cr  Cr2  1  0.22602969  0.33175833  0.37262221  1.0
  Cr  Cr3  1  0.22602969  0.66824167  0.87262221  1.0
  Cu  Cu4  1  0.66649271  0.49921931  0.27658801  1.0
  Cu  Cu5  1  0.66649271  0.50078069  0.77658801  1.0
  Cu  Cu6  1  0.28853651  0.99925928  0.46530642  1.0
  Cu  Cu7  1  0.28853651  0.00074072  0.96530642  1.0
  P  P8  1  0.78327974  0.83242300  0.94818082  1.0
  P  P9  1  0.78327974  0.16757700  0.44818082  1.0
  P  P10  1  0.69124972  0.83805473  0.79841449  1.0
  P  P11  1  0.69124972  0.16194527  0.29841449  1.0
  P  P12  1  0.26375989  0.66193459  0.44349231  1.0
  P  P13  1  0.26375989  0.33806541  0.94349231  1.0
  P  P14  1  0.17169665  0.66755607  0.29372622  1.0
  P  P15  1  0.17169665  0.33244393  0.79372622  1.0
  S  S16  1  0.48401447  0.68764584  0.25567058  1.0
  S  S17  1  0.48401447  0.31235416  0.75567058  1.0
  S  S18  1  -0.00975075  0.32363709  0.48379084  1.0
  S  S19  1  -0.00975075  0.67636291  -0.01620916  1.0
  S  S20  1  0.96477278  0.82363611  0.25810604  1.0
  S  S21  1  0.96477278  0.17636389  0.75810604  1.0
  S  S22  1  0.99765820  0.82064653  0.76425341  1.0
  S  S23  1  0.99765820  0.17935347  0.26425341  1.0
  S  S24  1  0.95733428  0.67936016  0.47763114  1.0
  S  S25  1  0.95733428  0.32063984  0.97763114  1.0
  S  S26  1  0.93281485  0.98621943  0.48498071  1.0
  S  S27  1  0.93281485  0.01378057  0.98498071  1.0
  S  S28  1  0.49101347  0.81807997  0.48076803  1.0
  S  S29  1  0.49101347  0.18192003  0.98076803  1.0
  S  S30  1  0.51769834  0.99392320  0.26373110  1.0
  S  S31  1  0.51769834  0.00607680  0.76373110  1.0
  S  S32  1  0.47099634  0.81234211  0.98626419  1.0
  S  S33  1  0.47099634  0.18765789  0.48626419  1.0
  S  S34  1  0.46396353  0.31807251  0.26112098  1.0
  S  S35  1  0.46396353  0.68192749  0.76112098  1.0
  S  S36  1  0.43724525  0.49389629  0.47819752  1.0
  S  S37  1  0.43724525  0.50610371  0.97819752  1.0
  S  S38  1  0.02220257  0.48619386  0.25688416  1.0
  S  S39  1  0.02220257  0.51380614  0.75688416  1.0
