# generated using pymatgen
data_LiMnO2
_symmetry_space_group_name_H-M   'P 1'
_cell_length_a   6.23201297
_cell_length_b   6.23201297
_cell_length_c   6.23201297
_cell_angle_alpha   125.97095256
_cell_angle_beta   125.97095256
_cell_angle_gamma   79.93588691
_symmetry_Int_Tables_number   1
_chemical_formula_structural   LiMnO2
_chemical_formula_sum   'Li4 Mn4 O8'
_cell_volume   153.08346732
_cell_formula_units_Z   4
loop_
 _symmetry_equiv_pos_site_id
 _symmetry_equiv_pos_as_xyz
  1  'x, y, z'
loop_
 _atom_site_type_symbol
 _atom_site_label
 _atom_site_symmetry_multiplicity
 _atom_site_fract_x
 _atom_site_fract_y
 _atom_site_fract_z
 _atom_site_occupancy
  Li  Li0  1  0.87500000  1.62500000  0.75000000  1.0
  Li  Li1  1  1.37500000  1.12500000  1.25000000  1.0
  Li  Li2  1  0.87500000  1.12500000  0.75000000  1.0
  Li  Li3  1  0.87500000  1.12500000  0.25000000  1.0
  Mn  Mn4  1  1.37500000  1.12500000  0.75000000  1.0
  Mn  Mn5  1  0.87500000  0.62500000  0.25000000  1.0
  Mn  Mn6  1  1.37500000  0.62500000  0.75000000  1.0
  Mn  Mn7  1  1.37500000  1.62500000  1.25000000  1.0
  O  O8  1  0.12251733  0.39161500  0.26909767  1.0
  O  O9  1  1.14161500  1.37251733  0.76909767  1.0
  O  O10  1  1.60341965  1.37251733  1.23090233  1.0
  O  O11  1  0.12251733  0.85341965  0.73090233  1.0
  O  O12  1  0.62748267  0.85838500  0.23090233  1.0
  O  O13  1  1.60838500  0.87748267  0.73090233  1.0
  O  O14  1  1.14658035  0.87748267  0.26909767  1.0
  O  O15  1  0.62748267  1.39658035  0.76909767  1.0
