# generated using pymatgen
data_CdI2
_symmetry_space_group_name_H-M   'P 1'
_cell_length_a   4.32628176
_cell_length_b   4.32628176
_cell_length_c   61.12895880
_cell_angle_alpha   90.00000000
_cell_angle_beta   90.00000000
_cell_angle_gamma   120.00000000
_symmetry_Int_Tables_number   1
_chemical_formula_structural   CdI2
_chemical_formula_sum   'Cd8 I16'
_cell_volume   990.84844506
_cell_formula_units_Z   8
loop_
 _symmetry_equiv_pos_site_id
 _symmetry_equiv_pos_as_xyz
  1  'x, y, z'
loop_
 _atom_site_type_symbol
 _atom_site_label
 _atom_site_symmetry_multiplicity
 _atom_site_fract_x
 _atom_site_fract_y
 _atom_site_fract_z
 _atom_site_occupancy
  Cd  Cd0  1  0.33333333  0.66666667  0.37513223  1.0
  Cd  Cd1  1  0.66666667  0.33333333  0.87513223  1.0
  Cd  Cd2  1  0.33333333  0.66666667  0.62499072  1.0
  Cd  Cd3  1  0.66666667  0.33333333  0.12499072  1.0
  Cd  Cd4  1  0.00000000  0.00000000  -0.00000353  1.0
  Cd  Cd5  1  0.00000000  0.00000000  0.49999647  1.0
  Cd  Cd6  1  0.00000000  0.00000000  0.24987989  1.0
  Cd  Cd7  1  0.00000000  0.00000000  0.74987989  1.0
  I  I8  1  0.33333333  0.66666667  0.02813320  1.0
  I  I9  1  0.66666667  0.33333333  0.52813320  1.0
  I  I10  1  0.33333333  0.66666667  0.15312405  1.0
  I  I11  1  0.66666667  0.33333333  0.65312405  1.0
  I  I12  1  0.33333333  0.66666667  0.27802090  1.0
  I  I13  1  0.66666667  0.33333333  0.77802090  1.0
  I  I14  1  0.33333333  0.66666667  0.47186118  1.0
  I  I15  1  0.66666667  0.33333333  0.97186118  1.0
  I  I16  1  0.33333333  0.66666667  0.72173551  1.0
  I  I17  1  0.66666667  0.33333333  0.22173551  1.0
  I  I18  1  0.33333333  0.66666667  0.90327239  1.0
  I  I19  1  0.66666667  0.33333333  0.40327239  1.0
  I  I20  1  0.00000000  0.00000000  0.09685755  1.0
  I  I21  1  0.00000000  0.00000000  0.59685755  1.0
  I  I22  1  0.00000000  0.00000000  0.34699590  1.0
  I  I23  1  0.00000000  0.00000000  0.84699590  1.0
