# generated using pymatgen
data_Sr2AlCO3F5
_symmetry_space_group_name_H-M   'P 1'
_cell_length_a   5.50914045
_cell_length_b   8.88215615
_cell_length_c   13.67554363
_cell_angle_alpha   90.00000000
_cell_angle_beta   105.39811031
_cell_angle_gamma   90.00000000
_symmetry_Int_Tables_number   1
_chemical_formula_structural   Sr2AlCO3F5
_chemical_formula_sum   'Sr8 Al4 C4 O12 F20'
_cell_volume   645.16501029
_cell_formula_units_Z   4
loop_
 _symmetry_equiv_pos_site_id
 _symmetry_equiv_pos_as_xyz
  1  'x, y, z'
loop_
 _atom_site_type_symbol
 _atom_site_label
 _atom_site_symmetry_multiplicity
 _atom_site_fract_x
 _atom_site_fract_y
 _atom_site_fract_z
 _atom_site_occupancy
  Sr  Sr0  1  0.81029136  0.10897283  0.09915403  1.0
  Sr  Sr1  1  0.81029136  0.39102717  0.59915403  1.0
  Sr  Sr2  1  0.18970864  0.60897283  0.40084597  1.0
  Sr  Sr3  1  0.18970864  0.89102717  0.90084597  1.0
  Sr  Sr4  1  0.19509113  0.14183012  0.41212470  1.0
  Sr  Sr5  1  0.19509113  0.35816988  0.91212470  1.0
  Sr  Sr6  1  0.80490887  0.64183012  0.08787530  1.0
  Sr  Sr7  1  0.80490887  0.85816988  0.58787530  1.0
  Al  Al8  1  0.69566928  0.87342215  0.32957967  1.0
  Al  Al9  1  0.69566928  0.62657785  0.82957967  1.0
  Al  Al10  1  0.30433072  0.37342215  0.17042033  1.0
  Al  Al11  1  0.30433072  0.12657785  0.67042033  1.0
  C  C12  1  0.67390313  0.37634014  0.36334605  1.0
  C  C13  1  0.67390313  0.12365986  0.86334605  1.0
  C  C14  1  0.32609687  0.87634014  0.13665395  1.0
  C  C15  1  0.32609687  0.62365986  0.63665395  1.0
  O  O16  1  0.90992587  0.37911211  0.41442082  1.0
  O  O17  1  0.90992587  0.12088789  0.91442082  1.0
  O  O18  1  0.09007413  0.87911211  0.08557918  1.0
  O  O19  1  0.09007413  0.62088789  0.58557918  1.0
  O  O20  1  0.61832277  0.37351148  0.26546162  1.0
  O  O21  1  0.61832277  0.12648852  0.76546162  1.0
  O  O22  1  0.38167723  0.87351148  0.23453838  1.0
  O  O23  1  0.38167723  0.62648852  0.73453838  1.0
  O  O24  1  0.50288957  0.37681757  0.41271676  1.0
  O  O25  1  0.50288957  0.12318243  0.91271676  1.0
  O  O26  1  0.49711043  0.87681757  0.08728324  1.0
  O  O27  1  0.49711043  0.62318243  0.58728324  1.0
  F  F28  1  0.99205559  0.37149342  0.06964003  1.0
  F  F29  1  0.99205559  0.12850658  0.56964003  1.0
  F  F30  1  0.00794441  0.87149342  0.43035997  1.0
  F  F31  1  0.00794441  0.62850658  0.93035997  1.0
  F  F32  1  0.83020833  0.72812461  0.26562135  1.0
  F  F33  1  0.83020833  0.77187539  0.76562135  1.0
  F  F34  1  0.16979167  0.22812461  0.23437865  1.0
  F  F35  1  0.16979167  0.27187539  0.73437865  1.0
  F  F36  1  0.82849734  0.02819651  0.27392176  1.0
  F  F37  1  0.82849734  0.47180349  0.77392176  1.0
  F  F38  1  0.17150266  0.52819651  0.22607824  1.0
  F  F39  1  0.17150266  0.97180349  0.72607824  1.0
  F  F40  1  0.58370870  0.00798125  0.40987530  1.0
  F  F41  1  0.58370870  0.49201875  0.90987530  1.0
  F  F42  1  0.41629130  0.50798125  0.09012470  1.0
  F  F43  1  0.41629130  0.99201875  0.59012470  1.0
  F  F44  1  0.40011934  0.22667667  0.09308796  1.0
  F  F45  1  0.40011934  0.27332333  0.59308796  1.0
  F  F46  1  0.59988066  0.72667667  0.40691204  1.0
  F  F47  1  0.59988066  0.77332333  0.90691204  1.0
