# generated using pymatgen
data_RbBrF4
_symmetry_space_group_name_H-M   'P 1'
_cell_length_a   7.48113078
_cell_length_b   7.48113078
_cell_length_c   7.48113078
_cell_angle_alpha   127.76575535
_cell_angle_beta   127.76575535
_cell_angle_gamma   77.00480347
_symmetry_Int_Tables_number   1
_chemical_formula_structural   RbBrF4
_chemical_formula_sum   'Rb2 Br2 F8'
_cell_volume   253.98410066
_cell_formula_units_Z   2
loop_
 _symmetry_equiv_pos_site_id
 _symmetry_equiv_pos_as_xyz
  1  'x, y, z'
loop_
 _atom_site_type_symbol
 _atom_site_label
 _atom_site_symmetry_multiplicity
 _atom_site_fract_x
 _atom_site_fract_y
 _atom_site_fract_z
 _atom_site_occupancy
  Rb  Rb0  1  0.75000000  0.75000000  1.00000000  1.0
  Rb  Rb1  1  0.25000000  0.25000000  0.00000000  1.0
  Br  Br2  1  0.50000000  0.00000000  0.50000000  1.0
  Br  Br3  1  -0.00000000  0.50000000  0.50000000  1.0
  F  F4  1  1.23522269  0.73522269  1.20498628  1.0
  F  F5  1  0.46976359  0.96976359  1.20498628  1.0
  F  F6  1  1.03023641  1.23522269  1.50000000  1.0
  F  F7  1  0.26477731  0.46976359  0.50000000  1.0
  F  F8  1  0.73522269  0.53023641  0.50000000  1.0
  F  F9  1  0.96976359  0.76477731  1.50000000  1.0
  F  F10  1  0.53023641  1.03023641  0.79501372  1.0
  F  F11  1  0.76477731  0.26477731  0.79501372  1.0
