# generated using pymatgen
data_BaVClO3
_symmetry_space_group_name_H-M   'P 1'
_cell_length_a   10.63421867
_cell_length_b   5.31549831
_cell_length_c   7.50394190
_cell_angle_alpha   90.00000000
_cell_angle_beta   90.00000000
_cell_angle_gamma   90.00000000
_symmetry_Int_Tables_number   1
_chemical_formula_structural   BaVClO3
_chemical_formula_sum   'Ba4 V4 Cl4 O12'
_cell_volume   424.16910608
_cell_formula_units_Z   4
loop_
 _symmetry_equiv_pos_site_id
 _symmetry_equiv_pos_as_xyz
  1  'x, y, z'
loop_
 _atom_site_type_symbol
 _atom_site_label
 _atom_site_symmetry_multiplicity
 _atom_site_fract_x
 _atom_site_fract_y
 _atom_site_fract_z
 _atom_site_occupancy
  Ba  Ba0  1  0.30635771  0.75000000  0.09748627  1.0
  Ba  Ba1  1  0.80635771  0.75000000  0.40251373  1.0
  Ba  Ba2  1  0.69364229  0.25000000  0.90251373  1.0
  Ba  Ba3  1  0.19364229  0.25000000  0.59748627  1.0
  V  V4  1  0.45719924  0.75000000  0.54777096  1.0
  V  V5  1  0.95719924  0.75000000  0.95222904  1.0
  V  V6  1  0.54280076  0.25000000  0.45222904  1.0
  V  V7  1  0.04280076  0.25000000  0.04777096  1.0
  Cl  Cl8  1  0.10586650  0.75000000  0.42597729  1.0
  Cl  Cl9  1  0.60586650  0.75000000  0.07402271  1.0
  Cl  Cl10  1  0.89413350  0.25000000  0.57402271  1.0
  Cl  Cl11  1  0.39413350  0.25000000  0.92597729  1.0
  O  O12  1  0.09394079  0.99241564  0.90851943  1.0
  O  O13  1  0.09394079  0.50758436  0.90851943  1.0
  O  O14  1  0.59394079  0.99241564  0.59148057  1.0
  O  O15  1  0.59394079  0.50758436  0.59148057  1.0
  O  O16  1  0.90605921  0.49241564  0.09148057  1.0
  O  O17  1  0.90605921  0.00758436  0.09148057  1.0
  O  O18  1  0.40605921  0.49241564  0.40851943  1.0
  O  O19  1  0.40605921  0.00758436  0.40851943  1.0
  O  O20  1  0.36033617  0.75000000  0.71559541  1.0
  O  O21  1  0.86033617  0.75000000  0.78440459  1.0
  O  O22  1  0.63966383  0.25000000  0.28440459  1.0
  O  O23  1  0.13966383  0.25000000  0.21559541  1.0
