# generated using pymatgen
data_H7IN2
_symmetry_space_group_name_H-M   'P 1'
_cell_length_a   7.54184877
_cell_length_b   7.81007238
_cell_length_c   9.47395590
_cell_angle_alpha   90.00000000
_cell_angle_beta   90.00000000
_cell_angle_gamma   90.00000000
_symmetry_Int_Tables_number   1
_chemical_formula_structural   H7IN2
_chemical_formula_sum   'H28 I4 N8'
_cell_volume   558.03859563
_cell_formula_units_Z   4
loop_
 _symmetry_equiv_pos_site_id
 _symmetry_equiv_pos_as_xyz
  1  'x, y, z'
loop_
 _atom_site_type_symbol
 _atom_site_label
 _atom_site_symmetry_multiplicity
 _atom_site_fract_x
 _atom_site_fract_y
 _atom_site_fract_z
 _atom_site_occupancy
  H  H0  1  0.07949439  0.27318196  0.55388342  1.0
  H  H1  1  0.07949439  0.72681804  0.05388342  1.0
  H  H2  1  0.57949439  0.77318196  0.94611658  1.0
  H  H3  1  0.57949439  0.22681804  0.44611658  1.0
  H  H4  1  0.92050561  0.27318196  0.94611658  1.0
  H  H5  1  0.92050561  0.72681804  0.44611658  1.0
  H  H6  1  0.42050561  0.77318196  0.55388342  1.0
  H  H7  1  0.42050561  0.22681804  0.05388342  1.0
  H  H8  1  0.31261885  0.13691004  0.91850168  1.0
  H  H9  1  0.31261885  0.86308996  0.41850168  1.0
  H  H10  1  0.81261885  0.63691004  0.58149832  1.0
  H  H11  1  0.81261885  0.36308996  0.08149832  1.0
  H  H12  1  0.68738115  0.13691004  0.58149832  1.0
  H  H13  1  0.68738115  0.86308996  0.08149832  1.0
  H  H14  1  0.18738115  0.63691004  0.91850168  1.0
  H  H15  1  0.18738115  0.36308996  0.41850168  1.0
  H  H16  1  0.50000000  0.00000000  0.50000000  1.0
  H  H17  1  0.50000000  0.00000000  0.00000000  1.0
  H  H18  1  0.00000000  0.50000000  0.00000000  1.0
  H  H19  1  0.00000000  0.50000000  0.50000000  1.0
  H  H20  1  0.22438433  0.42932561  0.58141382  1.0
  H  H21  1  0.22438433  0.57067439  0.08141382  1.0
  H  H22  1  0.72438433  0.92932561  0.91858618  1.0
  H  H23  1  0.72438433  0.07067439  0.41858618  1.0
  H  H24  1  0.77561567  0.42932561  0.91858618  1.0
  H  H25  1  0.77561567  0.57067439  0.41858618  1.0
  H  H26  1  0.27561567  0.92932561  0.58141382  1.0
  H  H27  1  0.27561567  0.07067439  0.08141382  1.0
  I  I28  1  0.50000000  0.51759630  0.75000000  1.0
  I  I29  1  0.50000000  0.48240370  0.25000000  1.0
  I  I30  1  0.00000000  1.01759630  0.75000000  1.0
  I  I31  1  0.00000000  -0.01759630  0.25000000  1.0
  N  N32  1  0.12667889  0.38693409  0.51351560  1.0
  N  N33  1  0.12667889  0.61306591  0.01351560  1.0
  N  N34  1  0.62667889  0.88693409  0.98648440  1.0
  N  N35  1  0.62667889  0.11306591  0.48648440  1.0
  N  N36  1  0.87332111  0.38693409  0.98648440  1.0
  N  N37  1  0.87332111  0.61306591  0.48648440  1.0
  N  N38  1  0.37332111  0.88693409  0.51351560  1.0
  N  N39  1  0.37332111  0.11306591  0.01351560  1.0
