# generated using pymatgen
data_Ag2Hg2(TeO4)3
_symmetry_space_group_name_H-M   'P 1'
_cell_length_a   6.66661500
_cell_length_b   6.32835375
_cell_length_c   14.93680110
_cell_angle_alpha   90.00000000
_cell_angle_beta   114.40607622
_cell_angle_gamma   90.00000000
_symmetry_Int_Tables_number   1
_chemical_formula_structural   Ag2Hg2(TeO4)3
_chemical_formula_sum   'Ag4 Hg4 Te6 O24'
_cell_volume   573.85262140
_cell_formula_units_Z   2
loop_
 _symmetry_equiv_pos_site_id
 _symmetry_equiv_pos_as_xyz
  1  'x, y, z'
loop_
 _atom_site_type_symbol
 _atom_site_label
 _atom_site_symmetry_multiplicity
 _atom_site_fract_x
 _atom_site_fract_y
 _atom_site_fract_z
 _atom_site_occupancy
  Ag  Ag0  1  0.89979875  0.34788040  0.20433182  1.0
  Ag  Ag1  1  0.89979875  0.15211960  0.70433182  1.0
  Ag  Ag2  1  0.10020125  0.84788040  0.29566818  1.0
  Ag  Ag3  1  0.10020125  0.65211960  0.79566818  1.0
  Hg  Hg4  1  0.69982285  0.95323496  0.39603288  1.0
  Hg  Hg5  1  0.69982285  0.54676504  0.89603288  1.0
  Hg  Hg6  1  0.30017715  0.45323496  0.10396712  1.0
  Hg  Hg7  1  0.30017715  0.04676504  0.60396712  1.0
  Te  Te8  1  0.40315326  0.39735039  0.39448271  1.0
  Te  Te9  1  0.40315326  0.10264961  0.89448271  1.0
  Te  Te10  1  0.59684674  0.89735039  0.10551729  1.0
  Te  Te11  1  0.59684674  0.60264961  0.60551729  1.0
  Te  Te12  1  0.00000000  0.50000000  0.50000000  1.0
  Te  Te13  1  0.00000000  0.00000000  0.00000000  1.0
  O  O14  1  1.00836385  0.28513889  0.06269354  1.0
  O  O15  1  1.00836385  0.21486111  0.56269354  1.0
  O  O16  1  -0.00836385  0.78513889  0.43730646  1.0
  O  O17  1  -0.00836385  0.71486111  0.93730646  1.0
  O  O18  1  0.89079580  0.85536896  0.09451038  1.0
  O  O19  1  0.89079580  0.64463104  0.59451038  1.0
  O  O20  1  0.10920420  0.35536896  0.40548962  1.0
  O  O21  1  0.10920420  0.14463104  0.90548962  1.0
  O  O22  1  0.75585773  0.02720770  0.23367245  1.0
  O  O23  1  0.75585773  0.47279230  0.73367245  1.0
  O  O24  1  0.24414227  0.52720770  0.26632755  1.0
  O  O25  1  0.24414227  0.97279230  0.76632755  1.0
  O  O26  1  0.70162947  0.43097440  0.38895973  1.0
  O  O27  1  0.70162947  0.06902560  0.88895973  1.0
  O  O28  1  0.29837053  0.93097440  0.11104027  1.0
  O  O29  1  0.29837053  0.56902560  0.61104027  1.0
  O  O30  1  0.55686066  0.18823692  0.04004861  1.0
  O  O31  1  0.55686066  0.31176308  0.54004861  1.0
  O  O32  1  0.44313934  0.68823692  0.45995139  1.0
  O  O33  1  0.44313934  0.81176308  0.95995139  1.0
  O  O34  1  0.39358526  0.09971434  0.35116408  1.0
  O  O35  1  0.39358526  0.40028566  0.85116408  1.0
  O  O36  1  0.60641474  0.59971434  0.14883592  1.0
  O  O37  1  0.60641474  0.90028566  0.64883592  1.0
