# generated using pymatgen
data_K2Hg6S7
_symmetry_space_group_name_H-M   'P 1'
_cell_length_a   14.09680992
_cell_length_b   14.09680992
_cell_length_c   4.15583921
_cell_angle_alpha   90.00000000
_cell_angle_beta   90.00000000
_cell_angle_gamma   90.00000000
_symmetry_Int_Tables_number   1
_chemical_formula_structural   K2Hg6S7
_chemical_formula_sum   'K4 Hg12 S14'
_cell_volume   825.84857519
_cell_formula_units_Z   2
loop_
 _symmetry_equiv_pos_site_id
 _symmetry_equiv_pos_as_xyz
  1  'x, y, z'
loop_
 _atom_site_type_symbol
 _atom_site_label
 _atom_site_symmetry_multiplicity
 _atom_site_fract_x
 _atom_site_fract_y
 _atom_site_fract_z
 _atom_site_occupancy
  K  K0  1  0.82796241  0.32796241  0.76063859  1.0
  K  K1  1  0.67203759  0.82796241  0.23936141  1.0
  K  K2  1  0.17203759  0.67203759  0.76063859  1.0
  K  K3  1  0.32796241  0.17203759  0.23936141  1.0
  Hg  Hg4  1  0.33918093  0.43404890  0.75204117  1.0
  Hg  Hg5  1  0.16081907  0.93404890  0.24795883  1.0
  Hg  Hg6  1  0.56595110  0.33918093  0.24795883  1.0
  Hg  Hg7  1  0.93404890  0.83918093  0.75204117  1.0
  Hg  Hg8  1  0.66081907  0.56595110  0.75204117  1.0
  Hg  Hg9  1  0.83918093  0.06595110  0.24795883  1.0
  Hg  Hg10  1  0.43404890  0.66081907  0.24795883  1.0
  Hg  Hg11  1  0.06595110  0.16081907  0.75204117  1.0
  Hg  Hg12  1  0.40287158  0.90287158  0.72827867  1.0
  Hg  Hg13  1  0.09712842  0.40287158  0.27172133  1.0
  Hg  Hg14  1  0.59712842  0.09712842  0.72827867  1.0
  Hg  Hg15  1  0.90287158  0.59712842  0.27172133  1.0
  S  S16  1  0.31513101  0.81513101  0.34199016  1.0
  S  S17  1  0.18486899  0.31513101  0.65800984  1.0
  S  S18  1  0.68486899  0.18486899  0.34199016  1.0
  S  S19  1  0.81513101  0.68486899  0.65800984  1.0
  S  S20  1  0.00000000  0.50000000  0.93450697  1.0
  S  S21  1  0.50000000  0.00000000  0.06549303  1.0
  S  S22  1  0.46231742  0.30476306  0.75317757  1.0
  S  S23  1  0.03768258  0.80476306  0.24682243  1.0
  S  S24  1  0.69523694  0.46231742  0.24682243  1.0
  S  S25  1  0.80476306  0.96231742  0.75317757  1.0
  S  S26  1  0.53768258  0.69523694  0.75317757  1.0
  S  S27  1  0.96231742  0.19523694  0.24682243  1.0
  S  S28  1  0.30476306  0.53768258  0.24682243  1.0
  S  S29  1  0.19523694  0.03768258  0.75317757  1.0
