# generated using pymatgen
data_Mg16Si8HO32
_symmetry_space_group_name_H-M   'P 1'
_cell_length_a   11.61338823
_cell_length_b   8.40896779
_cell_length_c   5.78374919
_cell_angle_alpha   89.64910611
_cell_angle_beta   90.05182088
_cell_angle_gamma   89.68635053
_symmetry_Int_Tables_number   1
_chemical_formula_structural   Mg16Si8HO32
_chemical_formula_sum   'Mg16 Si8 H1 O32'
_cell_volume   564.80202127
_cell_formula_units_Z   1
loop_
 _symmetry_equiv_pos_site_id
 _symmetry_equiv_pos_as_xyz
  1  'x, y, z'
loop_
 _atom_site_type_symbol
 _atom_site_label
 _atom_site_symmetry_multiplicity
 _atom_site_fract_x
 _atom_site_fract_y
 _atom_site_fract_z
 _atom_site_occupancy
  Mg  Mg0  1  -0.99928558  -0.78070259  -0.24769955  1.0
  Mg  Mg1  1  -1.00005176  -0.21951454  -0.74820985  1.0
  Mg  Mg2  1  -0.75260265  -0.25095820  -0.74813777  1.0
  Mg  Mg3  1  -0.24757278  -0.24537548  -0.74663062  1.0
  Mg  Mg4  1  -0.37345027  -0.97028157  -0.97895790  1.0
  Mg  Mg5  1  -0.62367705  -1.00291352  -0.49575916  1.0
  Mg  Mg6  1  -0.62470619  -1.00025912  -0.99364699  1.0
  Mg  Mg7  1  -0.37629218  -1.00193838  -0.49222226  1.0
  Mg  Mg8  1  -0.50641618  -0.28478631  -0.73576605  1.0
  Mg  Mg9  1  -0.50202696  -0.72281840  -0.25239793  1.0
  Mg  Mg10  1  -0.24769474  -0.74925545  -0.25526949  1.0
  Mg  Mg11  1  -0.75125607  -0.75233045  -0.24840464  1.0
  Mg  Mg12  1  -0.87784754  -0.50134739  -0.49843284  1.0
  Mg  Mg13  1  -0.12076722  -0.50019397  -0.99887815  1.0
  Mg  Mg14  1  -0.11945114  -0.49953231  -0.50046805  1.0
  Mg  Mg15  1  -0.87802816  -0.50147122  -0.99814621  1.0
  Si  Si16  1  -0.13125470  -0.13221173  -0.24768354  1.0
  Si  Si17  1  -0.87025935  -0.13421482  -0.24836639  1.0
  Si  Si18  1  -0.86940831  -0.86768922  -0.74739282  1.0
  Si  Si19  1  -0.12886752  -0.86514594  -0.74837936  1.0
  Si  Si20  1  -0.63179472  -0.63646984  -0.74933348  1.0
  Si  Si21  1  -0.37011442  -0.62850143  -0.74979689  1.0
  Si  Si22  1  -0.37079329  -0.38505740  -0.27843799  1.0
  Si  Si23  1  -0.63406729  -0.37042758  -0.24769074  1.0
  H  H24  1  -0.44583561  -0.18364617  -0.10384294  1.0
  O  O25  1  -0.00096148  -0.03430466  -0.24690462  1.0
  O  O26  1  -0.99961548  -0.96663866  -0.74780943  1.0
  O  O27  1  -0.99953210  -0.53499135  -0.24855300  1.0
  O  O28  1  -0.99982488  -0.46489902  -0.74898130  1.0
  O  O29  1  -0.24187752  -0.00439244  -0.24516482  1.0
  O  O30  1  -0.76003984  -0.00771439  -0.24698279  1.0
  O  O31  1  -0.75960453  -0.99622262  -0.74698238  1.0
  O  O32  1  -0.23967237  -0.99195100  -0.74554462  1.0
  O  O33  1  -0.38426109  -0.25808420  -0.04038275  1.0
  O  O34  1  -0.62999508  -0.25812070  -0.48470302  1.0
  O  O35  1  -0.62724508  -0.74730086  -0.50985417  1.0
  O  O36  1  -0.37256355  -0.73348374  -0.99277072  1.0
  O  O37  1  -0.62713723  -0.74597935  -0.98767321  1.0
  O  O38  1  -0.37287935  -0.74281582  -0.51358922  1.0
  O  O39  1  -0.37390430  -0.26171820  -0.50059007  1.0
  O  O40  1  -0.62626377  -0.26087027  -0.00933525  1.0
  O  O41  1  -0.50253672  -0.53392953  -0.75080554  1.0
  O  O42  1  -0.50291153  -0.47313881  -0.25886504  1.0
  O  O43  1  -0.49793275  -0.03774720  -0.74749825  1.0
  O  O44  1  -0.49699811  -0.97506303  -0.23921836  1.0
  O  O45  1  -0.74120254  -0.50789521  -0.74787049  1.0
  O  O46  1  -0.26146370  -0.49947254  -0.75429594  1.0
  O  O47  1  -0.25601788  -0.49752503  -0.25341096  1.0
  O  O48  1  -0.74269743  -0.49710505  -0.24774198  1.0
  O  O49  1  -0.87276804  -0.75904288  -0.50948963  1.0
  O  O50  1  -0.12769720  -0.75704129  -0.98849725  1.0
  O  O51  1  -0.13103367  -0.24257830  -0.00890702  1.0
  O  O52  1  -0.87367891  -0.24286814  -0.48648173  1.0
  O  O53  1  -0.12823511  -0.24112523  -0.48575883  1.0
  O  O54  1  -0.87322541  -0.24367519  -0.00912971  1.0
  O  O55  1  -0.87262545  -0.75862513  -0.98670767  1.0
  O  O56  1  -0.12621621  -0.75587710  -0.51146861  1.0
