# generated using pymatgen
data_FeBPbO4
_symmetry_space_group_name_H-M   'P 1'
_cell_length_a   7.20378533
_cell_length_b   6.05558281
_cell_length_c   8.48828496
_cell_angle_alpha   90.00000000
_cell_angle_beta   90.00000000
_cell_angle_gamma   90.00000000
_symmetry_Int_Tables_number   1
_chemical_formula_structural   FeBPbO4
_chemical_formula_sum   'Fe4 B4 Pb4 O16'
_cell_volume   370.28546162
_cell_formula_units_Z   4
loop_
 _symmetry_equiv_pos_site_id
 _symmetry_equiv_pos_as_xyz
  1  'x, y, z'
loop_
 _atom_site_type_symbol
 _atom_site_label
 _atom_site_symmetry_multiplicity
 _atom_site_fract_x
 _atom_site_fract_y
 _atom_site_fract_z
 _atom_site_occupancy
  Fe  Fe0  1  0.00000000  0.00000000  0.00000000  1.0
  Fe  Fe1  1  0.00000000  0.50000000  0.00000000  1.0
  Fe  Fe2  1  0.50000000  0.00000000  0.50000000  1.0
  Fe  Fe3  1  0.50000000  0.50000000  0.50000000  1.0
  O  O4  1  0.66920689  0.94789738  0.30460611  1.0
  O  O5  1  0.66920689  0.55210262  0.30460611  1.0
  O  O6  1  0.16920689  0.94789738  0.19539389  1.0
  O  O7  1  0.16920689  0.55210262  0.19539389  1.0
  O  O8  1  0.33079311  0.44789738  0.69539389  1.0
  O  O9  1  0.33079311  0.05210262  0.69539389  1.0
  O  O10  1  0.83079311  0.44789738  0.80460611  1.0
  O  O11  1  0.83079311  0.05210262  0.80460611  1.0
  O  O12  1  0.60168473  0.75000000  0.61631165  1.0
  O  O13  1  0.10168473  0.75000000  0.88368835  1.0
  O  O14  1  0.39831527  0.25000000  0.38368835  1.0
  O  O15  1  0.89831527  0.25000000  0.11631165  1.0
  O  O16  1  0.81706144  0.75000000  0.09231340  1.0
  O  O17  1  0.31706144  0.75000000  0.40768660  1.0
  O  O18  1  0.18293856  0.25000000  0.90768660  1.0
  O  O19  1  0.68293856  0.25000000  0.59231340  1.0
  Pb  Pb20  1  0.92898012  0.75000000  0.64532473  1.0
  Pb  Pb21  1  0.42898012  0.75000000  0.85467527  1.0
  Pb  Pb22  1  0.07101988  0.25000000  0.35467527  1.0
  Pb  Pb23  1  0.57101988  0.25000000  0.14532473  1.0
  B  B24  1  0.72008468  0.75000000  0.23369290  1.0
  B  B25  1  0.22008468  0.75000000  0.26630710  1.0
  B  B26  1  0.27991532  0.25000000  0.76630710  1.0
  B  B27  1  0.77991532  0.25000000  0.73369290  1.0
