# generated using pymatgen
data_Nb2(PO4)3
_symmetry_space_group_name_H-M   'P 1'
_cell_length_a   9.09981125
_cell_length_b   9.09981125
_cell_length_c   9.09981125
_cell_angle_alpha   57.88141349
_cell_angle_beta   57.88141349
_cell_angle_gamma   57.88141349
_symmetry_Int_Tables_number   1
_chemical_formula_structural   Nb2(PO4)3
_chemical_formula_sum   'Nb4 P6 O24'
_cell_volume   506.91147883
_cell_formula_units_Z   2
loop_
 _symmetry_equiv_pos_site_id
 _symmetry_equiv_pos_as_xyz
  1  'x, y, z'
loop_
 _atom_site_type_symbol
 _atom_site_label
 _atom_site_symmetry_multiplicity
 _atom_site_fract_x
 _atom_site_fract_y
 _atom_site_fract_z
 _atom_site_occupancy
  Nb  Nb0  1  0.85758244  -0.14241756  -0.14241756  1.0
  Nb  Nb1  1  0.35758244  0.35758244  0.35758244  1.0
  Nb  Nb2  1  0.64241756  0.64241756  -0.35758244  1.0
  Nb  Nb3  1  1.14241756  0.14241756  0.14241756  1.0
  P  P4  1  0.46790858  0.75000000  0.03209142  1.0
  P  P5  1  0.96790858  -0.46790858  0.25000000  1.0
  P  P6  1  0.25000000  0.96790858  -0.46790858  1.0
  P  P7  1  0.75000000  1.03209142  -0.53209142  1.0
  P  P8  1  0.53209142  0.25000000  -0.03209142  1.0
  P  P9  1  1.03209142  0.46790858  -0.25000000  1.0
  O  O10  1  0.77197339  1.00423366  -0.36094843  1.0
  O  O11  1  1.27197339  0.13905157  -0.49576634  1.0
  O  O12  1  0.86094843  0.49576634  -0.27197339  1.0
  O  O13  1  0.36094843  0.22802661  -0.00423366  1.0
  O  O14  1  0.99576634  0.36094843  -0.77197339  1.0
  O  O15  1  0.49576634  0.72802661  -0.13905157  1.0
  O  O16  1  0.22802661  0.99576634  -0.63905157  1.0
  O  O17  1  0.72802661  0.86094843  -0.50423366  1.0
  O  O18  1  0.63905157  0.77197339  0.00423366  1.0
  O  O19  1  1.13905157  -0.49576634  0.27197339  1.0
  O  O20  1  0.50423366  0.27197339  0.13905157  1.0
  O  O21  1  1.00423366  0.63905157  -0.22802661  1.0
  O  O22  1  0.70556129  0.07724432  -0.06213364  1.0
  O  O23  1  1.20556129  0.43786636  -0.42275568  1.0
  O  O24  1  0.56213364  0.42275568  -0.20556129  1.0
  O  O25  1  1.06213364  0.29443871  -0.07724432  1.0
  O  O26  1  0.92275568  0.06213364  0.29443871  1.0
  O  O27  1  0.42275568  0.79443871  -0.43786636  1.0
  O  O28  1  1.29443871  -0.07724432  0.06213364  1.0
  O  O29  1  0.79443871  0.56213364  -0.57724432  1.0
  O  O30  1  0.93786636  -0.29443871  0.07724432  1.0
  O  O31  1  0.43786636  0.57724432  0.20556129  1.0
  O  O32  1  0.57724432  1.20556129  -0.56213364  1.0
  O  O33  1  1.07724432  -0.06213364  -0.29443871  1.0
