# generated using pymatgen
data_C(SN)2
_symmetry_space_group_name_H-M   'P 1'
_cell_length_a   7.32232629
_cell_length_b   12.10190224
_cell_length_c   9.68966857
_cell_angle_alpha   90.00000000
_cell_angle_beta   120.71611417
_cell_angle_gamma   90.00000000
_symmetry_Int_Tables_number   1
_chemical_formula_structural   C(SN)2
_chemical_formula_sum   'C8 S16 N16'
_cell_volume   738.18112583
_cell_formula_units_Z   8
loop_
 _symmetry_equiv_pos_site_id
 _symmetry_equiv_pos_as_xyz
  1  'x, y, z'
loop_
 _atom_site_type_symbol
 _atom_site_label
 _atom_site_symmetry_multiplicity
 _atom_site_fract_x
 _atom_site_fract_y
 _atom_site_fract_z
 _atom_site_occupancy
  C  C0  1  0.75995143  0.44765302  0.05778309  1.0
  C  C1  1  0.75995143  0.05234698  0.55778309  1.0
  C  C2  1  0.24004857  0.94765302  0.44221691  1.0
  C  C3  1  0.24004857  0.55234698  0.94221691  1.0
  C  C4  1  0.68122837  0.97526346  0.42179083  1.0
  C  C5  1  0.68122837  0.52473654  0.92179083  1.0
  C  C6  1  0.31877163  0.47526346  0.07820917  1.0
  C  C7  1  0.31877163  0.02473654  0.57820917  1.0
  S  S8  1  0.87265042  0.50591249  0.25100984  1.0
  S  S9  1  0.87265042  -0.00591249  0.75100984  1.0
  S  S10  1  0.12734958  1.00591249  0.24899016  1.0
  S  S11  1  0.12734958  0.49408751  0.74899016  1.0
  S  S12  1  0.83053569  0.28224844  0.22602362  1.0
  S  S13  1  0.83053569  0.21775156  0.72602362  1.0
  S  S14  1  0.16946431  0.78224844  0.27397638  1.0
  S  S15  1  0.16946431  0.71775156  0.77397638  1.0
  S  S16  1  0.51728178  0.41158025  0.36402213  1.0
  S  S17  1  0.51728178  0.08841975  0.86402213  1.0
  S  S18  1  0.48271822  0.91158025  0.13597787  1.0
  S  S19  1  0.48271822  0.58841975  0.63597787  1.0
  S  S20  1  0.39666711  0.28091522  0.18557224  1.0
  S  S21  1  0.39666711  0.21908478  0.68557224  1.0
  S  S22  1  0.60333289  0.78091522  0.31442776  1.0
  S  S23  1  0.60333289  0.71908478  0.81442776  1.0
  N  N24  1  0.91860081  0.38734338  0.34957056  1.0
  N  N25  1  0.91860081  0.11265662  0.84957056  1.0
  N  N26  1  0.08139919  0.88734338  0.15042944  1.0
  N  N27  1  0.08139919  0.61265662  0.65042944  1.0
  N  N28  1  0.74088336  0.34053224  0.04778416  1.0
  N  N29  1  0.74088336  0.15946776  0.54778416  1.0
  N  N30  1  0.25911664  0.84053224  0.45221584  1.0
  N  N31  1  0.25911664  0.65946776  0.95221584  1.0
  N  N32  1  0.72086500  0.86838177  0.46300095  1.0
  N  N33  1  0.72086500  0.63161823  0.96300095  1.0
  N  N34  1  0.27913500  0.36838177  0.03699905  1.0
  N  N35  1  0.27913500  0.13161823  0.53699905  1.0
  N  N36  1  0.56815836  0.01107436  0.27047142  1.0
  N  N37  1  0.56815836  0.48892564  0.77047142  1.0
  N  N38  1  0.43184164  0.51107436  0.22952858  1.0
  N  N39  1  0.43184164  0.98892564  0.72952858  1.0
