# generated using pymatgen
data_MoPbSeO6
_symmetry_space_group_name_H-M   'P 1'
_cell_length_a   7.30015241
_cell_length_b   7.04665135
_cell_length_c   11.23681598
_cell_angle_alpha   100.91019757
_cell_angle_beta   99.17941471
_cell_angle_gamma   89.73440643
_symmetry_Int_Tables_number   1
_chemical_formula_structural   MoPbSeO6
_chemical_formula_sum   'Mo4 Pb4 Se4 O24'
_cell_volume   560.12848335
_cell_formula_units_Z   4
loop_
 _symmetry_equiv_pos_site_id
 _symmetry_equiv_pos_as_xyz
  1  'x, y, z'
loop_
 _atom_site_type_symbol
 _atom_site_label
 _atom_site_symmetry_multiplicity
 _atom_site_fract_x
 _atom_site_fract_y
 _atom_site_fract_z
 _atom_site_occupancy
  Mo  Mo0  1  -0.94871258  -0.17212011  -0.80065769  1.0
  Mo  Mo1  1  -0.05128742  -0.82787989  -0.19934231  1.0
  Mo  Mo2  1  -0.44504896  -0.17065891  -0.79510776  1.0
  Mo  Mo3  1  -0.55495104  -0.82934109  -0.20489224  1.0
  Pb  Pb4  1  -0.14009465  -0.24708512  -0.49081677  1.0
  Pb  Pb5  1  -0.85990535  -0.75291488  -0.50918323  1.0
  Pb  Pb6  1  -0.29393157  -0.33689926  -0.15949673  1.0
  Pb  Pb7  1  -0.70606843  -0.66310074  -0.84050327  1.0
  Se  Se8  1  -0.64315841  -0.29377228  -0.53574177  1.0
  Se  Se9  1  -0.35684159  -0.70622772  -0.46425823  1.0
  Se  Se10  1  -0.18920130  -0.61706685  -0.77856017  1.0
  Se  Se11  1  -0.81079870  -0.38293315  -0.22143983  1.0
  O  O12  1  -0.50033095  -0.07281730  -0.23993963  1.0
  O  O13  1  -0.49966905  -0.92718270  -0.76006037  1.0
  O  O14  1  -0.11013442  -0.07680153  -0.24567769  1.0
  O  O15  1  -0.88986558  -0.92319847  -0.75432231  1.0
  O  O16  1  -0.18627009  -0.14987440  -0.73073534  1.0
  O  O17  1  -0.81372991  -0.85012560  -0.26926466  1.0
  O  O18  1  -0.84369780  -0.18672073  -0.59714137  1.0
  O  O19  1  -0.15630220  -0.81327927  -0.40285863  1.0
  O  O20  1  -0.46923730  -0.21032651  -0.60524751  1.0
  O  O21  1  -0.53076270  -0.78967349  -0.39475249  1.0
  O  O22  1  -0.04728802  -0.18589478  -0.95165231  1.0
  O  O23  1  -0.95271198  -0.81410522  -0.04834769  1.0
  O  O24  1  -0.43608005  -0.20605121  -0.94999421  1.0
  O  O25  1  -0.56391995  -0.79394879  -0.05000579  1.0
  O  O26  1  -0.71081122  -0.27225297  -0.82049673  1.0
  O  O27  1  -0.28918878  -0.72774703  -0.17950327  1.0
  O  O28  1  -0.32392442  -0.46706044  -0.39055602  1.0
  O  O29  1  -0.67607558  -0.53293956  -0.60944398  1.0
  O  O30  1  -0.01870371  -0.48273326  -0.81870512  1.0
  O  O31  1  -0.98129629  -0.51726674  -0.18129488  1.0
  O  O32  1  -0.39011663  -0.49077481  -0.80601470  1.0
  O  O33  1  -0.60988337  -0.50922519  -0.19398530  1.0
  O  O34  1  -0.13376481  -0.56871065  -0.61968973  1.0
  O  O35  1  -0.86623519  -0.43128935  -0.38031027  1.0
