# generated using pymatgen
data_K(NiSe)2
_symmetry_space_group_name_H-M   'P 1'
_cell_length_a   7.12360530
_cell_length_b   7.12360530
_cell_length_c   7.12360530
_cell_angle_alpha   147.76446440
_cell_angle_beta   147.76446440
_cell_angle_gamma   46.23318582
_symmetry_Int_Tables_number   1
_chemical_formula_structural   K(NiSe)2
_chemical_formula_sum   'K1 Ni2 Se2'
_cell_volume   102.49146966
_cell_formula_units_Z   1
loop_
 _symmetry_equiv_pos_site_id
 _symmetry_equiv_pos_as_xyz
  1  'x, y, z'
loop_
 _atom_site_type_symbol
 _atom_site_label
 _atom_site_symmetry_multiplicity
 _atom_site_fract_x
 _atom_site_fract_y
 _atom_site_fract_z
 _atom_site_occupancy
  K  K0  1  0.00000000  0.00000000  0.00000000  1.0
  Ni  Ni1  1  0.25000000  0.75000000  0.50000000  1.0
  Ni  Ni2  1  0.75000000  0.25000000  0.50000000  1.0
  Se  Se3  1  0.64862371  0.64862371  1.00000000  1.0
  Se  Se4  1  0.35137629  0.35137629  -0.00000000  1.0
