# generated using pymatgen
data_ZrSi
_symmetry_space_group_name_H-M   'P 1'
_cell_length_a   5.32417163
_cell_length_b   5.32417163
_cell_length_c   3.77004407
_cell_angle_alpha   90.00000000
_cell_angle_beta   90.00000000
_cell_angle_gamma   138.52748300
_symmetry_Int_Tables_number   1
_chemical_formula_structural   ZrSi
_chemical_formula_sum   'Zr2 Si2'
_cell_volume   70.77494133
_cell_formula_units_Z   2
loop_
 _symmetry_equiv_pos_site_id
 _symmetry_equiv_pos_as_xyz
  1  'x, y, z'
loop_
 _atom_site_type_symbol
 _atom_site_label
 _atom_site_symmetry_multiplicity
 _atom_site_fract_x
 _atom_site_fract_y
 _atom_site_fract_z
 _atom_site_occupancy
  Zr  Zr0  1  0.35488346  0.64511654  0.75000000  1.0
  Zr  Zr1  1  -0.35488346  0.35488346  0.25000000  1.0
  Si  Si2  1  0.07858714  0.92141286  0.75000000  1.0
  Si  Si3  1  -0.07858714  0.07858714  0.25000000  1.0
