# generated using pymatgen
data_AsO2
_symmetry_space_group_name_H-M   'P 1'
_cell_length_a   12.40515822
_cell_length_b   4.51187594
_cell_length_c   12.20568182
_cell_angle_alpha   90.00000000
_cell_angle_beta   118.70225067
_cell_angle_gamma   90.00000000
_symmetry_Int_Tables_number   1
_chemical_formula_structural   AsO2
_chemical_formula_sum   'As12 O24'
_cell_volume   599.21700568
_cell_formula_units_Z   12
loop_
 _symmetry_equiv_pos_site_id
 _symmetry_equiv_pos_as_xyz
  1  'x, y, z'
loop_
 _atom_site_type_symbol
 _atom_site_label
 _atom_site_symmetry_multiplicity
 _atom_site_fract_x
 _atom_site_fract_y
 _atom_site_fract_z
 _atom_site_occupancy
  O  O0  1  0.95507692  0.62307978  0.76667862  1.0
  O  O1  1  0.95507692  0.87692022  0.26667862  1.0
  O  O2  1  0.04492308  0.12307978  0.73332138  1.0
  O  O3  1  0.04492308  0.37692022  0.23332138  1.0
  O  O4  1  0.91167938  0.74384638  0.52744476  1.0
  O  O5  1  0.91167938  0.75615362  0.02744476  1.0
  O  O6  1  0.08832062  0.24384638  0.97255524  1.0
  O  O7  1  0.08832062  0.25615362  0.47255524  1.0
  O  O8  1  0.71877760  0.49060291  0.83540346  1.0
  O  O9  1  0.71877760  0.00939709  0.33540346  1.0
  O  O10  1  0.28122240  0.99060291  0.66459654  1.0
  O  O11  1  0.28122240  0.50939709  0.16459654  1.0
  O  O12  1  0.51589846  0.87263316  0.70393751  1.0
  O  O13  1  0.51589846  0.62736684  0.20393751  1.0
  O  O14  1  0.48410154  0.37263316  0.79606249  1.0
  O  O15  1  0.48410154  0.12736684  0.29606249  1.0
  O  O16  1  0.23449425  0.66246707  0.91484333  1.0
  O  O17  1  0.23449425  0.83753293  0.41484333  1.0
  O  O18  1  0.76550575  0.16246707  0.58515667  1.0
  O  O19  1  0.76550575  0.33753293  0.08515667  1.0
  O  O20  1  0.66826290  0.90677391  0.98943188  1.0
  O  O21  1  0.66826290  0.59322609  0.48943188  1.0
  O  O22  1  0.33173710  0.40677391  0.51056812  1.0
  O  O23  1  0.33173710  0.09322609  0.01056812  1.0
  As  As24  1  0.95135527  0.23390248  0.80757767  1.0
  As  As25  1  0.95135527  0.26609752  0.30757767  1.0
  As  As26  1  0.04864473  0.73390248  0.69242233  1.0
  As  As27  1  0.04864473  0.76609752  0.19242233  1.0
  As  As28  1  0.76336030  0.62373820  0.98765096  1.0
  As  As29  1  0.76336030  0.87626180  0.48765096  1.0
  As  As30  1  0.23663970  0.12373820  0.51234904  1.0
  As  As31  1  0.23663970  0.37626180  0.01234904  1.0
  As  As32  1  0.44467707  0.98268671  0.80098755  1.0
  As  As33  1  0.44467707  0.51731329  0.30098755  1.0
  As  As34  1  0.55532293  0.48268671  0.69901245  1.0
  As  As35  1  0.55532293  0.01731329  0.19901245  1.0
