# generated using pymatgen
data_RbZnF3
_symmetry_space_group_name_H-M   'P 1'
_cell_length_a   6.01009071
_cell_length_b   6.01009071
_cell_length_c   14.69886527
_cell_angle_alpha   90.00000000
_cell_angle_beta   90.00000000
_cell_angle_gamma   120.00000000
_symmetry_Int_Tables_number   1
_chemical_formula_structural   RbZnF3
_chemical_formula_sum   'Rb6 Zn6 F18'
_cell_volume   459.80796974
_cell_formula_units_Z   6
loop_
 _symmetry_equiv_pos_site_id
 _symmetry_equiv_pos_as_xyz
  1  'x, y, z'
loop_
 _atom_site_type_symbol
 _atom_site_label
 _atom_site_symmetry_multiplicity
 _atom_site_fract_x
 _atom_site_fract_y
 _atom_site_fract_z
 _atom_site_occupancy
  Rb  Rb0  1  0.33333333  0.66666667  0.40356111  1.0
  Rb  Rb1  1  0.33333333  0.66666667  0.09643889  1.0
  Rb  Rb2  1  0.66666667  0.33333333  0.90356111  1.0
  Rb  Rb3  1  0.66666667  0.33333333  0.59643889  1.0
  Rb  Rb4  1  0.00000000  0.00000000  0.25000000  1.0
  Rb  Rb5  1  0.00000000  0.00000000  0.75000000  1.0
  Zn  Zn6  1  0.33333333  0.66666667  0.84643663  1.0
  Zn  Zn7  1  0.33333333  0.66666667  0.65356337  1.0
  Zn  Zn8  1  0.66666667  0.33333333  0.34643663  1.0
  Zn  Zn9  1  0.66666667  0.33333333  0.15356337  1.0
  Zn  Zn10  1  0.00000000  0.00000000  0.50000000  1.0
  Zn  Zn11  1  -0.00000000  -0.00000000  0.00000000  1.0
  F  F12  1  0.16552133  0.83447867  0.91998348  1.0
  F  F13  1  0.16552133  0.83447867  0.58001652  1.0
  F  F14  1  0.16552133  0.33104265  0.91998348  1.0
  F  F15  1  0.16552133  0.33104265  0.58001652  1.0
  F  F16  1  0.83447867  0.16552133  0.41998348  1.0
  F  F17  1  0.83447867  0.16552133  0.08001652  1.0
  F  F18  1  0.83447867  0.66895735  0.41998348  1.0
  F  F19  1  0.83447867  0.66895735  0.08001652  1.0
  F  F20  1  0.66895735  0.83447867  0.91998348  1.0
  F  F21  1  0.66895735  0.83447867  0.58001652  1.0
  F  F22  1  0.33104266  0.16552133  0.41998348  1.0
  F  F23  1  0.33104266  0.16552133  0.08001652  1.0
  F  F24  1  0.51757355  0.48242645  0.25000000  1.0
  F  F25  1  0.51757355  0.03514710  0.25000000  1.0
  F  F26  1  0.48242645  0.51757355  0.75000000  1.0
  F  F27  1  0.48242645  0.96485290  0.75000000  1.0
  F  F28  1  0.96485290  0.48242645  0.25000000  1.0
  F  F29  1  0.03514710  0.51757355  0.75000000  1.0
