# generated using pymatgen
data_Al2Ge2O7
_symmetry_space_group_name_H-M   'P 1'
_cell_length_a   5.34845171
_cell_length_b   5.34845171
_cell_length_c   9.82192446
_cell_angle_alpha   76.10473478
_cell_angle_beta   103.89526522
_cell_angle_gamma   85.89519889
_symmetry_Int_Tables_number   1
_chemical_formula_structural   Al2Ge2O7
_chemical_formula_sum   'Al4 Ge4 O14'
_cell_volume   262.25942142
_cell_formula_units_Z   2
loop_
 _symmetry_equiv_pos_site_id
 _symmetry_equiv_pos_as_xyz
  1  'x, y, z'
loop_
 _atom_site_type_symbol
 _atom_site_label
 _atom_site_symmetry_multiplicity
 _atom_site_fract_x
 _atom_site_fract_y
 _atom_site_fract_z
 _atom_site_occupancy
  Al  Al0  1  1.59140843  0.25406169  0.47779948  1.0
  Al  Al1  1  0.74593831  -0.59140843  0.97779948  1.0
  Al  Al2  1  1.25406169  0.59140843  0.02220052  1.0
  Al  Al3  1  0.40859157  -0.25406169  0.52220052  1.0
  Ge  Ge4  1  0.51390758  -0.00992958  0.20585066  1.0
  Ge  Ge5  1  1.00992958  0.48609242  0.70585066  1.0
  Ge  Ge6  1  0.99007042  -0.48609242  0.29414934  1.0
  Ge  Ge7  1  1.48609242  0.00992958  0.79414934  1.0
  O  O8  1  1.44123284  0.01458537  0.37198481  1.0
  O  O9  1  0.98541463  -0.44123284  0.87198481  1.0
  O  O10  1  1.01458537  0.44123284  0.12801519  1.0
  O  O11  1  0.55876716  -0.01458537  0.62801519  1.0
  O  O12  1  1.51637519  0.31423003  0.10121956  1.0
  O  O13  1  0.68576997  -0.51637519  0.60121956  1.0
  O  O14  1  1.31423003  0.51637519  0.39878044  1.0
  O  O15  1  0.48362481  -0.31423003  0.89878044  1.0
  O  O16  1  1.71527069  0.14957531  0.89629700  1.0
  O  O17  1  0.85042469  -0.71527069  0.39629700  1.0
  O  O18  1  1.14957531  0.71527069  0.60370300  1.0
  O  O19  1  0.28472931  -0.14957531  0.10370300  1.0
  O  O20  1  0.83808017  -0.16191983  0.25000000  1.0
  O  O21  1  1.16191983  0.16191983  0.75000000  1.0
