# generated using pymatgen
data_Fe7S8
_symmetry_space_group_name_H-M   'P 1'
_cell_length_a   6.53215725
_cell_length_b   6.53215725
_cell_length_c   11.46145242
_cell_angle_alpha   68.10346208
_cell_angle_beta   111.89653792
_cell_angle_gamma   118.54193234
_symmetry_Int_Tables_number   1
_chemical_formula_structural   Fe7S8
_chemical_formula_sum   'Fe14 S16'
_cell_volume   387.07676043
_cell_formula_units_Z   2
loop_
 _symmetry_equiv_pos_site_id
 _symmetry_equiv_pos_as_xyz
  1  'x, y, z'
loop_
 _atom_site_type_symbol
 _atom_site_label
 _atom_site_symmetry_multiplicity
 _atom_site_fract_x
 _atom_site_fract_y
 _atom_site_fract_z
 _atom_site_occupancy
  Fe  Fe0  1  0.39488877  0.21788553  0.46927680  1.0
  Fe  Fe1  1  0.78211447  0.60511123  0.96927680  1.0
  Fe  Fe2  1  1.21788553  -0.60511123  0.03072320  1.0
  Fe  Fe3  1  1.60511123  -0.21788553  0.53072320  1.0
  Fe  Fe4  1  1.78776171  0.00322717  1.00028342  1.0
  Fe  Fe5  1  0.99677283  0.21223829  0.50028342  1.0
  Fe  Fe6  1  1.00322717  -0.21223829  0.49971658  1.0
  Fe  Fe7  1  0.21223829  -0.00322717  -0.00028342  1.0
  Fe  Fe8  1  0.79993206  0.79993206  0.25000000  1.0
  Fe  Fe9  1  0.20006794  0.20006794  0.75000000  1.0
  Fe  Fe10  1  0.37463655  -0.17607718  0.27009345  1.0
  Fe  Fe11  1  1.17607718  -0.37463655  0.77009345  1.0
  Fe  Fe12  1  0.82392282  0.37463655  0.22990655  1.0
  Fe  Fe13  1  1.62536345  0.17607718  0.72990655  1.0
  S  S14  1  1.58240078  -0.39282667  0.38888335  1.0
  S  S15  1  1.39282667  -0.58240078  0.88888335  1.0
  S  S16  1  0.60717333  0.58240078  0.11111665  1.0
  S  S17  1  0.41759922  0.39282667  0.61111665  1.0
  S  S18  1  0.62124696  0.07488043  0.12791487  1.0
  S  S19  1  0.92511957  -0.62124696  0.62791487  1.0
  S  S20  1  1.07488043  0.62124696  0.37208513  1.0
  S  S21  1  1.37875304  -0.07488043  0.87208513  1.0
  S  S22  1  0.59286084  0.12518511  0.38131296  1.0
  S  S23  1  0.87481489  -0.59286084  0.88131296  1.0
  S  S24  1  1.12518511  0.59286084  0.11868704  1.0
  S  S25  1  1.40713916  -0.12518511  0.61868704  1.0
  S  S26  1  1.86816795  -0.04851489  0.84682593  1.0
  S  S27  1  1.04851489  -0.86816795  0.34682593  1.0
  S  S28  1  0.95148511  0.86816795  0.65317407  1.0
  S  S29  1  0.13183205  0.04851489  0.15317407  1.0
