# generated using pymatgen
data_CaCO3
_symmetry_space_group_name_H-M   'P 1'
_cell_length_a   5.19123295
_cell_length_b   4.94377525
_cell_length_c   4.33593915
_cell_angle_alpha   90.00000000
_cell_angle_beta   90.00000000
_cell_angle_gamma   90.00000000
_symmetry_Int_Tables_number   1
_chemical_formula_structural   CaCO3
_chemical_formula_sum   'Ca2 C2 O6'
_cell_volume   111.27879534
_cell_formula_units_Z   2
loop_
 _symmetry_equiv_pos_site_id
 _symmetry_equiv_pos_as_xyz
  1  'x, y, z'
loop_
 _atom_site_type_symbol
 _atom_site_label
 _atom_site_symmetry_multiplicity
 _atom_site_fract_x
 _atom_site_fract_y
 _atom_site_fract_z
 _atom_site_occupancy
  Ca  Ca0  1  0.50000000  0.00000000  0.39293169  1.0
  Ca  Ca1  1  0.00000000  0.50000000  0.60706831  1.0
  C  C2  1  0.50000000  0.50000000  0.01182613  1.0
  C  C3  1  0.00000000  0.00000000  0.98817387  1.0
  O  O4  1  0.50000000  0.50000000  0.31413559  1.0
  O  O5  1  0.00000000  0.00000000  0.68586441  1.0
  O  O6  1  0.50000000  0.27043132  0.87197580  1.0
  O  O7  1  0.50000000  0.72956868  0.87197580  1.0
  O  O8  1  0.00000000  0.77043132  0.12802420  1.0
  O  O9  1  0.00000000  0.22956868  0.12802420  1.0
