# generated using pymatgen
data_Hf9Mo4Se
_symmetry_space_group_name_H-M   'P 1'
_cell_length_a   8.72734256
_cell_length_b   8.72734256
_cell_length_c   8.61656323
_cell_angle_alpha   90.00000000
_cell_angle_beta   90.00000000
_cell_angle_gamma   120.00000000
_symmetry_Int_Tables_number   1
_chemical_formula_structural   Hf9Mo4Se
_chemical_formula_sum   'Hf18 Mo8 Se2'
_cell_volume   568.36687200
_cell_formula_units_Z   2
loop_
 _symmetry_equiv_pos_site_id
 _symmetry_equiv_pos_as_xyz
  1  'x, y, z'
loop_
 _atom_site_type_symbol
 _atom_site_label
 _atom_site_symmetry_multiplicity
 _atom_site_fract_x
 _atom_site_fract_y
 _atom_site_fract_z
 _atom_site_occupancy
  Hf  Hf0  1  0.19448800  0.80551200  0.45425144  1.0
  Hf  Hf1  1  0.19448800  0.80551200  0.04574856  1.0
  Hf  Hf2  1  0.19448800  0.38897601  0.45425144  1.0
  Hf  Hf3  1  0.19448800  0.38897601  0.04574856  1.0
  Hf  Hf4  1  0.80551200  0.19448800  0.95425144  1.0
  Hf  Hf5  1  0.80551200  0.19448800  0.54574856  1.0
  Hf  Hf6  1  0.80551200  0.61102399  0.95425144  1.0
  Hf  Hf7  1  0.80551200  0.61102399  0.54574856  1.0
  Hf  Hf8  1  0.61102399  0.80551200  0.45425144  1.0
  Hf  Hf9  1  0.61102399  0.80551200  0.04574856  1.0
  Hf  Hf10  1  0.38897601  0.19448800  0.95425144  1.0
  Hf  Hf11  1  0.38897601  0.19448800  0.54574856  1.0
  Hf  Hf12  1  0.54267457  0.45732543  0.25000000  1.0
  Hf  Hf13  1  0.54267457  0.08534913  0.25000000  1.0
  Hf  Hf14  1  0.45732543  0.54267457  0.75000000  1.0
  Hf  Hf15  1  0.45732543  0.91465087  0.75000000  1.0
  Hf  Hf16  1  0.91465087  0.45732543  0.25000000  1.0
  Hf  Hf17  1  0.08534913  0.54267457  0.75000000  1.0
  Mo  Mo18  1  0.89015203  0.10984797  0.25000000  1.0
  Mo  Mo19  1  0.89015203  0.78030406  0.25000000  1.0
  Mo  Mo20  1  0.10984797  0.89015203  0.75000000  1.0
  Mo  Mo21  1  0.10984797  0.21969594  0.75000000  1.0
  Mo  Mo22  1  0.21969594  0.10984797  0.25000000  1.0
  Mo  Mo23  1  0.78030406  0.89015203  0.75000000  1.0
  Mo  Mo24  1  0.00000000  0.00000000  0.50000000  1.0
  Mo  Mo25  1  0.00000000  0.00000000  0.00000000  1.0
  Se  Se26  1  0.33333333  0.66666667  0.25000000  1.0
  Se  Se27  1  0.66666667  0.33333333  0.75000000  1.0
