# generated using pymatgen
data_KGeNO
_symmetry_space_group_name_H-M   'P 1'
_cell_length_a   5.80445449
_cell_length_b   8.18107004
_cell_length_c   5.28674619
_cell_angle_alpha   90.00000000
_cell_angle_beta   90.00000000
_cell_angle_gamma   90.00000000
_symmetry_Int_Tables_number   1
_chemical_formula_structural   KGeNO
_chemical_formula_sum   'K4 Ge4 N4 O4'
_cell_volume   251.04985950
_cell_formula_units_Z   4
loop_
 _symmetry_equiv_pos_site_id
 _symmetry_equiv_pos_as_xyz
  1  'x, y, z'
loop_
 _atom_site_type_symbol
 _atom_site_label
 _atom_site_symmetry_multiplicity
 _atom_site_fract_x
 _atom_site_fract_y
 _atom_site_fract_z
 _atom_site_occupancy
  K  K0  1  0.04370577  0.13853619  0.52338379  1.0
  K  K1  1  0.54370576  0.86146381  0.52338379  1.0
  K  K2  1  0.95629423  0.86146381  0.02338379  1.0
  K  K3  1  0.45629423  0.13853619  0.02338379  1.0
  Ge  Ge4  1  0.08992167  0.59497408  0.49337283  1.0
  Ge  Ge5  1  0.58992167  0.40502592  0.49337283  1.0
  Ge  Ge6  1  0.91007833  0.40502592  -0.00662717  1.0
  Ge  Ge7  1  0.41007833  0.59497408  -0.00662717  1.0
  N  N8  1  0.37353803  0.54306572  0.64773913  1.0
  N  N9  1  0.87353803  0.45693428  0.64773913  1.0
  N  N10  1  0.62646197  0.45693428  0.14773913  1.0
  N  N11  1  0.12646197  0.54306572  0.14773913  1.0
  O  O12  1  0.52642546  0.19611695  0.52750425  1.0
  O  O13  1  0.02642546  0.80388305  0.52750425  1.0
  O  O14  1  0.47357454  0.80388305  0.02750425  1.0
  O  O15  1  0.97357454  0.19611695  0.02750425  1.0
