# generated using pymatgen
data_CaWO4
_symmetry_space_group_name_H-M   'P 1'
_cell_length_a   6.86805931
_cell_length_b   6.86805931
_cell_length_c   6.86805931
_cell_angle_alpha   134.58646641
_cell_angle_beta   134.58646641
_cell_angle_gamma   66.17342080
_symmetry_Int_Tables_number   1
_chemical_formula_structural   CaWO4
_chemical_formula_sum   'Ca2 W2 O8'
_cell_volume   161.78353505
_cell_formula_units_Z   2
loop_
 _symmetry_equiv_pos_site_id
 _symmetry_equiv_pos_as_xyz
  1  'x, y, z'
loop_
 _atom_site_type_symbol
 _atom_site_label
 _atom_site_symmetry_multiplicity
 _atom_site_fract_x
 _atom_site_fract_y
 _atom_site_fract_z
 _atom_site_occupancy
  Ca  Ca0  1  0.25000000  0.75000000  0.50000000  1.0
  Ca  Ca1  1  0.50000000  0.50000000  0.00000000  1.0
  W  W2  1  0.75000000  0.25000000  0.50000000  1.0
  W  W3  1  1.00000000  1.00000000  1.00000000  1.0
  O  O4  1  0.23610616  0.84311113  0.90778331  1.0
  O  O5  1  0.93532782  0.32832285  1.09221669  1.0
  O  O6  1  1.07832285  0.48610616  0.89299503  1.0
  O  O7  1  0.59311113  1.18532782  1.10700497  1.0
  O  O8  1  1.51389384  1.40688887  1.59221669  1.0
  O  O9  1  0.81467218  0.92167715  0.40778331  1.0
  O  O10  1  0.67167715  0.76389384  0.60700497  1.0
  O  O11  1  1.15688887  1.06467218  1.39299503  1.0
