# generated using pymatgen
data_Y3In5
_symmetry_space_group_name_H-M   'P 1'
_cell_length_a   12.33205279
_cell_length_b   10.44033895
_cell_length_c   6.49300719
_cell_angle_alpha   90.00000000
_cell_angle_beta   90.00000000
_cell_angle_gamma   90.00000000
_symmetry_Int_Tables_number   1
_chemical_formula_structural   Y3In5
_chemical_formula_sum   'Y12 In20'
_cell_volume   835.97994246
_cell_formula_units_Z   4
loop_
 _symmetry_equiv_pos_site_id
 _symmetry_equiv_pos_as_xyz
  1  'x, y, z'
loop_
 _atom_site_type_symbol
 _atom_site_label
 _atom_site_symmetry_multiplicity
 _atom_site_fract_x
 _atom_site_fract_y
 _atom_site_fract_z
 _atom_site_occupancy
  Y  Y0  1  0.64307859  0.49314934  0.10917761  1.0
  Y  Y1  1  0.64307859  1.00685066  0.10917761  1.0
  Y  Y2  1  0.14307859  0.49314934  0.39082239  1.0
  Y  Y3  1  0.14307859  1.00685066  0.39082239  1.0
  Y  Y4  1  0.35692141  -0.00685066  0.89082239  1.0
  Y  Y5  1  0.35692141  0.50685066  0.89082239  1.0
  Y  Y6  1  0.85692141  -0.00685066  0.60917761  1.0
  Y  Y7  1  0.85692141  0.50685066  0.60917761  1.0
  Y  Y8  1  0.94310681  0.25000000  0.14839143  1.0
  Y  Y9  1  0.44310681  0.25000000  0.35160857  1.0
  Y  Y10  1  0.05689319  0.75000000  0.85160857  1.0
  Y  Y11  1  0.55689319  0.75000000  0.64839143  1.0
  In  In12  1  0.90106339  0.95567710  0.12429827  1.0
  In  In13  1  0.90106339  0.54432290  0.12429827  1.0
  In  In14  1  0.40106339  0.95567710  0.37570173  1.0
  In  In15  1  0.40106339  0.54432290  0.37570173  1.0
  In  In16  1  0.09893661  0.45567710  0.87570173  1.0
  In  In17  1  0.09893661  0.04432290  0.87570173  1.0
  In  In18  1  0.59893661  0.45567710  0.62429827  1.0
  In  In19  1  0.59893661  0.04432290  0.62429827  1.0
  In  In20  1  0.99394681  0.25000000  0.61605584  1.0
  In  In21  1  0.49394681  0.25000000  0.88394416  1.0
  In  In22  1  0.00605319  0.75000000  0.38394416  1.0
  In  In23  1  0.50605319  0.75000000  0.11605584  1.0
  In  In24  1  0.75392979  0.25000000  0.84767014  1.0
  In  In25  1  0.25392979  0.25000000  0.65232986  1.0
  In  In26  1  0.24607021  0.75000000  0.15232986  1.0
  In  In27  1  0.74607021  0.75000000  0.34767014  1.0
  In  In28  1  0.71550239  0.25000000  0.37339882  1.0
  In  In29  1  0.21550239  0.25000000  0.12660118  1.0
  In  In30  1  0.28449761  0.75000000  0.62660118  1.0
  In  In31  1  0.78449761  0.75000000  0.87339882  1.0
