# generated using pymatgen
data_Ca2Mg3Si
_symmetry_space_group_name_H-M   'P 1'
_cell_length_a   6.09070393
_cell_length_b   6.09070393
_cell_length_c   9.29291934
_cell_angle_alpha   90.00000000
_cell_angle_beta   90.00000000
_cell_angle_gamma   120.00000000
_symmetry_Int_Tables_number   1
_chemical_formula_structural   Ca2Mg3Si
_chemical_formula_sum   'Ca4 Mg6 Si2'
_cell_volume   298.55048226
_cell_formula_units_Z   2
loop_
 _symmetry_equiv_pos_site_id
 _symmetry_equiv_pos_as_xyz
  1  'x, y, z'
loop_
 _atom_site_type_symbol
 _atom_site_label
 _atom_site_symmetry_multiplicity
 _atom_site_fract_x
 _atom_site_fract_y
 _atom_site_fract_z
 _atom_site_occupancy
  Ca  Ca0  1  0.33333333  0.66666667  0.94348464  1.0
  Ca  Ca1  1  0.66666667  0.33333333  0.05651536  1.0
  Ca  Ca2  1  0.66666667  0.33333333  0.44348464  1.0
  Ca  Ca3  1  0.33333333  0.66666667  0.55651536  1.0
  Mg  Mg4  1  0.16574705  0.83425295  0.25000000  1.0
  Mg  Mg5  1  0.16574705  0.33149410  0.25000000  1.0
  Mg  Mg6  1  0.66850590  0.83425295  0.25000000  1.0
  Mg  Mg7  1  0.83425295  0.16574705  0.75000000  1.0
  Mg  Mg8  1  0.83425295  0.66850590  0.75000000  1.0
  Mg  Mg9  1  0.33149410  0.16574705  0.75000000  1.0
  Si  Si10  1  0.00000000  0.00000000  0.50000000  1.0
  Si  Si11  1  0.00000000  0.00000000  0.00000000  1.0
