# generated using pymatgen
data_PbSO4
_symmetry_space_group_name_H-M   'P 1'
_cell_length_a   8.57122107
_cell_length_b   5.53002628
_cell_length_c   7.12789908
_cell_angle_alpha   90.00000000
_cell_angle_beta   90.00000000
_cell_angle_gamma   90.00000000
_symmetry_Int_Tables_number   1
_chemical_formula_structural   PbSO4
_chemical_formula_sum   'Pb4 S4 O16'
_cell_volume   337.85584247
_cell_formula_units_Z   4
loop_
 _symmetry_equiv_pos_site_id
 _symmetry_equiv_pos_as_xyz
  1  'x, y, z'
loop_
 _atom_site_type_symbol
 _atom_site_label
 _atom_site_symmetry_multiplicity
 _atom_site_fract_x
 _atom_site_fract_y
 _atom_site_fract_z
 _atom_site_occupancy
  Pb  Pb0  1  0.30253790  0.75000000  0.17479295  1.0
  Pb  Pb1  1  0.80253790  0.75000000  0.32520705  1.0
  Pb  Pb2  1  0.69746210  0.25000000  0.82520705  1.0
  Pb  Pb3  1  0.19746210  0.25000000  0.67479295  1.0
  S  S4  1  0.43647257  0.75000000  0.68016833  1.0
  S  S5  1  0.93647257  0.75000000  0.81983167  1.0
  S  S6  1  0.56352743  0.25000000  0.31983167  1.0
  S  S7  1  0.06352743  0.25000000  0.18016833  1.0
  O  O8  1  0.41897744  0.97193615  0.80253666  1.0
  O  O9  1  0.41897744  0.52806385  0.80253666  1.0
  O  O10  1  0.91897744  0.97193615  0.69746334  1.0
  O  O11  1  0.91897744  0.52806385  0.69746334  1.0
  O  O12  1  0.58102256  0.47193615  0.19746334  1.0
  O  O13  1  0.58102256  0.02806385  0.19746334  1.0
  O  O14  1  0.08102256  0.47193615  0.30253666  1.0
  O  O15  1  0.08102256  0.02806385  0.30253666  1.0
  O  O16  1  0.30696045  0.75000000  0.53872131  1.0
  O  O17  1  0.80696045  0.75000000  0.96127869  1.0
  O  O18  1  0.69303955  0.25000000  0.46127869  1.0
  O  O19  1  0.19303955  0.25000000  0.03872131  1.0
  O  O20  1  0.09322573  0.75000000  0.90649583  1.0
  O  O21  1  0.59322573  0.75000000  0.59350417  1.0
  O  O22  1  0.90677427  0.25000000  0.09350417  1.0
  O  O23  1  0.40677427  0.25000000  0.40649583  1.0
