# generated using pymatgen
data_RbC2N5O4
_symmetry_space_group_name_H-M   'P 1'
_cell_length_a   8.14720441
_cell_length_b   8.33444056
_cell_length_c   11.10563256
_cell_angle_alpha   90.00000000
_cell_angle_beta   90.00000000
_cell_angle_gamma   90.00000000
_symmetry_Int_Tables_number   1
_chemical_formula_structural   RbC2N5O4
_chemical_formula_sum   'Rb4 C8 N20 O16'
_cell_volume   754.09900323
_cell_formula_units_Z   4
loop_
 _symmetry_equiv_pos_site_id
 _symmetry_equiv_pos_as_xyz
  1  'x, y, z'
loop_
 _atom_site_type_symbol
 _atom_site_label
 _atom_site_symmetry_multiplicity
 _atom_site_fract_x
 _atom_site_fract_y
 _atom_site_fract_z
 _atom_site_occupancy
  Rb  Rb0  1  0.15072159  0.52235133  0.86000970  1.0
  Rb  Rb1  1  0.65072159  0.97764867  0.13999030  1.0
  Rb  Rb2  1  0.84927841  0.02235133  0.63999030  1.0
  Rb  Rb3  1  0.34927841  0.47764867  0.36000970  1.0
  C  C4  1  0.39314511  0.87706592  0.72502783  1.0
  C  C5  1  0.89314511  0.62293408  0.27497217  1.0
  C  C6  1  0.60685489  0.37706592  0.77497217  1.0
  C  C7  1  0.10685489  0.12293408  0.22502783  1.0
  C  C8  1  0.39461796  0.89248075  0.54271262  1.0
  C  C9  1  0.89461796  0.60751925  0.45728738  1.0
  C  C10  1  0.60538204  0.39248075  0.95728738  1.0
  C  C11  1  0.10538204  0.10751925  0.04271262  1.0
  N  N12  1  0.48473442  0.93964803  0.63680543  1.0
  N  N13  1  0.98473442  0.56035197  0.36319457  1.0
  N  N14  1  0.51526558  0.43964803  0.86319457  1.0
  N  N15  1  0.01526558  0.06035197  0.13680543  1.0
  N  N16  1  0.43905267  0.88939261  0.84992389  1.0
  N  N17  1  0.93905267  0.61060739  0.15007611  1.0
  N  N18  1  0.56094733  0.38939261  0.65007611  1.0
  N  N19  1  0.06094733  0.11060739  0.34992389  1.0
  N  N20  1  0.25622829  0.79841784  0.68951671  1.0
  N  N21  1  0.75622829  0.70158216  0.31048329  1.0
  N  N22  1  0.74377171  0.29841784  0.81048329  1.0
  N  N23  1  0.24377171  0.20158216  0.18951671  1.0
  N  N24  1  0.25738989  0.80775473  0.56911514  1.0
  N  N25  1  0.75738989  0.69224527  0.43088486  1.0
  N  N26  1  0.74261011  0.30775473  0.93088486  1.0
  N  N27  1  0.24261011  0.19224527  0.06911514  1.0
  N  N28  1  0.94116335  0.57134258  0.57967315  1.0
  N  N29  1  0.44116335  0.92865742  0.42032685  1.0
  N  N30  1  0.05883665  0.07134258  0.92032685  1.0
  N  N31  1  0.55883665  0.42865742  0.07967315  1.0
  O  O32  1  0.42871851  0.45567561  0.62632380  1.0
  O  O33  1  0.92871851  0.04432439  0.37367620  1.0
  O  O34  1  0.57128149  0.95567561  0.87367620  1.0
  O  O35  1  0.07128149  0.54432439  0.12632380  1.0
  O  O36  1  0.34463236  0.83307022  0.92652397  1.0
  O  O37  1  0.84463236  0.66692978  0.07347603  1.0
  O  O38  1  0.65536764  0.33307022  0.57347603  1.0
  O  O39  1  0.15536764  0.16692978  0.42652397  1.0
  O  O40  1  0.95251297  0.96811467  0.90401613  1.0
  O  O41  1  0.45251297  0.53188533  0.09598387  1.0
  O  O42  1  0.04748703  0.46811467  0.59598387  1.0
  O  O43  1  0.54748703  0.03188533  0.40401613  1.0
  O  O44  1  0.87157213  0.64652598  0.66168249  1.0
  O  O45  1  0.37157213  0.85347402  0.33831751  1.0
  O  O46  1  0.12842787  0.14652598  0.83831751  1.0
  O  O47  1  0.62842787  0.35347402  0.16168249  1.0
