# generated using pymatgen
data_P2Pd15
_symmetry_space_group_name_H-M   'P 1'
_cell_length_a   7.11755334
_cell_length_b   7.11755334
_cell_length_c   7.11755334
_cell_angle_alpha   60.71486390
_cell_angle_beta   60.71486390
_cell_angle_gamma   60.71486390
_symmetry_Int_Tables_number   1
_chemical_formula_structural   P2Pd15
_chemical_formula_sum   'P2 Pd15'
_cell_volume   259.07634140
_cell_formula_units_Z   1
loop_
 _symmetry_equiv_pos_site_id
 _symmetry_equiv_pos_as_xyz
  1  'x, y, z'
loop_
 _atom_site_type_symbol
 _atom_site_label
 _atom_site_symmetry_multiplicity
 _atom_site_fract_x
 _atom_site_fract_y
 _atom_site_fract_z
 _atom_site_occupancy
  P  P0  1  0.78519948  0.78519948  -0.21480052  1.0
  P  P1  1  1.21480052  1.21480052  0.21480052  1.0
  Pd  Pd2  1  0.44702670  0.94097689  -0.27436286  1.0
  Pd  Pd3  1  1.05902311  1.27436286  0.55297330  1.0
  Pd  Pd4  1  1.27436286  1.55297330  0.05902311  1.0
  Pd  Pd5  1  1.55297330  1.05902311  0.27436286  1.0
  Pd  Pd6  1  0.94097689  0.72563714  -0.55297330  1.0
  Pd  Pd7  1  0.72563714  0.44702670  -0.05902311  1.0
  Pd  Pd8  1  0.57927112  0.57927112  -0.42072888  1.0
  Pd  Pd9  1  0.42072888  0.42072888  -0.57927112  1.0
  Pd  Pd10  1  -0.00000000  0.00000000  0.00000000  1.0
  Pd  Pd11  1  0.81885638  -0.34463487  0.13386500  1.0
  Pd  Pd12  1  0.34463487  0.86613500  -0.81885638  1.0
  Pd  Pd13  1  0.86613500  0.18114362  -0.65536513  1.0
  Pd  Pd14  1  0.18114362  0.34463487  -0.13386500  1.0
  Pd  Pd15  1  0.65536513  0.13386500  -0.18114362  1.0
  Pd  Pd16  1  1.13386500  -0.18114362  -0.34463487  1.0
