# generated using pymatgen
data_Y2Fe3Si5
_symmetry_space_group_name_H-M   'P 1'
_cell_length_a   10.36222644
_cell_length_b   10.36222644
_cell_length_c   5.48516767
_cell_angle_alpha   90.00000000
_cell_angle_beta   90.00000000
_cell_angle_gamma   90.00000000
_symmetry_Int_Tables_number   1
_chemical_formula_structural   Y2Fe3Si5
_chemical_formula_sum   'Y8 Fe12 Si20'
_cell_volume   588.97391996
_cell_formula_units_Z   4
loop_
 _symmetry_equiv_pos_site_id
 _symmetry_equiv_pos_as_xyz
  1  'x, y, z'
loop_
 _atom_site_type_symbol
 _atom_site_label
 _atom_site_symmetry_multiplicity
 _atom_site_fract_x
 _atom_site_fract_y
 _atom_site_fract_z
 _atom_site_occupancy
  Si  Si0  1  0.32285130  0.17714870  0.25000000  1.0
  Si  Si1  1  0.32285130  0.17714870  0.75000000  1.0
  Si  Si2  1  0.82285130  0.32285130  0.75000000  1.0
  Si  Si3  1  0.82285130  0.32285130  0.25000000  1.0
  Si  Si4  1  0.67714870  0.82285130  0.25000000  1.0
  Si  Si5  1  0.67714870  0.82285130  0.75000000  1.0
  Si  Si6  1  0.17714870  0.67714870  0.75000000  1.0
  Si  Si7  1  0.17714870  0.67714870  0.25000000  1.0
  Si  Si8  1  0.47803447  0.82008787  0.50000000  1.0
  Si  Si9  1  0.97803447  0.67991213  0.00000000  1.0
  Si  Si10  1  0.17991213  0.47803447  0.50000000  1.0
  Si  Si11  1  0.67991213  0.02196553  0.00000000  1.0
  Si  Si12  1  0.52196553  0.17991213  0.50000000  1.0
  Si  Si13  1  0.02196553  0.32008787  0.00000000  1.0
  Si  Si14  1  0.82008787  0.52196553  0.50000000  1.0
  Si  Si15  1  0.32008787  0.97803447  0.00000000  1.0
  Si  Si16  1  0.50000000  0.50000000  0.26934719  1.0
  Si  Si17  1  0.50000000  0.50000000  0.73065281  1.0
  Si  Si18  1  0.00000000  0.00000000  0.76934719  1.0
  Si  Si19  1  0.00000000  0.00000000  0.23065281  1.0
  Fe  Fe20  1  0.35492946  0.62304173  0.50000000  1.0
  Fe  Fe21  1  0.85492946  0.87695827  0.00000000  1.0
  Fe  Fe22  1  0.37695827  0.35492946  0.50000000  1.0
  Fe  Fe23  1  0.87695827  0.14507054  0.00000000  1.0
  Fe  Fe24  1  0.64507054  0.37695827  0.50000000  1.0
  Fe  Fe25  1  0.14507054  0.12304173  0.00000000  1.0
  Fe  Fe26  1  0.62304173  0.64507054  0.50000000  1.0
  Fe  Fe27  1  0.12304173  0.85492946  0.00000000  1.0
  Fe  Fe28  1  0.50000000  0.00000000  0.25000000  1.0
  Fe  Fe29  1  0.50000000  0.00000000  0.75000000  1.0
  Fe  Fe30  1  0.00000000  0.50000000  0.75000000  1.0
  Fe  Fe31  1  0.00000000  0.50000000  0.25000000  1.0
  Y  Y32  1  0.23616402  0.93035644  0.50000000  1.0
  Y  Y33  1  0.73616402  0.56964356  0.00000000  1.0
  Y  Y34  1  0.06964356  0.23616402  0.50000000  1.0
  Y  Y35  1  0.56964356  0.26383598  0.00000000  1.0
  Y  Y36  1  0.76383598  0.06964356  0.50000000  1.0
  Y  Y37  1  0.26383598  0.43035644  0.00000000  1.0
  Y  Y38  1  0.93035644  0.76383598  0.50000000  1.0
  Y  Y39  1  0.43035644  0.73616402  0.00000000  1.0
