# generated using pymatgen
data_Ba3Zn6Si4TeO20
_symmetry_space_group_name_H-M   'P 1'
_cell_length_a   9.97414426
_cell_length_b   9.97414426
_cell_length_c   5.21276644
_cell_angle_alpha   76.04200073
_cell_angle_beta   103.95799927
_cell_angle_gamma   108.06708914
_symmetry_Int_Tables_number   1
_chemical_formula_structural   Ba3Zn6Si4TeO20
_chemical_formula_sum   'Ba3 Zn6 Si4 Te1 O20'
_cell_volume   470.61150789
_cell_formula_units_Z   1
loop_
 _symmetry_equiv_pos_site_id
 _symmetry_equiv_pos_as_xyz
  1  'x, y, z'
loop_
 _atom_site_type_symbol
 _atom_site_label
 _atom_site_symmetry_multiplicity
 _atom_site_fract_x
 _atom_site_fract_y
 _atom_site_fract_z
 _atom_site_occupancy
  Ba  Ba0  1  0.28634713  -0.28634713  0.75413245  1.0
  Ba  Ba1  1  0.71365287  -0.71365287  0.24586755  1.0
  Ba  Ba2  1  -0.00000000  0.00000000  0.50000000  1.0
  Zn  Zn3  1  1.42187114  0.13374574  0.66992535  1.0
  Zn  Zn4  1  0.86625426  -0.42187114  0.66992535  1.0
  Zn  Zn5  1  1.13374574  0.42187114  0.33007465  1.0
  Zn  Zn6  1  0.57812886  -0.13374574  0.33007465  1.0
  Zn  Zn7  1  0.65816020  -0.34183980  0.00000000  1.0
  Zn  Zn8  1  1.34183980  0.34183980  0.00000000  1.0
  Si  Si9  1  1.71938563  0.02014755  0.84419848  1.0
  Si  Si10  1  0.97985245  -0.71938563  0.84419848  1.0
  Si  Si11  1  1.02014755  0.71938563  0.15580152  1.0
  Si  Si12  1  0.28061437  -0.02014755  0.15580152  1.0
  Te  Te13  1  0.50000000  -0.50000000  0.50000000  1.0
  O  O14  1  0.54793056  -0.30712901  0.61143741  1.0
  O  O15  1  1.30712901  0.45206944  0.61143741  1.0
  O  O16  1  0.69287099  -0.45206944  0.38856259  1.0
  O  O17  1  1.45206944  0.30712901  0.38856259  1.0
  O  O18  1  1.72405122  0.00616142  0.53941185  1.0
  O  O19  1  0.99383858  -0.72405122  0.53941185  1.0
  O  O20  1  1.00616142  0.72405122  0.46058815  1.0
  O  O21  1  0.27594878  -0.00616142  0.46058815  1.0
  O  O22  1  1.61462927  0.11703801  0.84232673  1.0
  O  O23  1  0.88296199  -0.61462927  0.84232673  1.0
  O  O24  1  1.11703801  0.61462927  0.15767327  1.0
  O  O25  1  0.38537073  -0.11703801  0.15767327  1.0
  O  O26  1  1.31361874  0.13326931  0.94560379  1.0
  O  O27  1  0.86673069  -0.31361874  0.94560379  1.0
  O  O28  1  1.13326931  0.31361874  0.05439621  1.0
  O  O29  1  0.68638126  -0.13326931  0.05439621  1.0
  O  O30  1  0.88886395  -0.88886395  0.96823770  1.0
  O  O31  1  0.11113605  -0.11113605  0.03176230  1.0
  O  O32  1  0.57133153  -0.57133153  0.87474344  1.0
  O  O33  1  0.42866847  -0.42866847  0.12525656  1.0
