# generated using pymatgen
data_AuSe
_symmetry_space_group_name_H-M   'P 1'
_cell_length_a   6.52209508
_cell_length_b   6.52209508
_cell_length_c   8.90423218
_cell_angle_alpha   78.83223926
_cell_angle_beta   101.16776074
_cell_angle_gamma   146.32087907
_symmetry_Int_Tables_number   1
_chemical_formula_structural   AuSe
_chemical_formula_sum   'Au4 Se4'
_cell_volume   205.69575066
_cell_formula_units_Z   4
loop_
 _symmetry_equiv_pos_site_id
 _symmetry_equiv_pos_as_xyz
  1  'x, y, z'
loop_
 _atom_site_type_symbol
 _atom_site_label
 _atom_site_symmetry_multiplicity
 _atom_site_fract_x
 _atom_site_fract_y
 _atom_site_fract_z
 _atom_site_occupancy
  Au  Au0  1  0.84931826  0.15068174  0.99195223  1.0
  Au  Au1  1  0.15068174  -0.15068174  0.00804777  1.0
  Au  Au2  1  0.46390242  -0.46390242  0.71920596  1.0
  Au  Au3  1  0.53609758  0.46390242  0.28079404  1.0
  Se  Se4  1  0.90092240  0.09907760  0.27277115  1.0
  Se  Se5  1  0.09907760  -0.09907760  0.72722885  1.0
  Se  Se6  1  0.82883441  0.17116559  0.71169804  1.0
  Se  Se7  1  0.17116559  -0.17116559  0.28830196  1.0
