# generated using pymatgen
data_Li10Zn4O9
_symmetry_space_group_name_H-M   'P 1'
_cell_length_a   9.78858011
_cell_length_b   9.78858011
_cell_length_c   4.67785990
_cell_angle_alpha   90.00000000
_cell_angle_beta   90.00000000
_cell_angle_gamma   90.00000000
_symmetry_Int_Tables_number   1
_chemical_formula_structural   Li10Zn4O9
_chemical_formula_sum   'Li20 Zn8 O18'
_cell_volume   448.21523018
_cell_formula_units_Z   2
loop_
 _symmetry_equiv_pos_site_id
 _symmetry_equiv_pos_as_xyz
  1  'x, y, z'
loop_
 _atom_site_type_symbol
 _atom_site_label
 _atom_site_symmetry_multiplicity
 _atom_site_fract_x
 _atom_site_fract_y
 _atom_site_fract_z
 _atom_site_occupancy
  Li  Li0  1  0.50000000  0.00000000  0.17154335  1.0
  Li  Li1  1  0.50000000  0.00000000  0.67154335  1.0
  Li  Li2  1  0.00000000  0.50000000  0.32845665  1.0
  Li  Li3  1  0.00000000  0.50000000  0.82845665  1.0
  Li  Li4  1  0.68801394  0.14346632  0.21105536  1.0
  Li  Li5  1  0.31198606  0.14346632  0.21105536  1.0
  Li  Li6  1  0.68801394  0.85653368  0.21105536  1.0
  Li  Li7  1  0.31198606  0.85653368  0.21105536  1.0
  Li  Li8  1  0.64346632  0.18801394  0.71105536  1.0
  Li  Li9  1  0.35653368  0.18801394  0.71105536  1.0
  Li  Li10  1  0.64346632  0.81198606  0.71105536  1.0
  Li  Li11  1  0.35653368  0.81198606  0.71105536  1.0
  Li  Li12  1  0.81198606  0.35653368  0.28894464  1.0
  Li  Li13  1  0.18801394  0.35653368  0.28894464  1.0
  Li  Li14  1  0.81198606  0.64346632  0.28894464  1.0
  Li  Li15  1  0.18801394  0.64346632  0.28894464  1.0
  Li  Li16  1  0.85653368  0.31198606  0.78894464  1.0
  Li  Li17  1  0.14346632  0.31198606  0.78894464  1.0
  Li  Li18  1  0.85653368  0.68801394  0.78894464  1.0
  Li  Li19  1  0.14346632  0.68801394  0.78894464  1.0
  Zn  Zn20  1  0.50000000  0.33741119  0.23163982  1.0
  Zn  Zn21  1  0.50000000  0.66258881  0.23163982  1.0
  Zn  Zn22  1  0.83741119  0.00000000  0.73163982  1.0
  Zn  Zn23  1  0.16258881  0.00000000  0.73163982  1.0
  Zn  Zn24  1  0.00000000  0.16258881  0.26836018  1.0
  Zn  Zn25  1  0.00000000  0.83741119  0.26836018  1.0
  Zn  Zn26  1  0.66258881  0.50000000  0.76836018  1.0
  Zn  Zn27  1  0.33741119  0.50000000  0.76836018  1.0
  O  O28  1  0.00000000  0.34295781  0.06753279  1.0
  O  O29  1  0.00000000  0.65704219  0.06753279  1.0
  O  O30  1  0.84295781  0.50000000  0.56753279  1.0
  O  O31  1  0.15704219  0.50000000  0.56753279  1.0
  O  O32  1  0.50000000  0.15704219  0.43246721  1.0
  O  O33  1  0.50000000  0.84295781  0.43246721  1.0
  O  O34  1  0.65704219  0.00000000  0.93246721  1.0
  O  O35  1  0.34295781  0.00000000  0.93246721  1.0
  O  O36  1  0.00000000  0.00000000  0.00000000  1.0
  O  O37  1  0.50000000  0.50000000  0.50000000  1.0
  O  O38  1  0.67407107  0.32592893  0.00000000  1.0
  O  O39  1  0.32592893  0.32592893  0.00000000  1.0
  O  O40  1  0.67407107  0.67407107  0.00000000  1.0
  O  O41  1  0.32592893  0.67407107  0.00000000  1.0
  O  O42  1  0.82592893  0.17407107  0.50000000  1.0
  O  O43  1  0.17407107  0.17407107  0.50000000  1.0
  O  O44  1  0.82592893  0.82592893  0.50000000  1.0
  O  O45  1  0.17407107  0.82592893  0.50000000  1.0
