# generated using pymatgen
data_RbZn2HSe2O7
_symmetry_space_group_name_H-M   'P 1'
_cell_length_a   12.06563926
_cell_length_b   7.63196153
_cell_length_c   5.07785380
_cell_angle_alpha   69.71728295
_cell_angle_beta   77.21555602
_cell_angle_gamma   80.81164769
_symmetry_Int_Tables_number   1
_chemical_formula_structural   RbZn2HSe2O7
_chemical_formula_sum   'Rb2 Zn4 H2 Se4 O14'
_cell_volume   425.96164621
_cell_formula_units_Z   2
loop_
 _symmetry_equiv_pos_site_id
 _symmetry_equiv_pos_as_xyz
  1  'x, y, z'
loop_
 _atom_site_type_symbol
 _atom_site_label
 _atom_site_symmetry_multiplicity
 _atom_site_fract_x
 _atom_site_fract_y
 _atom_site_fract_z
 _atom_site_occupancy
  Rb  Rb0  1  -0.71184412  -0.62986694  -0.32684545  1.0
  Rb  Rb1  1  -0.28815588  -0.37013306  -0.67315455  1.0
  Zn  Zn2  1  -0.64731897  -1.00184352  -0.64795293  1.0
  Zn  Zn3  1  -0.35268103  0.00184352  -0.35204707  1.0
  Zn  Zn4  1  -0.92591614  -0.71431082  -0.64740421  1.0
  Zn  Zn5  1  -0.07408386  -0.28568918  -0.35259579  1.0
  H  H6  1  -0.14930022  -0.96076428  -0.45620836  1.0
  H  H7  1  -0.85069978  -0.03923572  -0.54379164  1.0
  Se  Se8  1  -0.90357775  -0.26765716  -0.95213099  1.0
  Se  Se9  1  -0.09642225  -0.73234284  -0.04786901  1.0
  Se  Se10  1  -0.43316676  -0.74152502  -0.94724931  1.0
  Se  Se11  1  -0.56683324  -0.25847498  -0.05275069  1.0
  O  O12  1  -0.57856454  -0.76206677  -0.85557148  1.0
  O  O13  1  -0.42143546  -0.23793323  -0.14442852  1.0
  O  O14  1  -0.83755335  -0.49353826  -0.84920394  1.0
  O  O15  1  -0.16244665  -0.50646174  -0.15079606  1.0
  O  O16  1  -0.37472337  -0.95514574  -0.75547296  1.0
  O  O17  1  -0.62527663  -0.04485426  -0.24452704  1.0
  O  O18  1  -0.59980793  -0.24684695  -0.70939593  1.0
  O  O19  1  -0.40019207  -0.75315305  -0.29060407  1.0
  O  O20  1  -0.07357808  -0.75805445  -0.70971574  1.0
  O  O21  1  -0.92642192  -0.24194555  -0.29028426  1.0
  O  O22  1  -0.81038224  -0.92615877  -0.65310527  1.0
  O  O23  1  -0.18961776  -0.07384123  -0.34689473  1.0
  O  O24  1  -0.96065900  -0.70861863  -0.24060167  1.0
  O  O25  1  -0.03934100  -0.29138137  -0.75939833  1.0
