# generated using pymatgen
data_K3AlP2
_symmetry_space_group_name_H-M   'P 1'
_cell_length_a   15.23607045
_cell_length_b   11.99507716
_cell_length_c   8.95226902
_cell_angle_alpha   71.90525732
_cell_angle_beta   73.28139661
_cell_angle_gamma   72.69722551
_symmetry_Int_Tables_number   1
_chemical_formula_structural   K3AlP2
_chemical_formula_sum   'K24 Al8 P16'
_cell_volume   1450.01789661
_cell_formula_units_Z   8
loop_
 _symmetry_equiv_pos_site_id
 _symmetry_equiv_pos_as_xyz
  1  'x, y, z'
loop_
 _atom_site_type_symbol
 _atom_site_label
 _atom_site_symmetry_multiplicity
 _atom_site_fract_x
 _atom_site_fract_y
 _atom_site_fract_z
 _atom_site_occupancy
  K  K0  1  -0.81984150  -0.73328744  -0.18730441  1.0
  K  K1  1  -0.18015850  -0.26671256  -0.81269559  1.0
  K  K2  1  -0.19143105  -0.89954671  -0.81140150  1.0
  K  K3  1  -0.80856895  -0.10045329  -0.18859850  1.0
  K  K4  1  -0.08385282  -0.60674393  -0.98321910  1.0
  K  K5  1  -0.91614718  -0.39325607  -0.01678090  1.0
  K  K6  1  -0.47569973  -0.41226325  -0.68357810  1.0
  K  K7  1  -0.52430027  -0.58773675  -0.31642190  1.0
  K  K8  1  -0.65916626  -0.92595311  -0.51577048  1.0
  K  K9  1  -0.34083374  -0.07404689  -0.48422952  1.0
  K  K10  1  -0.12019730  -0.24172696  -0.22937639  1.0
  K  K11  1  -0.87980270  -0.75827304  -0.77062361  1.0
  K  K12  1  -0.34941153  -0.59629204  -0.02806990  1.0
  K  K13  1  -0.65058847  -0.40370796  -0.97193010  1.0
  K  K14  1  -0.25855066  -0.91766821  -0.15284362  1.0
  K  K15  1  -0.74144934  -0.08233179  -0.84715638  1.0
  K  K16  1  -0.19414990  -0.41591105  -0.34498873  1.0
  K  K17  1  -0.80585010  -0.58408895  -0.65501127  1.0
  K  K18  1  -0.08266661  -0.87431569  -0.50096943  1.0
  K  K19  1  -0.91733339  -0.12568431  -0.49903057  1.0
  K  K20  1  -0.52438747  -0.88159735  -0.17355128  1.0
  K  K21  1  -0.47561253  -0.11840265  -0.82644872  1.0
  K  K22  1  -0.24571524  -0.58665011  -0.52655490  1.0
  K  K23  1  -0.75428476  -0.41334989  -0.47344510  1.0
  Al  Al24  1  -0.44525645  -0.76648517  -0.63557509  1.0
  Al  Al25  1  -0.55474355  -0.23351483  -0.36442491  1.0
  Al  Al26  1  -0.00941003  -0.88661342  -0.15165811  1.0
  Al  Al27  1  -0.99058997  -0.11338658  -0.84834189  1.0
  Al  Al28  1  -0.00836181  -0.63989036  -0.40405201  1.0
  Al  Al29  1  -0.99163819  -0.36010964  -0.59594799  1.0
  Al  Al30  1  -0.57246376  -0.72053889  -0.84773360  1.0
  Al  Al31  1  -0.42753624  -0.27946111  -0.15226640  1.0
  P  P32  1  -0.04055898  -0.08575332  -0.09778140  1.0
  P  P33  1  -0.95944102  -0.91424668  -0.90221860  1.0
  P  P34  1  -0.58767719  -0.62350856  -0.64343681  1.0
  P  P35  1  -0.41232281  -0.37649144  -0.35656319  1.0
  P  P36  1  -0.42984999  -0.86722820  -0.83505660  1.0
  P  P37  1  -0.57015001  -0.13277180  -0.16494340  1.0
  P  P38  1  -0.31965414  -0.32407046  -1.00038392  1.0
  P  P39  1  -0.68034586  -0.67592954  0.00038392  1.0
  P  P40  1  -0.89498705  -0.83368722  -0.40139961  1.0
  P  P41  1  -0.10501295  -0.16631278  -0.59860039  1.0
  P  P42  1  -0.14108752  -0.71758283  -0.21451472  1.0
  P  P43  1  -0.85891248  -0.28241717  -0.78548528  1.0
  P  P44  1  -0.03790058  -0.51678593  -0.66801908  1.0
  P  P45  1  -0.96209942  -0.48321407  -0.33198092  1.0
  P  P46  1  -0.34490403  -0.79909602  -0.47563854  1.0
  P  P47  1  -0.65509597  -0.20090398  -0.52436146  1.0
