# generated using pymatgen
data_LaCO3F
_symmetry_space_group_name_H-M   'P 1'
_cell_length_a   7.32093967
_cell_length_b   7.32093967
_cell_length_c   4.95852409
_cell_angle_alpha   90.00000000
_cell_angle_beta   90.00000000
_cell_angle_gamma   120.00000000
_symmetry_Int_Tables_number   1
_chemical_formula_structural   LaCO3F
_chemical_formula_sum   'La3 C3 O9 F3'
_cell_volume   230.15303950
_cell_formula_units_Z   3
loop_
 _symmetry_equiv_pos_site_id
 _symmetry_equiv_pos_as_xyz
  1  'x, y, z'
loop_
 _atom_site_type_symbol
 _atom_site_label
 _atom_site_symmetry_multiplicity
 _atom_site_fract_x
 _atom_site_fract_y
 _atom_site_fract_z
 _atom_site_occupancy
  La  La0  1  0.67259101  0.67259101  -0.00000000  1.0
  La  La1  1  0.32740899  -0.00000000  0.00000000  1.0
  La  La2  1  0.00000000  0.32740899  -0.00000000  1.0
  C  C3  1  0.39907075  0.39907075  0.50000000  1.0
  C  C4  1  0.60092925  -0.00000000  0.50000000  1.0
  C  C5  1  0.00000000  0.60092925  0.50000000  1.0
  O  O6  1  0.31551290  0.31551290  0.72880801  1.0
  O  O7  1  0.68448710  0.00000000  0.72880801  1.0
  O  O8  1  0.00000000  0.68448710  0.72880801  1.0
  O  O9  1  0.31551290  0.31551290  0.27119199  1.0
  O  O10  1  0.68448710  0.00000000  0.27119199  1.0
  O  O11  1  0.00000000  0.68448710  0.27119199  1.0
  O  O12  1  0.57732556  0.57732556  0.50000000  1.0
  O  O13  1  0.42267444  0.00000000  0.50000000  1.0
  O  O14  1  0.00000000  0.42267444  0.50000000  1.0
  F  F15  1  0.66666667  0.33333333  -0.00000000  1.0
  F  F16  1  0.33333333  0.66666667  0.00000000  1.0
  F  F17  1  0.00000000  0.00000000  0.00000000  1.0
