# generated using pymatgen
data_NaCr2FeO8
_symmetry_space_group_name_H-M   'P 1'
_cell_length_a   5.03690853
_cell_length_b   5.03690853
_cell_length_c   6.99638196
_cell_angle_alpha   89.71356535
_cell_angle_beta   90.28643465
_cell_angle_gamma   114.99521420
_symmetry_Int_Tables_number   1
_chemical_formula_structural   NaCr2FeO8
_chemical_formula_sum   'Na1 Cr2 Fe1 O8'
_cell_volume   160.87428719
_cell_formula_units_Z   1
loop_
 _symmetry_equiv_pos_site_id
 _symmetry_equiv_pos_as_xyz
  1  'x, y, z'
loop_
 _atom_site_type_symbol
 _atom_site_label
 _atom_site_symmetry_multiplicity
 _atom_site_fract_x
 _atom_site_fract_y
 _atom_site_fract_z
 _atom_site_occupancy
  Cr  Cr0  1  0.64311306  -0.64311306  0.78441482  1.0
  Cr  Cr1  1  0.35688694  -0.35688694  0.21558518  1.0
  Fe  Fe2  1  0.00000000  0.00000000  0.00000000  1.0
  Na  Na3  1  0.00000000  -0.00000000  0.50000000  1.0
  O  O4  1  0.71612839  -0.71612839  0.57385291  1.0
  O  O5  1  0.28387161  -0.28387161  0.42614709  1.0
  O  O6  1  1.27061605  0.21273707  0.80732044  1.0
  O  O7  1  0.78726293  -0.27061605  0.80732044  1.0
  O  O8  1  1.21273707  0.27061605  0.19267956  1.0
  O  O9  1  0.72938395  -0.21273707  0.19267956  1.0
  O  O10  1  0.78369715  -0.78369715  0.94732222  1.0
  O  O11  1  0.21630285  -0.21630285  0.05267778  1.0
