# generated using pymatgen
data_Nb2F5
_symmetry_space_group_name_H-M   'P 1'
_cell_length_a   7.20225589
_cell_length_b   7.20225589
_cell_length_c   7.20225589
_cell_angle_alpha   109.47122063
_cell_angle_beta   109.47122063
_cell_angle_gamma   109.47122063
_symmetry_Int_Tables_number   1
_chemical_formula_structural   Nb2F5
_chemical_formula_sum   'Nb6 F15'
_cell_volume   287.59660269
_cell_formula_units_Z   3
loop_
 _symmetry_equiv_pos_site_id
 _symmetry_equiv_pos_as_xyz
  1  'x, y, z'
loop_
 _atom_site_type_symbol
 _atom_site_label
 _atom_site_symmetry_multiplicity
 _atom_site_fract_x
 _atom_site_fract_y
 _atom_site_fract_z
 _atom_site_occupancy
  Nb  Nb0  1  -0.00000000  0.76089915  0.76089915  1.0
  Nb  Nb1  1  0.76089915  -0.00000000  0.76089915  1.0
  Nb  Nb2  1  0.76089915  0.76089915  0.00000000  1.0
  Nb  Nb3  1  0.23910085  0.23910085  -0.00000000  1.0
  Nb  Nb4  1  0.23910085  0.00000000  0.23910085  1.0
  Nb  Nb5  1  -0.00000000  0.23910085  0.23910085  1.0
  F  F6  1  -0.00000000  0.50000000  0.50000000  1.0
  F  F7  1  0.50000000  0.00000000  0.50000000  1.0
  F  F8  1  0.50000000  0.50000000  0.00000000  1.0
  F  F9  1  0.50134919  0.75067459  0.75067459  1.0
  F  F10  1  1.00000000  1.24932541  0.75067459  1.0
  F  F11  1  1.00000000  0.75067459  0.24932541  1.0
  F  F12  1  1.49865081  1.24932541  1.24932541  1.0
  F  F13  1  0.75067459  0.50134919  0.75067459  1.0
  F  F14  1  1.24932541  1.00000000  0.75067459  1.0
  F  F15  1  0.75067459  0.75067459  0.50134919  1.0
  F  F16  1  1.24932541  0.75067459  1.00000000  1.0
  F  F17  1  0.75067459  1.00000000  0.24932541  1.0
  F  F18  1  1.24932541  1.49865081  1.24932541  1.0
  F  F19  1  0.75067459  1.24932541  1.00000000  1.0
  F  F20  1  0.24932541  0.24932541  0.49865081  1.0
