# generated using pymatgen
data_Mg2NiH4
_symmetry_space_group_name_H-M   'P 1'
_cell_length_a   7.85199237
_cell_length_b   7.85199237
_cell_length_c   6.47568397
_cell_angle_alpha   68.79011061
_cell_angle_beta   111.20988939
_cell_angle_gamma   131.96500395
_symmetry_Int_Tables_number   1
_chemical_formula_structural   Mg2NiH4
_chemical_formula_sum   'Mg8 Ni4 H16'
_cell_volume   272.58561420
_cell_formula_units_Z   4
loop_
 _symmetry_equiv_pos_site_id
 _symmetry_equiv_pos_as_xyz
  1  'x, y, z'
loop_
 _atom_site_type_symbol
 _atom_site_label
 _atom_site_symmetry_multiplicity
 _atom_site_fract_x
 _atom_site_fract_y
 _atom_site_fract_z
 _atom_site_occupancy
  Mg  Mg0  1  1.24863714  -0.22293544  0.91837216  1.0
  Mg  Mg1  1  1.22293544  -0.24863714  0.41837216  1.0
  Mg  Mg2  1  0.77706456  -0.75136286  0.58162784  1.0
  Mg  Mg3  1  1.75136286  0.22293544  0.08162784  1.0
  Mg  Mg4  1  0.97622093  0.97622093  0.75000000  1.0
  Mg  Mg5  1  0.02377907  0.02377907  0.25000000  1.0
  Mg  Mg6  1  0.47460315  0.47460315  0.75000000  1.0
  Mg  Mg7  1  0.52539685  0.52539685  0.25000000  1.0
  Ni  Ni8  1  1.64995283  -0.11007364  0.91920375  1.0
  Ni  Ni9  1  1.11007364  -0.64995283  0.41920375  1.0
  Ni  Ni10  1  0.88992636  -0.35004717  0.58079625  1.0
  Ni  Ni11  1  1.35004717  0.11007364  0.08079625  1.0
  H  H12  1  1.69965194  -0.28047333  0.94718728  1.0
  H  H13  1  1.28047333  -0.69965194  0.44718728  1.0
  H  H14  1  0.71952667  -0.30034806  0.55281272  1.0
  H  H15  1  1.30034806  0.28047333  0.05281272  1.0
  H  H16  1  1.86323474  0.11134528  0.42545601  1.0
  H  H17  1  0.88865472  -0.86323474  0.92545601  1.0
  H  H18  1  1.11134528  -0.13676526  0.07454399  1.0
  H  H19  1  1.13676526  -0.11134528  0.57454399  1.0
  H  H20  1  1.48575238  -0.09520411  0.69651038  1.0
  H  H21  1  1.09520411  -0.48575238  0.19651038  1.0
  H  H22  1  0.90479589  -0.51424762  0.80348962  1.0
  H  H23  1  1.51424762  0.09520411  0.30348962  1.0
  H  H24  1  1.45660465  0.17927010  0.87576589  1.0
  H  H25  1  0.82072990  -0.45660465  0.37576589  1.0
  H  H26  1  1.17927010  -0.54339535  0.62423411  1.0
  H  H27  1  1.54339535  -0.17927010  0.12423411  1.0
