# generated using pymatgen
data_Fe3S4
_symmetry_space_group_name_H-M   'P 1'
_cell_length_a   11.49546603
_cell_length_b   11.49546603
_cell_length_c   11.49546603
_cell_angle_alpha   16.55805513
_cell_angle_beta   16.55805513
_cell_angle_gamma   16.55805513
_symmetry_Int_Tables_number   1
_chemical_formula_structural   Fe3S4
_chemical_formula_sum   'Fe3 S4'
_cell_volume   107.58986379
_cell_formula_units_Z   1
loop_
 _symmetry_equiv_pos_site_id
 _symmetry_equiv_pos_as_xyz
  1  'x, y, z'
loop_
 _atom_site_type_symbol
 _atom_site_label
 _atom_site_symmetry_multiplicity
 _atom_site_fract_x
 _atom_site_fract_y
 _atom_site_fract_z
 _atom_site_occupancy
  Fe  Fe0  1  0.00000000  0.00000000  0.00000000  1.0
  Fe  Fe1  1  0.92060726  0.92060726  0.92060726  1.0
  Fe  Fe2  1  1.07939274  1.07939274  0.07939274  1.0
  S  S3  1  0.77976625  0.77976625  0.77976625  1.0
  S  S4  1  1.22023375  1.22023375  0.22023375  1.0
  S  S5  1  1.63086529  0.63086529  0.63086529  1.0
  S  S6  1  1.36913471  0.36913471  0.36913471  1.0
