# generated using pymatgen
data_Cs3B12H12Cl
_symmetry_space_group_name_H-M   'P 1'
_cell_length_a   7.27828636
_cell_length_b   7.27828636
_cell_length_c   7.27828636
_cell_angle_alpha   92.49297438
_cell_angle_beta   92.49297438
_cell_angle_gamma   92.49297439
_symmetry_Int_Tables_number   1
_chemical_formula_structural   Cs3B12H12Cl
_chemical_formula_sum   'Cs3 B12 H12 Cl1'
_cell_volume   384.42838164
_cell_formula_units_Z   1
loop_
 _symmetry_equiv_pos_site_id
 _symmetry_equiv_pos_as_xyz
  1  'x, y, z'
loop_
 _atom_site_type_symbol
 _atom_site_label
 _atom_site_symmetry_multiplicity
 _atom_site_fract_x
 _atom_site_fract_y
 _atom_site_fract_z
 _atom_site_occupancy
  Cs  Cs0  1  1.00000000  -0.50000000  -0.00000000  1.0
  Cs  Cs1  1  1.00000000  -0.00000000  -0.50000000  1.0
  Cs  Cs2  1  0.50000000  -0.00000000  -0.00000000  1.0
  B  B3  1  1.55525396  0.55525396  -0.27588010  1.0
  B  B4  1  1.55525396  -0.27588010  0.55525396  1.0
  B  B5  1  1.27588010  0.44474604  -0.55525396  1.0
  B  B6  1  0.44474604  1.27588010  -0.55525396  1.0
  B  B7  1  0.44474604  0.44474604  0.27588010  1.0
  B  B8  1  0.72411990  0.55525396  0.55525396  1.0
  B  B9  1  1.38243312  0.38243312  -0.34417211  1.0
  B  B10  1  1.38243312  -0.34417211  0.38243312  1.0
  B  B11  1  1.34417211  0.61756688  -0.38243312  1.0
  B  B12  1  0.61756688  1.34417211  -0.38243312  1.0
  B  B13  1  0.61756688  0.61756688  0.34417211  1.0
  B  B14  1  0.65582789  0.38243312  0.38243312  1.0
  H  H15  1  1.29788134  0.29788134  -0.23409168  1.0
  H  H16  1  1.29788134  -0.23409168  0.29788134  1.0
  H  H17  1  1.23409168  0.70211866  -0.29788134  1.0
  H  H18  1  0.70211866  1.23409168  -0.29788134  1.0
  H  H19  1  0.70211866  0.70211866  0.23409168  1.0
  H  H20  1  0.76590832  0.29788134  0.29788134  1.0
  H  H21  1  0.40624312  0.40624312  0.11627421  1.0
  H  H22  1  0.40624312  1.11627421  -0.59375688  1.0
  H  H23  1  0.88372579  0.59375688  0.59375688  1.0
  H  H24  1  1.59375688  -0.11627421  0.59375688  1.0
  H  H25  1  1.59375688  0.59375688  -0.11627421  1.0
  H  H26  1  1.11627421  0.40624312  -0.59375688  1.0
  Cl  Cl27  1  0.00000000  0.00000000  0.00000000  1.0
