# generated using pymatgen
data_ZnAs2C4(NF9)2
_symmetry_space_group_name_H-M   'P 1'
_cell_length_a   11.61795753
_cell_length_b   7.03367861
_cell_length_c   10.87852926
_cell_angle_alpha   90.00000000
_cell_angle_beta   105.16194158
_cell_angle_gamma   90.00000000
_symmetry_Int_Tables_number   1
_chemical_formula_structural   ZnAs2C4(NF9)2
_chemical_formula_sum   'Zn2 As4 C8 N4 F36'
_cell_volume   858.01622462
_cell_formula_units_Z   2
loop_
 _symmetry_equiv_pos_site_id
 _symmetry_equiv_pos_as_xyz
  1  'x, y, z'
loop_
 _atom_site_type_symbol
 _atom_site_label
 _atom_site_symmetry_multiplicity
 _atom_site_fract_x
 _atom_site_fract_y
 _atom_site_fract_z
 _atom_site_occupancy
  Zn  Zn0  1  0.00000000  0.00000000  0.00000000  1.0
  Zn  Zn1  1  0.00000000  0.50000000  0.50000000  1.0
  As  As2  1  0.81836603  0.74789238  0.69986135  1.0
  As  As3  1  0.81836603  0.75210762  0.19986135  1.0
  As  As4  1  0.18163397  0.24789238  0.80013865  1.0
  As  As5  1  0.18163397  0.25210762  0.30013865  1.0
  C  C6  1  0.75090751  0.20304635  0.91863655  1.0
  C  C7  1  0.75090751  0.29695365  0.41863655  1.0
  C  C8  1  0.24909249  0.70304635  0.58136345  1.0
  C  C9  1  0.24909249  0.79695365  0.08136345  1.0
  C  C10  1  0.37595052  0.76905212  0.62763424  1.0
  C  C11  1  0.37595052  0.73094788  0.12763424  1.0
  C  C12  1  0.62404948  0.26905212  0.87236576  1.0
  C  C13  1  0.62404948  0.23094788  0.37236576  1.0
  N  N14  1  0.84609429  0.14357313  0.95381820  1.0
  N  N15  1  0.84609429  0.35642687  0.45381820  1.0
  N  N16  1  0.15390571  0.64357313  0.54618180  1.0
  N  N17  1  0.15390571  0.85642687  0.04618180  1.0
  F  F18  1  0.94334222  0.68275889  0.63163629  1.0
  F  F19  1  0.94334222  0.81724111  0.13163629  1.0
  F  F20  1  0.05665778  0.18275889  0.86836371  1.0
  F  F21  1  0.05665778  0.31724111  0.36836371  1.0
  F  F22  1  0.93352702  0.79711465  0.85009299  1.0
  F  F23  1  0.93352702  0.70288535  0.35009299  1.0
  F  F24  1  0.06647298  0.29711465  0.64990701  1.0
  F  F25  1  0.06647298  0.20288535  0.14990701  1.0
  F  F26  1  0.83447927  0.98635173  0.65285748  1.0
  F  F27  1  0.83447927  0.51364827  0.15285748  1.0
  F  F28  1  0.16552073  0.48635173  0.84714252  1.0
  F  F29  1  0.16552073  0.01364827  0.34714252  1.0
  F  F30  1  0.81722736  0.50859555  0.75296014  1.0
  F  F31  1  0.81722736  0.99140445  0.25296014  1.0
  F  F32  1  0.18277264  0.00859555  0.74703986  1.0
  F  F33  1  0.18277264  0.49140445  0.24703986  1.0
  F  F34  1  0.71541646  0.69310871  0.55285584  1.0
  F  F35  1  0.71541646  0.80689129  0.05285584  1.0
  F  F36  1  0.28458354  0.19310871  0.94714416  1.0
  F  F37  1  0.28458354  0.30689129  0.44714416  1.0
  F  F38  1  0.70464141  0.81491534  0.77298739  1.0
  F  F39  1  0.70464141  0.68508466  0.27298739  1.0
  F  F40  1  0.29535859  0.31491534  0.72701261  1.0
  F  F41  1  0.29535859  0.18508466  0.22701261  1.0
  F  F42  1  0.61453444  0.44953965  0.90808232  1.0
  F  F43  1  0.61453444  0.05046035  0.40808232  1.0
  F  F44  1  0.38546556  0.94953965  0.59191768  1.0
  F  F45  1  0.38546556  0.55046035  0.09191768  1.0
  F  F46  1  0.44490143  0.65608818  0.57676003  1.0
  F  F47  1  0.44490143  0.84391182  0.07676003  1.0
  F  F48  1  0.55509857  0.15608818  0.92323997  1.0
  F  F49  1  0.55509857  0.34391182  0.42323997  1.0
  F  F50  1  0.41053965  0.75592522  0.75545055  1.0
  F  F51  1  0.41053965  0.74407478  0.25545055  1.0
  F  F52  1  0.58946035  0.25592522  0.74454945  1.0
  F  F53  1  0.58946035  0.24407478  0.24454945  1.0
