# generated using pymatgen
data_KEu(WO4)2
_symmetry_space_group_name_H-M   'P 1'
_cell_length_a   7.63145016
_cell_length_b   7.63145016
_cell_length_c   7.70252421
_cell_angle_alpha   61.92523450
_cell_angle_beta   118.07476550
_cell_angle_gamma   91.56523021
_symmetry_Int_Tables_number   1
_chemical_formula_structural   KEu(WO4)2
_chemical_formula_sum   'K2 Eu2 W4 O16'
_cell_volume   338.19487235
_cell_formula_units_Z   2
loop_
 _symmetry_equiv_pos_site_id
 _symmetry_equiv_pos_as_xyz
  1  'x, y, z'
loop_
 _atom_site_type_symbol
 _atom_site_label
 _atom_site_symmetry_multiplicity
 _atom_site_fract_x
 _atom_site_fract_y
 _atom_site_fract_z
 _atom_site_occupancy
  K  K0  1  0.20330701  0.20330701  0.25000000  1.0
  K  K1  1  0.79669299  0.79669299  0.75000000  1.0
  Eu  Eu2  1  0.77228725  0.77228725  0.25000000  1.0
  Eu  Eu3  1  0.22771275  0.22771275  0.75000000  1.0
  W  W4  1  0.69411584  0.30456295  0.23511336  1.0
  W  W5  1  0.69543705  0.30588416  0.73511336  1.0
  W  W6  1  1.30456295  -0.30588416  0.26488664  1.0
  W  W7  1  1.30588416  -0.30456295  0.76488664  1.0
  O  O8  1  1.58366418  -0.37138244  0.02823134  1.0
  O  O9  1  1.37138244  -0.58366418  0.52823134  1.0
  O  O10  1  0.62861756  0.58366418  0.47176866  1.0
  O  O11  1  0.41633582  0.37138244  0.97176866  1.0
  O  O12  1  0.78646292  0.04937039  0.31055682  1.0
  O  O13  1  0.95062961  0.21353708  0.81055682  1.0
  O  O14  1  1.04937039  -0.21353708  0.18944318  1.0
  O  O15  1  1.21353708  -0.04937039  0.68944318  1.0
  O  O16  1  1.38056351  -0.07075043  0.13080261  1.0
  O  O17  1  1.07075043  -0.38056351  0.63080261  1.0
  O  O18  1  0.92924957  0.38056351  0.36919739  1.0
  O  O19  1  0.61943649  0.07075043  0.86919739  1.0
  O  O20  1  0.61782702  0.23762826  0.44243337  1.0
  O  O21  1  0.76237174  0.38217298  0.94243337  1.0
  O  O22  1  1.23762826  -0.38217298  0.05756663  1.0
  O  O23  1  1.38217298  -0.23762826  0.55756663  1.0
