# generated using pymatgen
data_K6CoSe4
_symmetry_space_group_name_H-M   'P 1'
_cell_length_a   10.21134469
_cell_length_b   10.21134469
_cell_length_c   7.99493727
_cell_angle_alpha   90.00000000
_cell_angle_beta   90.00000000
_cell_angle_gamma   120.00000000
_symmetry_Int_Tables_number   1
_chemical_formula_structural   K6CoSe4
_chemical_formula_sum   'K12 Co2 Se8'
_cell_volume   721.95738808
_cell_formula_units_Z   2
loop_
 _symmetry_equiv_pos_site_id
 _symmetry_equiv_pos_as_xyz
  1  'x, y, z'
loop_
 _atom_site_type_symbol
 _atom_site_label
 _atom_site_symmetry_multiplicity
 _atom_site_fract_x
 _atom_site_fract_y
 _atom_site_fract_z
 _atom_site_occupancy
  K  K0  1  0.70604411  0.85302206  0.29400773  1.0
  K  K1  1  0.85302206  0.70604411  0.79400773  1.0
  K  K2  1  0.85302206  0.14697794  0.79400773  1.0
  K  K3  1  0.14697794  0.85302206  0.29400773  1.0
  K  K4  1  0.14697794  0.29395589  0.29400773  1.0
  K  K5  1  0.29395589  0.14697794  0.79400773  1.0
  K  K6  1  0.94371644  0.47185822  0.11616107  1.0
  K  K7  1  0.47185822  0.94371644  0.61616107  1.0
  K  K8  1  0.47185822  0.52814178  0.61616107  1.0
  K  K9  1  0.52814178  0.47185822  0.11616107  1.0
  K  K10  1  0.52814178  0.05628356  0.11616107  1.0
  K  K11  1  0.05628356  0.52814178  0.61616107  1.0
  Co  Co12  1  0.33333333  0.66666667  0.00245887  1.0
  Co  Co13  1  0.66666667  0.33333333  0.50245887  1.0
  Se  Se14  1  0.39811195  0.19905597  0.40429593  1.0
  Se  Se15  1  0.19905597  0.39811195  0.90429593  1.0
  Se  Se16  1  0.19905597  0.80094403  0.90429593  1.0
  Se  Se17  1  0.80094403  0.19905597  0.40429593  1.0
  Se  Se18  1  0.80094403  0.60188805  0.40429593  1.0
  Se  Se19  1  0.60188805  0.80094403  0.90429593  1.0
  Se  Se20  1  0.33333333  0.66666667  0.31384694  1.0
  Se  Se21  1  0.66666667  0.33333333  0.81384694  1.0
