# generated using pymatgen
data_Ba5B3ClO9
_symmetry_space_group_name_H-M   'P 1'
_cell_length_a   9.22484625
_cell_length_b   9.22484625
_cell_length_c   7.96262438
_cell_angle_alpha   90.00000000
_cell_angle_beta   90.00000000
_cell_angle_gamma   110.15253528
_symmetry_Int_Tables_number   1
_chemical_formula_structural   Ba5B3ClO9
_chemical_formula_sum   'Ba10 B6 Cl2 O18'
_cell_volume   636.11810104
_cell_formula_units_Z   2
loop_
 _symmetry_equiv_pos_site_id
 _symmetry_equiv_pos_as_xyz
  1  'x, y, z'
loop_
 _atom_site_type_symbol
 _atom_site_label
 _atom_site_symmetry_multiplicity
 _atom_site_fract_x
 _atom_site_fract_y
 _atom_site_fract_z
 _atom_site_occupancy
  Ba  Ba0  1  0.23515953  0.49502894  0.05863070  1.0
  Ba  Ba1  1  -0.50497106  1.23515953  0.94136930  1.0
  Ba  Ba2  1  0.50497106  0.76484047  0.44136930  1.0
  Ba  Ba3  1  -0.23515953  1.50497106  0.55863070  1.0
  Ba  Ba4  1  0.14000994  0.85999006  0.25000000  1.0
  Ba  Ba5  1  -0.14000994  1.14000994  0.75000000  1.0
  Ba  Ba6  1  -0.13752721  1.13752721  0.25000000  1.0
  Ba  Ba7  1  0.13752721  0.86247279  0.75000000  1.0
  Ba  Ba8  1  0.73866822  0.73866822  0.00000000  1.0
  Ba  Ba9  1  0.26133178  0.26133178  0.50000000  1.0
  B  B10  1  0.09506959  0.51422999  0.46925354  1.0
  B  B11  1  -0.48577001  1.09506959  0.53074646  1.0
  B  B12  1  0.48577001  0.90493041  0.03074646  1.0
  B  B13  1  -0.09506959  1.48577001  0.96925354  1.0
  B  B14  1  0.12640401  0.12640401  0.00000000  1.0
  B  B15  1  0.87359599  0.87359599  0.50000000  1.0
  Cl  Cl16  1  -0.45245242  1.45245242  0.25000000  1.0
  Cl  Cl17  1  0.45245242  0.54754758  0.75000000  1.0
  O  O18  1  0.22926975  0.52704415  0.38224015  1.0
  O  O19  1  -0.47295585  1.22926975  0.61775985  1.0
  O  O20  1  0.47295585  0.77073025  0.11775985  1.0
  O  O21  1  -0.22926975  1.47295585  0.88224015  1.0
  O  O22  1  0.01074049  0.63239161  0.00944224  1.0
  O  O23  1  -0.36760839  1.01074049  0.99055776  1.0
  O  O24  1  0.36760839  0.98925951  0.49055776  1.0
  O  O25  1  -0.01074049  1.36760839  0.50944224  1.0
  O  O26  1  -0.81046644  1.19012439  0.15288071  1.0
  O  O27  1  0.19012439  0.18953356  0.84711929  1.0
  O  O28  1  -0.19012439  1.81046644  0.34711929  1.0
  O  O29  1  0.81046644  0.80987561  0.65288071  1.0
  O  O30  1  -0.06469230  1.35269446  0.01278530  1.0
  O  O31  1  0.35269446  0.93530770  0.98721470  1.0
  O  O32  1  -0.35269446  1.06469230  0.48721470  1.0
  O  O33  1  0.06469230  0.64730554  0.51278530  1.0
  O  O34  1  0.99346830  0.99346830  0.00000000  1.0
  O  O35  1  0.00653170  0.00653170  0.50000000  1.0
