# generated using pymatgen
data_Na2CoH4(CO2)4
_symmetry_space_group_name_H-M   'P 1'
_cell_length_a   9.12436039
_cell_length_b   9.12436039
_cell_length_c   6.79999931
_cell_angle_alpha   75.42176863
_cell_angle_beta   104.57823137
_cell_angle_gamma   121.39262234
_symmetry_Int_Tables_number   1
_chemical_formula_structural   Na2CoH4(CO2)4
_chemical_formula_sum   'Na4 Co2 H8 C8 O16'
_cell_volume   462.68804098
_cell_formula_units_Z   2
loop_
 _symmetry_equiv_pos_site_id
 _symmetry_equiv_pos_as_xyz
  1  'x, y, z'
loop_
 _atom_site_type_symbol
 _atom_site_label
 _atom_site_symmetry_multiplicity
 _atom_site_fract_x
 _atom_site_fract_y
 _atom_site_fract_z
 _atom_site_occupancy
  Na  Na0  1  1.29988490  0.50494379  0.31924434  1.0
  Na  Na1  1  0.50494379  0.29988490  0.18075566  1.0
  Na  Na2  1  0.70011510  0.49505621  0.68075566  1.0
  Na  Na3  1  0.49505621  -0.29988490  0.81924434  1.0
  Co  Co4  1  1.00000000  0.50000000  0.50000000  1.0
  Co  Co5  1  0.50000000  -0.00000000  -0.00000000  1.0
  H  H6  1  0.92163256  0.77210727  0.12366248  1.0
  H  H7  1  0.77210727  -0.07836744  0.37633752  1.0
  H  H8  1  1.07836744  0.22789273  0.87633752  1.0
  H  H9  1  0.22789273  0.07836744  0.62366248  1.0
  H  H10  1  0.18172348  -0.10310830  0.40228150  1.0
  H  H11  1  0.89689170  0.18172348  0.09771850  1.0
  H  H12  1  0.81827652  0.10310830  0.59771850  1.0
  H  H13  1  1.10310830  0.81827652  0.90228150  1.0
  C  C14  1  0.24341042  -0.13843623  0.31456017  1.0
  C  C15  1  0.86156377  0.24341042  0.18543983  1.0
  C  C16  1  0.75658958  0.13843623  0.68543983  1.0
  C  C17  1  1.13843623  0.75658958  0.81456017  1.0
  C  C18  1  0.80868637  0.63863344  0.14117333  1.0
  C  C19  1  0.63863344  -0.19131363  0.35882667  1.0
  C  C20  1  1.19131363  0.36136656  0.85882667  1.0
  C  C21  1  0.36136656  0.19131363  0.64117333  1.0
  O  O22  1  0.80326594  0.54804620  0.31879769  1.0
  O  O23  1  0.54804620  -0.19673406  0.18120231  1.0
  O  O24  1  1.19673406  0.45195380  0.68120231  1.0
  O  O25  1  0.45195380  0.19673406  0.81879769  1.0
  O  O26  1  1.19630258  0.70232920  0.32982329  1.0
  O  O27  1  0.70232920  0.19630258  0.17017671  1.0
  O  O28  1  0.80369742  0.29767080  0.67017671  1.0
  O  O29  1  0.29767080  -0.19630258  0.82982329  1.0
  O  O30  1  0.35348856  -0.01358008  0.20660594  1.0
  O  O31  1  0.98641992  0.35348856  0.29339406  1.0
  O  O32  1  0.64651144  0.01358008  0.79339406  1.0
  O  O33  1  1.01358008  0.64651144  0.70660594  1.0
  O  O34  1  0.69565757  0.58887564  0.98712544  1.0
  O  O35  1  0.58887564  -0.30434243  0.51287456  1.0
  O  O36  1  1.30434243  0.41112436  0.01287456  1.0
  O  O37  1  0.41112436  0.30434243  0.48712544  1.0
