# generated using pymatgen
data_K2SrP2O7
_symmetry_space_group_name_H-M   'P 1'
_cell_length_a   9.32235878
_cell_length_b   5.80997607
_cell_length_c   14.96975212
_cell_angle_alpha   90.00000000
_cell_angle_beta   106.60709944
_cell_angle_gamma   90.00000000
_symmetry_Int_Tables_number   1
_chemical_formula_structural   K2SrP2O7
_chemical_formula_sum   'K8 Sr4 P8 O28'
_cell_volume   776.98107048
_cell_formula_units_Z   4
loop_
 _symmetry_equiv_pos_site_id
 _symmetry_equiv_pos_as_xyz
  1  'x, y, z'
loop_
 _atom_site_type_symbol
 _atom_site_label
 _atom_site_symmetry_multiplicity
 _atom_site_fract_x
 _atom_site_fract_y
 _atom_site_fract_z
 _atom_site_occupancy
  K  K0  1  0.46302438  0.23785115  0.16792159  1.0
  K  K1  1  0.46302438  0.26214885  0.66792159  1.0
  K  K2  1  0.53697562  0.73785115  0.33207841  1.0
  K  K3  1  0.53697562  0.76214885  0.83207841  1.0
  K  K4  1  0.97105039  0.76079263  0.38216471  1.0
  K  K5  1  0.97105039  0.73920737  0.88216471  1.0
  K  K6  1  0.02894961  0.26079263  0.11783529  1.0
  K  K7  1  0.02894961  0.23920737  0.61783529  1.0
  Sr  Sr8  1  0.26572757  0.26999167  0.36970144  1.0
  Sr  Sr9  1  0.26572757  0.23000833  0.86970144  1.0
  Sr  Sr10  1  0.73427243  0.76999167  0.13029856  1.0
  Sr  Sr11  1  0.73427243  0.73000833  0.63029856  1.0
  P  P12  1  0.82090375  0.26302397  0.30416890  1.0
  P  P13  1  0.82090375  0.23697603  0.80416890  1.0
  P  P14  1  0.17909625  0.76302397  0.19583110  1.0
  P  P15  1  0.17909625  0.73697603  0.69583110  1.0
  P  P16  1  0.69168889  0.20673695  0.46273253  1.0
  P  P17  1  0.69168889  0.29326305  0.96273253  1.0
  P  P18  1  0.30831111  0.70673695  0.03726747  1.0
  P  P19  1  0.30831111  0.79326305  0.53726747  1.0
  O  O20  1  0.01177585  0.76412567  0.18917593  1.0
  O  O21  1  0.01177585  0.73587433  0.68917593  1.0
  O  O22  1  0.98822415  0.26412567  0.31082407  1.0
  O  O23  1  0.98822415  0.23587433  0.81082407  1.0
  O  O24  1  0.82415855  0.29317127  0.41544947  1.0
  O  O25  1  0.82415855  0.20682873  0.91544947  1.0
  O  O26  1  0.17584145  0.79317127  0.08455053  1.0
  O  O27  1  0.17584145  0.70682873  0.58455053  1.0
  O  O28  1  0.74206735  0.03389545  0.26914612  1.0
  O  O29  1  0.74206735  0.46610455  0.76914612  1.0
  O  O30  1  0.25793265  0.53389545  0.23085388  1.0
  O  O31  1  0.25793265  0.96610455  0.73085388  1.0
  O  O32  1  0.73623159  0.47578735  0.25458577  1.0
  O  O33  1  0.73623159  0.02421265  0.75458577  1.0
  O  O34  1  0.26376841  0.97578735  0.24541423  1.0
  O  O35  1  0.26376841  0.52421265  0.74541423  1.0
  O  O36  1  0.72564021  0.94984527  0.48548605  1.0
  O  O37  1  0.72564021  0.55015473  0.98548605  1.0
  O  O38  1  0.27435979  0.44984527  0.01451395  1.0
  O  O39  1  0.27435979  0.05015473  0.51451395  1.0
  O  O40  1  0.72227946  0.14462136  0.05086349  1.0
  O  O41  1  0.72227946  0.35537864  0.55086349  1.0
  O  O42  1  0.27772054  0.64462136  0.44913651  1.0
  O  O43  1  0.27772054  0.85537864  0.94913651  1.0
  O  O44  1  0.54010803  0.25034826  0.39042745  1.0
  O  O45  1  0.54010803  0.24965174  0.89042745  1.0
  O  O46  1  0.45989197  0.75034826  0.10957255  1.0
  O  O47  1  0.45989197  0.74965174  0.60957255  1.0
