# generated using pymatgen
data_Na2V(PO4)2
_symmetry_space_group_name_H-M   'P 1'
_cell_length_a   8.33185158
_cell_length_b   8.33185158
_cell_length_c   5.04907700
_cell_angle_alpha   90.00000000
_cell_angle_beta   90.00000000
_cell_angle_gamma   90.00000000
_symmetry_Int_Tables_number   1
_chemical_formula_structural   Na2V(PO4)2
_chemical_formula_sum   'Na4 V2 P4 O16'
_cell_volume   350.50566710
_cell_formula_units_Z   2
loop_
 _symmetry_equiv_pos_site_id
 _symmetry_equiv_pos_as_xyz
  1  'x, y, z'
loop_
 _atom_site_type_symbol
 _atom_site_label
 _atom_site_symmetry_multiplicity
 _atom_site_fract_x
 _atom_site_fract_y
 _atom_site_fract_z
 _atom_site_occupancy
  Na  Na0  1  0.82442260  0.67557740  0.76971533  1.0
  Na  Na1  1  0.32442260  0.82442260  0.76971533  1.0
  Na  Na2  1  0.17557740  0.32442260  0.76971533  1.0
  Na  Na3  1  0.67557740  0.17557740  0.76971533  1.0
  V  V4  1  0.50000000  0.50000000  0.32184907  1.0
  V  V5  1  0.00000000  0.00000000  0.32184907  1.0
  P  P6  1  0.37021459  0.12978541  0.30568449  1.0
  P  P7  1  0.87021459  0.37021459  0.30568449  1.0
  P  P8  1  0.62978541  0.87021459  0.30568449  1.0
  P  P9  1  0.12978541  0.62978541  0.30568449  1.0
  O  O10  1  0.28780316  0.57744442  0.44191218  1.0
  O  O11  1  0.78780316  0.92255558  0.44191218  1.0
  O  O12  1  0.42255558  0.28780316  0.44191218  1.0
  O  O13  1  0.92255558  0.21219684  0.44191218  1.0
  O  O14  1  0.71219684  0.42255558  0.44191218  1.0
  O  O15  1  0.21219684  0.07744442  0.44191218  1.0
  O  O16  1  0.57744442  0.71219684  0.44191218  1.0
  O  O17  1  0.07744442  0.78780316  0.44191218  1.0
  O  O18  1  0.37062155  0.12937845  0.00719270  1.0
  O  O19  1  0.87062155  0.37062155  0.00719270  1.0
  O  O20  1  0.62937845  0.87062155  0.00719270  1.0
  O  O21  1  0.12937845  0.62937845  0.00719270  1.0
  O  O22  1  0.00000000  0.50000000  0.42565162  1.0
  O  O23  1  0.50000000  0.00000000  0.42565162  1.0
  O  O24  1  0.50000000  0.50000000  0.00566555  1.0
  O  O25  1  0.00000000  0.00000000  0.00566555  1.0
