# generated using pymatgen
data_LiTe3
_symmetry_space_group_name_H-M   'P 1'
_cell_length_a   8.75436558
_cell_length_b   8.75436558
_cell_length_c   21.46561455
_cell_angle_alpha   90.00000000
_cell_angle_beta   90.00000000
_cell_angle_gamma   120.00000000
_symmetry_Int_Tables_number   1
_chemical_formula_structural   LiTe3
_chemical_formula_sum   'Li12 Te36'
_cell_volume   1424.69964256
_cell_formula_units_Z   12
loop_
 _symmetry_equiv_pos_site_id
 _symmetry_equiv_pos_as_xyz
  1  'x, y, z'
loop_
 _atom_site_type_symbol
 _atom_site_label
 _atom_site_symmetry_multiplicity
 _atom_site_fract_x
 _atom_site_fract_y
 _atom_site_fract_z
 _atom_site_occupancy
  Li  Li0  1  0.33333333  0.66666667  0.08166389  1.0
  Li  Li1  1  0.33333333  0.66666667  0.58166389  1.0
  Li  Li2  1  0.66666667  0.33333333  0.41833611  1.0
  Li  Li3  1  0.66666667  0.33333333  0.91833611  1.0
  Li  Li4  1  0.33333333  0.66666667  0.33484754  1.0
  Li  Li5  1  0.33333333  0.66666667  0.83484754  1.0
  Li  Li6  1  0.66666667  0.33333333  0.16515246  1.0
  Li  Li7  1  0.66666667  0.33333333  0.66515246  1.0
  Li  Li8  1  0.00000000  0.00000000  0.00000000  1.0
  Li  Li9  1  0.00000000  0.00000000  0.50000000  1.0
  Li  Li10  1  0.00000000  0.00000000  0.25000000  1.0
  Li  Li11  1  0.00000000  0.00000000  0.75000000  1.0
  Te  Te12  1  0.18083579  0.84997466  0.16598380  1.0
  Te  Te13  1  0.18083579  0.33086113  0.66598380  1.0
  Te  Te14  1  0.84997466  0.18083579  0.33401620  1.0
  Te  Te15  1  0.84997466  0.66913887  0.83401620  1.0
  Te  Te16  1  0.66913887  0.84997466  0.66598380  1.0
  Te  Te17  1  0.66913887  0.81916421  0.16598380  1.0
  Te  Te18  1  0.15002534  0.81916421  0.66598380  1.0
  Te  Te19  1  0.15002534  0.33086113  0.16598380  1.0
  Te  Te20  1  0.81916421  0.66913887  0.33401620  1.0
  Te  Te21  1  0.81916421  0.15002534  0.83401620  1.0
  Te  Te22  1  0.33086113  0.18083579  0.83401620  1.0
  Te  Te23  1  0.33086113  0.15002534  0.33401620  1.0
  Te  Te24  1  0.82421837  0.66418258  0.08278735  1.0
  Te  Te25  1  0.82421837  0.16003579  0.58278735  1.0
  Te  Te26  1  0.66418258  0.82421837  0.41721265  1.0
  Te  Te27  1  0.66418258  0.83996421  0.91721265  1.0
  Te  Te28  1  0.83996421  0.66418258  0.58278735  1.0
  Te  Te29  1  0.83996421  0.17578163  0.08278735  1.0
  Te  Te30  1  0.33581742  0.17578163  0.58278735  1.0
  Te  Te31  1  0.33581742  0.16003579  0.08278735  1.0
  Te  Te32  1  0.17578163  0.83996421  0.41721265  1.0
  Te  Te33  1  0.17578163  0.33581742  0.91721265  1.0
  Te  Te34  1  0.16003579  0.82421837  0.91721265  1.0
  Te  Te35  1  0.16003579  0.33581742  0.41721265  1.0
  Te  Te36  1  0.51879141  0.51879141  0.25000000  1.0
  Te  Te37  1  0.51879141  0.00000000  0.75000000  1.0
  Te  Te38  1  0.00000000  0.51879141  0.75000000  1.0
  Te  Te39  1  0.00000000  0.48120859  0.25000000  1.0
  Te  Te40  1  0.48120859  0.48120859  0.75000000  1.0
  Te  Te41  1  0.48120859  0.00000000  0.25000000  1.0
  Te  Te42  1  0.50000000  0.50000000  0.00000000  1.0
  Te  Te43  1  0.50000000  0.00000000  0.50000000  1.0
  Te  Te44  1  0.50000000  0.50000000  0.50000000  1.0
  Te  Te45  1  0.50000000  0.00000000  0.00000000  1.0
  Te  Te46  1  0.00000000  0.50000000  0.50000000  1.0
  Te  Te47  1  0.00000000  0.50000000  0.00000000  1.0
