# generated using pymatgen
data_Mg16Si8HO32
_symmetry_space_group_name_H-M   'P 1'
_cell_length_a   8.21674060
_cell_length_b   8.20138739
_cell_length_c   8.19070300
_cell_angle_alpha   90.16322114
_cell_angle_beta   90.15310158
_cell_angle_gamma   89.46180802
_symmetry_Int_Tables_number   1
_chemical_formula_structural   Mg16Si8HO32
_chemical_formula_sum   'Mg16 Si8 H1 O32'
_cell_volume   551.93208231
_cell_formula_units_Z   1
loop_
 _symmetry_equiv_pos_site_id
 _symmetry_equiv_pos_as_xyz
  1  'x, y, z'
loop_
 _atom_site_type_symbol
 _atom_site_label
 _atom_site_symmetry_multiplicity
 _atom_site_fract_x
 _atom_site_fract_y
 _atom_site_fract_z
 _atom_site_occupancy
  Mg  Mg0  1  0.62133350  0.62115825  0.63620378  1.0
  Mg  Mg1  1  0.87723902  0.12828154  0.37468387  1.0
  Mg  Mg2  1  0.12417001  0.37409361  0.87500122  1.0
  Mg  Mg3  1  0.37634033  0.87246417  0.12236029  1.0
  Mg  Mg4  1  0.12424200  0.12463544  0.62538351  1.0
  Mg  Mg5  1  0.34659895  0.60485225  0.37862955  1.0
  Mg  Mg6  1  0.62699459  0.87804069  0.87292875  1.0
  Mg  Mg7  1  0.87471366  0.37523774  0.12451142  1.0
  Mg  Mg8  1  0.62559054  0.12797296  0.12309624  1.0
  Mg  Mg9  1  0.87634135  0.62493895  0.87182851  1.0
  Mg  Mg10  1  0.12777320  0.87674263  0.37358419  1.0
  Mg  Mg11  1  0.37497074  0.37218202  0.62965894  1.0
  Mg  Mg12  1  0.12584037  0.62614065  0.11926094  1.0
  Mg  Mg13  1  0.37428130  0.12385780  0.87653039  1.0
  Mg  Mg14  1  0.62028803  0.36708308  0.37807432  1.0
  Mg  Mg15  1  0.87639759  0.87513781  0.62389772  1.0
  Si  Si16  1  0.00152598  0.00136614  0.99840507  1.0
  Si  Si17  1  0.24995973  0.74954078  0.74928525  1.0
  Si  Si18  1  0.49934799  0.49990283  0.00311309  1.0
  Si  Si19  1  0.75054442  0.24991966  0.75062117  1.0
  Si  Si20  1  0.99383612  0.49927211  0.50081612  1.0
  Si  Si21  1  0.24881781  0.24634699  0.24884859  1.0
  Si  Si22  1  0.50314903  0.00207677  0.50377138  1.0
  Si  Si23  1  0.76698607  0.76438026  0.23545638  1.0
  H  H24  1  0.54963367  0.74839805  0.37434953  1.0
  O  O25  1  0.36745491  0.36285636  0.37091808  1.0
  O  O26  1  0.13228424  0.86834291  0.62817635  1.0
  O  O27  1  0.87354119  0.63180213  0.12615185  1.0
  O  O28  1  0.63107837  0.13256775  0.86837793  1.0
  O  O29  1  0.61911810  0.38309960  0.12449624  1.0
  O  O30  1  0.88299620  0.88164676  0.88018335  1.0
  O  O31  1  0.38051469  0.11793981  0.62004193  1.0
  O  O32  1  0.10790224  0.61882154  0.37955234  1.0
  O  O33  1  0.87568227  0.87504256  0.36544619  1.0
  O  O34  1  0.62970968  0.36911370  0.63127214  1.0
  O  O35  1  0.37001464  0.12779280  0.13149989  1.0
  O  O36  1  0.13145038  0.63061931  0.86666035  1.0
  O  O37  1  0.12078619  0.88121348  0.11793104  1.0
  O  O38  1  0.38105016  0.38092727  0.88400738  1.0
  O  O39  1  0.87519520  0.62007970  0.61847954  1.0
  O  O40  1  0.61992591  0.11682908  0.38197014  1.0
  O  O41  1  0.36996260  0.86722950  0.86767013  1.0
  O  O42  1  0.13076775  0.36860399  0.13187141  1.0
  O  O43  1  0.86919038  0.13120356  0.63032910  1.0
  O  O44  1  0.63288069  0.65491527  0.36297589  1.0
  O  O45  1  0.62146149  0.87927091  0.61986400  1.0
  O  O46  1  0.87345743  0.38386538  0.38049712  1.0
  O  O47  1  0.38005942  0.61833698  0.12469692  1.0
  O  O48  1  0.11988356  0.11929080  0.88023764  1.0
  O  O49  1  0.86851104  0.36969112  0.86894791  1.0
  O  O50  1  0.63528777  0.87462526  0.12564878  1.0
  O  O51  1  0.36831631  0.62802413  0.62909801  1.0
  O  O52  1  0.13218007  0.12894716  0.36893814  1.0
  O  O53  1  0.11648813  0.38132173  0.61753515  1.0
  O  O54  1  0.39373415  0.87129935  0.38227347  1.0
  O  O55  1  0.88206819  0.12028721  0.11817146  1.0
  O  O56  1  0.61800067  0.61916968  0.88604991  1.0
