# generated using pymatgen
data_Y5(Ge5Os2)2
_symmetry_space_group_name_H-M   'P 1'
_cell_length_a   13.11067721
_cell_length_b   13.11067721
_cell_length_c   4.33080801
_cell_angle_alpha   90.00000000
_cell_angle_beta   90.00000000
_cell_angle_gamma   90.00000000
_symmetry_Int_Tables_number   1
_chemical_formula_structural   Y5(Ge5Os2)2
_chemical_formula_sum   'Y10 Ge20 Os8'
_cell_volume   744.42196828
_cell_formula_units_Z   2
loop_
 _symmetry_equiv_pos_site_id
 _symmetry_equiv_pos_as_xyz
  1  'x, y, z'
loop_
 _atom_site_type_symbol
 _atom_site_label
 _atom_site_symmetry_multiplicity
 _atom_site_fract_x
 _atom_site_fract_y
 _atom_site_fract_z
 _atom_site_occupancy
  Y  Y0  1  0.50000000  0.50000000  0.00000000  1.0
  Y  Y1  1  0.00000000  0.00000000  0.00000000  1.0
  Y  Y2  1  0.88257472  0.61742528  0.50000000  1.0
  Y  Y3  1  0.38257472  0.88257472  0.50000000  1.0
  Y  Y4  1  0.11742528  0.38257472  0.50000000  1.0
  Y  Y5  1  0.61742528  0.11742528  0.50000000  1.0
  Y  Y6  1  0.32730542  0.17269458  0.50000000  1.0
  Y  Y7  1  0.82730542  0.32730542  0.50000000  1.0
  Y  Y8  1  0.67269458  0.82730542  0.50000000  1.0
  Y  Y9  1  0.17269458  0.67269458  0.50000000  1.0
  Ge  Ge10  1  0.43193667  0.06806333  0.00000000  1.0
  Ge  Ge11  1  0.93193667  0.43193667  0.00000000  1.0
  Ge  Ge12  1  0.56806333  0.93193667  0.00000000  1.0
  Ge  Ge13  1  0.06806333  0.56806333  0.00000000  1.0
  Ge  Ge14  1  0.33612315  0.69853962  0.00000000  1.0
  Ge  Ge15  1  0.83612315  0.80146038  0.00000000  1.0
  Ge  Ge16  1  0.30146038  0.33612315  0.00000000  1.0
  Ge  Ge17  1  0.80146038  0.16387685  -0.00000000  1.0
  Ge  Ge18  1  0.66387685  0.30146038  0.00000000  1.0
  Ge  Ge19  1  0.16387685  0.19853962  0.00000000  1.0
  Ge  Ge20  1  0.69853962  0.66387685  0.00000000  1.0
  Ge  Ge21  1  0.19853962  0.83612315  -0.00000000  1.0
  Ge  Ge22  1  0.34104386  0.50745778  0.50000000  1.0
  Ge  Ge23  1  0.84104386  0.99254222  0.50000000  1.0
  Ge  Ge24  1  0.49254222  0.34104386  0.50000000  1.0
  Ge  Ge25  1  0.99254222  0.15895614  0.50000000  1.0
  Ge  Ge26  1  0.65895614  0.49254222  0.50000000  1.0
  Ge  Ge27  1  0.15895614  0.00745778  0.50000000  1.0
  Ge  Ge28  1  0.50745778  0.65895614  0.50000000  1.0
  Ge  Ge29  1  0.00745778  0.84104386  0.50000000  1.0
  Os  Os30  1  0.25307167  0.51894307  -0.00000000  1.0
  Os  Os31  1  0.75307167  0.98105693  0.00000000  1.0
  Os  Os32  1  0.48105693  0.25307167  -0.00000000  1.0
  Os  Os33  1  0.98105693  0.24692833  0.00000000  1.0
  Os  Os34  1  0.74692833  0.48105693  -0.00000000  1.0
  Os  Os35  1  0.24692833  0.01894307  0.00000000  1.0
  Os  Os36  1  0.51894307  0.74692833  -0.00000000  1.0
  Os  Os37  1  0.01894307  0.75307167  0.00000000  1.0
