# generated using pymatgen
data_NaSrCrF6
_symmetry_space_group_name_H-M   'P 1'
_cell_length_a   5.65773572
_cell_length_b   9.38702161
_cell_length_c   9.75983813
_cell_angle_alpha   90.00000000
_cell_angle_beta   93.76529006
_cell_angle_gamma   90.00000000
_symmetry_Int_Tables_number   1
_chemical_formula_structural   NaSrCrF6
_chemical_formula_sum   'Na4 Sr4 Cr4 F24'
_cell_volume   517.21918181
_cell_formula_units_Z   4
loop_
 _symmetry_equiv_pos_site_id
 _symmetry_equiv_pos_as_xyz
  1  'x, y, z'
loop_
 _atom_site_type_symbol
 _atom_site_label
 _atom_site_symmetry_multiplicity
 _atom_site_fract_x
 _atom_site_fract_y
 _atom_site_fract_z
 _atom_site_occupancy
  Na  Na0  1  0.77686730  0.54741893  0.60634019  1.0
  Na  Na1  1  0.77686730  0.95258107  0.10634019  1.0
  Na  Na2  1  0.22313270  0.04741893  0.89365981  1.0
  Na  Na3  1  0.22313270  0.45258107  0.39365981  1.0
  Sr  Sr4  1  0.73512345  0.32658147  0.99156960  1.0
  Sr  Sr5  1  0.73512345  0.17341853  0.49156960  1.0
  Sr  Sr6  1  0.26487655  0.82658147  0.50843041  1.0
  Sr  Sr7  1  0.26487655  0.67341853  0.00843040  1.0
  Cr  Cr8  1  0.73124983  0.91858613  0.76431944  1.0
  Cr  Cr9  1  0.73124983  0.58141387  0.26431944  1.0
  Cr  Cr10  1  0.26875017  0.41858613  0.73568056  1.0
  Cr  Cr11  1  0.26875017  0.08141387  0.23568056  1.0
  F  F12  1  0.96602408  0.97199959  0.63796798  1.0
  F  F13  1  0.96602408  0.52800041  0.13796798  1.0
  F  F14  1  0.03397592  0.47199959  0.86203202  1.0
  F  F15  1  0.03397592  0.02800041  0.36203202  1.0
  F  F16  1  0.97128644  0.81736725  0.87249161  1.0
  F  F17  1  0.97128644  0.68263275  0.37249161  1.0
  F  F18  1  0.02871356  0.31736725  0.62750839  1.0
  F  F19  1  0.02871356  0.18263275  0.12750839  1.0
  F  F20  1  0.81681394  0.41357007  0.37439763  1.0
  F  F21  1  0.81681394  0.08642993  0.87439763  1.0
  F  F22  1  0.18318606  0.91357007  0.12560237  1.0
  F  F23  1  0.18318606  0.58642993  0.62560237  1.0
  F  F24  1  0.63809166  0.76180454  0.64962731  1.0
  F  F25  1  0.63809166  0.73819546  0.14962731  1.0
  F  F26  1  0.36190834  0.26180454  0.85037269  1.0
  F  F27  1  0.36190834  0.23819546  0.35037269  1.0
  F  F28  1  0.50110745  0.52442545  0.85039125  1.0
  F  F29  1  0.50110745  0.97557455  0.35039125  1.0
  F  F30  1  0.49889255  0.02442545  0.64960875  1.0
  F  F31  1  0.49889255  0.47557455  0.14960875  1.0
  F  F32  1  0.49642334  0.87062000  0.89104496  1.0
  F  F33  1  0.49642334  0.62938000  0.39104496  1.0
  F  F34  1  0.50357666  0.37062000  0.60895504  1.0
  F  F35  1  0.50357666  0.12938000  0.10895504  1.0
