# generated using pymatgen
data_ZrCl3
_symmetry_space_group_name_H-M   'P 1'
_cell_length_a   7.20096232
_cell_length_b   7.20096232
_cell_length_c   6.07271708
_cell_angle_alpha   90.00000000
_cell_angle_beta   90.00000000
_cell_angle_gamma   120.00000000
_symmetry_Int_Tables_number   1
_chemical_formula_structural   ZrCl3
_chemical_formula_sum   'Zr2 Cl6'
_cell_volume   272.70603999
_cell_formula_units_Z   2
loop_
 _symmetry_equiv_pos_site_id
 _symmetry_equiv_pos_as_xyz
  1  'x, y, z'
loop_
 _atom_site_type_symbol
 _atom_site_label
 _atom_site_symmetry_multiplicity
 _atom_site_fract_x
 _atom_site_fract_y
 _atom_site_fract_z
 _atom_site_occupancy
  Zr  Zr0  1  0.00000000  0.00000000  0.50000000  1.0
  Zr  Zr1  1  0.00000000  0.00000000  0.00000000  1.0
  Cl  Cl2  1  0.71475917  0.71475917  0.25000000  1.0
  Cl  Cl3  1  0.71475917  0.00000000  0.75000000  1.0
  Cl  Cl4  1  0.00000000  0.71475917  0.75000000  1.0
  Cl  Cl5  1  0.00000000  0.28524083  0.25000000  1.0
  Cl  Cl6  1  0.28524083  0.28524083  0.75000000  1.0
  Cl  Cl7  1  0.28524083  0.00000000  0.25000000  1.0
