# generated using pymatgen
data_Lu6Al7Cu16
_symmetry_space_group_name_H-M   'P 1'
_cell_length_a   8.61934975
_cell_length_b   8.61934975
_cell_length_c   8.61934975
_cell_angle_alpha   60.00000000
_cell_angle_beta   60.00000000
_cell_angle_gamma   60.00000000
_symmetry_Int_Tables_number   1
_chemical_formula_structural   Lu6Al7Cu16
_chemical_formula_sum   'Lu6 Al7 Cu16'
_cell_volume   452.80218402
_cell_formula_units_Z   1
loop_
 _symmetry_equiv_pos_site_id
 _symmetry_equiv_pos_as_xyz
  1  'x, y, z'
loop_
 _atom_site_type_symbol
 _atom_site_label
 _atom_site_symmetry_multiplicity
 _atom_site_fract_x
 _atom_site_fract_y
 _atom_site_fract_z
 _atom_site_occupancy
  Lu  Lu0  1  -0.70809382  0.70809382  0.70809382  1.0
  Lu  Lu1  1  -0.29190618  0.29190618  0.70809382  1.0
  Lu  Lu2  1  0.70809382  0.70809382  -0.70809382  1.0
  Lu  Lu3  1  0.29190618  1.29190618  -0.29190618  1.0
  Lu  Lu4  1  0.29190618  -0.29190618  1.29190618  1.0
  Lu  Lu5  1  -0.29190618  0.29190618  0.29190618  1.0
  Al  Al6  1  1.50000000  0.00000000  -0.00000000  1.0
  Al  Al7  1  1.00000000  0.50000000  -0.50000000  1.0
  Al  Al8  1  0.00000000  1.50000000  -0.00000000  1.0
  Al  Al9  1  0.50000000  1.00000000  -0.50000000  1.0
  Al  Al10  1  -0.00000000  0.00000000  0.50000000  1.0
  Al  Al11  1  0.50000000  -0.50000000  1.00000000  1.0
  Al  Al12  1  0.00000000  0.00000000  0.00000000  1.0
  Cu  Cu13  1  0.67238599  0.67238599  -0.32761401  1.0
  Cu  Cu14  1  1.32761401  0.32761401  0.01715798  1.0
  Cu  Cu15  1  1.32761401  0.01715798  0.32761401  1.0
  Cu  Cu16  1  0.98284202  0.67238599  -0.32761401  1.0
  Cu  Cu17  1  1.01715798  0.32761401  0.32761401  1.0
  Cu  Cu18  1  0.67238599  0.98284202  -0.32761401  1.0
  Cu  Cu19  1  0.67238599  0.67238599  -0.01715798  1.0
  Cu  Cu20  1  1.32761401  0.32761401  0.32761401  1.0
  Cu  Cu21  1  0.87927093  0.87927093  -0.12072907  1.0
  Cu  Cu22  1  1.12072907  0.12072907  0.63781279  1.0
  Cu  Cu23  1  1.12072907  0.63781279  0.12072907  1.0
  Cu  Cu24  1  0.36218721  0.87927093  -0.12072907  1.0
  Cu  Cu25  1  1.63781279  0.12072907  0.12072907  1.0
  Cu  Cu26  1  0.87927093  0.36218721  -0.12072907  1.0
  Cu  Cu27  1  0.87927093  0.87927093  -0.63781279  1.0
  Cu  Cu28  1  1.12072907  0.12072907  0.12072907  1.0
