# generated using pymatgen
data_Sb2AsS2
_symmetry_space_group_name_H-M   'P 1'
_cell_length_a   5.87200333
_cell_length_b   5.87200333
_cell_length_c   12.86691176
_cell_angle_alpha   65.86422132
_cell_angle_beta   114.13577868
_cell_angle_gamma   140.16280927
_symmetry_Int_Tables_number   1
_chemical_formula_structural   Sb2AsS2
_chemical_formula_sum   'Sb4 As2 S4'
_cell_volume   255.92261303
_cell_formula_units_Z   2
loop_
 _symmetry_equiv_pos_site_id
 _symmetry_equiv_pos_as_xyz
  1  'x, y, z'
loop_
 _atom_site_type_symbol
 _atom_site_label
 _atom_site_symmetry_multiplicity
 _atom_site_fract_x
 _atom_site_fract_y
 _atom_site_fract_z
 _atom_site_occupancy
  Sb  Sb0  1  0.95041114  -0.95041114  0.16999366  1.0
  Sb  Sb1  1  0.04958886  -0.04958886  0.83000634  1.0
  Sb  Sb2  1  0.80520027  -0.80520027  0.39732371  1.0
  Sb  Sb3  1  0.19479973  -0.19479973  0.60267629  1.0
  As  As4  1  1.39455802  -0.39455802  0.01154004  1.0
  As  As5  1  0.60544198  0.39455802  0.98845996  1.0
  S  S6  1  1.20130818  -0.20130818  0.23611686  1.0
  S  S7  1  0.79869182  0.20130818  0.76388314  1.0
  S  S8  1  0.60037689  0.39962311  0.42895070  1.0
  S  S9  1  1.39962311  -0.39962311  0.57104930  1.0
