# generated using pymatgen
data_Na3NbO4
_symmetry_space_group_name_H-M   'P 1'
_cell_length_a   8.65138922
_cell_length_b   8.65138922
_cell_length_c   5.81860875
_cell_angle_alpha   77.57031643
_cell_angle_beta   102.42968357
_cell_angle_gamma   80.96526553
_symmetry_Int_Tables_number   1
_chemical_formula_structural   Na3NbO4
_chemical_formula_sum   'Na12 Nb4 O16'
_cell_volume   405.77370122
_cell_formula_units_Z   4
loop_
 _symmetry_equiv_pos_site_id
 _symmetry_equiv_pos_as_xyz
  1  'x, y, z'
loop_
 _atom_site_type_symbol
 _atom_site_label
 _atom_site_symmetry_multiplicity
 _atom_site_fract_x
 _atom_site_fract_y
 _atom_site_fract_z
 _atom_site_occupancy
  Na  Na0  1  1.63036831  0.11891415  0.48040553  1.0
  Na  Na1  1  0.88108585  -0.63036831  0.48040553  1.0
  Na  Na2  1  1.11891415  0.63036831  0.51959447  1.0
  Na  Na3  1  0.36963169  -0.11891415  0.51959447  1.0
  Na  Na4  1  0.74125640  -0.25874360  0.50000000  1.0
  Na  Na5  1  1.25874360  0.25874360  0.50000000  1.0
  Na  Na6  1  0.62393596  -0.37606404  0.00000000  1.0
  Na  Na7  1  1.37606404  0.37606404  0.00000000  1.0
  Na  Na8  1  1.50000000  0.00000000  -0.00000000  1.0
  Na  Na9  1  1.00000000  -0.50000000  -0.00000000  1.0
  Na  Na10  1  0.50000000  -0.50000000  0.50000000  1.0
  Na  Na11  1  0.00000000  -0.00000000  0.50000000  1.0
  Nb  Nb12  1  0.73978706  -0.73978706  0.96761078  1.0
  Nb  Nb13  1  0.26021294  -0.26021294  0.03238922  1.0
  Nb  Nb14  1  0.86685840  -0.13314160  0.00000000  1.0
  Nb  Nb15  1  1.13314160  0.13314160  0.00000000  1.0
  O  O16  1  0.66980826  -0.12485764  0.77471442  1.0
  O  O17  1  1.12485764  0.33019174  0.77471442  1.0
  O  O18  1  0.87514236  -0.33019174  0.22528558  1.0
  O  O19  1  1.33019174  0.12485764  0.22528558  1.0
  O  O20  1  1.53935350  0.24611607  0.76795963  1.0
  O  O21  1  0.75388393  -0.53935350  0.76795963  1.0
  O  O22  1  1.24611607  0.53935350  0.23204037  1.0
  O  O23  1  0.46064650  -0.24611607  0.23204037  1.0
  O  O24  1  0.23093316  -0.00861274  0.81278100  1.0
  O  O25  1  1.00861274  0.76906684  0.81278100  1.0
  O  O26  1  0.99138726  -0.76906684  0.18721900  1.0
  O  O27  1  1.76906684  0.00861274  0.18721900  1.0
  O  O28  1  0.88749895  -0.88749895  0.80334671  1.0
  O  O29  1  0.11250105  -0.11250105  0.19665329  1.0
  O  O30  1  0.34289071  -0.34289071  0.79585972  1.0
  O  O31  1  0.65710929  -0.65710929  0.20414028  1.0
