# generated using pymatgen
data_La2(Ga3Ru)3
_symmetry_space_group_name_H-M   'P 1'
_cell_length_a   7.58002915
_cell_length_b   7.58002915
_cell_length_c   9.96461275
_cell_angle_alpha   90.00000000
_cell_angle_beta   90.00000000
_cell_angle_gamma   61.21521434
_symmetry_Int_Tables_number   1
_chemical_formula_structural   La2(Ga3Ru)3
_chemical_formula_sum   'La4 Ga18 Ru6'
_cell_volume   501.78962626
_cell_formula_units_Z   2
loop_
 _symmetry_equiv_pos_site_id
 _symmetry_equiv_pos_as_xyz
  1  'x, y, z'
loop_
 _atom_site_type_symbol
 _atom_site_label
 _atom_site_symmetry_multiplicity
 _atom_site_fract_x
 _atom_site_fract_y
 _atom_site_fract_z
 _atom_site_occupancy
  La  La0  1  -0.00141920  1.32521550  0.25000000  1.0
  La  La1  1  0.32521550  0.99858080  0.75000000  1.0
  La  La2  1  -0.32521550  1.00141920  0.25000000  1.0
  La  La3  1  0.00141920  0.67478450  0.75000000  1.0
  Ga  Ga4  1  0.01272060  0.66173985  0.42805544  1.0
  Ga  Ga5  1  0.01272060  0.66173985  0.07194456  1.0
  Ga  Ga6  1  -0.33826015  1.01272060  0.92805544  1.0
  Ga  Ga7  1  -0.33826015  1.01272060  0.57194456  1.0
  Ga  Ga8  1  0.33826015  0.98727940  0.42805544  1.0
  Ga  Ga9  1  0.33826015  0.98727940  0.07194456  1.0
  Ga  Ga10  1  -0.01272060  1.33826015  0.92805544  1.0
  Ga  Ga11  1  -0.01272060  1.33826015  0.57194456  1.0
  Ga  Ga12  1  0.33970025  0.45053875  0.25000000  1.0
  Ga  Ga13  1  -0.54946125  1.33970025  0.75000000  1.0
  Ga  Ga14  1  0.54946125  0.66029975  0.25000000  1.0
  Ga  Ga15  1  -0.33970025  1.54946125  0.75000000  1.0
  Ga  Ga16  1  0.34053172  0.65946828  0.94578706  1.0
  Ga  Ga17  1  0.34053172  0.65946828  0.55421294  1.0
  Ga  Ga18  1  -0.34053172  1.34053172  0.44578706  1.0
  Ga  Ga19  1  -0.34053172  1.34053172  0.05421294  1.0
  Ga  Ga20  1  0.13779992  0.86220008  0.25000000  1.0
  Ga  Ga21  1  -0.13779992  1.13779992  0.75000000  1.0
  Ru  Ru22  1  0.00000000  0.00000000  0.50000000  1.0
  Ru  Ru23  1  0.00000000  0.00000000  0.00000000  1.0
  Ru  Ru24  1  0.67500978  0.67500978  0.50000000  1.0
  Ru  Ru25  1  0.67500978  0.67500978  0.00000000  1.0
  Ru  Ru26  1  0.32499022  0.32499022  0.50000000  1.0
  Ru  Ru27  1  0.32499022  0.32499022  0.00000000  1.0
