# generated using pymatgen
data_Ta(BO)2
_symmetry_space_group_name_H-M   'P 1'
_cell_length_a   7.49633337
_cell_length_b   7.49633337
_cell_length_c   7.49633337
_cell_angle_alpha   102.39829589
_cell_angle_beta   102.39829589
_cell_angle_gamma   124.79120010
_symmetry_Int_Tables_number   1
_chemical_formula_structural   Ta(BO)2
_chemical_formula_sum   'Ta4 B8 O8'
_cell_volume   306.57106932
_cell_formula_units_Z   4
loop_
 _symmetry_equiv_pos_site_id
 _symmetry_equiv_pos_as_xyz
  1  'x, y, z'
loop_
 _atom_site_type_symbol
 _atom_site_label
 _atom_site_symmetry_multiplicity
 _atom_site_fract_x
 _atom_site_fract_y
 _atom_site_fract_z
 _atom_site_occupancy
  Ta  Ta0  1  1.37500000  1.12500000  1.25000000  1.0
  Ta  Ta1  1  0.87500000  1.12500000  0.75000000  1.0
  Ta  Ta2  1  0.87500000  1.12500000  0.25000000  1.0
  Ta  Ta3  1  0.87500000  1.62500000  0.75000000  1.0
  B  B4  1  0.96448186  1.37855082  0.58593104  1.0
  B  B5  1  0.95738023  0.87144918  0.08593104  1.0
  B  B6  1  0.79261977  0.37855082  0.41406896  1.0
  B  B7  1  1.78551814  0.87144918  0.91406896  1.0
  B  B8  1  0.62144918  0.20738023  0.58593104  1.0
  B  B9  1  1.12855082  1.21448186  1.08593104  1.0
  B  B10  1  0.62144918  1.03551814  0.41406896  1.0
  B  B11  1  1.12855082  1.04261977  0.91406896  1.0
  O  O12  1  1.14222886  1.40994205  0.73228681  1.0
  O  O13  1  1.07234476  0.84005795  1.23228681  1.0
  O  O14  1  0.67765524  0.40994205  0.26771319  1.0
  O  O15  1  0.60777114  0.84005795  0.76771319  1.0
  O  O16  1  0.59005795  0.32234476  0.73228681  1.0
  O  O17  1  1.15994205  1.39222886  0.23228681  1.0
  O  O18  1  0.59005795  0.85777114  0.26771319  1.0
  O  O19  1  1.15994205  1.92765524  0.76771319  1.0
