# generated using pymatgen
data_ZnS
_symmetry_space_group_name_H-M   'P 1'
_cell_length_a   3.84914270
_cell_length_b   3.84914270
_cell_length_c   75.53701318
_cell_angle_alpha   90.00000000
_cell_angle_beta   90.00000000
_cell_angle_gamma   120.00000000
_symmetry_Int_Tables_number   1
_chemical_formula_structural   ZnS
_chemical_formula_sum   'Zn24 S24'
_cell_volume   969.21128820
_cell_formula_units_Z   24
loop_
 _symmetry_equiv_pos_site_id
 _symmetry_equiv_pos_as_xyz
  1  'x, y, z'
loop_
 _atom_site_type_symbol
 _atom_site_label
 _atom_site_symmetry_multiplicity
 _atom_site_fract_x
 _atom_site_fract_y
 _atom_site_fract_z
 _atom_site_occupancy
  Zn  Zn0  1  0.00000000  0.00000000  0.04163374  1.0
  Zn  Zn1  1  0.00000000  0.00000000  0.20833839  1.0
  Zn  Zn2  1  0.00000000  0.00000000  0.37503943  1.0
  Zn  Zn3  1  0.00000000  0.00000000  0.50000426  1.0
  Zn  Zn4  1  -0.00000000  -0.00000000  0.62496602  1.0
  Zn  Zn5  1  -0.00000000  -0.00000000  0.79170443  1.0
  Zn  Zn6  1  0.00000000  0.00000000  0.91667073  1.0
  Zn  Zn7  1  0.66666667  0.33333333  0.12500211  1.0
  Zn  Zn8  1  0.66666667  0.33333333  0.29167453  1.0
  Zn  Zn9  1  0.66666667  0.33333333  0.45837183  1.0
  Zn  Zn10  1  0.66666667  0.33333333  0.58326807  1.0
  Zn  Zn11  1  0.66666667  0.33333333  0.66664778  1.0
  Zn  Zn12  1  0.66666667  0.33333333  0.75000937  1.0
  Zn  Zn13  1  0.66666667  0.33333333  0.83339802  1.0
  Zn  Zn14  1  0.66666667  0.33333333  0.95830399  1.0
  Zn  Zn15  1  0.33333333  0.66666667  -0.00006671  1.0
  Zn  Zn16  1  0.33333333  0.66666667  0.08331738  1.0
  Zn  Zn17  1  0.33333333  0.66666667  0.16666231  1.0
  Zn  Zn18  1  0.33333333  0.66666667  0.24999950  1.0
  Zn  Zn19  1  0.33333333  0.66666667  0.33334254  1.0
  Zn  Zn20  1  0.33333333  0.66666667  0.41673341  1.0
  Zn  Zn21  1  0.33333333  0.66666667  0.54163815  1.0
  Zn  Zn22  1  0.33333333  0.66666667  0.70833677  1.0
  Zn  Zn23  1  0.33333333  0.66666667  0.87503778  1.0
  S  S24  1  0.00000000  0.00000000  0.01035625  1.0
  S  S25  1  0.00000000  0.00000000  0.17706897  1.0
  S  S26  1  0.00000000  0.00000000  0.34376038  1.0
  S  S27  1  0.00000000  0.00000000  0.46878100  1.0
  S  S28  1  -0.00000000  -0.00000000  0.59368734  1.0
  S  S29  1  -0.00000000  -0.00000000  0.76042707  1.0
  S  S30  1  0.00000000  0.00000000  0.88544935  1.0
  S  S31  1  0.66666667  0.33333333  0.09372940  1.0
  S  S32  1  0.66666667  0.33333333  0.26040564  1.0
  S  S33  1  0.66666667  0.33333333  0.42714593  1.0
  S  S34  1  0.66666667  0.33333333  0.55205112  1.0
  S  S35  1  0.66666667  0.33333333  0.63543638  1.0
  S  S36  1  0.66666667  0.33333333  0.71880003  1.0
  S  S37  1  0.66666667  0.33333333  0.80217491  1.0
  S  S38  1  0.66666667  0.33333333  0.92708038  1.0
  S  S39  1  0.33333333  0.66666667  0.05210528  1.0
  S  S40  1  0.33333333  0.66666667  0.13545973  1.0
  S  S41  1  0.33333333  0.66666667  0.21879555  1.0
  S  S42  1  0.33333333  0.66666667  0.30213441  1.0
  S  S43  1  0.33333333  0.66666667  0.38551187  1.0
  S  S44  1  0.33333333  0.66666667  0.51041520  1.0
  S  S45  1  0.33333333  0.66666667  0.67706265  1.0
  S  S46  1  0.33333333  0.66666667  0.84381110  1.0
  S  S47  1  0.33333333  0.66666667  0.96871621  1.0
