# generated using pymatgen
data_CaGaBO4
_symmetry_space_group_name_H-M   'P 1'
_cell_length_a   8.83789848
_cell_length_b   8.83789848
_cell_length_c   5.90156508
_cell_angle_alpha   90.00000000
_cell_angle_beta   90.00000000
_cell_angle_gamma   123.02998560
_symmetry_Int_Tables_number   1
_chemical_formula_structural   CaGaBO4
_chemical_formula_sum   'Ca4 Ga4 B4 O16'
_cell_volume   386.46390114
_cell_formula_units_Z   4
loop_
 _symmetry_equiv_pos_site_id
 _symmetry_equiv_pos_as_xyz
  1  'x, y, z'
loop_
 _atom_site_type_symbol
 _atom_site_label
 _atom_site_symmetry_multiplicity
 _atom_site_fract_x
 _atom_site_fract_y
 _atom_site_fract_z
 _atom_site_occupancy
  Ca  Ca0  1  -0.04957865  0.76766048  0.00131027  1.0
  Ca  Ca1  1  0.76766048  0.95042135  0.50131027  1.0
  Ca  Ca2  1  0.23233952  1.04957865  0.50131027  1.0
  Ca  Ca3  1  0.04957865  0.23233952  0.00131027  1.0
  Ga  Ga4  1  0.68664495  1.28000378  0.22798938  1.0
  Ga  Ga5  1  0.28000378  0.68664495  0.72798938  1.0
  Ga  Ga6  1  -0.28000378  0.31335505  0.72798938  1.0
  Ga  Ga7  1  0.31335505  0.71999622  0.22798938  1.0
  B  B8  1  -0.15323997  0.63373339  0.46141565  1.0
  B  B9  1  0.63373339  0.84676003  0.96141565  1.0
  B  B10  1  0.36626661  1.15323997  0.96141565  1.0
  B  B11  1  0.15323997  0.36626661  0.46141565  1.0
  O  O12  1  0.19224340  0.73132261  -0.01720833  1.0
  O  O13  1  0.73132261  1.19224340  0.48279167  1.0
  O  O14  1  0.26867739  0.80775660  0.48279167  1.0
  O  O15  1  -0.19224340  0.26867739  -0.01720833  1.0
  O  O16  1  -0.07060708  0.81570810  0.42836504  1.0
  O  O17  1  0.81570810  0.92939292  0.92836504  1.0
  O  O18  1  0.18429190  1.07060708  0.92836504  1.0
  O  O19  1  0.07060708  0.18429190  0.42836504  1.0
  O  O20  1  0.43663806  1.17082949  0.17826185  1.0
  O  O21  1  0.17082949  0.43663806  0.67826185  1.0
  O  O22  1  -0.17082949  0.56336194  0.67826185  1.0
  O  O23  1  0.56336194  0.82917051  0.17826185  1.0
  O  O24  1  -0.21840915  0.52720711  0.26786614  1.0
  O  O25  1  0.52720711  0.78159085  0.76786614  1.0
  O  O26  1  0.47279289  1.21840915  0.76786614  1.0
  O  O27  1  0.21840915  0.47279289  0.26786614  1.0
