# generated using pymatgen
data_Ag2Mo2O7
_symmetry_space_group_name_H-M   'P 1'
_cell_length_a   6.06294801
_cell_length_b   7.71004937
_cell_length_c   9.08732269
_cell_angle_alpha   115.46010827
_cell_angle_beta   121.60519258
_cell_angle_gamma   86.41437641
_symmetry_Int_Tables_number   1
_chemical_formula_structural   Ag2Mo2O7
_chemical_formula_sum   'Ag4 Mo4 O14'
_cell_volume   319.25258780
_cell_formula_units_Z   2
loop_
 _symmetry_equiv_pos_site_id
 _symmetry_equiv_pos_as_xyz
  1  'x, y, z'
loop_
 _atom_site_type_symbol
 _atom_site_label
 _atom_site_symmetry_multiplicity
 _atom_site_fract_x
 _atom_site_fract_y
 _atom_site_fract_z
 _atom_site_occupancy
  Ag  Ag0  1  0.07366140  0.20533170  0.69394203  1.0
  Ag  Ag1  1  -0.07366140  0.79466830  0.30605797  1.0
  Ag  Ag2  1  -0.54870386  0.99303004  0.29380494  1.0
  Ag  Ag3  1  0.54870386  0.00696996  0.70619506  1.0
  Mo  Mo4  1  0.09271290  0.73022368  0.72685678  1.0
  Mo  Mo5  1  -0.09271290  0.26977632  0.27314322  1.0
  Mo  Mo6  1  0.53822986  0.49160891  0.70027718  1.0
  Mo  Mo7  1  -0.53822986  0.50839109  0.29972282  1.0
  O  O8  1  -0.25606821  0.58930027  0.63790282  1.0
  O  O9  1  0.25606821  0.41069973  0.36209718  1.0
  O  O10  1  -0.58451263  0.75492083  0.37759394  1.0
  O  O11  1  0.58451263  0.24507917  0.62240606  1.0
  O  O12  1  0.24415700  0.78196921  0.96795069  1.0
  O  O13  1  -0.24415700  0.21803079  0.03204931  1.0
  O  O14  1  -0.00941150  0.94795153  0.71876701  1.0
  O  O15  1  0.00941150  0.05204847  0.28123299  1.0
  O  O16  1  0.17025782  0.42512494  0.62336793  1.0
  O  O17  1  -0.17025782  0.57487506  0.37663207  1.0
  O  O18  1  0.72582571  0.59233138  0.94988992  1.0
  O  O19  1  -0.72582571  0.40766862  0.05011008  1.0
  O  O20  1  0.37874449  0.75104912  0.70813647  1.0
  O  O21  1  -0.37874449  0.24895088  0.29186353  1.0
