# generated using pymatgen
data_MoS2
_symmetry_space_group_name_H-M   'P 1'
_cell_length_a   6.46456323
_cell_length_b   6.46456323
_cell_length_c   6.84526400
_cell_angle_alpha   90.00000000
_cell_angle_beta   90.00000000
_cell_angle_gamma   120.00000000
_symmetry_Int_Tables_number   1
_chemical_formula_structural   MoS2
_chemical_formula_sum   'Mo4 S8'
_cell_volume   247.74175459
_cell_formula_units_Z   4
loop_
 _symmetry_equiv_pos_site_id
 _symmetry_equiv_pos_as_xyz
  1  'x, y, z'
loop_
 _atom_site_type_symbol
 _atom_site_label
 _atom_site_symmetry_multiplicity
 _atom_site_fract_x
 _atom_site_fract_y
 _atom_site_fract_z
 _atom_site_occupancy
  Mo  Mo0  1  0.14325341  0.85674728  0.25191034  1.0
  Mo  Mo1  1  0.71349387  0.85674659  0.25191034  1.0
  Mo  Mo2  1  0.14325272  0.28650613  0.25191034  1.0
  Mo  Mo3  1  0.66666667  0.33333333  0.24196420  1.0
  S  S4  1  0.49691735  -0.00616437  0.03373994  1.0
  S  S5  1  0.49691828  0.50308265  0.03373994  1.0
  S  S6  1  0.00616437  0.50308172  0.03373994  1.0
  S  S7  1  0.83158981  0.66317660  0.48695978  1.0
  S  S8  1  0.83158679  0.16841019  0.48695978  1.0
  S  S9  1  0.33682340  0.16841321  0.48695978  1.0
  S  S10  1  0.33333333  0.66666667  0.44605648  1.0
  S  S11  1  0.00000000  0.00000000  -0.00585085  1.0
