# generated using pymatgen
data_BaAl4O7
_symmetry_space_group_name_H-M   'P 1'
_cell_length_a   12.96075369
_cell_length_b   5.64179320
_cell_length_c   9.29786621
_cell_angle_alpha   90.00000000
_cell_angle_beta   90.00000000
_cell_angle_gamma   90.00000000
_symmetry_Int_Tables_number   1
_chemical_formula_structural   BaAl4O7
_chemical_formula_sum   'Ba4 Al16 O28'
_cell_volume   679.87756860
_cell_formula_units_Z   4
loop_
 _symmetry_equiv_pos_site_id
 _symmetry_equiv_pos_as_xyz
  1  'x, y, z'
loop_
 _atom_site_type_symbol
 _atom_site_label
 _atom_site_symmetry_multiplicity
 _atom_site_fract_x
 _atom_site_fract_y
 _atom_site_fract_z
 _atom_site_occupancy
  Ba  Ba0  1  0.50000000  0.86841394  0.20817274  1.0
  Ba  Ba1  1  0.00000000  0.13158606  0.70817274  1.0
  Ba  Ba2  1  0.50000000  0.36863318  0.80987459  1.0
  Ba  Ba3  1  0.00000000  0.63136682  0.30987459  1.0
  Al  Al4  1  0.37715615  0.88286414  0.57366288  1.0
  Al  Al5  1  0.87715615  0.11713586  0.07366288  1.0
  Al  Al6  1  0.62284385  0.88286414  0.57366288  1.0
  Al  Al7  1  0.12284385  0.11713586  0.07366288  1.0
  Al  Al8  1  0.32503349  0.92235667  0.92236839  1.0
  Al  Al9  1  0.82503349  0.07764333  0.42236839  1.0
  Al  Al10  1  0.67496651  0.92235667  0.92236839  1.0
  Al  Al11  1  0.17496651  0.07764333  0.42236839  1.0
  Al  Al12  1  0.17497994  0.57767614  0.59567996  1.0
  Al  Al13  1  0.67497994  0.42232386  0.09567996  1.0
  Al  Al14  1  0.82502006  0.57767614  0.59567996  1.0
  Al  Al15  1  0.32502006  0.42232386  0.09567996  1.0
  Al  Al16  1  0.12285147  0.61715543  0.94437167  1.0
  Al  Al17  1  0.62285147  0.38284457  0.44437167  1.0
  Al  Al18  1  0.87714853  0.61715543  0.94437167  1.0
  Al  Al19  1  0.37714853  0.38284457  0.44437167  1.0
  O  O20  1  0.36717269  0.98910646  0.74853525  1.0
  O  O21  1  0.86717269  0.01089354  0.24853525  1.0
  O  O22  1  0.63282731  0.98910646  0.74853525  1.0
  O  O23  1  0.13282731  0.01089354  0.24853525  1.0
  O  O24  1  0.37433958  0.64936774  0.98423172  1.0
  O  O25  1  0.87433958  0.35063226  0.48423172  1.0
  O  O26  1  0.62566042  0.64936774  0.98423172  1.0
  O  O27  1  0.12566042  0.35063226  0.48423172  1.0
  O  O28  1  0.31381419  0.59192860  0.56541142  1.0
  O  O29  1  0.81381419  0.40807140  0.06541142  1.0
  O  O30  1  0.68618581  0.59192860  0.56541142  1.0
  O  O31  1  0.18618581  0.40807140  0.06541142  1.0
  O  O32  1  0.18619693  0.90806058  0.95263143  1.0
  O  O33  1  0.68619693  0.09193942  0.45263143  1.0
  O  O34  1  0.81380307  0.90806058  0.95263143  1.0
  O  O35  1  0.31380307  0.09193942  0.45263143  1.0
  O  O36  1  0.13287371  0.51094018  0.76951078  1.0
  O  O37  1  0.63287371  0.48905982  0.26951078  1.0
  O  O38  1  0.86712629  0.51094018  0.76951078  1.0
  O  O39  1  0.36712629  0.48905982  0.26951078  1.0
  O  O40  1  0.12564247  0.85063233  0.53383149  1.0
  O  O41  1  0.62564247  0.14936767  0.03383149  1.0
  O  O42  1  0.87435753  0.85063233  0.53383149  1.0
  O  O43  1  0.37435753  0.14936767  0.03383149  1.0
  O  O44  1  0.50000000  0.81753457  0.50530197  1.0
  O  O45  1  0.00000000  0.18246543  0.00530197  1.0
  O  O46  1  0.50000000  0.31756823  0.51268076  1.0
  O  O47  1  0.00000000  0.68243177  0.01268076  1.0
