# generated using pymatgen
data_Hf2Tl
_symmetry_space_group_name_H-M   'P 1'
_cell_length_a   5.97662215
_cell_length_b   5.97662215
_cell_length_c   5.97662215
_cell_angle_alpha   145.64580440
_cell_angle_beta   145.64580440
_cell_angle_gamma   49.37316323
_symmetry_Int_Tables_number   1
_chemical_formula_structural   Hf2Tl
_chemical_formula_sum   'Hf2 Tl1'
_cell_volume   67.67167175
_cell_formula_units_Z   1
loop_
 _symmetry_equiv_pos_site_id
 _symmetry_equiv_pos_as_xyz
  1  'x, y, z'
loop_
 _atom_site_type_symbol
 _atom_site_label
 _atom_site_symmetry_multiplicity
 _atom_site_fract_x
 _atom_site_fract_y
 _atom_site_fract_z
 _atom_site_occupancy
  Hf  Hf0  1  0.83277803  0.83277803  1.00000000  1.0
  Hf  Hf1  1  0.16722197  0.16722197  -0.00000000  1.0
  Tl  Tl2  1  0.50000000  0.50000000  1.00000000  1.0
