# generated using pymatgen
data_Y5BiPd2
_symmetry_space_group_name_H-M   'P 1'
_cell_length_a   8.84547946
_cell_length_b   8.84547946
_cell_length_c   8.84547946
_cell_angle_alpha   127.49434851
_cell_angle_beta   127.49434851
_cell_angle_gamma   77.44560736
_symmetry_Int_Tables_number   1
_chemical_formula_structural   Y5BiPd2
_chemical_formula_sum   'Y10 Bi2 Pd4'
_cell_volume   422.58911176
_cell_formula_units_Z   2
loop_
 _symmetry_equiv_pos_site_id
 _symmetry_equiv_pos_as_xyz
  1  'x, y, z'
loop_
 _atom_site_type_symbol
 _atom_site_label
 _atom_site_symmetry_multiplicity
 _atom_site_fract_x
 _atom_site_fract_y
 _atom_site_fract_z
 _atom_site_occupancy
  Y  Y0  1  0.00000000  0.00000000  0.00000000  1.0
  Y  Y1  1  0.50000000  0.50000000  1.00000000  1.0
  Y  Y2  1  1.20428851  0.70428851  1.19016190  1.0
  Y  Y3  1  0.48587339  0.98587339  1.19016190  1.0
  Y  Y4  1  1.01412661  1.20428851  1.50000000  1.0
  Y  Y5  1  0.29571149  0.48587339  0.50000000  1.0
  Y  Y6  1  0.70428851  0.51412661  0.50000000  1.0
  Y  Y7  1  0.98587339  0.79571149  1.50000000  1.0
  Y  Y8  1  0.51412661  1.01412661  0.80983810  1.0
  Y  Y9  1  0.79571149  0.29571149  0.80983810  1.0
  Bi  Bi10  1  0.75000000  0.75000000  1.00000000  1.0
  Bi  Bi11  1  0.25000000  0.25000000  -0.00000000  1.0
  Pd  Pd12  1  0.86344226  0.36344226  1.22688452  1.0
  Pd  Pd13  1  0.63655774  0.86344226  1.50000000  1.0
  Pd  Pd14  1  0.36344226  0.13655774  0.50000000  1.0
  Pd  Pd15  1  0.13655774  0.63655774  0.77311548  1.0
