# generated using pymatgen
data_ZnFeH4O2F5
_symmetry_space_group_name_H-M   'P 1'
_cell_length_a   7.46117280
_cell_length_b   7.46117280
_cell_length_c   7.46117280
_cell_angle_alpha   118.64771446
_cell_angle_beta   84.28183660
_cell_angle_gamma   128.33164195
_symmetry_Int_Tables_number   1
_chemical_formula_structural   ZnFeH4O2F5
_chemical_formula_sum   'Zn2 Fe2 H8 O4 F10'
_cell_volume   273.88836522
_cell_formula_units_Z   2
loop_
 _symmetry_equiv_pos_site_id
 _symmetry_equiv_pos_as_xyz
  1  'x, y, z'
loop_
 _atom_site_type_symbol
 _atom_site_label
 _atom_site_symmetry_multiplicity
 _atom_site_fract_x
 _atom_site_fract_y
 _atom_site_fract_z
 _atom_site_occupancy
  Fe  Fe0  1  0.05473901  0.80481799  0.75007898  1.0
  Fe  Fe1  1  0.05473901  0.30466004  0.24992102  1.0
  O  O2  1  0.41007369  0.60310601  0.80696768  1.0
  O  O3  1  0.79613832  0.60310601  1.19303232  1.0
  O  O4  1  0.69868583  1.00691956  0.69176626  1.0
  O  O5  1  1.31515330  1.00691956  1.30823374  1.0
  Zn  Zn6  1  1.05455063  1.30470043  0.74985021  1.0
  Zn  Zn7  1  1.55485022  1.30470043  1.25014979  1.0
  F  F8  1  0.97438710  1.14130585  0.41859562  1.0
  F  F9  1  1.72271023  1.14130585  1.16691876  1.0
  F  F10  1  0.97438710  1.55579148  0.83308124  1.0
  F  F11  1  1.72271023  1.55579148  1.58140438  1.0
  F  F12  1  -0.02950816  -0.02950816  -0.00000000  1.0
  F  F13  1  0.13866552  0.63866552  0.50000000  1.0
  F  F14  1  1.13514168  1.05412679  1.66736172  1.0
  F  F15  1  0.38676507  1.05412679  0.91898511  1.0
  F  F16  1  1.13514168  0.46777996  1.08101489  1.0
  F  F17  1  0.38676507  0.46777996  0.33263828  1.0
  H  H18  1  1.26656720  1.03454939  1.43976644  1.0
  H  H19  1  0.59478295  1.03454939  0.76798219  1.0
  H  H20  1  1.26656720  0.82680076  1.23201781  1.0
  H  H21  1  0.59478295  0.82680076  0.56023356  1.0
  H  H22  1  0.84361462  0.78266335  1.26867589  1.0
  H  H23  1  0.51398746  0.78266335  0.93904873  1.0
  H  H24  1  0.84361462  0.57493873  1.06095127  1.0
  H  H25  1  0.51398746  0.57493873  0.73132411  1.0
