# generated using pymatgen
data_Al4(B2O5)3
_symmetry_space_group_name_H-M   'P 1'
_cell_length_a   7.04367058
_cell_length_b   7.04367058
_cell_length_c   7.04367058
_cell_angle_alpha   110.91705970
_cell_angle_beta   110.91705970
_cell_angle_gamma   110.91705970
_symmetry_Int_Tables_number   1
_chemical_formula_structural   Al4(B2O5)3
_chemical_formula_sum   'Al4 B6 O15'
_cell_volume   253.59496596
_cell_formula_units_Z   1
loop_
 _symmetry_equiv_pos_site_id
 _symmetry_equiv_pos_as_xyz
  1  'x, y, z'
loop_
 _atom_site_type_symbol
 _atom_site_label
 _atom_site_symmetry_multiplicity
 _atom_site_fract_x
 _atom_site_fract_y
 _atom_site_fract_z
 _atom_site_occupancy
  Al  Al0  1  0.91422185  1.19679601  -0.29181701  1.0
  Al  Al1  1  0.70818299  -0.08577815  0.19679601  1.0
  Al  Al2  1  1.19679601  0.70818299  0.91422185  1.0
  Al  Al3  1  -0.00156366  -0.00156366  -0.00156366  1.0
  B  B4  1  0.49996884  -0.17441743  -0.27214330  1.0
  B  B5  1  0.72785670  0.49996884  -0.17441743  1.0
  B  B6  1  0.82558257  0.72785670  0.49996884  1.0
  B  B7  1  0.47622240  1.14242211  -0.59928688  1.0
  B  B8  1  0.40071312  0.47622240  -0.85757789  1.0
  B  B9  1  1.14242211  0.40071312  0.47622240  1.0
  O  O10  1  0.47633857  -0.10492928  -0.07621391  1.0
  O  O11  1  0.92378609  1.47633857  -0.10492928  1.0
  O  O12  1  0.89507072  0.92378609  -0.52366143  1.0
  O  O13  1  0.25781153  0.98498215  -0.82523762  1.0
  O  O14  1  1.17476238  1.25781153  -0.01501785  1.0
  O  O15  1  0.98498215  0.17476238  0.25781153  1.0
  O  O16  1  0.66561372  1.11994571  -0.57770883  1.0
  O  O17  1  0.42229117  0.66561372  -0.88005429  1.0
  O  O18  1  1.11994571  0.42229117  0.66561372  1.0
  O  O19  1  0.71950863  -0.02813367  -0.23874322  1.0
  O  O20  1  0.76125678  0.71950863  -0.02813367  1.0
  O  O21  1  0.97186633  0.76125678  0.71950863  1.0
  O  O22  1  1.31043367  0.60583949  0.50209012  1.0
  O  O23  1  0.50209012  0.31043367  -0.39416051  1.0
  O  O24  1  0.60583949  0.50209012  0.31043367  1.0
