# generated using pymatgen
data_HfGeIr
_symmetry_space_group_name_H-M   'P 1'
_cell_length_a   6.53200083
_cell_length_b   4.05135819
_cell_length_c   7.58158323
_cell_angle_alpha   90.00000000
_cell_angle_beta   90.00000000
_cell_angle_gamma   90.00000000
_symmetry_Int_Tables_number   1
_chemical_formula_structural   HfGeIr
_chemical_formula_sum   'Hf4 Ge4 Ir4'
_cell_volume   200.63503895
_cell_formula_units_Z   4
loop_
 _symmetry_equiv_pos_site_id
 _symmetry_equiv_pos_as_xyz
  1  'x, y, z'
loop_
 _atom_site_type_symbol
 _atom_site_label
 _atom_site_symmetry_multiplicity
 _atom_site_fract_x
 _atom_site_fract_y
 _atom_site_fract_z
 _atom_site_occupancy
  Hf  Hf0  1  0.97729852  0.75000000  0.68573709  1.0
  Hf  Hf1  1  0.47729852  0.75000000  0.81426291  1.0
  Hf  Hf2  1  0.02270148  0.25000000  0.31426291  1.0
  Hf  Hf3  1  0.52270148  0.25000000  0.18573709  1.0
  Ge  Ge4  1  0.73173514  0.75000000  0.38079981  1.0
  Ge  Ge5  1  0.23173514  0.75000000  0.11920019  1.0
  Ge  Ge6  1  0.26826486  0.25000000  0.61920019  1.0
  Ge  Ge7  1  0.76826486  0.25000000  0.88079981  1.0
  Ir  Ir8  1  0.84496034  0.75000000  0.06406427  1.0
  Ir  Ir9  1  0.34496034  0.75000000  0.43593573  1.0
  Ir  Ir10  1  0.15503966  0.25000000  0.93593573  1.0
  Ir  Ir11  1  0.65503966  0.25000000  0.56406427  1.0
