# generated using pymatgen
data_K2NaMnO4
_symmetry_space_group_name_H-M   'P 1'
_cell_length_a   10.38105564
_cell_length_b   10.13663699
_cell_length_c   7.77246257
_cell_angle_alpha   69.41731189
_cell_angle_beta   66.08163894
_cell_angle_gamma   44.50104918
_symmetry_Int_Tables_number   1
_chemical_formula_structural   K2NaMnO4
_chemical_formula_sum   'K8 Na4 Mn4 O16'
_cell_volume   521.55550275
_cell_formula_units_Z   4
loop_
 _symmetry_equiv_pos_site_id
 _symmetry_equiv_pos_as_xyz
  1  'x, y, z'
loop_
 _atom_site_type_symbol
 _atom_site_label
 _atom_site_symmetry_multiplicity
 _atom_site_fract_x
 _atom_site_fract_y
 _atom_site_fract_z
 _atom_site_occupancy
  K  K0  1  -0.11059065  0.88940935  0.11059065  1.0
  K  K1  1  0.11059065  1.11059065  -0.11059065  1.0
  K  K2  1  0.36059065  0.36059065  0.13940935  1.0
  K  K3  1  0.13940935  0.13940935  0.36059065  1.0
  K  K4  1  -0.31765377  1.31765377  0.31765377  1.0
  K  K5  1  0.31765377  0.68234623  -0.31765377  1.0
  K  K6  1  -0.43234623  0.93234623  0.93234623  1.0
  K  K7  1  -0.06765377  0.56765377  0.56765377  1.0
  Na  Na8  1  0.34158522  0.34158522  -0.34158522  1.0
  Na  Na9  1  -0.34158522  0.65841478  0.34158522  1.0
  Na  Na10  1  -0.09158522  0.90841478  0.59158522  1.0
  Na  Na11  1  0.59158522  0.59158522  -0.09158522  1.0
  Mn  Mn12  1  0.75624017  0.24375983  0.75624017  1.0
  Mn  Mn13  1  0.24375983  0.75624017  0.24375983  1.0
  Mn  Mn14  1  0.49375983  0.00624017  0.49375983  1.0
  Mn  Mn15  1  0.00624017  0.49375983  0.00624017  1.0
  O  O16  1  0.03184577  0.98105288  0.27982901  1.0
  O  O17  1  0.70727233  0.27982901  0.98105288  1.0
  O  O18  1  0.27982901  0.70727233  0.03184577  1.0
  O  O19  1  0.98105288  0.03184577  0.70727233  1.0
  O  O20  1  0.21815423  0.26894712  -0.02982901  1.0
  O  O21  1  0.54272767  -0.02982901  0.26894712  1.0
  O  O22  1  -0.02982901  0.54272767  0.21815423  1.0
  O  O23  1  0.26894712  0.21815423  0.54272767  1.0
  O  O24  1  0.41987705  0.73991438  0.24158181  1.0
  O  O25  1  -0.40137324  1.24158181  0.73991438  1.0
  O  O26  1  0.24158181  0.59862676  0.41987705  1.0
  O  O27  1  0.73991438  0.41987705  -0.40137324  1.0
  O  O28  1  0.83012295  -0.48991438  1.00841819  1.0
  O  O29  1  -0.34862676  1.00841819  0.51008562  1.0
  O  O30  1  1.00841819  -0.34862676  0.83012295  1.0
  O  O31  1  -0.48991438  0.83012295  0.65137324  1.0
