# generated using pymatgen
data_SrS3
_symmetry_space_group_name_H-M   'P 1'
_cell_length_a   5.43509437
_cell_length_b   5.43509437
_cell_length_c   6.99851727
_cell_angle_alpha   90.00000000
_cell_angle_beta   90.00000000
_cell_angle_gamma   83.92293348
_symmetry_Int_Tables_number   1
_chemical_formula_structural   SrS3
_chemical_formula_sum   'Sr2 S6'
_cell_volume   205.57617075
_cell_formula_units_Z   2
loop_
 _symmetry_equiv_pos_site_id
 _symmetry_equiv_pos_as_xyz
  1  'x, y, z'
loop_
 _atom_site_type_symbol
 _atom_site_label
 _atom_site_symmetry_multiplicity
 _atom_site_fract_x
 _atom_site_fract_y
 _atom_site_fract_z
 _atom_site_occupancy
  Sr  Sr0  1  0.03121737  0.96878263  0.50000000  1.0
  Sr  Sr1  1  -0.46878263  1.46878263  0.00000000  1.0
  S  S2  1  -0.49101237  1.16077826  0.35712212  1.0
  S  S3  1  0.33922174  0.99101237  0.85712212  1.0
  S  S4  1  -0.16077826  1.49101237  0.64287788  1.0
  S  S5  1  0.00898763  0.66077826  0.14287788  1.0
  S  S6  1  0.50007326  0.49992674  0.50000000  1.0
  S  S7  1  0.00007326  -0.00007326  0.00000000  1.0
