# generated using pymatgen
data_P2W
_symmetry_space_group_name_H-M   'P 1'
_cell_length_a   5.83103866
_cell_length_b   5.83103866
_cell_length_c   5.00486566
_cell_angle_alpha   90.00000000
_cell_angle_beta   90.00000000
_cell_angle_gamma   148.28276571
_symmetry_Int_Tables_number   1
_chemical_formula_structural   P2W
_chemical_formula_sum   'P4 W2'
_cell_volume   89.46331778
_cell_formula_units_Z   2
loop_
 _symmetry_equiv_pos_site_id
 _symmetry_equiv_pos_as_xyz
  1  'x, y, z'
loop_
 _atom_site_type_symbol
 _atom_site_label
 _atom_site_symmetry_multiplicity
 _atom_site_fract_x
 _atom_site_fract_y
 _atom_site_fract_z
 _atom_site_occupancy
  P  P0  1  -0.93033921  0.93033921  0.49948780  1.0
  P  P1  1  -0.06966079  1.06966079  -0.00051220  1.0
  P  P2  1  -0.79814739  0.79814739  0.18222493  1.0
  P  P3  1  -0.20185261  1.20185261  0.68222493  1.0
  W  W4  1  -0.59337273  0.59337273  0.38218727  1.0
  W  W5  1  -0.40662727  1.40662727  0.88218727  1.0
