# generated using pymatgen
data_Nb6SI9
_symmetry_space_group_name_H-M   'P 1'
_cell_length_a   12.14656769
_cell_length_b   11.05329329
_cell_length_c   10.54021224
_cell_angle_alpha   112.93151485
_cell_angle_beta   105.00043157
_cell_angle_gamma   107.24978763
_symmetry_Int_Tables_number   1
_chemical_formula_structural   Nb6SI9
_chemical_formula_sum   'Nb12 S2 I18'
_cell_volume   1126.29361054
_cell_formula_units_Z   2
loop_
 _symmetry_equiv_pos_site_id
 _symmetry_equiv_pos_as_xyz
  1  'x, y, z'
loop_
 _atom_site_type_symbol
 _atom_site_label
 _atom_site_symmetry_multiplicity
 _atom_site_fract_x
 _atom_site_fract_y
 _atom_site_fract_z
 _atom_site_occupancy
  Nb  Nb0  1  -0.18609760  -0.56586585  -0.98452867  1.0
  Nb  Nb1  1  -0.81390240  -0.43413415  -0.01547133  1.0
  Nb  Nb2  1  -0.95555028  -0.26267245  -0.88520911  1.0
  Nb  Nb3  1  -0.04444972  -0.73732755  -0.11479089  1.0
  Nb  Nb4  1  -0.92758638  -0.48411525  -0.82481068  1.0
  Nb  Nb5  1  -0.07241362  -0.51588475  -0.17518932  1.0
  Nb  Nb6  1  -0.67502336  -0.98226265  -0.60440647  1.0
  Nb  Nb7  1  -0.32497664  -0.01773735  -0.39559353  1.0
  Nb  Nb8  1  -0.41006909  -0.85337490  -0.51302831  1.0
  Nb  Nb9  1  -0.58993091  -0.14662510  -0.48697169  1.0
  Nb  Nb10  1  -0.46684162  -0.84671572  -0.26555150  1.0
  Nb  Nb11  1  -0.53315838  -0.15328428  -0.73444850  1.0
  S  S12  1  -0.74879300  -0.24062036  -0.76322960  1.0
  S  S13  1  -0.25120700  -0.75937964  -0.23677040  1.0
  I  I14  1  -0.42634590  -0.64818742  -0.96204476  1.0
  I  I15  1  -0.57365410  -0.35181258  -0.03795524  1.0
  I  I16  1  -0.78563348  -0.64478143  -0.92857629  1.0
  I  I17  1  -0.21436652  -0.35521857  -0.07142371  1.0
  I  I18  1  -0.11680489  -0.74859890  -0.87686154  1.0
  I  I19  1  -0.88319511  -0.25140110  -0.12313846  1.0
  I  I20  1  -0.57669971  -0.94395900  -0.81587741  1.0
  I  I21  1  -0.42330029  -0.05604100  -0.18412259  1.0
  I  I22  1  -0.90132423  -0.95571313  -0.73635169  1.0
  I  I23  1  -0.09867577  -0.04428687  -0.26364831  1.0
  I  I24  1  -0.77184834  -0.41435147  -0.51445551  1.0
  I  I25  1  -0.22815166  -0.58564853  -0.48554449  1.0
  I  I26  1  -0.53442036  -0.67535359  -0.39168036  1.0
  I  I27  1  -0.46557964  -0.32464641  -0.60831964  1.0
  I  I28  1  -0.73402585  -1.00063143  -0.36178099  1.0
  I  I29  1  -0.26597415  0.00063143  -0.63821901  1.0
  I  I30  1  -0.94607940  -0.67928107  -0.31773152  1.0
  I  I31  1  -0.05392060  -0.32071893  -0.68226848  1.0
