# generated using pymatgen
data_Al2S3
_symmetry_space_group_name_H-M   'P 1'
_cell_length_a   6.56552237
_cell_length_b   6.56552237
_cell_length_c   18.06221533
_cell_angle_alpha   90.00000000
_cell_angle_beta   90.00000000
_cell_angle_gamma   120.00000000
_symmetry_Int_Tables_number   1
_chemical_formula_structural   Al2S3
_chemical_formula_sum   'Al12 S18'
_cell_volume   674.27990617
_cell_formula_units_Z   6
loop_
 _symmetry_equiv_pos_site_id
 _symmetry_equiv_pos_as_xyz
  1  'x, y, z'
loop_
 _atom_site_type_symbol
 _atom_site_label
 _atom_site_symmetry_multiplicity
 _atom_site_fract_x
 _atom_site_fract_y
 _atom_site_fract_z
 _atom_site_occupancy
  Al  Al0  1  0.34471033  0.98099568  0.79372064  1.0
  Al  Al1  1  0.98099568  0.63628534  0.62705397  1.0
  Al  Al2  1  0.63628534  0.65528967  0.46038731  1.0
  Al  Al3  1  0.01900432  0.36371466  0.12705397  1.0
  Al  Al4  1  0.65528967  0.01900432  0.29372064  1.0
  Al  Al5  1  0.36371466  0.34471033  0.96038731  1.0
  Al  Al6  1  0.99483406  0.66840560  0.96534674  1.0
  Al  Al7  1  0.66840560  0.67357153  0.79868008  1.0
  Al  Al8  1  0.67357153  0.00516594  0.63201341  1.0
  Al  Al9  1  0.33159440  0.32642847  0.29868008  1.0
  Al  Al10  1  0.00516594  0.33159440  0.46534674  1.0
  Al  Al11  1  0.32642847  0.99483406  0.13201341  1.0
  S  S12  1  0.31894085  0.97478395  0.66609342  1.0
  S  S13  1  0.97478395  0.65584310  0.49942675  1.0
  S  S14  1  0.65584310  0.68105915  0.33276009  1.0
  S  S15  1  0.02521605  0.34415690  -0.00057325  1.0
  S  S16  1  0.68105915  0.02521605  0.16609342  1.0
  S  S17  1  0.34415690  0.31894085  0.83276009  1.0
  S  S18  1  0.66776399  0.66677965  0.67038004  1.0
  S  S19  1  0.66677965  0.99901566  0.50371338  1.0
  S  S20  1  0.99901566  0.33223601  0.33704671  1.0
  S  S21  1  0.33322035  0.00098434  0.00371338  1.0
  S  S22  1  0.33223601  0.33322035  0.17038004  1.0
  S  S23  1  0.00098434  0.66776399  0.83704671  1.0
  S  S24  1  0.67274480  0.65352602  0.00629249  1.0
  S  S25  1  0.65352602  0.98078122  0.83962582  1.0
  S  S26  1  0.98078122  0.32725520  0.67295916  1.0
  S  S27  1  0.34647398  0.01921878  0.33962582  1.0
  S  S28  1  0.32725520  0.34647398  0.50629249  1.0
  S  S29  1  0.01921878  0.67274480  0.17295916  1.0
