# generated using pymatgen
data_Mg3Si8Ir3
_symmetry_space_group_name_H-M   'P 1'
_cell_length_a   8.67045942
_cell_length_b   8.67045942
_cell_length_c   8.67045942
_cell_angle_alpha   60.00000000
_cell_angle_beta   60.00000000
_cell_angle_gamma   60.00000000
_symmetry_Int_Tables_number   1
_chemical_formula_structural   Mg3Si8Ir3
_chemical_formula_sum   'Mg6 Si16 Ir6'
_cell_volume   460.90490692
_cell_formula_units_Z   2
loop_
 _symmetry_equiv_pos_site_id
 _symmetry_equiv_pos_as_xyz
  1  'x, y, z'
loop_
 _atom_site_type_symbol
 _atom_site_label
 _atom_site_symmetry_multiplicity
 _atom_site_fract_x
 _atom_site_fract_y
 _atom_site_fract_z
 _atom_site_occupancy
  Mg  Mg0  1  0.35000594  1.35000594  0.35000594  1.0
  Mg  Mg1  1  -0.05001781  0.35000594  0.35000594  1.0
  Mg  Mg2  1  0.35000594  1.35000594  -0.05001781  1.0
  Mg  Mg3  1  0.35000594  -0.05001781  0.35000594  1.0
  Mg  Mg4  1  0.75000000  0.75000000  -0.25000000  1.0
  Mg  Mg5  1  0.00000000  0.00000000  0.00000000  1.0
  Si  Si6  1  0.97070709  0.66866941  -0.02929291  1.0
  Si  Si7  1  0.97070709  0.97070709  -0.33133059  1.0
  Si  Si8  1  0.38991641  0.97070709  -0.33133059  1.0
  Si  Si9  1  0.38991641  0.66866941  -0.02929291  1.0
  Si  Si10  1  0.66866941  0.97070709  -0.02929291  1.0
  Si  Si11  1  0.38991641  0.97070709  -0.02929291  1.0
  Si  Si12  1  0.66866941  0.97070709  -0.61008359  1.0
  Si  Si13  1  0.97070709  0.97070709  -0.61008359  1.0
  Si  Si14  1  0.97070709  0.38991641  -0.02929291  1.0
  Si  Si15  1  0.66866941  0.38991641  -0.02929291  1.0
  Si  Si16  1  0.97070709  0.66866941  -0.61008359  1.0
  Si  Si17  1  0.97070709  0.38991641  -0.33133059  1.0
  Si  Si18  1  -0.42585339  0.57414661  0.57414661  1.0
  Si  Si19  1  1.27756018  0.57414661  -0.42585339  1.0
  Si  Si20  1  -0.42585339  0.57414661  1.27756018  1.0
  Si  Si21  1  0.57414661  1.27756018  -0.42585339  1.0
  Ir  Ir22  1  -0.74501057  0.74501057  0.74501057  1.0
  Ir  Ir23  1  -0.25498943  0.74501057  0.25498943  1.0
  Ir  Ir24  1  -0.25498943  0.25498943  0.74501057  1.0
  Ir  Ir25  1  0.25498943  1.25498943  -0.25498943  1.0
  Ir  Ir26  1  0.25498943  -0.25498943  0.25498943  1.0
  Ir  Ir27  1  -0.25498943  0.25498943  0.25498943  1.0
