# generated using pymatgen
data_AlPt2
_symmetry_space_group_name_H-M   'P 1'
_cell_length_a   5.45614128
_cell_length_b   4.10562619
_cell_length_c   7.98348778
_cell_angle_alpha   90.00000000
_cell_angle_beta   90.00000000
_cell_angle_gamma   90.00000000
_symmetry_Int_Tables_number   1
_chemical_formula_structural   AlPt2
_chemical_formula_sum   'Al4 Pt8'
_cell_volume   178.83712451
_cell_formula_units_Z   4
loop_
 _symmetry_equiv_pos_site_id
 _symmetry_equiv_pos_as_xyz
  1  'x, y, z'
loop_
 _atom_site_type_symbol
 _atom_site_label
 _atom_site_symmetry_multiplicity
 _atom_site_fract_x
 _atom_site_fract_y
 _atom_site_fract_z
 _atom_site_occupancy
  Al  Al0  1  0.81009744  0.75000000  0.39657196  1.0
  Al  Al1  1  0.31009744  0.75000000  0.10342804  1.0
  Al  Al2  1  0.18990256  0.25000000  0.60342804  1.0
  Al  Al3  1  0.68990256  0.25000000  0.89657196  1.0
  Pt  Pt4  1  0.95582284  0.75000000  0.70996215  1.0
  Pt  Pt5  1  0.45582284  0.75000000  0.79003785  1.0
  Pt  Pt6  1  0.04417716  0.25000000  0.29003785  1.0
  Pt  Pt7  1  0.54417716  0.25000000  0.20996215  1.0
  Pt  Pt8  1  0.83938345  0.75000000  0.06872856  1.0
  Pt  Pt9  1  0.33938345  0.75000000  0.43127144  1.0
  Pt  Pt10  1  0.16061655  0.25000000  0.93127144  1.0
  Pt  Pt11  1  0.66061655  0.25000000  0.56872856  1.0
