# generated using pymatgen
data_Zr6Al16Ni7
_symmetry_space_group_name_H-M   'P 1'
_cell_length_a   8.55011343
_cell_length_b   8.55011343
_cell_length_c   8.55011343
_cell_angle_alpha   60.00000000
_cell_angle_beta   60.00000000
_cell_angle_gamma   60.00000000
_symmetry_Int_Tables_number   1
_chemical_formula_structural   Zr6Al16Ni7
_chemical_formula_sum   'Zr6 Al16 Ni7'
_cell_volume   441.97797873
_cell_formula_units_Z   1
loop_
 _symmetry_equiv_pos_site_id
 _symmetry_equiv_pos_as_xyz
  1  'x, y, z'
loop_
 _atom_site_type_symbol
 _atom_site_label
 _atom_site_symmetry_multiplicity
 _atom_site_fract_x
 _atom_site_fract_y
 _atom_site_fract_z
 _atom_site_occupancy
  Zr  Zr0  1  -0.69100713  0.69100713  0.69100713  1.0
  Zr  Zr1  1  -0.30899287  0.30899287  0.69100713  1.0
  Zr  Zr2  1  0.69100713  0.69100713  -0.69100713  1.0
  Zr  Zr3  1  0.30899287  1.30899287  -0.30899287  1.0
  Zr  Zr4  1  0.30899287  -0.30899287  1.30899287  1.0
  Zr  Zr5  1  -0.30899287  0.30899287  0.30899287  1.0
  Al  Al6  1  0.66644431  0.66644431  -0.33355569  1.0
  Al  Al7  1  1.33355569  0.33355569  -0.00066706  1.0
  Al  Al8  1  1.33355569  -0.00066706  0.33355569  1.0
  Al  Al9  1  1.00066706  0.66644431  -0.33355569  1.0
  Al  Al10  1  0.99933294  0.33355569  0.33355569  1.0
  Al  Al11  1  0.66644431  1.00066706  -0.33355569  1.0
  Al  Al12  1  0.66644431  0.66644431  0.00066706  1.0
  Al  Al13  1  1.33355569  0.33355569  0.33355569  1.0
  Al  Al14  1  0.88089782  0.88089782  -0.11910218  1.0
  Al  Al15  1  1.11910218  0.11910218  0.64269346  1.0
  Al  Al16  1  1.11910218  0.64269346  0.11910218  1.0
  Al  Al17  1  0.35730654  0.88089782  -0.11910218  1.0
  Al  Al18  1  1.64269346  0.11910218  0.11910218  1.0
  Al  Al19  1  0.88089782  0.35730654  -0.11910218  1.0
  Al  Al20  1  0.88089782  0.88089782  -0.64269346  1.0
  Al  Al21  1  1.11910218  0.11910218  0.11910218  1.0
  Ni  Ni22  1  1.50000000  0.00000000  -0.00000000  1.0
  Ni  Ni23  1  1.00000000  0.50000000  -0.50000000  1.0
  Ni  Ni24  1  0.00000000  1.50000000  -0.00000000  1.0
  Ni  Ni25  1  0.50000000  1.00000000  -0.50000000  1.0
  Ni  Ni26  1  0.00000000  -0.00000000  0.50000000  1.0
  Ni  Ni27  1  0.50000000  -0.50000000  1.00000000  1.0
  Ni  Ni28  1  0.00000000  0.00000000  -0.00000000  1.0
