# generated using pymatgen
data_Sr6YbSc(BO3)6
_symmetry_space_group_name_H-M   'P 1'
_cell_length_a   7.81433217
_cell_length_b   7.81433217
_cell_length_c   7.81433217
_cell_angle_alpha   105.14346652
_cell_angle_beta   105.14346652
_cell_angle_gamma   105.14346652
_symmetry_Int_Tables_number   1
_chemical_formula_structural   Sr6YbSc(BO3)6
_chemical_formula_sum   'Sr6 Yb1 Sc1 B6 O18'
_cell_volume   415.88273318
_cell_formula_units_Z   1
loop_
 _symmetry_equiv_pos_site_id
 _symmetry_equiv_pos_as_xyz
  1  'x, y, z'
loop_
 _atom_site_type_symbol
 _atom_site_label
 _atom_site_symmetry_multiplicity
 _atom_site_fract_x
 _atom_site_fract_y
 _atom_site_fract_z
 _atom_site_occupancy
  Sr  Sr0  1  0.76551385  0.65378179  0.14445500  1.0
  Sr  Sr1  1  1.34621821  -0.14445500  0.23448615  1.0
  Sr  Sr2  1  0.85554500  0.23448615  0.34621821  1.0
  Sr  Sr3  1  1.23448615  0.34621821  -0.14445500  1.0
  Sr  Sr4  1  0.65378179  1.14445500  -0.23448615  1.0
  Sr  Sr5  1  1.14445500  0.76551385  -0.34621821  1.0
  Yb  Yb6  1  0.50000000  0.50000000  0.50000000  1.0
  Sc  Sc7  1  0.00000000  -0.00000000  0.00000000  1.0
  B  B8  1  1.54309817  0.79189926  -0.11760866  1.0
  B  B9  1  1.20810074  0.11760866  -0.54309817  1.0
  B  B10  1  1.11760866  -0.54309817  0.20810074  1.0
  B  B11  1  0.45690183  0.20810074  0.11760866  1.0
  B  B12  1  0.79189926  0.88239134  0.54309817  1.0
  B  B13  1  0.88239134  1.54309817  -0.20810074  1.0
  O  O14  1  0.71930115  0.93293956  -0.00432788  1.0
  O  O15  1  1.06706044  0.00432788  -0.71930115  1.0
  O  O16  1  1.00432788  -0.71930115  0.06706044  1.0
  O  O17  1  0.28069885  0.06706044  0.00432788  1.0
  O  O18  1  0.93293956  0.99567212  -0.28069885  1.0
  O  O19  1  0.99567212  0.71930115  -0.06706044  1.0
  O  O20  1  1.47652157  0.76403834  -0.30986987  1.0
  O  O21  1  1.23596166  0.30986987  -0.47652157  1.0
  O  O22  1  1.30986987  -0.47652157  0.23596166  1.0
  O  O23  1  0.52347843  0.23596166  0.30986987  1.0
  O  O24  1  0.76403834  0.69013013  0.47652157  1.0
  O  O25  1  0.69013013  1.47652157  -0.23596166  1.0
  O  O26  1  0.56077618  0.30992093  0.03705277  1.0
  O  O27  1  0.69007907  0.96294723  0.43922382  1.0
  O  O28  1  0.96294723  1.43922382  -0.30992093  1.0
  O  O29  1  1.43922382  0.69007907  -0.03705277  1.0
  O  O30  1  1.30992093  0.03705277  -0.43922382  1.0
  O  O31  1  1.03705277  -0.43922382  0.30992093  1.0
