# generated using pymatgen
data_Cr2N
_symmetry_space_group_name_H-M   'P 1'
_cell_length_a   4.77073253
_cell_length_b   4.77073253
_cell_length_c   4.40088252
_cell_angle_alpha   90.00000000
_cell_angle_beta   90.00000000
_cell_angle_gamma   120.00000000
_symmetry_Int_Tables_number   1
_chemical_formula_structural   Cr2N
_chemical_formula_sum   'Cr6 N3'
_cell_volume   86.74421958
_cell_formula_units_Z   3
loop_
 _symmetry_equiv_pos_site_id
 _symmetry_equiv_pos_as_xyz
  1  'x, y, z'
loop_
 _atom_site_type_symbol
 _atom_site_label
 _atom_site_symmetry_multiplicity
 _atom_site_fract_x
 _atom_site_fract_y
 _atom_site_fract_z
 _atom_site_occupancy
  Cr  Cr0  1  0.67427901  0.67427901  0.25360920  1.0
  Cr  Cr1  1  0.67427901  0.00000000  0.74639080  1.0
  Cr  Cr2  1  -0.00000000  0.67427901  0.74639080  1.0
  Cr  Cr3  1  0.00000000  0.32572099  0.25360920  1.0
  Cr  Cr4  1  0.32572099  0.32572099  0.74639080  1.0
  Cr  Cr5  1  0.32572099  0.00000000  0.25360920  1.0
  N  N6  1  0.33333333  0.66666667  0.50000000  1.0
  N  N7  1  0.66666667  0.33333333  0.50000000  1.0
  N  N8  1  0.00000000  0.00000000  0.00000000  1.0
