# generated using pymatgen
data_SbIrS
_symmetry_space_group_name_H-M   'P 1'
_cell_length_a   6.10564792
_cell_length_b   6.09518196
_cell_length_c   6.10748805
_cell_angle_alpha   90.00000000
_cell_angle_beta   90.00000000
_cell_angle_gamma   90.00000000
_symmetry_Int_Tables_number   1
_chemical_formula_structural   SbIrS
_chemical_formula_sum   'Sb4 Ir4 S4'
_cell_volume   227.29038195
_cell_formula_units_Z   4
loop_
 _symmetry_equiv_pos_site_id
 _symmetry_equiv_pos_as_xyz
  1  'x, y, z'
loop_
 _atom_site_type_symbol
 _atom_site_label
 _atom_site_symmetry_multiplicity
 _atom_site_fract_x
 _atom_site_fract_y
 _atom_site_fract_z
 _atom_site_occupancy
  Sb  Sb0  1  0.37961090  0.13419102  0.87989028  1.0
  Sb  Sb1  1  0.87961090  0.86580898  0.87989028  1.0
  Sb  Sb2  1  0.62038910  0.86580898  0.37989028  1.0
  Sb  Sb3  1  0.12038910  0.13419102  0.37989028  1.0
  Ir  Ir4  1  0.51175246  0.26768052  0.49673177  1.0
  Ir  Ir5  1  1.01175246  0.73231948  0.49673177  1.0
  Ir  Ir6  1  0.48824754  0.73231948  -0.00326823  1.0
  Ir  Ir7  1  -0.01175246  0.26768052  -0.00326823  1.0
  S  S8  1  0.38192166  0.62607681  0.61897794  1.0
  S  S9  1  0.88192166  0.37392319  0.61897794  1.0
  S  S10  1  0.61807834  0.37392319  0.11897794  1.0
  S  S11  1  0.11807834  0.62607681  0.11897794  1.0
