# generated using pymatgen
data_YAlGeO5
_symmetry_space_group_name_H-M   'P 1'
_cell_length_a   7.32203147
_cell_length_b   8.40168232
_cell_length_c   5.66951720
_cell_angle_alpha   90.00000000
_cell_angle_beta   90.00000000
_cell_angle_gamma   90.00000000
_symmetry_Int_Tables_number   1
_chemical_formula_structural   YAlGeO5
_chemical_formula_sum   'Y4 Al4 Ge4 O20'
_cell_volume   348.77385699
_cell_formula_units_Z   4
loop_
 _symmetry_equiv_pos_site_id
 _symmetry_equiv_pos_as_xyz
  1  'x, y, z'
loop_
 _atom_site_type_symbol
 _atom_site_label
 _atom_site_symmetry_multiplicity
 _atom_site_fract_x
 _atom_site_fract_y
 _atom_site_fract_z
 _atom_site_occupancy
  Y  Y0  1  0.85639182  0.17394502  0.00000000  1.0
  Y  Y1  1  0.14360818  0.82605498  0.00000000  1.0
  Y  Y2  1  0.35639182  0.32605498  0.00000000  1.0
  Y  Y3  1  0.64360818  0.67394502  0.00000000  1.0
  Al  Al4  1  0.00000000  0.50000000  0.24942687  1.0
  Al  Al5  1  0.50000000  0.00000000  0.75057313  1.0
  Al  Al6  1  0.00000000  0.50000000  0.75057313  1.0
  Al  Al7  1  0.50000000  0.00000000  0.24942687  1.0
  Ge  Ge8  1  0.62004595  0.35565052  0.50000000  1.0
  Ge  Ge9  1  0.37995405  0.64434948  0.50000000  1.0
  Ge  Ge10  1  0.12004595  0.14434948  0.50000000  1.0
  Ge  Ge11  1  0.87995405  0.85565052  0.50000000  1.0
  O  O12  1  0.83873537  0.44624596  0.00000000  1.0
  O  O13  1  0.16126463  0.55375404  0.00000000  1.0
  O  O14  1  0.33873537  0.05375404  0.00000000  1.0
  O  O15  1  0.66126463  0.94624596  0.00000000  1.0
  O  O16  1  0.84692701  0.43016198  0.50000000  1.0
  O  O17  1  0.15307299  0.56983802  0.50000000  1.0
  O  O18  1  0.34692701  0.06983802  0.50000000  1.0
  O  O19  1  0.65307299  0.93016198  0.50000000  1.0
  O  O20  1  0.60636270  0.21258281  0.25249678  1.0
  O  O21  1  0.39363730  0.78741719  0.25249678  1.0
  O  O22  1  0.10636270  0.28741719  0.74750322  1.0
  O  O23  1  0.89363730  0.71258281  0.74750322  1.0
  O  O24  1  0.39363730  0.78741719  0.74750322  1.0
  O  O25  1  0.60636270  0.21258281  0.74750322  1.0
  O  O26  1  0.89363730  0.71258281  0.25249678  1.0
  O  O27  1  0.10636270  0.28741719  0.25249678  1.0
  O  O28  1  0.50000000  0.50000000  0.28475563  1.0
  O  O29  1  0.00000000  0.00000000  0.71524437  1.0
  O  O30  1  0.50000000  0.50000000  0.71524437  1.0
  O  O31  1  0.00000000  0.00000000  0.28475563  1.0
