# generated using pymatgen
data_Cs3H5Pt
_symmetry_space_group_name_H-M   'P 1'
_cell_length_a   8.27942044
_cell_length_b   8.27942044
_cell_length_c   6.27442647
_cell_angle_alpha   90.00000000
_cell_angle_beta   90.00000000
_cell_angle_gamma   90.00000000
_symmetry_Int_Tables_number   1
_chemical_formula_structural   Cs3H5Pt
_chemical_formula_sum   'Cs6 H10 Pt2'
_cell_volume   430.10442310
_cell_formula_units_Z   2
loop_
 _symmetry_equiv_pos_site_id
 _symmetry_equiv_pos_as_xyz
  1  'x, y, z'
loop_
 _atom_site_type_symbol
 _atom_site_label
 _atom_site_symmetry_multiplicity
 _atom_site_fract_x
 _atom_site_fract_y
 _atom_site_fract_z
 _atom_site_occupancy
  Cs  Cs0  1  0.50000000  0.50000000  0.00000000  1.0
  Cs  Cs1  1  0.00000000  0.00000000  0.00000000  1.0
  Cs  Cs2  1  0.31666817  0.18333183  0.50000000  1.0
  Cs  Cs3  1  0.81666817  0.31666817  0.50000000  1.0
  Cs  Cs4  1  0.68333183  0.81666817  0.50000000  1.0
  Cs  Cs5  1  0.18333183  0.68333183  0.50000000  1.0
  H  H6  1  0.50000000  0.50000000  0.50000000  1.0
  H  H7  1  0.00000000  0.00000000  0.50000000  1.0
  H  H8  1  0.89859679  0.60140321  0.81459542  1.0
  H  H9  1  0.89859679  0.60140321  0.18540458  1.0
  H  H10  1  0.39859679  0.89859679  0.81459542  1.0
  H  H11  1  0.39859679  0.89859679  0.18540458  1.0
  H  H12  1  0.10140321  0.39859679  0.81459542  1.0
  H  H13  1  0.10140321  0.39859679  0.18540458  1.0
  H  H14  1  0.60140321  0.10140321  0.81459542  1.0
  H  H15  1  0.60140321  0.10140321  0.18540458  1.0
  Pt  Pt16  1  0.50000000  0.00000000  0.00000000  1.0
  Pt  Pt17  1  0.00000000  0.50000000  0.00000000  1.0
