# generated using pymatgen
data_MgH4(ClO)2
_symmetry_space_group_name_H-M   'P 1'
_cell_length_a   5.85994246
_cell_length_b   5.85994246
_cell_length_c   3.72377389
_cell_angle_alpha   79.32316679
_cell_angle_beta   100.67683321
_cell_angle_gamma   87.03729637
_symmetry_Int_Tables_number   1
_chemical_formula_structural   MgH4(ClO)2
_chemical_formula_sum   'Mg1 H4 Cl2 O2'
_cell_volume   122.99051160
_cell_formula_units_Z   1
loop_
 _symmetry_equiv_pos_site_id
 _symmetry_equiv_pos_as_xyz
  1  'x, y, z'
loop_
 _atom_site_type_symbol
 _atom_site_label
 _atom_site_symmetry_multiplicity
 _atom_site_fract_x
 _atom_site_fract_y
 _atom_site_fract_z
 _atom_site_occupancy
  Mg  Mg0  1  0.00000000  0.00000000  0.00000000  1.0
  H  H1  1  0.59967730  -0.21800328  0.85377913  1.0
  H  H2  1  1.21800328  0.40032270  0.85377913  1.0
  H  H3  1  0.78199672  -0.40032270  0.14622087  1.0
  H  H4  1  1.40032270  0.21800328  0.14622087  1.0
  Cl  Cl5  1  0.77402357  -0.77402357  0.38239729  1.0
  Cl  Cl6  1  0.22597643  -0.22597643  0.61760271  1.0
  O  O7  1  0.76008207  -0.23991793  -0.00000000  1.0
  O  O8  1  1.23991793  0.23991793  -0.00000000  1.0
