# generated using pymatgen
data_Na3SO4F
_symmetry_space_group_name_H-M   'P 1'
_cell_length_a   4.95794614
_cell_length_b   4.95794614
_cell_length_c   4.95794614
_cell_angle_alpha   89.99919524
_cell_angle_beta   89.99919524
_cell_angle_gamma   89.99919525
_symmetry_Int_Tables_number   1
_chemical_formula_structural   Na3SO4F
_chemical_formula_sum   'Na3 S1 O4 F1'
_cell_volume   121.87241406
_cell_formula_units_Z   1
loop_
 _symmetry_equiv_pos_site_id
 _symmetry_equiv_pos_as_xyz
  1  'x, y, z'
loop_
 _atom_site_type_symbol
 _atom_site_label
 _atom_site_symmetry_multiplicity
 _atom_site_fract_x
 _atom_site_fract_y
 _atom_site_fract_z
 _atom_site_occupancy
  Na  Na0  1  0.99827707  0.49844575  0.49844575  1.0
  Na  Na1  1  1.49844575  -0.00172293  0.49844575  1.0
  Na  Na2  1  1.49844575  0.49844575  -0.00172293  1.0
  S  S3  1  -0.00154694  -0.00154694  -0.00154694  1.0
  O  O4  1  1.17291583  0.82399112  -0.17600888  1.0
  O  O5  1  0.82399112  1.17291583  -0.17600888  1.0
  O  O6  1  0.82399112  0.82399112  0.17291583  1.0
  O  O7  1  0.17291161  0.17291161  0.17291161  1.0
  F  F8  1  0.49856869  0.49856869  0.49856869  1.0
