# generated using pymatgen
data_KNO2
_symmetry_space_group_name_H-M   'P 1'
_cell_length_a   4.60251056
_cell_length_b   9.60843798
_cell_length_c   7.32341147
_cell_angle_alpha   90.00000000
_cell_angle_beta   110.37117944
_cell_angle_gamma   90.00000000
_symmetry_Int_Tables_number   1
_chemical_formula_structural   KNO2
_chemical_formula_sum   'K4 N4 O8'
_cell_volume   303.60748426
_cell_formula_units_Z   4
loop_
 _symmetry_equiv_pos_site_id
 _symmetry_equiv_pos_as_xyz
  1  'x, y, z'
loop_
 _atom_site_type_symbol
 _atom_site_label
 _atom_site_symmetry_multiplicity
 _atom_site_fract_x
 _atom_site_fract_y
 _atom_site_fract_z
 _atom_site_occupancy
  K  K0  1  0.41791190  0.14096508  0.20955022  1.0
  K  K1  1  0.41791190  0.35903492  0.70955022  1.0
  K  K2  1  0.58208810  0.64096508  0.29044978  1.0
  K  K3  1  0.58208810  0.85903492  0.79044978  1.0
  N  N4  1  0.92979607  0.41317266  0.19502524  1.0
  N  N5  1  0.92979607  0.08682734  0.69502524  1.0
  N  N6  1  0.07020393  0.91317266  0.30497476  1.0
  N  N7  1  0.07020393  0.58682734  0.80497476  1.0
  O  O8  1  0.83364042  0.30501124  0.09304676  1.0
  O  O9  1  0.83364042  0.19498876  0.59304676  1.0
  O  O10  1  0.16635958  0.80501124  0.40695324  1.0
  O  O11  1  0.16635958  0.69498876  0.90695324  1.0
  O  O12  1  0.78968808  0.90963423  0.19233066  1.0
  O  O13  1  0.78968808  0.59036577  0.69233066  1.0
  O  O14  1  0.21031192  0.40963423  0.30766934  1.0
  O  O15  1  0.21031192  0.09036577  0.80766934  1.0
