# generated using pymatgen
data_Y6Mn23
_symmetry_space_group_name_H-M   'P 1'
_cell_length_a   8.58587249
_cell_length_b   8.58587249
_cell_length_c   8.58587249
_cell_angle_alpha   60.00000000
_cell_angle_beta   60.00000000
_cell_angle_gamma   60.00000000
_symmetry_Int_Tables_number   1
_chemical_formula_structural   Y6Mn23
_chemical_formula_sum   'Y6 Mn23'
_cell_volume   447.54664499
_cell_formula_units_Z   1
loop_
 _symmetry_equiv_pos_site_id
 _symmetry_equiv_pos_as_xyz
  1  'x, y, z'
loop_
 _atom_site_type_symbol
 _atom_site_label
 _atom_site_symmetry_multiplicity
 _atom_site_fract_x
 _atom_site_fract_y
 _atom_site_fract_z
 _atom_site_occupancy
  Y  Y0  1  -0.70829828  0.70829828  0.70829828  1.0
  Y  Y1  1  -0.29170172  0.29170172  0.70829828  1.0
  Y  Y2  1  0.70829828  0.70829828  -0.70829828  1.0
  Y  Y3  1  0.29170172  1.29170172  -0.29170172  1.0
  Y  Y4  1  0.29170172  -0.29170172  1.29170172  1.0
  Y  Y5  1  -0.29170172  0.29170172  0.29170172  1.0
  Mn  Mn6  1  0.88149231  0.88149231  -0.11850769  1.0
  Mn  Mn7  1  1.11850769  0.11850769  0.64447694  1.0
  Mn  Mn8  1  1.11850769  0.64447694  0.11850769  1.0
  Mn  Mn9  1  0.35552306  0.88149231  -0.11850769  1.0
  Mn  Mn10  1  1.64447694  0.11850769  0.11850769  1.0
  Mn  Mn11  1  0.88149231  0.35552306  -0.11850769  1.0
  Mn  Mn12  1  0.88149231  0.88149231  -0.64447694  1.0
  Mn  Mn13  1  1.11850769  0.11850769  0.11850769  1.0
  Mn  Mn14  1  1.50000000  0.00000000  -0.00000000  1.0
  Mn  Mn15  1  1.00000000  0.50000000  -0.50000000  1.0
  Mn  Mn16  1  0.00000000  1.50000000  -0.00000000  1.0
  Mn  Mn17  1  0.50000000  1.00000000  -0.50000000  1.0
  Mn  Mn18  1  0.00000000  0.00000000  0.50000000  1.0
  Mn  Mn19  1  0.50000000  -0.50000000  1.00000000  1.0
  Mn  Mn20  1  0.67805874  0.67805874  -0.32194126  1.0
  Mn  Mn21  1  1.32194126  0.32194126  0.03417621  1.0
  Mn  Mn22  1  1.32194126  0.03417621  0.32194126  1.0
  Mn  Mn23  1  0.96582379  0.67805874  -0.32194126  1.0
  Mn  Mn24  1  1.03417621  0.32194126  0.32194126  1.0
  Mn  Mn25  1  0.67805874  0.96582379  -0.32194126  1.0
  Mn  Mn26  1  0.67805874  0.67805874  -0.03417621  1.0
  Mn  Mn27  1  1.32194126  0.32194126  0.32194126  1.0
  Mn  Mn28  1  -0.00000000  -0.00000000  0.00000000  1.0
