# generated using pymatgen
data_Zr3Ge
_symmetry_space_group_name_H-M   'P 1'
_cell_length_a   11.11484941
_cell_length_b   11.11484941
_cell_length_c   5.47158963
_cell_angle_alpha   90.00000000
_cell_angle_beta   90.00000000
_cell_angle_gamma   90.00000000
_symmetry_Int_Tables_number   1
_chemical_formula_structural   Zr3Ge
_chemical_formula_sum   'Zr24 Ge8'
_cell_volume   675.95951189
_cell_formula_units_Z   8
loop_
 _symmetry_equiv_pos_site_id
 _symmetry_equiv_pos_as_xyz
  1  'x, y, z'
loop_
 _atom_site_type_symbol
 _atom_site_label
 _atom_site_symmetry_multiplicity
 _atom_site_fract_x
 _atom_site_fract_y
 _atom_site_fract_z
 _atom_site_occupancy
  Zr  Zr0  1  0.47378289  0.36029166  1.22142870  1.0
  Zr  Zr1  1  0.97378289  0.86029166  0.27857130  1.0
  Zr  Zr2  1  0.36029166  0.52621711  -0.22142870  1.0
  Zr  Zr3  1  0.86029166  0.02621711  0.72142870  1.0
  Zr  Zr4  1  0.52621711  0.63970834  1.22142870  1.0
  Zr  Zr5  1  0.02621711  0.13970834  0.27857130  1.0
  Zr  Zr6  1  0.63970834  0.47378289  -0.22142870  1.0
  Zr  Zr7  1  0.13970834  0.97378289  0.72142870  1.0
  Zr  Zr8  1  0.31979247  0.78413247  0.49339393  1.0
  Zr  Zr9  1  0.81979247  0.28413247  0.00660607  1.0
  Zr  Zr10  1  0.78413247  0.68020753  0.50660607  1.0
  Zr  Zr11  1  0.28413247  0.18020753  0.99339393  1.0
  Zr  Zr12  1  0.68020753  0.21586753  0.49339393  1.0
  Zr  Zr13  1  0.18020753  0.71586753  0.00660607  1.0
  Zr  Zr14  1  0.21586753  0.31979247  0.50660607  1.0
  Zr  Zr15  1  0.71586753  0.81979247  0.99339393  1.0
  Zr  Zr16  1  1.10601006  0.41812399  0.03236731  1.0
  Zr  Zr17  1  0.60601006  0.91812399  0.46763269  1.0
  Zr  Zr18  1  0.41812399  -0.10601006  0.96763269  1.0
  Zr  Zr19  1  0.91812399  0.39398994  0.53236731  1.0
  Zr  Zr20  1  -0.10601006  0.58187601  0.03236731  1.0
  Zr  Zr21  1  0.39398994  0.08187601  0.46763269  1.0
  Zr  Zr22  1  0.58187601  1.10601006  0.96763269  1.0
  Zr  Zr23  1  0.08187601  0.60601006  0.53236731  1.0
  Ge  Ge24  1  0.45884856  0.29520942  0.71361330  1.0
  Ge  Ge25  1  0.95884856  0.79520942  -0.21361330  1.0
  Ge  Ge26  1  0.29520942  0.54115144  0.28638670  1.0
  Ge  Ge27  1  0.79520942  0.04115144  1.21361330  1.0
  Ge  Ge28  1  0.54115144  0.70479058  0.71361330  1.0
  Ge  Ge29  1  0.04115144  0.20479058  -0.21361330  1.0
  Ge  Ge30  1  0.70479058  0.45884856  0.28638670  1.0
  Ge  Ge31  1  0.20479058  0.95884856  1.21361330  1.0
