# generated using pymatgen
data_Mg(BC)2
_symmetry_space_group_name_H-M   'P 1'
_cell_length_a   4.63751081
_cell_length_b   7.25752703
_cell_length_c   2.77291805
_cell_angle_alpha   90.00000000
_cell_angle_beta   90.00000000
_cell_angle_gamma   90.00000000
_symmetry_Int_Tables_number   1
_chemical_formula_structural   Mg(BC)2
_chemical_formula_sum   'Mg2 B4 C4'
_cell_volume   93.32771467
_cell_formula_units_Z   2
loop_
 _symmetry_equiv_pos_site_id
 _symmetry_equiv_pos_as_xyz
  1  'x, y, z'
loop_
 _atom_site_type_symbol
 _atom_site_label
 _atom_site_symmetry_multiplicity
 _atom_site_fract_x
 _atom_site_fract_y
 _atom_site_fract_z
 _atom_site_occupancy
  Mg  Mg0  1  0.50000000  0.50000000  0.50000000  1.0
  Mg  Mg1  1  0.00000000  0.00000000  0.00000000  1.0
  B  B2  1  0.87798923  0.73107328  0.50000000  1.0
  B  B3  1  0.37798923  0.76892672  0.00000000  1.0
  B  B4  1  0.12201077  0.26892672  0.50000000  1.0
  B  B5  1  0.62201077  0.23107328  0.00000000  1.0
  C  C6  1  0.20971015  0.77782531  0.50000000  1.0
  C  C7  1  0.70971015  0.72217469  0.00000000  1.0
  C  C8  1  0.79028985  0.22217469  0.50000000  1.0
  C  C9  1  0.29028985  0.27782531  0.00000000  1.0
