# generated using pymatgen
data_Li14P2(N2O)3
_symmetry_space_group_name_H-M   'P 1'
_cell_length_a   5.67911817
_cell_length_b   5.67911817
_cell_length_c   8.02753719
_cell_angle_alpha   90.00000000
_cell_angle_beta   90.00000000
_cell_angle_gamma   120.00000000
_symmetry_Int_Tables_number   1
_chemical_formula_structural   Li14P2(N2O)3
_chemical_formula_sum   'Li14 P2 N6 O3'
_cell_volume   224.22021718
_cell_formula_units_Z   1
loop_
 _symmetry_equiv_pos_site_id
 _symmetry_equiv_pos_as_xyz
  1  'x, y, z'
loop_
 _atom_site_type_symbol
 _atom_site_label
 _atom_site_symmetry_multiplicity
 _atom_site_fract_x
 _atom_site_fract_y
 _atom_site_fract_z
 _atom_site_occupancy
  Li  Li0  1  0.69232813  0.64752012  0.08974067  1.0
  Li  Li1  1  0.64752012  0.95519199  0.91025933  1.0
  Li  Li2  1  0.95519199  0.30767187  0.08974067  1.0
  Li  Li3  1  0.35247988  0.04480801  0.08974067  1.0
  Li  Li4  1  0.30767187  0.35247988  0.91025933  1.0
  Li  Li5  1  0.04480801  0.69232813  0.91025933  1.0
  Li  Li6  1  0.91837060  0.62189442  0.40872770  1.0
  Li  Li7  1  0.62189442  0.70352383  0.59127230  1.0
  Li  Li8  1  0.70352383  0.08162940  0.40872770  1.0
  Li  Li9  1  0.37810558  0.29647617  0.40872770  1.0
  Li  Li10  1  0.08162940  0.37810558  0.59127230  1.0
  Li  Li11  1  0.29647617  0.91837060  0.59127230  1.0
  Li  Li12  1  0.00000000  0.00000000  0.25086590  1.0
  Li  Li13  1  0.00000000  0.00000000  0.74913410  1.0
  P  P14  1  0.33333333  0.66666667  0.27307380  1.0
  P  P15  1  0.66666667  0.33333333  0.72692620  1.0
  N  N16  1  0.30556416  0.93029162  0.32565271  1.0
  N  N17  1  0.93029162  0.62472745  0.67434729  1.0
  N  N18  1  0.62472745  0.69443584  0.32565271  1.0
  N  N19  1  0.06970838  0.37527255  0.32565271  1.0
  N  N20  1  0.69443584  0.06970838  0.67434729  1.0
  N  N21  1  0.37527255  0.30556416  0.67434729  1.0
  O  O22  1  0.33333333  0.66666667  0.05199932  1.0
  O  O23  1  0.66666667  0.33333333  0.94800068  1.0
  O  O24  1  0.00000000  0.00000000  0.00000000  1.0
