# generated using pymatgen
data_Sb(Br3N)2
_symmetry_space_group_name_H-M   'P 1'
_cell_length_a   13.21033250
_cell_length_b   13.21033250
_cell_length_c   13.21033250
_cell_angle_alpha   131.90257020
_cell_angle_beta   131.90257020
_cell_angle_gamma   70.38295025
_symmetry_Int_Tables_number   1
_chemical_formula_structural   Sb(Br3N)2
_chemical_formula_sum   'Sb4 Br24 N8'
_cell_volume   1251.49552599
_cell_formula_units_Z   4
loop_
 _symmetry_equiv_pos_site_id
 _symmetry_equiv_pos_as_xyz
  1  'x, y, z'
loop_
 _atom_site_type_symbol
 _atom_site_label
 _atom_site_symmetry_multiplicity
 _atom_site_fract_x
 _atom_site_fract_y
 _atom_site_fract_z
 _atom_site_occupancy
  Sb  Sb0  1  0.75000000  0.25000000  0.50000000  1.0
  Sb  Sb1  1  0.00000000  0.00000000  0.00000000  1.0
  Sb  Sb2  1  0.25000000  0.75000000  0.50000000  1.0
  Sb  Sb3  1  0.50000000  0.50000000  1.00000000  1.0
  Br  Br4  1  0.24991640  0.99093310  0.74101670  1.0
  Br  Br5  1  0.24991640  0.50889970  0.25898330  1.0
  Br  Br6  1  0.50008360  0.74110030  0.24101670  1.0
  Br  Br7  1  0.50008360  1.25906690  0.75898330  1.0
  Br  Br8  1  1.00906690  0.75008360  1.25898330  1.0
  Br  Br9  1  0.49110030  0.75008360  0.74101670  1.0
  Br  Br10  1  0.25889970  0.49991640  0.75898330  1.0
  Br  Br11  1  0.74093310  0.49991640  1.24101670  1.0
  Br  Br12  1  0.75003421  0.49106087  0.74102666  1.0
  Br  Br13  1  0.75003421  1.00900755  1.25897334  1.0
  Br  Br14  1  -0.00003421  0.24099245  0.24102666  1.0
  Br  Br15  1  -0.00003421  0.75893913  0.75897334  1.0
  Br  Br16  1  0.50893913  0.24996579  0.25897334  1.0
  Br  Br17  1  0.99099245  0.24996579  0.74102666  1.0
  Br  Br18  1  0.75900755  1.00003421  0.75897334  1.0
  Br  Br19  1  1.24106087  1.00003421  1.24102666  1.0
  Br  Br20  1  0.12985756  0.62985756  0.50000000  1.0
  Br  Br21  1  0.62014244  0.62014244  1.00000000  1.0
  Br  Br22  1  0.37014244  0.87014244  0.50000000  1.0
  Br  Br23  1  0.37985756  0.37985756  0.00000000  1.0
  Br  Br24  1  0.87016282  0.37016282  0.50000000  1.0
  Br  Br25  1  0.87983718  0.87983718  1.00000000  1.0
  Br  Br26  1  0.62983718  0.12983718  0.50000000  1.0
  Br  Br27  1  0.12016282  0.12016282  0.00000000  1.0
  N  N28  1  0.62555683  0.62500000  0.50055683  1.0
  N  N29  1  1.12444317  1.12500000  1.49944317  1.0
  N  N30  1  0.62555683  1.12500000  1.00055683  1.0
  N  N31  1  1.12444317  0.62500000  0.99944317  1.0
  N  N32  1  0.37500000  0.37444317  0.49944317  1.0
  N  N33  1  0.87500000  0.87555683  1.50055683  1.0
  N  N34  1  0.87500000  0.37444317  0.99944317  1.0
  N  N35  1  0.37500000  0.87555683  1.00055683  1.0
