# generated using pymatgen
data_VP2(HO)6
_symmetry_space_group_name_H-M   'P 1'
_cell_length_a   7.57931383
_cell_length_b   7.57931383
_cell_length_c   7.74976227
_cell_angle_alpha   61.47692567
_cell_angle_beta   118.52307433
_cell_angle_gamma   112.91378524
_symmetry_Int_Tables_number   1
_chemical_formula_structural   VP2(HO)6
_chemical_formula_sum   'V2 P4 H12 O12'
_cell_volume   336.09234786
_cell_formula_units_Z   2
loop_
 _symmetry_equiv_pos_site_id
 _symmetry_equiv_pos_as_xyz
  1  'x, y, z'
loop_
 _atom_site_type_symbol
 _atom_site_label
 _atom_site_symmetry_multiplicity
 _atom_site_fract_x
 _atom_site_fract_y
 _atom_site_fract_z
 _atom_site_occupancy
  O  O0  1  1.58693005  -0.18377453  0.35487482  1.0
  O  O1  1  1.18377453  -0.58693005  0.85487482  1.0
  O  O2  1  0.81622547  0.58693005  0.14512518  1.0
  O  O3  1  0.41306995  0.18377453  0.64512518  1.0
  O  O4  1  0.45222785  0.14247432  0.05030367  1.0
  O  O5  1  0.85752568  0.54777215  0.55030367  1.0
  O  O6  1  1.14247432  -0.54777215  0.44969633  1.0
  O  O7  1  1.54777215  -0.14247432  0.94969633  1.0
  O  O8  1  0.46384135  0.46384135  0.25000000  1.0
  O  O9  1  0.53615865  0.53615865  0.75000000  1.0
  O  O10  1  0.92896895  0.92896895  0.25000000  1.0
  O  O11  1  0.07103105  0.07103105  0.75000000  1.0
  P  P12  1  1.40445070  -0.07406146  0.20937745  1.0
  P  P13  1  1.07406146  -0.40445070  0.70937745  1.0
  P  P14  1  0.92593854  0.40445070  0.29062255  1.0
  P  P15  1  0.59554930  0.07406146  0.79062255  1.0
  H  H16  1  1.33797064  -0.06054072  0.34429407  1.0
  H  H17  1  1.06054072  -0.33797064  0.84429407  1.0
  H  H18  1  0.93945928  0.33797064  0.15570593  1.0
  H  H19  1  0.66202936  0.06054072  0.65570593  1.0
  H  H20  1  0.76393720  0.19625837  0.89921836  1.0
  H  H21  1  0.80374163  0.23606280  0.39921836  1.0
  H  H22  1  1.19625837  -0.23606280  0.60078164  1.0
  H  H23  1  1.23606280  -0.19625837  0.10078164  1.0
  H  H24  1  0.42429642  0.36811037  0.37278161  1.0
  H  H25  1  0.63188963  0.57570358  0.87278161  1.0
  H  H26  1  1.36811037  -0.57570358  0.12721839  1.0
  H  H27  1  1.57570358  -0.36811037  0.62721839  1.0
  V  V28  1  0.73810804  0.73810804  0.25000000  1.0
  V  V29  1  0.26189196  0.26189196  0.75000000  1.0
