# generated using pymatgen
data_SrV3O7
_symmetry_space_group_name_H-M   'P 1'
_cell_length_a   11.54626488
_cell_length_b   10.40679474
_cell_length_c   5.34108985
_cell_angle_alpha   90.00000000
_cell_angle_beta   90.00000000
_cell_angle_gamma   90.00000000
_symmetry_Int_Tables_number   1
_chemical_formula_structural   SrV3O7
_chemical_formula_sum   'Sr4 V12 O28'
_cell_volume   641.78326501
_cell_formula_units_Z   4
loop_
 _symmetry_equiv_pos_site_id
 _symmetry_equiv_pos_as_xyz
  1  'x, y, z'
loop_
 _atom_site_type_symbol
 _atom_site_label
 _atom_site_symmetry_multiplicity
 _atom_site_fract_x
 _atom_site_fract_y
 _atom_site_fract_z
 _atom_site_occupancy
  Sr  Sr0  1  0.57066242  0.25000000  0.31200531  1.0
  Sr  Sr1  1  0.07066242  0.25000000  0.18799469  1.0
  Sr  Sr2  1  0.42933758  0.75000000  0.68799469  1.0
  Sr  Sr3  1  0.92933758  0.75000000  0.81200531  1.0
  V  V4  1  0.80642721  0.47633309  0.29751278  1.0
  V  V5  1  0.80642721  0.02366691  0.29751278  1.0
  V  V6  1  0.30642721  0.47633309  0.20248722  1.0
  V  V7  1  0.30642721  0.02366691  0.20248722  1.0
  V  V8  1  0.19357279  0.97633309  0.70248722  1.0
  V  V9  1  0.19357279  0.52366691  0.70248722  1.0
  V  V10  1  0.69357279  0.97633309  0.79751278  1.0
  V  V11  1  0.69357279  0.52366691  0.79751278  1.0
  V  V12  1  0.78238228  0.25000000  0.80453176  1.0
  V  V13  1  0.28238228  0.25000000  0.69546824  1.0
  V  V14  1  0.21761772  0.75000000  0.19546824  1.0
  V  V15  1  0.71761772  0.75000000  0.30453176  1.0
  O  O16  1  0.94158224  0.43271805  0.28267357  1.0
  O  O17  1  0.94158224  0.06728195  0.28267357  1.0
  O  O18  1  0.44158224  0.43271805  0.21732643  1.0
  O  O19  1  0.44158224  0.06728195  0.21732643  1.0
  O  O20  1  0.05841776  0.93271805  0.71732643  1.0
  O  O21  1  0.05841776  0.56728195  0.71732643  1.0
  O  O22  1  0.55841776  0.93271805  0.78267357  1.0
  O  O23  1  0.55841776  0.56728195  0.78267357  1.0
  O  O24  1  0.72456109  0.38152781  0.56588386  1.0
  O  O25  1  0.72456109  0.11847219  0.56588386  1.0
  O  O26  1  0.22456109  0.38152781  0.93411614  1.0
  O  O27  1  0.22456109  0.11847219  0.93411614  1.0
  O  O28  1  0.27543891  0.88152781  0.43411614  1.0
  O  O29  1  0.27543891  0.61847219  0.43411614  1.0
  O  O30  1  0.77543891  0.88152781  0.06588386  1.0
  O  O31  1  0.77543891  0.61847219  0.06588386  1.0
  O  O32  1  0.71966488  0.38207437  1.03579057  1.0
  O  O33  1  0.71966488  0.11792563  1.03579057  1.0
  O  O34  1  0.21966488  0.38207437  0.46420943  1.0
  O  O35  1  0.21966488  0.11792563  0.46420943  1.0
  O  O36  1  0.28033512  0.88207437  -0.03579057  1.0
  O  O37  1  0.28033512  0.61792563  -0.03579057  1.0
  O  O38  1  0.78033512  0.88207437  0.53579057  1.0
  O  O39  1  0.78033512  0.61792563  0.53579057  1.0
  O  O40  1  0.92333730  0.25000000  0.81381266  1.0
  O  O41  1  0.42333730  0.25000000  0.68618734  1.0
  O  O42  1  0.07666270  0.75000000  0.18618734  1.0
  O  O43  1  0.57666270  0.75000000  0.31381266  1.0
