# generated using pymatgen
data_Lu3Ru
_symmetry_space_group_name_H-M   'P 1'
_cell_length_a   7.22050331
_cell_length_b   8.87272953
_cell_length_c   6.14758598
_cell_angle_alpha   90.00000000
_cell_angle_beta   90.00000000
_cell_angle_gamma   90.00000000
_symmetry_Int_Tables_number   1
_chemical_formula_structural   Lu3Ru
_chemical_formula_sum   'Lu12 Ru4'
_cell_volume   393.84861843
_cell_formula_units_Z   4
loop_
 _symmetry_equiv_pos_site_id
 _symmetry_equiv_pos_as_xyz
  1  'x, y, z'
loop_
 _atom_site_type_symbol
 _atom_site_label
 _atom_site_symmetry_multiplicity
 _atom_site_fract_x
 _atom_site_fract_y
 _atom_site_fract_z
 _atom_site_occupancy
  Lu  Lu0  1  0.32312452  0.93816273  0.66639835  1.0
  Lu  Lu1  1  0.32312452  0.56183727  0.66639835  1.0
  Lu  Lu2  1  0.82312452  0.93816273  0.83360165  1.0
  Lu  Lu3  1  0.82312452  0.56183727  0.83360165  1.0
  Lu  Lu4  1  0.67687548  0.43816273  0.33360165  1.0
  Lu  Lu5  1  0.67687548  0.06183727  0.33360165  1.0
  Lu  Lu6  1  0.17687548  0.43816273  0.16639835  1.0
  Lu  Lu7  1  0.17687548  0.06183727  0.16639835  1.0
  Lu  Lu8  1  0.46178072  0.75000000  0.12705369  1.0
  Lu  Lu9  1  0.96178072  0.75000000  0.37294631  1.0
  Lu  Lu10  1  0.53821928  0.25000000  0.87294631  1.0
  Lu  Lu11  1  0.03821928  0.25000000  0.62705369  1.0
  Ru  Ru12  1  0.11642919  0.75000000  0.96317209  1.0
  Ru  Ru13  1  0.61642919  0.75000000  0.53682791  1.0
  Ru  Ru14  1  0.88357081  0.25000000  0.03682791  1.0
  Ru  Ru15  1  0.38357081  0.25000000  0.46317209  1.0
