# generated using pymatgen
data_Ge2W
_symmetry_space_group_name_H-M   'P 1'
_cell_length_a   6.41955980
_cell_length_b   3.47762634
_cell_length_c   8.58904548
_cell_angle_alpha   90.00000000
_cell_angle_beta   90.00000000
_cell_angle_gamma   90.00000000
_symmetry_Int_Tables_number   1
_chemical_formula_structural   Ge2W
_chemical_formula_sum   'Ge8 W4'
_cell_volume   191.74898234
_cell_formula_units_Z   4
loop_
 _symmetry_equiv_pos_site_id
 _symmetry_equiv_pos_as_xyz
  1  'x, y, z'
loop_
 _atom_site_type_symbol
 _atom_site_label
 _atom_site_symmetry_multiplicity
 _atom_site_fract_x
 _atom_site_fract_y
 _atom_site_fract_z
 _atom_site_occupancy
  Ge  Ge0  1  0.93718467  0.75000000  0.63230529  1.0
  Ge  Ge1  1  0.43718467  0.75000000  0.86769471  1.0
  Ge  Ge2  1  0.06281533  0.25000000  0.36769471  1.0
  Ge  Ge3  1  0.56281533  0.25000000  0.13230529  1.0
  Ge  Ge4  1  0.86569521  0.75000000  0.04077317  1.0
  Ge  Ge5  1  0.36569521  0.75000000  0.45922683  1.0
  Ge  Ge6  1  0.13430479  0.25000000  0.95922683  1.0
  Ge  Ge7  1  0.63430479  0.25000000  0.54077317  1.0
  W  W8  1  0.75083381  0.75000000  0.32938087  1.0
  W  W9  1  0.25083381  0.75000000  0.17061913  1.0
  W  W10  1  0.24916619  0.25000000  0.67061913  1.0
  W  W11  1  0.74916619  0.25000000  0.82938087  1.0
