# generated using pymatgen
data_CsBrO4
_symmetry_space_group_name_H-M   'P 1'
_cell_length_a   8.69959642
_cell_length_b   8.69959642
_cell_length_c   8.69959642
_cell_angle_alpha   140.48271251
_cell_angle_beta   140.48271251
_cell_angle_gamma   57.12109687
_symmetry_Int_Tables_number   1
_chemical_formula_structural   CsBrO4
_chemical_formula_sum   'Cs2 Br2 O8'
_cell_volume   264.35683828
_cell_formula_units_Z   2
loop_
 _symmetry_equiv_pos_site_id
 _symmetry_equiv_pos_as_xyz
  1  'x, y, z'
loop_
 _atom_site_type_symbol
 _atom_site_label
 _atom_site_symmetry_multiplicity
 _atom_site_fract_x
 _atom_site_fract_y
 _atom_site_fract_z
 _atom_site_occupancy
  Cs  Cs0  1  0.75000000  0.25000000  0.50000000  1.0
  Cs  Cs1  1  -0.00000000  -0.00000000  -0.00000000  1.0
  Br  Br2  1  0.25000000  0.75000000  0.50000000  1.0
  Br  Br3  1  0.50000000  0.50000000  1.00000000  1.0
  O  O4  1  0.18859669  0.92132868  0.73273199  1.0
  O  O5  1  0.18859669  0.45586470  0.26726801  1.0
  O  O6  1  0.56140331  0.79413530  1.23273199  1.0
  O  O7  1  0.56140331  0.32867132  0.76726801  1.0
  O  O8  1  1.07867132  0.81140331  1.26726801  1.0
  O  O9  1  0.54413530  0.81140331  0.73273199  1.0
  O  O10  1  1.20586470  0.43859669  0.76726801  1.0
  O  O11  1  0.67132868  0.43859669  0.23273199  1.0
