# generated using pymatgen
data_K3Gd(PO4)2
_symmetry_space_group_name_H-M   'P 1'
_cell_length_a   7.53580963
_cell_length_b   5.72773351
_cell_length_c   9.54514945
_cell_angle_alpha   90.00000000
_cell_angle_beta   91.15608265
_cell_angle_gamma   90.00000000
_symmetry_Int_Tables_number   1
_chemical_formula_structural   K3Gd(PO4)2
_chemical_formula_sum   'K6 Gd2 P4 O16'
_cell_volume   411.91446343
_cell_formula_units_Z   2
loop_
 _symmetry_equiv_pos_site_id
 _symmetry_equiv_pos_as_xyz
  1  'x, y, z'
loop_
 _atom_site_type_symbol
 _atom_site_label
 _atom_site_symmetry_multiplicity
 _atom_site_fract_x
 _atom_site_fract_y
 _atom_site_fract_z
 _atom_site_occupancy
  K  K0  1  0.85914410  0.25000000  0.58881260  1.0
  K  K1  1  0.14085590  0.75000000  0.41118740  1.0
  K  K2  1  0.29663736  0.25000000  0.91652877  1.0
  K  K3  1  0.70336264  0.75000000  0.08347123  1.0
  K  K4  1  0.00424942  0.25000000  0.19107708  1.0
  K  K5  1  0.99575058  0.75000000  0.80892292  1.0
  Gd  Gd6  1  0.50585330  0.25000000  0.28848263  1.0
  Gd  Gd7  1  0.49414670  0.75000000  0.71151737  1.0
  P  P8  1  0.73048274  0.25000000  0.91133190  1.0
  P  P9  1  0.26951726  0.75000000  0.08866810  1.0
  P  P10  1  0.31267821  0.25000000  0.57173428  1.0
  P  P11  1  0.68732179  0.75000000  0.42826572  1.0
  O  O12  1  0.65102551  0.47289080  0.83748260  1.0
  O  O13  1  0.65102551  0.02710920  0.83748260  1.0
  O  O14  1  0.34897449  0.97289080  0.16251740  1.0
  O  O15  1  0.34897449  0.52710920  0.16251740  1.0
  O  O16  1  0.26198602  0.47240949  0.65768541  1.0
  O  O17  1  0.26198602  0.02759051  0.65768541  1.0
  O  O18  1  0.73801398  0.97240949  0.34231459  1.0
  O  O19  1  0.73801398  0.52759051  0.34231459  1.0
  O  O20  1  0.93419562  0.25000000  0.89716709  1.0
  O  O21  1  0.06580438  0.75000000  0.10283291  1.0
  O  O22  1  0.67588210  0.25000000  0.06869589  1.0
  O  O23  1  0.32411790  0.75000000  0.93130411  1.0
  O  O24  1  0.51443636  0.25000000  0.54037107  1.0
  O  O25  1  0.48556364  0.75000000  0.45962893  1.0
  O  O26  1  0.21431092  0.25000000  0.42547287  1.0
  O  O27  1  0.78568908  0.75000000  0.57452713  1.0
