# generated using pymatgen
data_CuH10C4(SN2)4
_symmetry_space_group_name_H-M   'P 1'
_cell_length_a   8.35242698
_cell_length_b   7.41558617
_cell_length_c   6.23715802
_cell_angle_alpha   69.41711698
_cell_angle_beta   76.02869113
_cell_angle_gamma   78.04041490
_symmetry_Int_Tables_number   1
_chemical_formula_structural   CuH10C4(SN2)4
_chemical_formula_sum   'Cu1 H10 C4 S4 N8'
_cell_volume   347.76125692
_cell_formula_units_Z   1
loop_
 _symmetry_equiv_pos_site_id
 _symmetry_equiv_pos_as_xyz
  1  'x, y, z'
loop_
 _atom_site_type_symbol
 _atom_site_label
 _atom_site_symmetry_multiplicity
 _atom_site_fract_x
 _atom_site_fract_y
 _atom_site_fract_z
 _atom_site_occupancy
  C  C0  1  -0.80155400  0.30050406  0.55063038  1.0
  C  C1  1  -0.19844600  0.69949594  -0.55063038  1.0
  C  C2  1  -0.77855959  0.78733469  0.02571797  1.0
  C  C3  1  -0.22144041  0.21266531  -0.02571797  1.0
  S  S4  1  -0.29673639  0.61114837  0.31997235  1.0
  S  S5  1  -0.70326361  0.38885163  -0.31997235  1.0
  S  S6  1  -0.58690542  0.80559476  -0.15397771  1.0
  S  S7  1  -0.41309458  0.19440524  0.15397771  1.0
  Cu  Cu8  1  -0.50000000  0.00000000  0.00000000  1.0
  N  N9  1  -0.87519774  0.23097561  0.46454480  1.0
  N  N10  1  -0.12480226  0.76902439  -0.46454480  1.0
  N  N11  1  -0.89259887  0.70833482  -0.01671050  1.0
  N  N12  1  -0.10740113  0.29166518  0.01671050  1.0
  N  N13  1  -0.81788265  0.85405113  -0.79169116  1.0
  N  N14  1  -0.18211735  0.14594887  0.79169116  1.0
  N  N15  1  -0.69692736  0.92813611  -0.73563294  1.0
  N  N16  1  -0.30307264  0.07186389  0.73563294  1.0
  H  H17  1  -1.00473660  0.68557794  0.09225158  1.0
  H  H18  1  0.00473660  0.31442206  -0.09225158  1.0
  H  H19  1  -0.24275540  0.95510726  -0.32385786  1.0
  H  H20  1  -0.75724460  0.04489274  0.32385786  1.0
  H  H21  1  -0.86033793  0.64615012  -0.14594818  1.0
  H  H22  1  -0.13966207  0.35384988  0.14594818  1.0
  H  H23  1  -0.64627635  0.82268518  -0.60103187  1.0
  H  H24  1  -0.35372365  0.17731482  0.60103187  1.0
  H  H25  1  -0.92712709  0.82731557  -0.66870693  1.0
  H  H26  1  -0.07287291  0.17268443  0.66870693  1.0
