# generated using pymatgen
data_AgClO3
_symmetry_space_group_name_H-M   'P 1'
_cell_length_a   6.80714141
_cell_length_b   6.80714141
_cell_length_c   6.80714141
_cell_angle_alpha   90.00000000
_cell_angle_beta   90.00000000
_cell_angle_gamma   90.00000000
_symmetry_Int_Tables_number   1
_chemical_formula_structural   AgClO3
_chemical_formula_sum   'Ag4 Cl4 O12'
_cell_volume   315.42369714
_cell_formula_units_Z   4
loop_
 _symmetry_equiv_pos_site_id
 _symmetry_equiv_pos_as_xyz
  1  'x, y, z'
loop_
 _atom_site_type_symbol
 _atom_site_label
 _atom_site_symmetry_multiplicity
 _atom_site_fract_x
 _atom_site_fract_y
 _atom_site_fract_z
 _atom_site_occupancy
  Ag  Ag0  1  0.42871934  0.92871934  0.57128066  1.0
  Ag  Ag1  1  0.92871934  0.57128066  0.42871934  1.0
  Ag  Ag2  1  0.57128066  0.42871934  0.92871934  1.0
  Ag  Ag3  1  0.07128066  0.07128066  0.07128066  1.0
  Cl  Cl4  1  0.08121227  0.58121227  0.91878773  1.0
  Cl  Cl5  1  0.58121227  0.91878773  0.08121227  1.0
  Cl  Cl6  1  0.91878773  0.08121227  0.58121227  1.0
  Cl  Cl7  1  0.41878773  0.41878773  0.41878773  1.0
  O  O8  1  0.49571259  0.80456485  0.90885553  1.0
  O  O9  1  0.99571259  0.69543515  0.09114447  1.0
  O  O10  1  0.30456485  0.59114447  0.50428741  1.0
  O  O11  1  0.80456485  0.90885553  0.49571259  1.0
  O  O12  1  0.09114447  0.99571259  0.69543515  1.0
  O  O13  1  0.59114447  0.50428741  0.30456485  1.0
  O  O14  1  0.50428741  0.30456485  0.59114447  1.0
  O  O15  1  0.00428741  0.19543515  0.40885553  1.0
  O  O16  1  0.69543515  0.09114447  0.99571259  1.0
  O  O17  1  0.19543515  0.40885553  0.00428741  1.0
  O  O18  1  0.90885553  0.49571259  0.80456485  1.0
  O  O19  1  0.40885553  0.00428741  0.19543515  1.0
