# generated using pymatgen
data_FeSe2NO8
_symmetry_space_group_name_H-M   'P 1'
_cell_length_a   5.41622745
_cell_length_b   5.41622745
_cell_length_c   8.80537115
_cell_angle_alpha   90.00000000
_cell_angle_beta   90.00000000
_cell_angle_gamma   120.00000000
_symmetry_Int_Tables_number   1
_chemical_formula_structural   FeSe2NO8
_chemical_formula_sum   'Fe1 Se2 N1 O8'
_cell_volume   223.70314277
_cell_formula_units_Z   1
loop_
 _symmetry_equiv_pos_site_id
 _symmetry_equiv_pos_as_xyz
  1  'x, y, z'
loop_
 _atom_site_type_symbol
 _atom_site_label
 _atom_site_symmetry_multiplicity
 _atom_site_fract_x
 _atom_site_fract_y
 _atom_site_fract_z
 _atom_site_occupancy
  Fe  Fe0  1  0.00000000  0.00000000  0.00000000  1.0
  O  O1  1  0.16355781  0.83636306  0.13656308  1.0
  O  O2  1  0.83636306  0.16355781  0.86343692  1.0
  O  O3  1  0.67280524  0.83644219  0.13656308  1.0
  O  O4  1  0.16363694  0.32719476  0.13656308  1.0
  O  O5  1  0.83644219  0.67280524  0.86343692  1.0
  O  O6  1  0.32719476  0.16363694  0.86343692  1.0
  O  O7  1  0.33333333  0.66666667  0.38282830  1.0
  O  O8  1  0.66666667  0.33333333  0.61717170  1.0
  Se  Se9  1  0.33333333  0.66666667  0.19805026  1.0
  Se  Se10  1  0.66666667  0.33333333  0.80194974  1.0
  N  N11  1  0.00000000  0.00000000  0.50000000  1.0
