# generated using pymatgen
data_Ba6SmIn(BO3)6
_symmetry_space_group_name_H-M   'P 1'
_cell_length_a   8.18165118
_cell_length_b   8.18165118
_cell_length_c   8.18165118
_cell_angle_alpha   105.71884540
_cell_angle_beta   105.71884540
_cell_angle_gamma   105.71884540
_symmetry_Int_Tables_number   1
_chemical_formula_structural   Ba6SmIn(BO3)6
_chemical_formula_sum   'Ba6 Sm1 In1 B6 O18'
_cell_volume   471.14159953
_cell_formula_units_Z   1
loop_
 _symmetry_equiv_pos_site_id
 _symmetry_equiv_pos_as_xyz
  1  'x, y, z'
loop_
 _atom_site_type_symbol
 _atom_site_label
 _atom_site_symmetry_multiplicity
 _atom_site_fract_x
 _atom_site_fract_y
 _atom_site_fract_z
 _atom_site_occupancy
  Ba  Ba0  1  0.76765263  0.66430358  0.15444530  1.0
  Ba  Ba1  1  1.33569642  -0.15444530  0.23234737  1.0
  Ba  Ba2  1  0.84555470  0.23234737  0.33569642  1.0
  Ba  Ba3  1  1.23234737  0.33569642  -0.15444530  1.0
  Ba  Ba4  1  0.66430358  1.15444530  -0.23234737  1.0
  Ba  Ba5  1  1.15444530  0.76765263  -0.33569642  1.0
  Sm  Sm6  1  0.50000000  0.50000000  0.50000000  1.0
  In  In7  1  0.00000000  0.00000000  0.00000000  1.0
  B  B8  1  1.55040949  0.79588753  -0.12228890  1.0
  B  B9  1  1.20411247  0.12228890  -0.55040949  1.0
  B  B10  1  1.12228890  -0.55040949  0.20411247  1.0
  B  B11  1  0.44959051  0.20411247  0.12228890  1.0
  B  B12  1  0.79588753  0.87771110  0.55040949  1.0
  B  B13  1  0.87771110  1.55040949  -0.20411247  1.0
  O  O14  1  0.72132216  0.92853041  0.00090736  1.0
  O  O15  1  1.07146959  -0.00090736  -0.72132216  1.0
  O  O16  1  0.99909264  -0.72132216  0.07146959  1.0
  O  O17  1  0.27867784  0.07146959  -0.00090736  1.0
  O  O18  1  0.92853041  1.00090736  -0.27867784  1.0
  O  O19  1  1.00090736  0.72132216  -0.07146959  1.0
  O  O20  1  1.49505995  0.77275761  -0.30692715  1.0
  O  O21  1  1.22724239  0.30692715  -0.49505995  1.0
  O  O22  1  1.30692715  -0.49505995  0.22724239  1.0
  O  O23  1  0.50494005  0.22724239  0.30692715  1.0
  O  O24  1  0.77275761  0.69307285  0.49505995  1.0
  O  O25  1  0.69307285  1.49505995  -0.22724239  1.0
  O  O26  1  0.56442688  0.30112157  0.05709997  1.0
  O  O27  1  0.69887843  0.94290003  0.43557312  1.0
  O  O28  1  0.94290003  1.43557312  -0.30112157  1.0
  O  O29  1  1.43557312  0.69887843  -0.05709997  1.0
  O  O30  1  1.30112157  0.05709997  -0.43557312  1.0
  O  O31  1  1.05709997  -0.43557312  0.30112157  1.0
