# generated using pymatgen
data_ZnSiP2
_symmetry_space_group_name_H-M   'P 1'
_cell_length_a   6.51446734
_cell_length_b   6.51446734
_cell_length_c   6.51446734
_cell_angle_alpha   130.82225424
_cell_angle_beta   130.82225424
_cell_angle_gamma   72.09563228
_symmetry_Int_Tables_number   1
_chemical_formula_structural   ZnSiP2
_chemical_formula_sum   'Zn2 Si2 P4'
_cell_volume   154.80857814
_cell_formula_units_Z   2
loop_
 _symmetry_equiv_pos_site_id
 _symmetry_equiv_pos_as_xyz
  1  'x, y, z'
loop_
 _atom_site_type_symbol
 _atom_site_label
 _atom_site_symmetry_multiplicity
 _atom_site_fract_x
 _atom_site_fract_y
 _atom_site_fract_z
 _atom_site_occupancy
  Zn  Zn0  1  0.25000000  0.75000000  0.50000000  1.0
  Zn  Zn1  1  0.50000000  0.50000000  0.00000000  1.0
  Si  Si2  1  0.75000000  0.25000000  0.50000000  1.0
  Si  Si3  1  1.00000000  1.00000000  1.00000000  1.0
  P  P4  1  1.10761188  1.12500000  1.48261188  1.0
  P  P5  1  1.37500000  0.89238812  1.01738812  1.0
  P  P6  1  0.87500000  1.35761188  0.98261188  1.0
  P  P7  1  0.64238812  0.62500000  0.51738812  1.0
