# generated using pymatgen
data_Gd2WO6
_symmetry_space_group_name_H-M   'P 1'
_cell_length_a   5.32985368
_cell_length_b   9.24159204
_cell_length_c   10.10044630
_cell_angle_alpha   90.00000000
_cell_angle_beta   90.00000000
_cell_angle_gamma   90.00000000
_symmetry_Int_Tables_number   1
_chemical_formula_structural   Gd2WO6
_chemical_formula_sum   'Gd8 W4 O24'
_cell_volume   497.51094938
_cell_formula_units_Z   4
loop_
 _symmetry_equiv_pos_site_id
 _symmetry_equiv_pos_as_xyz
  1  'x, y, z'
loop_
 _atom_site_type_symbol
 _atom_site_label
 _atom_site_symmetry_multiplicity
 _atom_site_fract_x
 _atom_site_fract_y
 _atom_site_fract_z
 _atom_site_occupancy
  Gd  Gd0  1  0.48020005  0.89677105  0.03537969  1.0
  Gd  Gd1  1  0.98020005  0.60322895  0.96462031  1.0
  Gd  Gd2  1  0.51979995  0.39677105  0.46462031  1.0
  Gd  Gd3  1  0.01979995  0.10322895  0.53537969  1.0
  Gd  Gd4  1  0.46428756  0.78049455  0.62876215  1.0
  Gd  Gd5  1  0.96428756  0.71950545  0.37123785  1.0
  Gd  Gd6  1  0.53571244  0.28049455  0.87123785  1.0
  Gd  Gd7  1  0.03571244  0.21950545  0.12876215  1.0
  W  W8  1  0.96038816  0.99549008  0.84844165  1.0
  W  W9  1  0.46038816  0.50450992  0.15155835  1.0
  W  W10  1  0.03961184  0.49549008  0.65155835  1.0
  W  W11  1  0.53961184  0.00450992  0.34844165  1.0
  O  O12  1  0.17289823  0.95217489  0.70673246  1.0
  O  O13  1  0.67289823  0.54782512  0.29326754  1.0
  O  O14  1  0.82710177  0.45217488  0.79326754  1.0
  O  O15  1  0.32710177  0.04782512  0.20673246  1.0
  O  O16  1  0.31348581  0.36475051  0.67994744  1.0
  O  O17  1  0.81348581  0.13524949  0.32005256  1.0
  O  O18  1  0.68651419  0.86475051  0.82005256  1.0
  O  O19  1  0.18651419  0.63524949  0.17994744  1.0
  O  O20  1  0.24779630  0.58936950  0.50724824  1.0
  O  O21  1  0.74779630  0.91063050  0.49275176  1.0
  O  O22  1  0.75220370  0.08936950  0.99275176  1.0
  O  O23  1  0.25220370  0.41063050  0.00724824  1.0
  O  O24  1  0.18891044  0.63880010  0.76160648  1.0
  O  O25  1  0.68891044  0.86119990  0.23839352  1.0
  O  O26  1  0.81108956  0.13880010  0.73839352  1.0
  O  O27  1  0.31108956  0.36119990  0.26160648  1.0
  O  O28  1  0.08130550  0.84566798  0.96943957  1.0
  O  O29  1  0.58130550  0.65433202  0.03056043  1.0
  O  O30  1  0.91869450  0.34566798  0.53056043  1.0
  O  O31  1  0.41869450  0.15433202  0.46943957  1.0
  O  O32  1  0.77301219  0.61301842  0.56693967  1.0
  O  O33  1  0.27301219  0.88698158  0.43306033  1.0
  O  O34  1  0.22698781  0.11301842  0.93306033  1.0
  O  O35  1  0.72698781  0.38698158  0.06693967  1.0
