# generated using pymatgen
data_Ga2PbSe4
_symmetry_space_group_name_H-M   'P 1'
_cell_length_a   6.33233363
_cell_length_b   6.33233363
_cell_length_c   11.01793237
_cell_angle_alpha   90.00000000
_cell_angle_beta   90.00000000
_cell_angle_gamma   119.83929505
_symmetry_Int_Tables_number   1
_chemical_formula_structural   Ga2PbSe4
_chemical_formula_sum   'Ga4 Pb2 Se8'
_cell_volume   383.22984076
_cell_formula_units_Z   2
loop_
 _symmetry_equiv_pos_site_id
 _symmetry_equiv_pos_as_xyz
  1  'x, y, z'
loop_
 _atom_site_type_symbol
 _atom_site_label
 _atom_site_symmetry_multiplicity
 _atom_site_fract_x
 _atom_site_fract_y
 _atom_site_fract_z
 _atom_site_occupancy
  Ga  Ga0  1  -0.26383251  1.26065205  0.00000000  1.0
  Ga  Ga1  1  0.26065205  0.73616749  0.50000000  1.0
  Ga  Ga2  1  -0.26065205  1.26383251  0.50000000  1.0
  Ga  Ga3  1  0.26383251  0.73934795  0.00000000  1.0
  Pb  Pb4  1  0.00000000  0.00000000  0.75000000  1.0
  Pb  Pb5  1  0.00000000  0.00000000  0.25000000  1.0
  Se  Se6  1  -0.15019489  1.68902050  0.00000000  1.0
  Se  Se7  1  0.68902050  0.84980511  0.50000000  1.0
  Se  Se8  1  -0.68902050  1.15019489  0.50000000  1.0
  Se  Se9  1  0.15019489  0.31097950  0.00000000  1.0
  Se  Se10  1  0.00000000  1.50000000  0.67024588  1.0
  Se  Se11  1  0.00000000  1.50000000  0.32975412  1.0
  Se  Se12  1  0.50000000  1.00000000  0.17024588  1.0
  Se  Se13  1  0.50000000  1.00000000  0.82975412  1.0
