# generated using pymatgen
data_Ba(AgTe)2
_symmetry_space_group_name_H-M   'P 1'
_cell_length_a   11.11720002
_cell_length_b   4.66597970
_cell_length_c   11.90342696
_cell_angle_alpha   90.00000000
_cell_angle_beta   90.00000000
_cell_angle_gamma   90.00000000
_symmetry_Int_Tables_number   1
_chemical_formula_structural   Ba(AgTe)2
_chemical_formula_sum   'Ba4 Ag8 Te8'
_cell_volume   617.46205801
_cell_formula_units_Z   4
loop_
 _symmetry_equiv_pos_site_id
 _symmetry_equiv_pos_as_xyz
  1  'x, y, z'
loop_
 _atom_site_type_symbol
 _atom_site_label
 _atom_site_symmetry_multiplicity
 _atom_site_fract_x
 _atom_site_fract_y
 _atom_site_fract_z
 _atom_site_occupancy
  Ba  Ba0  1  0.74214996  0.75000000  0.30534945  1.0
  Ba  Ba1  1  0.24214996  0.75000000  0.19465055  1.0
  Ba  Ba2  1  0.25785004  0.25000000  0.69465055  1.0
  Ba  Ba3  1  0.75785004  0.25000000  0.80534945  1.0
  Ag  Ag4  1  0.94123989  0.75000000  0.58202965  1.0
  Ag  Ag5  1  0.44123989  0.75000000  0.91797035  1.0
  Ag  Ag6  1  0.05876011  0.25000000  0.41797035  1.0
  Ag  Ag7  1  0.55876011  0.25000000  0.08202965  1.0
  Ag  Ag8  1  0.94013274  0.75000000  0.04787360  1.0
  Ag  Ag9  1  0.44013274  0.75000000  0.45212640  1.0
  Ag  Ag10  1  0.05986726  0.25000000  0.95212640  1.0
  Ag  Ag11  1  0.55986726  0.25000000  0.54787360  1.0
  Te  Te12  1  0.68428773  0.75000000  0.01714457  1.0
  Te  Te13  1  0.18428773  0.75000000  0.48285543  1.0
  Te  Te14  1  0.31571227  0.25000000  0.98285543  1.0
  Te  Te15  1  0.81571227  0.25000000  0.51714457  1.0
  Te  Te16  1  0.52208269  0.75000000  0.68827944  1.0
  Te  Te17  1  0.02208269  0.75000000  0.81172056  1.0
  Te  Te18  1  0.47791731  0.25000000  0.31172056  1.0
  Te  Te19  1  0.97791731  0.25000000  0.18827944  1.0
