# generated using pymatgen
data_MoP4H36(C6Cl)2
_symmetry_space_group_name_H-M   'P 1'
_cell_length_a   9.59048946
_cell_length_b   9.59048946
_cell_length_c   9.59048946
_cell_angle_alpha   116.45950226
_cell_angle_beta   116.45950226
_cell_angle_gamma   96.25016339
_symmetry_Int_Tables_number   1
_chemical_formula_structural   MoP4H36(C6Cl)2
_chemical_formula_sum   'Mo1 P4 H36 C12 Cl2'
_cell_volume   652.91769973
_cell_formula_units_Z   1
loop_
 _symmetry_equiv_pos_site_id
 _symmetry_equiv_pos_as_xyz
  1  'x, y, z'
loop_
 _atom_site_type_symbol
 _atom_site_label
 _atom_site_symmetry_multiplicity
 _atom_site_fract_x
 _atom_site_fract_y
 _atom_site_fract_z
 _atom_site_occupancy
  Mo  Mo0  1  0.00000000  0.00000000  0.00000000  1.0
  P  P1  1  1.14324027  1.14324027  0.34773313  1.0
  P  P2  1  0.79550714  0.79550714  0.65226687  1.0
  P  P3  1  1.20449286  0.85675973  1.00000000  1.0
  P  P4  1  0.85675973  1.20449286  1.00000000  1.0
  H  H5  1  1.25048596  1.07964221  0.58967060  1.0
  H  H6  1  0.48997160  0.66081536  0.41032940  1.0
  H  H7  1  1.51002840  0.92035779  1.17084376  1.0
  H  H8  1  0.74951404  0.33918464  0.82915624  1.0
  H  H9  1  0.33918464  0.74951404  0.82915624  1.0
  H  H10  1  0.92035779  1.51002840  1.17084376  1.0
  H  H11  1  1.07964221  1.25048596  0.58967060  1.0
  H  H12  1  0.66081536  0.48997160  0.41032940  1.0
  H  H13  1  1.09672876  0.89632538  0.35920286  1.0
  H  H14  1  1.53712253  1.73752590  1.64079714  1.0
  H  H15  1  1.46287747  1.10367461  1.20040338  1.0
  H  H16  1  0.90327124  1.26247410  0.79959662  1.0
  H  H17  1  1.26247410  0.90327124  0.79959662  1.0
  H  H18  1  1.10367461  1.46287747  1.20040338  1.0
  H  H19  1  0.89632538  1.09672876  0.35920286  1.0
  H  H20  1  1.73752590  1.53712253  1.64079714  1.0
  H  H21  1  1.30777771  0.97946055  0.42713590  1.0
  H  H22  1  1.55232465  1.88064181  1.57286410  1.0
  H  H23  1  1.44767535  1.02053945  1.32831716  1.0
  H  H24  1  0.69222229  1.11935819  0.67168284  1.0
  H  H25  1  1.11935819  0.69222229  0.67168284  1.0
  H  H26  1  1.02053945  1.44767535  1.32831716  1.0
  H  H27  1  0.97946055  1.30777771  0.42713590  1.0
  H  H28  1  1.88064181  1.55232465  1.57286410  1.0
  H  H29  1  0.43411438  0.31026952  0.48525983  1.0
  H  H30  1  0.82500970  0.94885455  0.51474017  1.0
  H  H31  1  1.17499030  0.68973048  1.12384486  1.0
  H  H32  1  1.56588562  1.05114545  0.87615514  1.0
  H  H33  1  1.05114545  1.56588562  0.87615514  1.0
  H  H34  1  0.68973048  1.17499030  1.12384486  1.0
  H  H35  1  0.31026952  0.43411438  0.48525983  1.0
  H  H36  1  0.94885455  0.82500970  0.51474017  1.0
  H  H37  1  0.38386361  0.38386361  0.65763261  1.0
  H  H38  1  0.72623099  0.72623099  0.34236739  1.0
  H  H39  1  1.27376901  0.61613639  1.00000000  1.0
  H  H40  1  0.61613639  1.27376901  1.00000000  1.0
  C  C41  1  1.20706693  1.01286804  0.44138206  1.0
  C  C42  1  0.57148598  0.76568486  0.55861794  1.0
  C  C43  1  1.42851402  0.98713196  1.19419888  1.0
  C  C44  1  0.79293307  0.23431514  0.80580112  1.0
  C  C45  1  0.23431514  0.79293307  0.80580112  1.0
  C  C46  1  0.98713196  1.42851402  1.19419888  1.0
  C  C47  1  1.01286804  1.20706693  0.44138206  1.0
  C  C48  1  0.76568486  0.57148598  0.55861794  1.0
  C  C49  1  0.33647044  0.33647044  0.51094311  1.0
  C  C50  1  0.82552733  0.82552733  0.48905689  1.0
  C  C51  1  1.17447267  0.66352956  1.00000000  1.0
  C  C52  1  0.66352956  1.17447267  1.00000000  1.0
  Cl  Cl53  1  0.80628159  0.80628159  0.00000000  1.0
  Cl  Cl54  1  0.19371841  0.19371841  0.00000000  1.0
