# generated using pymatgen
data_Mo2Ru
_symmetry_space_group_name_H-M   'P 1'
_cell_length_a   9.61982517
_cell_length_b   9.61982517
_cell_length_c   4.94174235
_cell_angle_alpha   90.00000000
_cell_angle_beta   90.00000000
_cell_angle_gamma   90.00000000
_symmetry_Int_Tables_number   1
_chemical_formula_structural   Mo2Ru
_chemical_formula_sum   'Mo20 Ru10'
_cell_volume   457.31395850
_cell_formula_units_Z   10
loop_
 _symmetry_equiv_pos_site_id
 _symmetry_equiv_pos_as_xyz
  1  'x, y, z'
loop_
 _atom_site_type_symbol
 _atom_site_label
 _atom_site_symmetry_multiplicity
 _atom_site_fract_x
 _atom_site_fract_y
 _atom_site_fract_z
 _atom_site_occupancy
  Mo  Mo0  1  0.10594500  0.89405500  0.50000000  1.0
  Mo  Mo1  1  0.89405500  0.10594500  0.50000000  1.0
  Mo  Mo2  1  0.39405500  0.39405500  0.00000000  1.0
  Mo  Mo3  1  0.60594500  0.60594500  0.00000000  1.0
  Mo  Mo4  1  0.37121204  0.96071813  0.50000000  1.0
  Mo  Mo5  1  0.62878796  0.03928187  0.50000000  1.0
  Mo  Mo6  1  0.12878796  0.46071813  0.00000000  1.0
  Mo  Mo7  1  0.87121204  0.53928187  0.00000000  1.0
  Mo  Mo8  1  0.96071813  0.37121204  0.50000000  1.0
  Mo  Mo9  1  0.03928187  0.62878796  0.50000000  1.0
  Mo  Mo10  1  0.46071813  0.12878796  0.00000000  1.0
  Mo  Mo11  1  0.53928187  0.87121204  0.00000000  1.0
  Mo  Mo12  1  0.32218784  0.67781216  0.24789223  1.0
  Mo  Mo13  1  0.67781216  0.32218784  0.24789223  1.0
  Mo  Mo14  1  0.17781216  0.17781216  0.74789223  1.0
  Mo  Mo15  1  0.82218784  0.82218784  0.74789223  1.0
  Mo  Mo16  1  0.67781216  0.32218784  0.75210777  1.0
  Mo  Mo17  1  0.32218784  0.67781216  0.75210777  1.0
  Mo  Mo18  1  0.82218784  0.82218784  0.25210777  1.0
  Mo  Mo19  1  0.17781216  0.17781216  0.25210777  1.0
  Ru  Ru20  1  0.50000000  0.50000000  0.50000000  1.0
  Ru  Ru21  1  0.00000000  0.00000000  0.00000000  1.0
  Ru  Ru22  1  0.43009911  0.23513591  0.50000000  1.0
  Ru  Ru23  1  0.56990089  0.76486409  0.50000000  1.0
  Ru  Ru24  1  0.06990089  0.73513591  0.00000000  1.0
  Ru  Ru25  1  0.93009911  0.26486409  0.00000000  1.0
  Ru  Ru26  1  0.23513591  0.43009911  0.50000000  1.0
  Ru  Ru27  1  0.76486409  0.56990089  0.50000000  1.0
  Ru  Ru28  1  0.73513591  0.06990089  0.00000000  1.0
  Ru  Ru29  1  0.26486409  0.93009911  0.00000000  1.0
