# generated using pymatgen
data_Yb(BO2)6
_symmetry_space_group_name_H-M   'P 1'
_cell_length_a   8.42099541
_cell_length_b   8.42099541
_cell_length_c   8.42099541
_cell_angle_alpha   62.38953327
_cell_angle_beta   62.38953327
_cell_angle_gamma   62.38953327
_symmetry_Int_Tables_number   1
_chemical_formula_structural   Yb(BO2)6
_chemical_formula_sum   'Yb2 B12 O24'
_cell_volume   444.75972696
_cell_formula_units_Z   2
loop_
 _symmetry_equiv_pos_site_id
 _symmetry_equiv_pos_as_xyz
  1  'x, y, z'
loop_
 _atom_site_type_symbol
 _atom_site_label
 _atom_site_symmetry_multiplicity
 _atom_site_fract_x
 _atom_site_fract_y
 _atom_site_fract_z
 _atom_site_occupancy
  Yb  Yb0  1  0.00385693  0.00385693  0.00385693  1.0
  Yb  Yb1  1  0.50385693  0.50385693  -0.49614307  1.0
  O  O2  1  0.83748063  -0.21820166  0.13226342  1.0
  O  O3  1  0.33748063  0.63226342  -0.71820166  1.0
  O  O4  1  0.63226342  0.28179834  -0.66251937  1.0
  O  O5  1  1.13226342  -0.16251937  -0.21820166  1.0
  O  O6  1  0.28179834  0.33748063  -0.36773658  1.0
  O  O7  1  0.78179834  0.13226342  -0.16251937  1.0
  O  O8  1  1.24999342  -0.32377990  0.03243894  1.0
  O  O9  1  0.74999342  0.53243894  -0.82377990  1.0
  O  O10  1  0.53243894  0.17622010  -0.25000658  1.0
  O  O11  1  1.03243894  0.24999342  -0.32377990  1.0
  O  O12  1  0.17622010  0.74999342  -0.46756106  1.0
  O  O13  1  0.67622010  0.03243894  0.24999342  1.0
  O  O14  1  1.07107967  -0.46002987  0.00005954  1.0
  O  O15  1  0.57107967  0.50005954  -0.96002987  1.0
  O  O16  1  0.50005954  0.03997013  -0.42892033  1.0
  O  O17  1  1.00005954  0.07107967  -0.46002987  1.0
  O  O18  1  0.03997013  0.57107967  -0.49994046  1.0
  O  O19  1  0.53997013  0.00005954  0.07107967  1.0
  O  O20  1  0.37878633  0.54049270  -0.21655053  1.0
  O  O21  1  0.87878633  -0.71655053  0.04049270  1.0
  O  O22  1  0.28344947  0.04049270  -0.12121367  1.0
  O  O23  1  0.78344947  0.37878633  -0.45950730  1.0
  O  O24  1  1.04049270  -0.12121367  -0.71655053  1.0
  O  O25  1  0.54049270  0.78344947  -0.62121367  1.0
  B  B26  1  0.88958329  -0.38655222  0.10106676  1.0
  B  B27  1  0.38958329  0.60106676  -0.88655222  1.0
  B  B28  1  0.60106676  0.11344778  -0.61041671  1.0
  B  B29  1  1.10106676  -0.11041671  -0.38655222  1.0
  B  B30  1  0.11344778  0.38958329  -0.39893324  1.0
  B  B31  1  0.61344778  0.10106676  -0.11041671  1.0
  B  B32  1  1.21001855  -0.36107745  -0.09962856  1.0
  B  B33  1  0.71001855  0.40037144  -0.86107745  1.0
  B  B34  1  0.40037144  0.13892255  -0.28998145  1.0
  B  B35  1  0.90037144  0.21001855  -0.36107745  1.0
  B  B36  1  0.13892255  0.71001855  -0.59962856  1.0
  B  B37  1  0.63892255  -0.09962856  0.21001855  1.0
