# generated using pymatgen
data_YPt
_symmetry_space_group_name_H-M   'P 1'
_cell_length_a   7.06511581
_cell_length_b   4.52198357
_cell_length_c   5.58700813
_cell_angle_alpha   90.00000000
_cell_angle_beta   90.00000000
_cell_angle_gamma   90.00000000
_symmetry_Int_Tables_number   1
_chemical_formula_structural   YPt
_chemical_formula_sum   'Y4 Pt4'
_cell_volume   178.49562185
_cell_formula_units_Z   4
loop_
 _symmetry_equiv_pos_site_id
 _symmetry_equiv_pos_as_xyz
  1  'x, y, z'
loop_
 _atom_site_type_symbol
 _atom_site_label
 _atom_site_symmetry_multiplicity
 _atom_site_fract_x
 _atom_site_fract_y
 _atom_site_fract_z
 _atom_site_occupancy
  Y  Y0  1  0.31788946  0.75000000  0.14078382  1.0
  Y  Y1  1  0.81788946  0.75000000  0.35921618  1.0
  Y  Y2  1  0.68211054  0.25000000  0.85921618  1.0
  Y  Y3  1  0.18211054  0.25000000  0.64078382  1.0
  Pt  Pt4  1  0.45701570  0.75000000  0.65387955  1.0
  Pt  Pt5  1  0.95701570  0.75000000  0.84612045  1.0
  Pt  Pt6  1  0.54298430  0.25000000  0.34612045  1.0
  Pt  Pt7  1  0.04298430  0.25000000  0.15387955  1.0
