# generated using pymatgen
data_Ca2Se3O8
_symmetry_space_group_name_H-M   'P 1'
_cell_length_a   8.86877914
_cell_length_b   8.46055354
_cell_length_c   5.58926391
_cell_angle_alpha   97.70787847
_cell_angle_beta   95.74313034
_cell_angle_gamma   92.94749133
_symmetry_Int_Tables_number   1
_chemical_formula_structural   Ca2Se3O8
_chemical_formula_sum   'Ca4 Se6 O16'
_cell_volume   412.61865977
_cell_formula_units_Z   2
loop_
 _symmetry_equiv_pos_site_id
 _symmetry_equiv_pos_as_xyz
  1  'x, y, z'
loop_
 _atom_site_type_symbol
 _atom_site_label
 _atom_site_symmetry_multiplicity
 _atom_site_fract_x
 _atom_site_fract_y
 _atom_site_fract_z
 _atom_site_occupancy
  Ca  Ca0  1  -0.96272206  -0.66237908  -0.79304364  1.0
  Ca  Ca1  1  -0.03727794  -0.33762092  -0.20695636  1.0
  Ca  Ca2  1  -0.34813393  -0.45560378  -0.74106385  1.0
  Ca  Ca3  1  -0.65186607  -0.54439622  -0.25893615  1.0
  Se  Se4  1  -0.57963110  -0.81664236  -0.77758558  1.0
  Se  Se5  1  -0.42036890  -0.18335764  -0.22241442  1.0
  Se  Se6  1  -0.76114359  -0.31460575  -0.67319840  1.0
  Se  Se7  1  -0.23885641  -0.68539425  -0.32680160  1.0
  Se  Se8  1  -0.81861778  -0.94293361  -0.27330599  1.0
  Se  Se9  1  -0.18138222  -0.05706639  -0.72669401  1.0
  O  O10  1  -0.68444176  -0.97341229  -0.99884280  1.0
  O  O11  1  -0.31555824  -0.02658771  -0.00115720  1.0
  O  O12  1  -0.82189778  -0.42911034  -0.95115683  1.0
  O  O13  1  -0.17810222  -0.57088966  -0.04884317  1.0
  O  O14  1  -0.52453016  -0.67850415  -0.95156558  1.0
  O  O15  1  -0.47546984  -0.32149585  -0.04843442  1.0
  O  O16  1  -0.04159373  -0.92317096  -0.75267383  1.0
  O  O17  1  -0.95840627  -0.07682904  -0.24732617  1.0
  O  O18  1  -0.72185953  -0.73331941  -0.63094527  1.0
  O  O19  1  -0.27814047  -0.26668059  -0.36905473  1.0
  O  O20  1  -0.58445418  -0.37372394  -0.58549922  1.0
  O  O21  1  -0.41554582  -0.62627606  -0.41450078  1.0
  O  O22  1  -0.85974277  -0.42190481  -0.48799543  1.0
  O  O23  1  -0.14025723  -0.57809519  -0.51200457  1.0
  O  O24  1  -0.87423843  -0.75789807  -0.17919271  1.0
  O  O25  1  -0.12576157  -0.24210193  -0.82080729  1.0
