# generated using pymatgen
data_Na2GeTeO6
_symmetry_space_group_name_H-M   'P 1'
_cell_length_a   5.23997028
_cell_length_b   5.23997028
_cell_length_c   10.87055772
_cell_angle_alpha   90.00000000
_cell_angle_beta   90.00000000
_cell_angle_gamma   120.00000000
_symmetry_Int_Tables_number   1
_chemical_formula_structural   Na2GeTeO6
_chemical_formula_sum   'Na4 Ge2 Te2 O12'
_cell_volume   258.48783325
_cell_formula_units_Z   2
loop_
 _symmetry_equiv_pos_site_id
 _symmetry_equiv_pos_as_xyz
  1  'x, y, z'
loop_
 _atom_site_type_symbol
 _atom_site_label
 _atom_site_symmetry_multiplicity
 _atom_site_fract_x
 _atom_site_fract_y
 _atom_site_fract_z
 _atom_site_occupancy
  Na  Na0  1  0.33333333  0.66666667  0.04122436  1.0
  Na  Na1  1  0.33333333  0.66666667  0.45877564  1.0
  Na  Na2  1  0.66666667  0.33333333  0.54122436  1.0
  Na  Na3  1  0.66666667  0.33333333  0.95877564  1.0
  Ge  Ge4  1  0.66666667  0.33333333  0.25000000  1.0
  Ge  Ge5  1  0.33333333  0.66666667  0.75000000  1.0
  Te  Te6  1  -0.00000000  -0.00000000  0.25000000  1.0
  Te  Te7  1  0.00000000  0.00000000  0.75000000  1.0
  O  O8  1  0.71249318  0.65481983  0.14714999  1.0
  O  O9  1  0.71249318  0.05767335  0.35285001  1.0
  O  O10  1  0.65481983  0.71249318  0.64714999  1.0
  O  O11  1  0.65481983  0.94232665  0.85285001  1.0
  O  O12  1  0.94232665  0.65481983  0.35285001  1.0
  O  O13  1  0.94232665  0.28750682  0.14714999  1.0
  O  O14  1  0.34518017  0.28750682  0.35285001  1.0
  O  O15  1  0.34518017  0.05767335  0.14714999  1.0
  O  O16  1  0.28750682  0.94232665  0.64714999  1.0
  O  O17  1  0.28750682  0.34518017  0.85285001  1.0
  O  O18  1  0.05767335  0.71249318  0.85285001  1.0
  O  O19  1  0.05767335  0.34518017  0.64714999  1.0
