# generated using pymatgen
data_LaSi2Ru
_symmetry_space_group_name_H-M   'P 1'
_cell_length_a   4.55351381
_cell_length_b   4.12207826
_cell_length_c   8.40726356
_cell_angle_alpha   90.00000000
_cell_angle_beta   102.51736714
_cell_angle_gamma   90.00000000
_symmetry_Int_Tables_number   1
_chemical_formula_structural   LaSi2Ru
_chemical_formula_sum   'La2 Si4 Ru2'
_cell_volume   154.05289403
_cell_formula_units_Z   2
loop_
 _symmetry_equiv_pos_site_id
 _symmetry_equiv_pos_as_xyz
  1  'x, y, z'
loop_
 _atom_site_type_symbol
 _atom_site_label
 _atom_site_symmetry_multiplicity
 _atom_site_fract_x
 _atom_site_fract_y
 _atom_site_fract_z
 _atom_site_occupancy
  La  La0  1  0.58909749  0.25000000  0.20075934  1.0
  La  La1  1  0.41090251  0.75000000  0.79924066  1.0
  Si  Si2  1  0.96357579  0.25000000  0.90858786  1.0
  Si  Si3  1  0.03642421  0.75000000  0.09141214  1.0
  Si  Si4  1  0.32988287  0.25000000  0.50741723  1.0
  Si  Si5  1  0.67011713  0.75000000  0.49258277  1.0
  Ru  Ru6  1  0.87936594  0.25000000  0.61093179  1.0
  Ru  Ru7  1  0.12063406  0.75000000  0.38906821  1.0
