# generated using pymatgen
data_Y2Si2O7
_symmetry_space_group_name_H-M   'P 1'
_cell_length_a   13.81262553
_cell_length_b   8.19173219
_cell_length_c   5.08853929
_cell_angle_alpha   90.00000000
_cell_angle_beta   90.00000000
_cell_angle_gamma   90.00000000
_symmetry_Int_Tables_number   1
_chemical_formula_structural   Y2Si2O7
_chemical_formula_sum   'Y8 Si8 O28'
_cell_volume   575.76480726
_cell_formula_units_Z   4
loop_
 _symmetry_equiv_pos_site_id
 _symmetry_equiv_pos_as_xyz
  1  'x, y, z'
loop_
 _atom_site_type_symbol
 _atom_site_label
 _atom_site_symmetry_multiplicity
 _atom_site_fract_x
 _atom_site_fract_y
 _atom_site_fract_z
 _atom_site_occupancy
  Y  Y0  1  0.62565133  0.99046084  0.15703882  1.0
  Y  Y1  1  0.62565133  0.50953916  0.15703882  1.0
  Y  Y2  1  0.12565133  0.99046084  0.34296118  1.0
  Y  Y3  1  0.12565133  0.50953916  0.34296118  1.0
  Y  Y4  1  0.37434867  0.49046084  0.84296118  1.0
  Y  Y5  1  0.37434867  0.00953916  0.84296118  1.0
  Y  Y6  1  0.87434867  0.49046084  0.65703882  1.0
  Y  Y7  1  0.87434867  0.00953916  0.65703882  1.0
  Si  Si8  1  0.81849298  0.25000000  0.11988801  1.0
  Si  Si9  1  0.31849298  0.25000000  0.38011199  1.0
  Si  Si10  1  0.18150702  0.75000000  0.88011199  1.0
  Si  Si11  1  0.68150702  0.75000000  0.61988801  1.0
  Si  Si12  1  0.54020331  0.25000000  0.62581438  1.0
  Si  Si13  1  0.04020331  0.25000000  0.87418562  1.0
  Si  Si14  1  0.45979669  0.75000000  0.37418562  1.0
  Si  Si15  1  0.95979669  0.75000000  0.12581438  1.0
  O  O16  1  0.95283065  0.91900937  0.29384677  1.0
  O  O17  1  0.95283065  0.58099063  0.29384677  1.0
  O  O18  1  0.45283065  0.91900937  0.20615323  1.0
  O  O19  1  0.45283065  0.58099063  0.20615323  1.0
  O  O20  1  0.04716935  0.41900937  0.70615323  1.0
  O  O21  1  0.04716935  0.08099063  0.70615323  1.0
  O  O22  1  0.54716935  0.41900937  0.79384677  1.0
  O  O23  1  0.54716935  0.08099063  0.79384677  1.0
  O  O24  1  0.76691634  0.41527631  0.00975531  1.0
  O  O25  1  0.76691634  0.08472369  0.00975531  1.0
  O  O26  1  0.26691634  0.41527631  0.49024469  1.0
  O  O27  1  0.26691634  0.08472369  0.49024469  1.0
  O  O28  1  0.23308366  0.91527631  0.99024469  1.0
  O  O29  1  0.23308366  0.58472369  0.99024469  1.0
  O  O30  1  0.73308366  0.91527631  0.50975531  1.0
  O  O31  1  0.73308366  0.58472369  0.50975531  1.0
  O  O32  1  0.84491906  0.25000000  0.43078080  1.0
  O  O33  1  0.34491906  0.25000000  0.06921920  1.0
  O  O34  1  0.15508094  0.75000000  0.56921920  1.0
  O  O35  1  0.65508094  0.75000000  0.93078080  1.0
  O  O36  1  0.59960162  0.25000000  0.34877215  1.0
  O  O37  1  0.09960162  0.25000000  0.15122785  1.0
  O  O38  1  0.40039838  0.75000000  0.65122785  1.0
  O  O39  1  0.90039838  0.75000000  0.84877215  1.0
  O  O40  1  0.41937016  0.25000000  0.56619149  1.0
  O  O41  1  0.91937016  0.25000000  0.93380851  1.0
  O  O42  1  0.58062984  0.75000000  0.43380851  1.0
  O  O43  1  0.08062984  0.75000000  0.06619149  1.0
