# generated using pymatgen
data_CsHS
_symmetry_space_group_name_H-M   'P 1'
_cell_length_a   7.53712161
_cell_length_b   7.53712161
_cell_length_c   7.53712161
_cell_angle_alpha   112.33055618
_cell_angle_beta   112.33055618
_cell_angle_gamma   103.89249854
_symmetry_Int_Tables_number   1
_chemical_formula_structural   CsHS
_chemical_formula_sum   'Cs4 H4 S4'
_cell_volume   327.29288176
_cell_formula_units_Z   4
loop_
 _symmetry_equiv_pos_site_id
 _symmetry_equiv_pos_as_xyz
  1  'x, y, z'
loop_
 _atom_site_type_symbol
 _atom_site_label
 _atom_site_symmetry_multiplicity
 _atom_site_fract_x
 _atom_site_fract_y
 _atom_site_fract_z
 _atom_site_occupancy
  Cs  Cs0  1  0.23008134  0.23008134  -0.00000000  1.0
  Cs  Cs1  1  0.76991866  0.76991866  -0.00000000  1.0
  Cs  Cs2  1  0.75000000  0.25000000  0.50000000  1.0
  Cs  Cs3  1  0.25000000  0.75000000  0.50000000  1.0
  H  H4  1  0.58867723  1.26154899  0.85022622  1.0
  H  H5  1  0.26154899  0.41132277  0.67287176  1.0
  H  H6  1  0.41132277  0.73845101  1.14977378  1.0
  H  H7  1  0.73845101  0.58867723  0.32712824  1.0
  S  S8  1  0.75126826  1.26341435  1.01468262  1.0
  S  S9  1  1.26341435  1.24873174  1.51214609  1.0
  S  S10  1  0.24873174  0.73658565  0.98531738  1.0
  S  S11  1  0.73658565  0.75126826  1.48785391  1.0
