# generated using pymatgen
data_SmCuP2
_symmetry_space_group_name_H-M   'P 1'
_cell_length_a   10.30610404
_cell_length_b   10.30610404
_cell_length_c   10.30610404
_cell_angle_alpha   158.82215525
_cell_angle_beta   158.82215525
_cell_angle_gamma   30.12561446
_symmetry_Int_Tables_number   1
_chemical_formula_structural   SmCuP2
_chemical_formula_sum   'Sm2 Cu2 P4'
_cell_volume   142.78008250
_cell_formula_units_Z   2
loop_
 _symmetry_equiv_pos_site_id
 _symmetry_equiv_pos_as_xyz
  1  'x, y, z'
loop_
 _atom_site_type_symbol
 _atom_site_label
 _atom_site_symmetry_multiplicity
 _atom_site_fract_x
 _atom_site_fract_y
 _atom_site_fract_z
 _atom_site_occupancy
  Sm  Sm0  1  0.88525894  0.88525894  1.00000000  1.0
  Sm  Sm1  1  0.11474106  0.11474106  0.00000000  1.0
  Cu  Cu2  1  0.25000000  0.75000000  0.50000000  1.0
  Cu  Cu3  1  0.75000000  0.25000000  0.50000000  1.0
  P  P4  1  0.67783313  0.67783313  1.00000000  1.0
  P  P5  1  0.32216687  0.32216687  -0.00000000  1.0
  P  P6  1  0.50000000  0.00000000  0.50000000  1.0
  P  P7  1  0.00000000  0.50000000  0.50000000  1.0
