# generated using pymatgen
data_LuAlGe
_symmetry_space_group_name_H-M   'P 1'
_cell_length_a   5.48814047
_cell_length_b   5.48814047
_cell_length_c   5.67776233
_cell_angle_alpha   90.00000000
_cell_angle_beta   90.00000000
_cell_angle_gamma   136.92981848
_symmetry_Int_Tables_number   1
_chemical_formula_structural   LuAlGe
_chemical_formula_sum   'Lu2 Al2 Ge2'
_cell_volume   116.78329942
_cell_formula_units_Z   2
loop_
 _symmetry_equiv_pos_site_id
 _symmetry_equiv_pos_as_xyz
  1  'x, y, z'
loop_
 _atom_site_type_symbol
 _atom_site_label
 _atom_site_symmetry_multiplicity
 _atom_site_fract_x
 _atom_site_fract_y
 _atom_site_fract_z
 _atom_site_occupancy
  Lu  Lu0  1  0.31053278  0.68946722  0.75000000  1.0
  Lu  Lu1  1  -0.31053278  0.31053278  0.25000000  1.0
  Al  Al2  1  0.00000000  0.00000000  0.00000000  1.0
  Al  Al3  1  0.00000000  0.00000000  0.50000000  1.0
  Ge  Ge4  1  -0.39128444  0.39128444  0.75000000  1.0
  Ge  Ge5  1  0.39128444  0.60871556  0.25000000  1.0
