# generated using pymatgen
data_MnP2PbO7
_symmetry_space_group_name_H-M   'P 1'
_cell_length_a   5.48081982
_cell_length_b   8.55043087
_cell_length_c   14.24262255
_cell_angle_alpha   90.00000000
_cell_angle_beta   112.98331940
_cell_angle_gamma   90.00000000
_symmetry_Int_Tables_number   1
_chemical_formula_structural   MnP2PbO7
_chemical_formula_sum   'Mn4 P8 Pb4 O28'
_cell_volume   614.47358887
_cell_formula_units_Z   4
loop_
 _symmetry_equiv_pos_site_id
 _symmetry_equiv_pos_as_xyz
  1  'x, y, z'
loop_
 _atom_site_type_symbol
 _atom_site_label
 _atom_site_symmetry_multiplicity
 _atom_site_fract_x
 _atom_site_fract_y
 _atom_site_fract_z
 _atom_site_occupancy
  Mn  Mn0  1  0.92900016  0.65026362  0.10179784  1.0
  Mn  Mn1  1  0.92900016  0.84973638  0.60179784  1.0
  Mn  Mn2  1  0.07099984  0.15026362  0.39820216  1.0
  Mn  Mn3  1  0.07099984  0.34973638  0.89820216  1.0
  P  P4  1  0.70732919  0.29444843  0.02128799  1.0
  P  P5  1  0.70732919  0.20555157  0.52128799  1.0
  P  P6  1  0.29267081  0.79444843  0.47871201  1.0
  P  P7  1  0.29267081  0.70555157  0.97871201  1.0
  P  P8  1  0.91399632  0.03635742  0.16901380  1.0
  P  P9  1  0.91399632  0.46364258  0.66901380  1.0
  P  P10  1  0.08600368  0.53635742  0.33098620  1.0
  P  P11  1  0.08600368  0.96364258  0.83098620  1.0
  Pb  Pb12  1  0.42847955  0.32150471  0.22602213  1.0
  Pb  Pb13  1  0.42847955  0.17849529  0.72602213  1.0
  Pb  Pb14  1  0.57152045  0.82150471  0.27397787  1.0
  Pb  Pb15  1  0.57152045  0.67849529  0.77397787  1.0
  O  O16  1  0.71196380  0.20037587  0.41352546  1.0
  O  O17  1  0.71196380  0.29962413  0.91352546  1.0
  O  O18  1  0.28803620  0.70037587  0.08647454  1.0
  O  O19  1  0.28803620  0.79962413  0.58647454  1.0
  O  O20  1  0.21541067  0.06137327  0.20788849  1.0
  O  O21  1  0.21541067  0.43862673  0.70788849  1.0
  O  O22  1  0.78458933  0.56137327  0.29211151  1.0
  O  O23  1  0.78458933  0.93862673  0.79211151  1.0
  O  O24  1  0.92998672  0.39790595  0.09655712  1.0
  O  O25  1  0.92998672  0.10209405  0.59655712  1.0
  O  O26  1  0.07001328  0.89790595  0.40344288  1.0
  O  O27  1  0.07001328  0.60209405  0.90344288  1.0
  O  O28  1  0.78032209  0.11281068  0.05613546  1.0
  O  O29  1  0.78032209  0.38718932  0.55613546  1.0
  O  O30  1  0.21967791  0.61281068  0.44386454  1.0
  O  O31  1  0.21967791  0.88718932  0.94386454  1.0
  O  O32  1  0.16700838  0.36316550  0.34457112  1.0
  O  O33  1  0.16700838  0.13683450  0.84457112  1.0
  O  O34  1  0.83299162  0.86316550  0.15542888  1.0
  O  O35  1  0.83299162  0.63683450  0.65542888  1.0
  O  O36  1  0.43527899  0.32871509  0.02463213  1.0
  O  O37  1  0.43527899  0.17128491  0.52463213  1.0
  O  O38  1  0.56472101  0.82871509  0.47536787  1.0
  O  O39  1  0.56472101  0.67128491  0.97536787  1.0
  O  O40  1  0.79403134  0.11679806  0.23881585  1.0
  O  O41  1  0.79403134  0.38320194  0.73881585  1.0
  O  O42  1  0.20596866  0.61679806  0.26118415  1.0
  O  O43  1  0.20596866  0.88320194  0.76118415  1.0
