# generated using pymatgen
data_CdAg2GeS4
_symmetry_space_group_name_H-M   'P 1'
_cell_length_a   7.90250312
_cell_length_b   7.13305226
_cell_length_c   6.70434151
_cell_angle_alpha   90.00000000
_cell_angle_beta   90.00000000
_cell_angle_gamma   90.00000000
_symmetry_Int_Tables_number   1
_chemical_formula_structural   CdAg2GeS4
_chemical_formula_sum   'Cd2 Ag4 Ge2 S8'
_cell_volume   377.91680980
_cell_formula_units_Z   2
loop_
 _symmetry_equiv_pos_site_id
 _symmetry_equiv_pos_as_xyz
  1  'x, y, z'
loop_
 _atom_site_type_symbol
 _atom_site_label
 _atom_site_symmetry_multiplicity
 _atom_site_fract_x
 _atom_site_fract_y
 _atom_site_fract_z
 _atom_site_occupancy
  Cd  Cd0  1  0.50000000  0.64334565  0.00087586  1.0
  Cd  Cd1  1  0.00000000  0.35665435  0.50087586  1.0
  Ag  Ag2  1  0.24465292  0.17205567  0.01670078  1.0
  Ag  Ag3  1  0.74465292  0.82794433  0.51670078  1.0
  Ag  Ag4  1  0.75534708  0.17205567  0.01670078  1.0
  Ag  Ag5  1  0.25534708  0.82794433  0.51670078  1.0
  Ge  Ge6  1  0.50000000  0.32847359  0.50300565  1.0
  Ge  Ge7  1  0.00000000  0.67152641  0.00300565  1.0
  S  S8  1  0.26851582  0.16998929  0.39476236  1.0
  S  S9  1  0.76851582  0.83001071  0.89476236  1.0
  S  S10  1  0.73148418  0.16998929  0.39476236  1.0
  S  S11  1  0.23148418  0.83001071  0.89476236  1.0
  S  S12  1  0.50000000  0.31998994  0.83956631  1.0
  S  S13  1  0.00000000  0.68001006  0.33956631  1.0
  S  S14  1  0.50000000  0.62430872  0.38612590  1.0
  S  S15  1  0.00000000  0.37569128  0.88612590  1.0
