# generated using pymatgen
data_MnCu2SiSe4
_symmetry_space_group_name_H-M   'P 1'
_cell_length_a   7.95549963
_cell_length_b   6.81222809
_cell_length_c   6.54416657
_cell_angle_alpha   90.00000000
_cell_angle_beta   90.00000000
_cell_angle_gamma   90.00000000
_symmetry_Int_Tables_number   1
_chemical_formula_structural   MnCu2SiSe4
_chemical_formula_sum   'Mn2 Cu4 Si2 Se8'
_cell_volume   354.65900022
_cell_formula_units_Z   2
loop_
 _symmetry_equiv_pos_site_id
 _symmetry_equiv_pos_as_xyz
  1  'x, y, z'
loop_
 _atom_site_type_symbol
 _atom_site_label
 _atom_site_symmetry_multiplicity
 _atom_site_fract_x
 _atom_site_fract_y
 _atom_site_fract_z
 _atom_site_occupancy
  Mn  Mn0  1  0.50000000  0.65355277  0.00346328  1.0
  Mn  Mn1  1  0.00000000  0.34644723  0.50346328  1.0
  Cu  Cu2  1  0.24800956  0.17652768  0.01360956  1.0
  Cu  Cu3  1  0.74800956  0.82347232  0.51360956  1.0
  Cu  Cu4  1  0.75199044  0.17652768  0.01360956  1.0
  Cu  Cu5  1  0.25199044  0.82347232  0.51360956  1.0
  Si  Si6  1  0.50000000  0.32708990  0.50366069  1.0
  Si  Si7  1  0.00000000  0.67291010  0.00366069  1.0
  Se  Se8  1  0.26341692  0.16179636  0.38324674  1.0
  Se  Se9  1  0.76341692  0.83820364  0.88324674  1.0
  Se  Se10  1  0.73658308  0.16179636  0.38324674  1.0
  Se  Se11  1  0.23658308  0.83820364  0.88324674  1.0
  Se  Se12  1  0.50000000  0.31140130  0.85996713  1.0
  Se  Se13  1  0.00000000  0.68859870  0.35996713  1.0
  Se  Se14  1  0.50000000  0.65051843  0.39169629  1.0
  Se  Se15  1  0.00000000  0.34948157  0.89169629  1.0
