# generated using pymatgen
data_PH6NO4
_symmetry_space_group_name_H-M   'P 1'
_cell_length_a   6.64680588
_cell_length_b   6.64680588
_cell_length_c   6.64680588
_cell_angle_alpha   105.79194168
_cell_angle_beta   105.79194168
_cell_angle_gamma   117.11063726
_symmetry_Int_Tables_number   1
_chemical_formula_structural   PH6NO4
_chemical_formula_sum   'P2 H12 N2 O8'
_cell_volume   223.00469937
_cell_formula_units_Z   2
loop_
 _symmetry_equiv_pos_site_id
 _symmetry_equiv_pos_as_xyz
  1  'x, y, z'
loop_
 _atom_site_type_symbol
 _atom_site_label
 _atom_site_symmetry_multiplicity
 _atom_site_fract_x
 _atom_site_fract_y
 _atom_site_fract_z
 _atom_site_occupancy
  P  P0  1  0.00000000  0.00000000  -0.00000000  1.0
  P  P1  1  0.75000000  1.25000000  0.50000000  1.0
  H  H2  1  1.08306581  0.59111101  0.35613815  1.0
  H  H3  1  0.66693419  0.52307234  0.00804520  1.0
  H  H4  1  1.34111101  1.33306581  0.85613815  1.0
  H  H5  1  1.40888899  1.76502714  1.49195480  1.0
  H  H6  1  0.51502714  0.65888899  0.99195480  1.0
  H  H7  1  1.23497286  1.72692766  1.64386185  1.0
  H  H8  1  1.27307234  0.91693419  0.50804520  1.0
  H  H9  1  1.47692766  0.48497286  1.14386185  1.0
  H  H10  1  0.87500000  1.00517023  0.63017023  1.0
  H  H11  1  0.75517023  1.12500000  1.13017023  1.0
  H  H12  1  0.99482977  1.62500000  0.86982977  1.0
  H  H13  1  0.37500000  0.24482977  0.36982977  1.0
  N  N14  1  0.50000000  0.50000000  0.00000000  1.0
  N  N15  1  1.25000000  0.75000000  0.50000000  1.0
  O  O16  1  1.03049946  1.00591107  0.77610306  1.0
  O  O17  1  0.71950054  0.99560360  0.47541161  1.0
  O  O18  1  1.75591107  1.28049946  1.27610306  1.0
  O  O19  1  0.99408893  1.77019199  1.02458839  1.0
  O  O20  1  1.52019199  1.24408893  1.52458839  1.0
  O  O21  1  1.22980801  1.25439640  1.22389694  1.0
  O  O22  1  1.74560360  0.96950054  0.97541161  1.0
  O  O23  1  1.00439640  1.47980801  0.72389694  1.0
