# generated using pymatgen
data_K2SrIn7
_symmetry_space_group_name_H-M   'P 1'
_cell_length_a   6.59576230
_cell_length_b   6.59576230
_cell_length_c   20.16862601
_cell_angle_alpha   90.00000000
_cell_angle_beta   90.00000000
_cell_angle_gamma   134.38720888
_symmetry_Int_Tables_number   1
_chemical_formula_structural   K2SrIn7
_chemical_formula_sum   'K4 Sr2 In14'
_cell_volume   627.02788516
_cell_formula_units_Z   2
loop_
 _symmetry_equiv_pos_site_id
 _symmetry_equiv_pos_as_xyz
  1  'x, y, z'
loop_
 _atom_site_type_symbol
 _atom_site_label
 _atom_site_symmetry_multiplicity
 _atom_site_fract_x
 _atom_site_fract_y
 _atom_site_fract_z
 _atom_site_occupancy
  K  K0  1  0.34132030  0.65867970  0.94755687  1.0
  K  K1  1  0.34132030  0.65867970  0.55244313  1.0
  K  K2  1  -0.34132030  0.34132030  0.44755687  1.0
  K  K3  1  -0.34132030  0.34132030  0.05244313  1.0
  Sr  Sr4  1  0.16102284  0.83897716  0.75000000  1.0
  Sr  Sr5  1  -0.16102284  0.16102284  0.25000000  1.0
  In  In6  1  0.04400748  0.95599252  0.92826104  1.0
  In  In7  1  0.04400748  0.95599252  0.57173896  1.0
  In  In8  1  -0.04400748  0.04400748  0.42826104  1.0
  In  In9  1  -0.04400748  0.04400748  0.07173896  1.0
  In  In10  1  0.13774832  0.86225168  0.32515392  1.0
  In  In11  1  0.13774832  0.86225168  0.17484608  1.0
  In  In12  1  -0.13774832  0.13774832  0.82515392  1.0
  In  In13  1  -0.13774832  0.13774832  0.67484608  1.0
  In  In14  1  -0.37622585  0.37622585  0.86965186  1.0
  In  In15  1  -0.37622585  0.37622585  0.63034814  1.0
  In  In16  1  0.37622585  0.62377415  0.36965186  1.0
  In  In17  1  0.37622585  0.62377415  0.13034814  1.0
  In  In18  1  0.45742502  0.54257498  0.75000000  1.0
  In  In19  1  -0.45742502  0.45742502  0.25000000  1.0
