# generated using pymatgen
data_CsSBr
_symmetry_space_group_name_H-M   'P 1'
_cell_length_a   4.29149321
_cell_length_b   4.29117200
_cell_length_c   11.52461493
_cell_angle_alpha   90.00000000
_cell_angle_beta   90.00000000
_cell_angle_gamma   90.00000000
_symmetry_Int_Tables_number   1
_chemical_formula_structural   CsSBr
_chemical_formula_sum   'Cs2 S2 Br2'
_cell_volume   212.23195539
_cell_formula_units_Z   2
loop_
 _symmetry_equiv_pos_site_id
 _symmetry_equiv_pos_as_xyz
  1  'x, y, z'
loop_
 _atom_site_type_symbol
 _atom_site_label
 _atom_site_symmetry_multiplicity
 _atom_site_fract_x
 _atom_site_fract_y
 _atom_site_fract_z
 _atom_site_occupancy
  Cs  Cs0  1  0.00000000  0.50000000  0.23804783  1.0
  Cs  Cs1  1  0.50000000  0.00000000  0.76195217  1.0
  S  S2  1  0.00000000  0.00000000  -0.00002183  1.0
  S  S3  1  0.50000000  0.50000000  1.00002183  1.0
  Br  Br4  1  0.00000000  0.00000000  0.49992451  1.0
  Br  Br5  1  0.50000000  0.50000000  0.50007549  1.0
