# generated using pymatgen
data_HfSnRh
_symmetry_space_group_name_H-M   'P 1'
_cell_length_a   7.38617745
_cell_length_b   7.38617745
_cell_length_c   7.22498599
_cell_angle_alpha   90.00000000
_cell_angle_beta   90.00000000
_cell_angle_gamma   120.00000000
_symmetry_Int_Tables_number   1
_chemical_formula_structural   HfSnRh
_chemical_formula_sum   'Hf6 Sn6 Rh6'
_cell_volume   341.35566578
_cell_formula_units_Z   6
loop_
 _symmetry_equiv_pos_site_id
 _symmetry_equiv_pos_as_xyz
  1  'x, y, z'
loop_
 _atom_site_type_symbol
 _atom_site_label
 _atom_site_symmetry_multiplicity
 _atom_site_fract_x
 _atom_site_fract_y
 _atom_site_fract_z
 _atom_site_occupancy
  Hf  Hf0  1  0.98183411  0.59414783  0.25000000  1.0
  Hf  Hf1  1  0.59414783  0.98183411  0.75000000  1.0
  Hf  Hf2  1  0.61231372  0.01816589  0.25000000  1.0
  Hf  Hf3  1  0.40585217  0.38768628  0.25000000  1.0
  Hf  Hf4  1  0.01816589  0.61231372  0.75000000  1.0
  Hf  Hf5  1  0.38768628  0.40585217  0.75000000  1.0
  Sn  Sn6  1  0.72916549  0.72916549  0.50000000  1.0
  Sn  Sn7  1  0.72916549  0.72916549  0.00000000  1.0
  Sn  Sn8  1  0.00000000  0.27083451  0.50000000  1.0
  Sn  Sn9  1  0.00000000  0.27083451  0.00000000  1.0
  Sn  Sn10  1  0.27083451  0.00000000  0.50000000  1.0
  Sn  Sn11  1  0.27083451  0.00000000  0.00000000  1.0
  Rh  Rh12  1  0.33333333  0.66666667  0.46352846  1.0
  Rh  Rh13  1  0.33333333  0.66666667  0.03647154  1.0
  Rh  Rh14  1  0.66666667  0.33333333  0.96352846  1.0
  Rh  Rh15  1  0.66666667  0.33333333  0.53647154  1.0
  Rh  Rh16  1  0.00000000  0.00000000  0.25000000  1.0
  Rh  Rh17  1  0.00000000  0.00000000  0.75000000  1.0
