# generated using pymatgen
data_Fe(MoS2)2
_symmetry_space_group_name_H-M   'P 1'
_cell_length_a   6.74722680
_cell_length_b   6.74722680
_cell_length_c   12.49520695
_cell_angle_alpha   68.31725230
_cell_angle_beta   111.68274770
_cell_angle_gamma   123.57117541
_symmetry_Int_Tables_number   1
_chemical_formula_structural   Fe(MoS2)2
_chemical_formula_sum   'Fe4 Mo8 S16'
_cell_volume   430.28830742
_cell_formula_units_Z   4
loop_
 _symmetry_equiv_pos_site_id
 _symmetry_equiv_pos_as_xyz
  1  'x, y, z'
loop_
 _atom_site_type_symbol
 _atom_site_label
 _atom_site_symmetry_multiplicity
 _atom_site_fract_x
 _atom_site_fract_y
 _atom_site_fract_z
 _atom_site_occupancy
  Fe  Fe0  1  1.87400004  -0.09458133  0.13684967  1.0
  Fe  Fe1  1  1.09458133  -0.87400004  0.63684967  1.0
  Fe  Fe2  1  1.34363989  -0.62489678  0.13685446  1.0
  Fe  Fe3  1  1.62489678  -0.34363989  0.63685446  1.0
  Mo  Mo4  1  0.70609461  0.05682969  0.87556025  1.0
  Mo  Mo5  1  0.94317031  -0.70609461  0.37556025  1.0
  Mo  Mo6  1  1.45928988  -0.19592211  0.37687677  1.0
  Mo  Mo7  1  1.19592211  0.54071012  0.87687677  1.0
  Mo  Mo8  1  1.02532046  0.73740104  0.39813352  1.0
  Mo  Mo9  1  0.26259896  -0.02532046  0.89813352  1.0
  Mo  Mo10  1  0.50942170  0.22756983  0.39679867  1.0
  Mo  Mo11  1  0.77243017  0.49057830  0.89679867  1.0
  S  S12  1  0.87356123  0.87950513  0.50193982  1.0
  S  S13  1  0.12049487  0.12643877  0.00193982  1.0
  S  S14  1  1.59870217  -0.34603535  0.26951584  1.0
  S  S15  1  1.34603535  -0.59870217  0.76951584  1.0
  S  S16  1  1.64496388  0.10895378  0.03593774  1.0
  S  S17  1  0.89104622  -0.64496388  0.53593774  1.0
  S  S18  1  1.14480410  -0.39940092  0.03924404  1.0
  S  S19  1  0.39940092  -0.14480410  0.53924404  1.0
  S  S20  1  1.07756583  -0.32365104  0.23778249  1.0
  S  S21  1  0.32365104  -0.07756583  0.73778249  1.0
  S  S22  1  1.56915089  0.17634862  0.23440659  1.0
  S  S23  1  0.82365138  0.43084911  0.73440659  1.0
  S  S24  1  1.36987882  -0.62242641  0.50414185  1.0
  S  S25  1  0.62242641  -0.36987882  1.00414185  1.0
  S  S26  1  1.09499480  -0.84810583  0.27175829  1.0
  S  S27  1  1.84810583  -0.09499480  0.77175829  1.0
