# generated using pymatgen
data_LiMg2H7Ru
_symmetry_space_group_name_H-M   'P 1'
_cell_length_a   4.69296054
_cell_length_b   4.69296054
_cell_length_c   10.65799238
_cell_angle_alpha   90.00000000
_cell_angle_beta   90.00000000
_cell_angle_gamma   120.00000000
_symmetry_Int_Tables_number   1
_chemical_formula_structural   LiMg2H7Ru
_chemical_formula_sum   'Li2 Mg4 H14 Ru2'
_cell_volume   203.28242927
_cell_formula_units_Z   2
loop_
 _symmetry_equiv_pos_site_id
 _symmetry_equiv_pos_as_xyz
  1  'x, y, z'
loop_
 _atom_site_type_symbol
 _atom_site_label
 _atom_site_symmetry_multiplicity
 _atom_site_fract_x
 _atom_site_fract_y
 _atom_site_fract_z
 _atom_site_occupancy
  Li  Li0  1  0.00000000  0.00000000  0.25000000  1.0
  Li  Li1  1  0.00000000  0.00000000  0.75000000  1.0
  Mg  Mg2  1  0.33333333  0.66666667  0.42466269  1.0
  Mg  Mg3  1  0.33333333  0.66666667  0.07533731  1.0
  Mg  Mg4  1  0.66666667  0.33333333  0.92466269  1.0
  Mg  Mg5  1  0.66666667  0.33333333  0.57533731  1.0
  H  H6  1  0.33333333  0.66666667  0.25000000  1.0
  H  H7  1  0.66666667  0.33333333  0.75000000  1.0
  H  H8  1  0.16590540  0.83409460  0.90427002  1.0
  H  H9  1  0.16590540  0.83409460  0.59572998  1.0
  H  H10  1  0.16590540  0.33181079  0.90427002  1.0
  H  H11  1  0.16590540  0.33181079  0.59572998  1.0
  H  H12  1  0.83409460  0.16590540  0.40427002  1.0
  H  H13  1  0.83409460  0.16590540  0.09572998  1.0
  H  H14  1  0.83409460  0.66818921  0.40427002  1.0
  H  H15  1  0.83409460  0.66818921  0.09572998  1.0
  H  H16  1  0.66818921  0.83409460  0.90427002  1.0
  H  H17  1  0.66818921  0.83409460  0.59572998  1.0
  H  H18  1  0.33181079  0.16590540  0.40427002  1.0
  H  H19  1  0.33181079  0.16590540  0.09572998  1.0
  Ru  Ru20  1  0.00000000  0.00000000  0.50000000  1.0
  Ru  Ru21  1  0.00000000  0.00000000  0.00000000  1.0
