# generated using pymatgen
data_GeTeRh
_symmetry_space_group_name_H-M   'P 1'
_cell_length_a   6.43851356
_cell_length_b   6.47202411
_cell_length_c   11.68487446
_cell_angle_alpha   90.00000000
_cell_angle_beta   90.00000000
_cell_angle_gamma   90.00000000
_symmetry_Int_Tables_number   1
_chemical_formula_structural   GeTeRh
_chemical_formula_sum   'Ge8 Te8 Rh8'
_cell_volume   486.91123078
_cell_formula_units_Z   8
loop_
 _symmetry_equiv_pos_site_id
 _symmetry_equiv_pos_as_xyz
  1  'x, y, z'
loop_
 _atom_site_type_symbol
 _atom_site_label
 _atom_site_symmetry_multiplicity
 _atom_site_fract_x
 _atom_site_fract_y
 _atom_site_fract_z
 _atom_site_occupancy
  Ge  Ge0  1  0.15759138  0.73204401  0.56943149  1.0
  Ge  Ge1  1  0.15759138  0.76795599  0.06943149  1.0
  Ge  Ge2  1  0.65759138  0.73204401  0.93056851  1.0
  Ge  Ge3  1  0.65759138  0.76795599  0.43056851  1.0
  Ge  Ge4  1  0.84240862  0.23204401  0.93056851  1.0
  Ge  Ge5  1  0.84240862  0.26795599  0.43056851  1.0
  Ge  Ge6  1  0.34240862  0.23204401  0.56943149  1.0
  Ge  Ge7  1  0.34240862  0.26795599  0.06943149  1.0
  Te  Te8  1  0.38394439  0.00292842  0.82609393  1.0
  Te  Te9  1  0.38394439  0.49707158  0.32609393  1.0
  Te  Te10  1  0.88394439  0.00292842  0.67390607  1.0
  Te  Te11  1  0.88394439  0.49707158  0.17390607  1.0
  Te  Te12  1  0.61605561  0.50292842  0.67390607  1.0
  Te  Te13  1  0.61605561  0.99707158  0.17390607  1.0
  Te  Te14  1  0.11605561  0.50292842  0.82609393  1.0
  Te  Te15  1  0.11605561  0.99707158  0.32609393  1.0
  Rh  Rh16  1  0.49666316  0.88894747  0.61027541  1.0
  Rh  Rh17  1  0.49666316  0.61105253  0.11027541  1.0
  Rh  Rh18  1  0.99666316  0.88894747  0.88972459  1.0
  Rh  Rh19  1  0.99666316  0.61105253  0.38972459  1.0
  Rh  Rh20  1  0.50333684  0.38894747  0.88972459  1.0
  Rh  Rh21  1  0.50333684  0.11105253  0.38972459  1.0
  Rh  Rh22  1  0.00333684  0.38894747  0.61027541  1.0
  Rh  Rh23  1  0.00333684  0.11105253  0.11027541  1.0
