# generated using pymatgen
data_Cs2P2Pd
_symmetry_space_group_name_H-M   'P 1'
_cell_length_a   8.34634867
_cell_length_b   8.34634867
_cell_length_c   6.23472904
_cell_angle_alpha   90.00000000
_cell_angle_beta   90.00000000
_cell_angle_gamma   130.96013904
_symmetry_Int_Tables_number   1
_chemical_formula_structural   Cs2P2Pd
_chemical_formula_sum   'Cs4 P4 Pd2'
_cell_volume   327.98422535
_cell_formula_units_Z   2
loop_
 _symmetry_equiv_pos_site_id
 _symmetry_equiv_pos_as_xyz
  1  'x, y, z'
loop_
 _atom_site_type_symbol
 _atom_site_label
 _atom_site_symmetry_multiplicity
 _atom_site_fract_x
 _atom_site_fract_y
 _atom_site_fract_z
 _atom_site_occupancy
  Cs  Cs0  1  -0.41973922  0.41973922  0.75000000  1.0
  Cs  Cs1  1  0.41973922  0.58026078  0.25000000  1.0
  Cs  Cs2  1  0.21302678  0.78697322  0.75000000  1.0
  Cs  Cs3  1  -0.21302678  0.21302678  0.25000000  1.0
  P  P4  1  0.05789932  0.25694457  0.75000000  1.0
  P  P5  1  0.25694457  1.05789932  0.25000000  1.0
  P  P6  1  0.74305543  0.94210068  0.75000000  1.0
  P  P7  1  -0.05789932  0.74305543  0.25000000  1.0
  Pd  Pd8  1  0.00000000  0.00000000  0.00000000  1.0
  Pd  Pd9  1  0.00000000  0.00000000  0.50000000  1.0
