# generated using pymatgen
data_Rb5Li6(BO2)11
_symmetry_space_group_name_H-M   'P 1'
_cell_length_a   6.91912166
_cell_length_b   6.91912166
_cell_length_c   14.02001250
_cell_angle_alpha   74.79238758
_cell_angle_beta   105.20761242
_cell_angle_gamma   117.50662956
_symmetry_Int_Tables_number   1
_chemical_formula_structural   Rb5Li6(BO2)11
_chemical_formula_sum   'Rb5 Li6 B11 O22'
_cell_volume   566.60876060
_cell_formula_units_Z   1
loop_
 _symmetry_equiv_pos_site_id
 _symmetry_equiv_pos_as_xyz
  1  'x, y, z'
loop_
 _atom_site_type_symbol
 _atom_site_label
 _atom_site_symmetry_multiplicity
 _atom_site_fract_x
 _atom_site_fract_y
 _atom_site_fract_z
 _atom_site_occupancy
  Rb  Rb0  1  1.20230307  -0.19263524  0.91215626  1.0
  Rb  Rb1  1  0.80736476  0.20230307  0.08784374  1.0
  Rb  Rb2  1  1.63296841  -0.00583096  0.71425471  1.0
  Rb  Rb3  1  0.99416904  0.63296841  0.28574529  1.0
  Rb  Rb4  1  0.66716272  0.66716272  0.50000000  1.0
  Li  Li5  1  1.10221138  -0.73016544  0.90737555  1.0
  Li  Li6  1  0.26983456  0.10221138  0.09262445  1.0
  Li  Li7  1  1.11190805  -0.43205872  0.73403939  1.0
  Li  Li8  1  0.56794128  0.11190805  0.26596061  1.0
  Li  Li9  1  1.18781268  -0.22842343  0.54728596  1.0
  Li  Li10  1  0.77157657  0.18781268  0.45271404  1.0
  B  B11  1  1.36302669  -0.60909526  0.73665174  1.0
  B  B12  1  0.39090474  0.36302669  0.26334826  1.0
  B  B13  1  1.03601438  -0.86763332  0.33636437  1.0
  B  B14  1  0.13236668  0.03601438  0.66363563  1.0
  B  B15  1  1.07916375  -0.62767212  0.57538879  1.0
  B  B16  1  0.37232788  0.07916375  0.42461121  1.0
  B  B17  1  0.72618501  0.41789487  0.81886067  1.0
  B  B18  1  1.41789487  -0.27381499  0.18113933  1.0
  B  B19  1  0.51856133  0.50689805  0.91033882  1.0
  B  B20  1  1.50689805  -0.48143867  0.08966118  1.0
  B  B21  1  0.80659120  0.80659120  -0.00000000  1.0
  O  O22  1  1.14464436  -0.75123895  0.25463375  1.0
  O  O23  1  0.24876105  0.14464436  0.74536625  1.0
  O  O24  1  1.01684077  -0.85678541  0.58533064  1.0
  O  O25  1  0.14321459  0.01684077  0.41466936  1.0
  O  O26  1  1.34361483  -0.53184057  0.82060686  1.0
  O  O27  1  0.46815943  0.34361483  0.17939314  1.0
  O  O28  1  1.25122641  -0.50759870  0.64444144  1.0
  O  O29  1  0.49240130  0.25122641  0.35555856  1.0
  O  O30  1  0.90676554  0.38955714  0.81986060  1.0
  O  O31  1  1.38955714  -0.09323446  0.18013940  1.0
  O  O32  1  0.97285771  0.47250071  0.50148675  1.0
  O  O33  1  1.47250071  -0.02714229  0.49851325  1.0
  O  O34  1  1.12126577  -0.15881207  0.65797236  1.0
  O  O35  1  0.84118793  0.12126577  0.34202764  1.0
  O  O36  1  0.66482876  0.40431049  0.90861750  1.0
  O  O37  1  1.40431049  -0.33517124  0.09138250  1.0
  O  O38  1  0.59374050  0.46055353  0.72842487  1.0
  O  O39  1  1.46055353  -0.40625950  0.27157513  1.0
  O  O40  1  1.65905156  -0.25151170  0.91091593  1.0
  O  O41  1  0.74848830  0.65905156  0.08908407  1.0
  O  O42  1  -0.00477041  -0.00477041  0.00000000  1.0
  O  O43  1  0.40711263  0.40711263  -0.00000000  1.0
