# generated using pymatgen
data_YAl2Pd5
_symmetry_space_group_name_H-M   'P 1'
_cell_length_a   8.03466775
_cell_length_b   8.03466775
_cell_length_c   8.03466775
_cell_angle_alpha   150.14916002
_cell_angle_beta   150.14916002
_cell_angle_gamma   42.72249638
_symmetry_Int_Tables_number   1
_chemical_formula_structural   YAl2Pd5
_chemical_formula_sum   'Y1 Al2 Pd5'
_cell_volume   128.17886100
_cell_formula_units_Z   1
loop_
 _symmetry_equiv_pos_site_id
 _symmetry_equiv_pos_as_xyz
  1  'x, y, z'
loop_
 _atom_site_type_symbol
 _atom_site_label
 _atom_site_symmetry_multiplicity
 _atom_site_fract_x
 _atom_site_fract_y
 _atom_site_fract_z
 _atom_site_occupancy
  Y  Y0  1  0.00000000  0.00000000  0.00000000  1.0
  Al  Al1  1  0.74674052  0.74674052  1.00000000  1.0
  Al  Al2  1  0.25325948  0.25325948  -0.00000000  1.0
  Pd  Pd3  1  0.35538758  0.85538758  0.50000000  1.0
  Pd  Pd4  1  0.64461242  0.14461242  0.50000000  1.0
  Pd  Pd5  1  0.85538758  0.35538758  0.50000000  1.0
  Pd  Pd6  1  0.14461242  0.64461242  0.50000000  1.0
  Pd  Pd7  1  0.50000000  0.50000000  1.00000000  1.0
