# generated using pymatgen
data_K2CO3
_symmetry_space_group_name_H-M   'P 1'
_cell_length_a   5.71699183
_cell_length_b   9.82061001
_cell_length_c   7.15424590
_cell_angle_alpha   90.00000000
_cell_angle_beta   97.18998199
_cell_angle_gamma   90.00000000
_symmetry_Int_Tables_number   1
_chemical_formula_structural   K2CO3
_chemical_formula_sum   'K8 C4 O12'
_cell_volume   398.51197021
_cell_formula_units_Z   4
loop_
 _symmetry_equiv_pos_site_id
 _symmetry_equiv_pos_as_xyz
  1  'x, y, z'
loop_
 _atom_site_type_symbol
 _atom_site_label
 _atom_site_symmetry_multiplicity
 _atom_site_fract_x
 _atom_site_fract_y
 _atom_site_fract_z
 _atom_site_occupancy
  K  K0  1  0.75892131  0.41843895  0.30920904  1.0
  K  K1  1  0.75892131  0.08156105  0.80920904  1.0
  K  K2  1  0.24107869  0.91843895  0.19079096  1.0
  K  K3  1  0.24107869  0.58156105  0.69079096  1.0
  K  K4  1  0.74170005  0.76937706  0.47466458  1.0
  K  K5  1  0.74170005  0.73062294  0.97466458  1.0
  K  K6  1  0.25829995  0.26937706  0.02533542  1.0
  K  K7  1  0.25829995  0.23062294  0.52533542  1.0
  C  C8  1  0.74885531  0.08429827  0.24334736  1.0
  C  C9  1  0.74885531  0.41570173  0.74334736  1.0
  C  C10  1  0.25114469  0.58429827  0.25665264  1.0
  C  C11  1  0.25114469  0.91570173  0.75665264  1.0
  O  O12  1  0.93819391  0.15462744  0.22504703  1.0
  O  O13  1  0.93819391  0.34537256  0.72504703  1.0
  O  O14  1  0.06180609  0.65462744  0.27495297  1.0
  O  O15  1  0.06180609  0.84537256  0.77495297  1.0
  O  O16  1  0.73800518  0.95678689  0.19152039  1.0
  O  O17  1  0.73800518  0.54321311  0.69152039  1.0
  O  O18  1  0.26199482  0.45678689  0.30847961  1.0
  O  O19  1  0.26199482  0.04321311  0.80847961  1.0
  O  O20  1  0.57105447  0.14110704  0.30947417  1.0
  O  O21  1  0.57105447  0.35889296  0.80947417  1.0
  O  O22  1  0.42894553  0.64110704  0.19052583  1.0
  O  O23  1  0.42894553  0.85889296  0.69052583  1.0
