# generated using pymatgen
data_B13N2
_symmetry_space_group_name_H-M   'P 1'
_cell_length_a   5.20613266
_cell_length_b   5.20613266
_cell_length_c   5.20613266
_cell_angle_alpha   63.57049819
_cell_angle_beta   63.57049819
_cell_angle_gamma   63.57049819
_symmetry_Int_Tables_number   1
_chemical_formula_structural   B13N2
_chemical_formula_sum   'B13 N2'
_cell_volume   107.65056827
_cell_formula_units_Z   1
loop_
 _symmetry_equiv_pos_site_id
 _symmetry_equiv_pos_as_xyz
  1  'x, y, z'
loop_
 _atom_site_type_symbol
 _atom_site_label
 _atom_site_symmetry_multiplicity
 _atom_site_fract_x
 _atom_site_fract_y
 _atom_site_fract_z
 _atom_site_occupancy
  B  B0  1  0.50452096  0.50452096  -0.16906231  1.0
  B  B1  1  0.50452096  0.83093769  -0.49547904  1.0
  B  B2  1  0.16906231  0.49547904  -0.50452096  1.0
  B  B3  1  0.49547904  0.16906231  -0.50452096  1.0
  B  B4  1  0.49547904  0.49547904  -0.83093769  1.0
  B  B5  1  0.83093769  0.50452096  -0.49547904  1.0
  B  B6  1  0.30328780  0.30328780  -0.18028301  1.0
  B  B7  1  0.30328780  0.81971699  -0.69671220  1.0
  B  B8  1  1.18028301  -0.30328780  -0.30328780  1.0
  B  B9  1  0.69671220  0.18028301  -0.30328780  1.0
  B  B10  1  0.69671220  -0.30328780  0.18028301  1.0
  B  B11  1  0.81971699  0.30328780  -0.69671220  1.0
  B  B12  1  0.00000000  0.00000000  0.00000000  1.0
  N  N13  1  0.88488064  0.88488064  -0.11511936  1.0
  N  N14  1  1.11511936  1.11511936  0.11511936  1.0
