# generated using pymatgen
data_Ca2V2O9
_symmetry_space_group_name_H-M   'P 1'
_cell_length_a   6.60253597
_cell_length_b   8.61185184
_cell_length_c   8.54554371
_cell_angle_alpha   112.55195598
_cell_angle_beta   112.72649674
_cell_angle_gamma   89.96136480
_symmetry_Int_Tables_number   1
_chemical_formula_structural   Ca2V2O9
_chemical_formula_sum   'Ca4 V4 O18'
_cell_volume   407.65199356
_cell_formula_units_Z   2
loop_
 _symmetry_equiv_pos_site_id
 _symmetry_equiv_pos_as_xyz
  1  'x, y, z'
loop_
 _atom_site_type_symbol
 _atom_site_label
 _atom_site_symmetry_multiplicity
 _atom_site_fract_x
 _atom_site_fract_y
 _atom_site_fract_z
 _atom_site_occupancy
  V  V0  1  0.00034370  0.85499045  0.74159687  1.0
  V  V1  1  -0.00034370  0.14500955  0.25840313  1.0
  V  V2  1  0.24106362  0.35479061  0.74181445  1.0
  V  V3  1  -0.24106362  0.64520939  0.25818555  1.0
  O  O4  1  0.43122146  0.81365711  0.57105025  1.0
  O  O5  1  -0.43122146  0.18634289  0.42894975  1.0
  O  O6  1  -0.64011835  0.68224448  0.42803830  1.0
  O  O7  1  0.64011835  0.31775552  0.57196170  1.0
  O  O8  1  -0.13241557  0.73395084  0.80325015  1.0
  O  O9  1  0.13241557  0.26604916  0.19674985  1.0
  O  O10  1  -0.07518797  0.04714203  0.79047965  1.0
  O  O11  1  0.07518797  0.95285797  0.20952035  1.0
  O  O12  1  0.36486362  0.54731915  0.79126398  1.0
  O  O13  1  -0.36486362  0.45268085  0.20873602  1.0
  O  O14  1  -0.43573461  0.76629141  0.19688606  1.0
  O  O15  1  0.43573461  0.23370859  0.80311394  1.0
  O  O16  1  0.11688860  0.39265169  0.89485239  1.0
  O  O17  1  -0.11688860  0.60734831  0.10514761  1.0
  O  O18  1  0.27762939  0.89319379  0.89460410  1.0
  O  O19  1  -0.27762939  0.10680621  0.10539590  1.0
  O  O20  1  -0.05241291  0.74990488  0.49989573  1.0
  O  O21  1  0.05241291  0.25009512  0.50010427  1.0
  Ca  Ca22  1  -0.82352325  0.70076718  0.04347921  1.0
  Ca  Ca23  1  0.82352325  0.29923282  0.95652079  1.0
  Ca  Ca24  1  0.63247120  0.79906873  0.95612472  1.0
  Ca  Ca25  1  -0.63247120  0.20093127  0.04387528  1.0
