# generated using pymatgen
data_MnAgH8(OF)4
_symmetry_space_group_name_H-M   'P 1'
_cell_length_a   7.03829351
_cell_length_b   7.34879423
_cell_length_c   7.62533370
_cell_angle_alpha   90.00000000
_cell_angle_beta   106.90228193
_cell_angle_gamma   90.00000000
_symmetry_Int_Tables_number   1
_chemical_formula_structural   MnAgH8(OF)4
_chemical_formula_sum   'Mn2 Ag2 H16 O8 F8'
_cell_volume   377.36741060
_cell_formula_units_Z   2
loop_
 _symmetry_equiv_pos_site_id
 _symmetry_equiv_pos_as_xyz
  1  'x, y, z'
loop_
 _atom_site_type_symbol
 _atom_site_label
 _atom_site_symmetry_multiplicity
 _atom_site_fract_x
 _atom_site_fract_y
 _atom_site_fract_z
 _atom_site_occupancy
  Mn  Mn0  1  0.71969007  0.75000000  0.44378259  1.0
  Mn  Mn1  1  0.28030993  0.25000000  0.55621741  1.0
  Ag  Ag2  1  0.96292923  0.75000000  0.94248967  1.0
  Ag  Ag3  1  0.03707077  0.25000000  0.05751033  1.0
  H  H4  1  0.93551175  0.35837763  0.63713543  1.0
  H  H5  1  0.93551175  0.14162237  0.63713543  1.0
  H  H6  1  0.06448825  0.85837763  0.36286457  1.0
  H  H7  1  0.06448825  0.64162237  0.36286457  1.0
  H  H8  1  0.64884594  0.45631827  0.89015937  1.0
  H  H9  1  0.64884594  0.04368173  0.89015937  1.0
  H  H10  1  0.35115406  0.95631827  0.10984063  1.0
  H  H11  1  0.35115406  0.54368173  0.10984063  1.0
  H  H12  1  0.43000050  0.85796251  0.61467490  1.0
  H  H13  1  0.43000050  0.64203749  0.61467490  1.0
  H  H14  1  0.56999950  0.35796251  0.38532510  1.0
  H  H15  1  0.56999950  0.14203749  0.38532510  1.0
  H  H16  1  0.28489021  1.01263041  0.90235200  1.0
  H  H17  1  0.28489021  0.48736959  0.90235200  1.0
  H  H18  1  0.71510979  0.51263041  0.09764800  1.0
  H  H19  1  0.71510979  -0.01263041  0.09764800  1.0
  O  O20  1  0.76614364  0.48479871  0.99332432  1.0
  O  O21  1  0.76614364  0.01520129  0.99332432  1.0
  O  O22  1  0.23385636  0.98479871  0.00667568  1.0
  O  O23  1  0.23385636  0.51520129  0.00667568  1.0
  O  O24  1  0.97878699  0.75000000  0.32610586  1.0
  O  O25  1  0.02121301  0.25000000  0.67389414  1.0
  O  O26  1  0.44828119  0.75000000  0.54495398  1.0
  O  O27  1  0.55171881  0.25000000  0.45504602  1.0
  F  F28  1  0.83607271  0.92679439  0.61230736  1.0
  F  F29  1  0.83607271  0.57320561  0.61230736  1.0
  F  F30  1  0.16392729  0.42679439  0.38769264  1.0
  F  F31  1  0.16392729  0.07320561  0.38769264  1.0
  F  F32  1  0.59914964  0.93469763  0.27180967  1.0
  F  F33  1  0.59914964  0.56530237  0.27180967  1.0
  F  F34  1  0.40085036  0.43469763  0.72819033  1.0
  F  F35  1  0.40085036  0.06530237  0.72819033  1.0
