# generated using pymatgen
data_Sn7Ir5
_symmetry_space_group_name_H-M   'P 1'
_cell_length_a   6.94555023
_cell_length_b   6.94555023
_cell_length_c   6.94555023
_cell_angle_alpha   102.85279729
_cell_angle_beta   102.85279729
_cell_angle_gamma   123.71801743
_symmetry_Int_Tables_number   1
_chemical_formula_structural   Sn7Ir5
_chemical_formula_sum   'Sn7 Ir5'
_cell_volume   245.74983726
_cell_formula_units_Z   1
loop_
 _symmetry_equiv_pos_site_id
 _symmetry_equiv_pos_as_xyz
  1  'x, y, z'
loop_
 _atom_site_type_symbol
 _atom_site_label
 _atom_site_symmetry_multiplicity
 _atom_site_fract_x
 _atom_site_fract_y
 _atom_site_fract_z
 _atom_site_occupancy
  Sn  Sn0  1  0.79526615  0.79526615  0.57014374  1.0
  Sn  Sn1  1  0.79526615  1.22512240  1.00000000  1.0
  Sn  Sn2  1  0.22512240  0.79526615  1.00000000  1.0
  Sn  Sn3  1  0.22512240  0.22512240  0.42985626  1.0
  Sn  Sn4  1  0.91605529  0.41605529  0.50000000  1.0
  Sn  Sn5  1  1.41605529  0.91605529  0.50000000  1.0
  Sn  Sn6  1  0.40088045  0.40088045  -0.00000000  1.0
  Ir  Ir7  1  1.43481639  0.67802063  0.75679576  1.0
  Ir  Ir8  1  0.67802063  0.43481639  0.75679576  1.0
  Ir  Ir9  1  0.67802063  0.92122487  1.24320424  1.0
  Ir  Ir10  1  0.92122487  0.67802063  0.24320424  1.0
  Ir  Ir11  1  0.00014936  0.00014936  -0.00000000  1.0
