# generated using pymatgen
data_Na9ZrP4ClO16
_symmetry_space_group_name_H-M   'P 1'
_cell_length_a   9.17294895
_cell_length_b   5.45333134
_cell_length_c   9.28357453
_cell_angle_alpha   91.61039802
_cell_angle_beta   110.93645369
_cell_angle_gamma   90.17143295
_symmetry_Int_Tables_number   1
_chemical_formula_structural   Na9ZrP4ClO16
_chemical_formula_sum   'Na9 Zr1 P4 Cl1 O16'
_cell_volume   433.51938665
_cell_formula_units_Z   1
loop_
 _symmetry_equiv_pos_site_id
 _symmetry_equiv_pos_as_xyz
  1  'x, y, z'
loop_
 _atom_site_type_symbol
 _atom_site_label
 _atom_site_symmetry_multiplicity
 _atom_site_fract_x
 _atom_site_fract_y
 _atom_site_fract_z
 _atom_site_occupancy
  Na  Na0  1  0.12571660  -0.07415255  0.07045175  1.0
  Na  Na1  1  -0.34178912  -0.00445755  -0.18051086  1.0
  Na  Na2  1  -0.79422311  -0.00568905  -0.55144431  1.0
  Na  Na3  1  -0.07385845  -0.08149565  -0.35804518  1.0
  Na  Na4  1  -0.45426165  -0.09957918  -0.58712728  1.0
  Na  Na5  1  -0.60049169  -0.48143503  -0.38508750  1.0
  Na  Na6  1  -0.00767630  -0.50271296  -0.81195626  1.0
  Na  Na7  1  -0.86897365  -0.58575201  -0.13495958  1.0
  Na  Na8  1  -0.25010602  -0.60624267  -0.54618468  1.0
  Zr  Zr9  1  -0.43285003  -0.53526163  -0.95916871  1.0
  P  P10  1  -0.18902396  -0.01686889  -0.77191763  1.0
  P  P11  1  -0.66565579  -0.06100371  -0.15609034  1.0
  P  P12  1  -0.22732589  -0.49709357  -0.22097160  1.0
  P  P13  1  -0.64836409  -0.56865994  -0.72228082  1.0
  Cl  Cl14  1  -0.92971416  -0.52904282  -0.46325657  1.0
  O  O15  1  -0.83532261  -0.00837645  -0.17480100  1.0
  O  O16  1  -0.21845705  -0.02004482  -0.61877858  1.0
  O  O17  1  -0.01995814  -0.06160364  -0.75958476  1.0
  O  O18  1  -0.62562337  -0.07063238  -0.30354319  1.0
  O  O19  1  -0.29606447  -0.21862108  -0.88732353  1.0
  O  O20  1  -0.68937076  -0.31385074  -0.66955855  1.0
  O  O21  1  -0.62400398  -0.31874576  -0.07656479  1.0
  O  O22  1  -0.29862785  -0.32348732  -0.35926892  1.0
  O  O23  1  -0.08499381  -0.37364929  -0.09426599  1.0
  O  O24  1  -0.49406020  -0.52626118  -0.76461325  1.0
  O  O25  1  -0.36421695  -0.54466961  -0.15471132  1.0
  O  O26  1  -0.78547403  -0.66772260  -0.86471616  1.0
  O  O27  1  -0.59898924  -0.74886645  -0.58754757  1.0
  O  O28  1  -0.23787087  -0.75563960  -0.84507869  1.0
  O  O29  1  -0.18808999  -0.74940085  -0.27717844  1.0
  O  O30  1  -0.55727938  -0.85598103  -0.04491570  1.0
