# generated using pymatgen
data_LiZnAsH2O5
_symmetry_space_group_name_H-M   'P 1'
_cell_length_a   11.34912428
_cell_length_b   8.26625437
_cell_length_c   5.28892192
_cell_angle_alpha   90.00000000
_cell_angle_beta   90.00000000
_cell_angle_gamma   90.00000000
_symmetry_Int_Tables_number   1
_chemical_formula_structural   LiZnAsH2O5
_chemical_formula_sum   'Li4 Zn4 As4 H8 O20'
_cell_volume   496.17887785
_cell_formula_units_Z   4
loop_
 _symmetry_equiv_pos_site_id
 _symmetry_equiv_pos_as_xyz
  1  'x, y, z'
loop_
 _atom_site_type_symbol
 _atom_site_label
 _atom_site_symmetry_multiplicity
 _atom_site_fract_x
 _atom_site_fract_y
 _atom_site_fract_z
 _atom_site_occupancy
  Li  Li0  1  0.31387853  0.84024084  0.36638163  1.0
  Li  Li1  1  0.81387853  0.65975916  0.36638163  1.0
  Li  Li2  1  0.68612147  0.15975916  0.86638163  1.0
  Li  Li3  1  0.18612147  0.34024084  0.86638163  1.0
  Zn  Zn4  1  0.12292797  0.13788771  0.36718359  1.0
  Zn  Zn5  1  0.62292797  0.36211229  0.36718359  1.0
  Zn  Zn6  1  0.87707203  0.86211229  0.86718359  1.0
  Zn  Zn7  1  0.37707203  0.63788771  0.86718359  1.0
  As  As8  1  0.33287479  0.42721852  0.37121817  1.0
  As  As9  1  0.83287479  0.07278148  0.37121817  1.0
  As  As10  1  0.66712521  0.57278148  0.87121817  1.0
  As  As11  1  0.16712521  0.92721852  0.87121817  1.0
  H  H12  1  0.51337603  0.00811595  0.73108021  1.0
  H  H13  1  1.01337603  0.49188405  0.73108021  1.0
  H  H14  1  0.48662397  0.99188405  0.23108021  1.0
  H  H15  1  -0.01337603  0.50811595  0.23108021  1.0
  H  H16  1  0.43465616  0.11553725  0.41777665  1.0
  H  H17  1  0.93465616  0.38446275  0.41777665  1.0
  H  H18  1  0.56534384  0.88446275  0.91777665  1.0
  H  H19  1  0.06534384  0.61553725  0.91777665  1.0
  O  O20  1  0.45751113  0.31568792  0.45037919  1.0
  O  O21  1  0.95751113  0.18431208  0.45037919  1.0
  O  O22  1  0.54248887  0.68431208  0.95037919  1.0
  O  O23  1  0.04248887  0.81568792  0.95037919  1.0
  O  O24  1  0.44426168  0.99632000  0.39357236  1.0
  O  O25  1  0.94426168  0.50368000  0.39357236  1.0
  O  O26  1  0.55573832  0.00368000  0.89357236  1.0
  O  O27  1  0.05573832  0.49632000  0.89357236  1.0
  O  O28  1  0.31588797  0.44506535  0.04646432  1.0
  O  O29  1  0.81588797  0.05493465  0.04646432  1.0
  O  O30  1  0.68411203  0.55493465  0.54646432  1.0
  O  O31  1  0.18411203  0.94506535  0.54646432  1.0
  O  O32  1  0.21282390  0.32657793  0.49979661  1.0
  O  O33  1  0.71282390  0.17342207  0.49979661  1.0
  O  O34  1  0.78717610  0.67342207  -0.00020339  1.0
  O  O35  1  0.28717610  0.82657793  -0.00020339  1.0
  O  O36  1  0.15703268  0.11986818  0.00314726  1.0
  O  O37  1  0.65703268  0.38013182  0.00314726  1.0
  O  O38  1  0.84296732  0.88013182  0.50314726  1.0
  O  O39  1  0.34296732  0.61986818  0.50314726  1.0
