# generated using pymatgen
data_EuTiO3
_symmetry_space_group_name_H-M   'P 1'
_cell_length_a   5.55673342
_cell_length_b   5.55673342
_cell_length_c   5.55673342
_cell_angle_alpha   120.61037744
_cell_angle_beta   120.61037744
_cell_angle_gamma   88.94600698
_symmetry_Int_Tables_number   1
_chemical_formula_structural   EuTiO3
_chemical_formula_sum   'Eu2 Ti2 O6'
_cell_volume   120.18179005
_cell_formula_units_Z   2
loop_
 _symmetry_equiv_pos_site_id
 _symmetry_equiv_pos_as_xyz
  1  'x, y, z'
loop_
 _atom_site_type_symbol
 _atom_site_label
 _atom_site_symmetry_multiplicity
 _atom_site_fract_x
 _atom_site_fract_y
 _atom_site_fract_z
 _atom_site_occupancy
  Eu  Eu0  1  0.25000000  0.75000000  0.50000000  1.0
  Eu  Eu1  1  0.75000000  0.25000000  0.50000000  1.0
  Ti  Ti2  1  0.00000000  0.00000000  0.00000000  1.0
  Ti  Ti3  1  0.50000000  0.50000000  1.00000000  1.0
  O  O4  1  0.29658794  0.79658794  1.09317587  1.0
  O  O5  1  0.20341206  0.29658794  0.50000000  1.0
  O  O6  1  0.79658794  0.70341206  1.50000000  1.0
  O  O7  1  0.70341206  0.20341206  0.90682413  1.0
  O  O8  1  0.75000000  0.75000000  1.00000000  1.0
  O  O9  1  0.25000000  0.25000000  0.00000000  1.0
