# generated using pymatgen
data_YFe(BO3)2
_symmetry_space_group_name_H-M   'P 1'
_cell_length_a   5.95153376
_cell_length_b   5.95153376
_cell_length_c   5.95153376
_cell_angle_alpha   47.95907814
_cell_angle_beta   47.95907814
_cell_angle_gamma   47.95907813
_symmetry_Int_Tables_number   1
_chemical_formula_structural   YFe(BO3)2
_chemical_formula_sum   'Y1 Fe1 B2 O6'
_cell_volume   106.51023072
_cell_formula_units_Z   1
loop_
 _symmetry_equiv_pos_site_id
 _symmetry_equiv_pos_as_xyz
  1  'x, y, z'
loop_
 _atom_site_type_symbol
 _atom_site_label
 _atom_site_symmetry_multiplicity
 _atom_site_fract_x
 _atom_site_fract_y
 _atom_site_fract_z
 _atom_site_occupancy
  Y  Y0  1  0.00000000  0.00000000  0.00000000  1.0
  Fe  Fe1  1  0.50000000  0.50000000  -0.50000000  1.0
  B  B2  1  0.24156860  0.24156860  0.24156860  1.0
  B  B3  1  0.75843140  -0.24156860  -0.24156860  1.0
  O  O4  1  0.26938669  0.94628521  -0.48313832  1.0
  O  O5  1  0.48313832  -0.26938669  0.05371479  1.0
  O  O6  1  1.05371479  -0.51686168  -0.26938669  1.0
  O  O7  1  0.73061331  0.05371479  -0.51686168  1.0
  O  O8  1  0.51686168  0.26938669  -0.05371479  1.0
  O  O9  1  0.94628521  0.51686168  -0.73061331  1.0
