# generated using pymatgen
data_K4Eu(PS4)2
_symmetry_space_group_name_H-M   'P 1'
_cell_length_a   11.41315040
_cell_length_b   11.41315040
_cell_length_c   11.41315040
_cell_angle_alpha   134.15681997
_cell_angle_beta   70.81265381
_cell_angle_gamma   129.20030705
_symmetry_Int_Tables_number   1
_chemical_formula_structural   K4Eu(PS4)2
_chemical_formula_sum   'K8 Eu2 P4 S16'
_cell_volume   809.71571897
_cell_formula_units_Z   2
loop_
 _symmetry_equiv_pos_site_id
 _symmetry_equiv_pos_as_xyz
  1  'x, y, z'
loop_
 _atom_site_type_symbol
 _atom_site_label
 _atom_site_symmetry_multiplicity
 _atom_site_fract_x
 _atom_site_fract_y
 _atom_site_fract_z
 _atom_site_occupancy
  K  K0  1  1.41690110  1.12049772  1.53739882  1.0
  K  K1  1  1.08309890  0.62049772  0.70359661  1.0
  K  K2  1  0.91690110  0.37950228  1.29640339  1.0
  K  K3  1  0.58309890  0.87950228  1.46260118  1.0
  K  K4  1  1.01292556  0.25000000  0.76292556  1.0
  K  K5  1  1.51292556  0.75000000  0.76292556  1.0
  K  K6  1  0.98707444  0.75000000  1.23707444  1.0
  K  K7  1  1.48707444  1.25000000  1.23707444  1.0
  Eu  Eu8  1  0.25000000  0.25000000  0.00000000  1.0
  Eu  Eu9  1  0.75000000  0.75000000  0.00000000  1.0
  P  P10  1  1.12574465  1.20305335  1.32879800  1.0
  P  P11  1  1.37425535  0.70305335  1.07730869  1.0
  P  P12  1  0.62574465  0.29694665  0.92269131  1.0
  P  P13  1  0.87425535  0.79694665  1.67120200  1.0
  S  S14  1  1.09359871  0.87844292  1.63095441  1.0
  S  S15  1  1.75251149  1.53735570  1.63095441  1.0
  S  S16  1  0.74748851  0.37844292  0.78484421  1.0
  S  S17  1  1.40640129  1.03735570  0.78484421  1.0
  S  S18  1  1.59359871  0.96264430  1.21515579  1.0
  S  S19  1  1.25251149  0.62155708  1.21515579  1.0
  S  S20  1  1.24748851  1.46264430  1.36904559  1.0
  S  S21  1  0.90640129  1.12155708  1.36904559  1.0
  S  S22  1  1.39660775  1.47353523  1.87014298  1.0
  S  S23  1  1.10339225  0.97353523  1.07692748  1.0
  S  S24  1  0.89660775  0.02646477  0.92307252  1.0
  S  S25  1  0.60339225  0.52646477  1.12985702  1.0
  S  S26  1  1.23416897  1.24653562  1.48070459  1.0
  S  S27  1  1.26583103  0.74653562  1.01236665  1.0
  S  S28  1  0.73416897  0.25346438  0.98763335  1.0
  S  S29  1  0.76583103  0.75346438  1.51929541  1.0
