# generated using pymatgen
data_H3S
_symmetry_space_group_name_H-M   'P 1'
_cell_length_a   3.50183327
_cell_length_b   3.50183327
_cell_length_c   3.50183327
_cell_angle_alpha   109.62020609
_cell_angle_beta   109.62020609
_cell_angle_gamma   109.62020609
_symmetry_Int_Tables_number   1
_chemical_formula_structural   H3S
_chemical_formula_sum   'H3 S1'
_cell_volume   32.87347270
_cell_formula_units_Z   1
loop_
 _symmetry_equiv_pos_site_id
 _symmetry_equiv_pos_as_xyz
  1  'x, y, z'
loop_
 _atom_site_type_symbol
 _atom_site_label
 _atom_site_symmetry_multiplicity
 _atom_site_fract_x
 _atom_site_fract_y
 _atom_site_fract_z
 _atom_site_occupancy
  H  H0  1  0.78377357  0.13233426  0.13233426  1.0
  H  H1  1  0.13233426  0.78377357  -0.86766574  1.0
  H  H2  1  0.13233426  0.13233426  -0.21622643  1.0
  S  S3  1  0.76037790  0.76037790  -0.23962210  1.0
