# generated using pymatgen
data_SrCa(CO3)2
_symmetry_space_group_name_H-M   'P 1'
_cell_length_a   5.31366426
_cell_length_b   6.46936778
_cell_length_c   7.41862767
_cell_angle_alpha   90.00000000
_cell_angle_beta   90.00000000
_cell_angle_gamma   90.00000000
_symmetry_Int_Tables_number   1
_chemical_formula_structural   SrCa(CO3)2
_chemical_formula_sum   'Sr2 Ca2 C4 O12'
_cell_volume   255.02310331
_cell_formula_units_Z   2
loop_
 _symmetry_equiv_pos_site_id
 _symmetry_equiv_pos_as_xyz
  1  'x, y, z'
loop_
 _atom_site_type_symbol
 _atom_site_label
 _atom_site_symmetry_multiplicity
 _atom_site_fract_x
 _atom_site_fract_y
 _atom_site_fract_z
 _atom_site_occupancy
  Sr  Sr0  1  0.00000000  0.88829456  0.75291077  1.0
  Sr  Sr1  1  0.00000000  0.11170544  0.25291077  1.0
  Ca  Ca2  1  0.50000000  0.52259164  0.05219618  1.0
  Ca  Ca3  1  0.50000000  0.47740836  0.55219618  1.0
  C  C4  1  0.00000000  0.58648146  0.33965539  1.0
  C  C5  1  0.00000000  0.41351854  0.83965539  1.0
  C  C6  1  0.50000000  0.96531873  0.07529666  1.0
  C  C7  1  0.50000000  0.03468127  0.57529666  1.0
  O  O8  1  0.21024395  0.50836342  0.79879916  1.0
  O  O9  1  0.78975605  0.50836342  0.79879916  1.0
  O  O10  1  0.78975605  0.49163658  0.29879916  1.0
  O  O11  1  0.21024395  0.49163658  0.29879916  1.0
  O  O12  1  0.28953054  0.86590587  0.05091217  1.0
  O  O13  1  0.71046946  0.86590587  0.05091217  1.0
  O  O14  1  0.71046946  0.13409413  0.55091217  1.0
  O  O15  1  0.28953054  0.13409413  0.55091217  1.0
  O  O16  1  0.00000000  0.75822028  0.42242622  1.0
  O  O17  1  0.00000000  0.24177972  0.92242622  1.0
  O  O18  1  0.50000000  0.84622263  0.63209212  1.0
  O  O19  1  0.50000000  0.15377737  0.13209212  1.0
