# generated using pymatgen
data_ReSe2
_symmetry_space_group_name_H-M   'P 1'
_cell_length_a   3.45937342
_cell_length_b   3.45937342
_cell_length_c   27.56048984
_cell_angle_alpha   90.00000000
_cell_angle_beta   90.00000000
_cell_angle_gamma   120.00000000
_symmetry_Int_Tables_number   1
_chemical_formula_structural   ReSe2
_chemical_formula_sum   'Re4 Se8'
_cell_volume   285.63567687
_cell_formula_units_Z   4
loop_
 _symmetry_equiv_pos_site_id
 _symmetry_equiv_pos_as_xyz
  1  'x, y, z'
loop_
 _atom_site_type_symbol
 _atom_site_label
 _atom_site_symmetry_multiplicity
 _atom_site_fract_x
 _atom_site_fract_y
 _atom_site_fract_z
 _atom_site_occupancy
  Re  Re0  1  0.00000000  0.00000000  0.00000000  1.0
  Re  Re1  1  0.33333333  0.66666667  0.50000000  1.0
  Re  Re2  1  0.00000000  0.00000000  0.74789685  1.0
  Re  Re3  1  0.00000000  0.00000000  0.25210315  1.0
  Se  Se4  1  0.33333333  0.66666667  0.94405290  1.0
  Se  Se5  1  0.33333333  0.66666667  0.05594710  1.0
  Se  Se6  1  0.66666667  0.33333333  0.69193178  1.0
  Se  Se7  1  0.66666667  0.33333333  0.30806822  1.0
  Se  Se8  1  0.66666667  0.33333333  0.80383964  1.0
  Se  Se9  1  0.66666667  0.33333333  0.19616036  1.0
  Se  Se10  1  0.00000000  0.00000000  0.55596600  1.0
  Se  Se11  1  0.00000000  0.00000000  0.44403400  1.0
