# generated using pymatgen
data_In2O3
_symmetry_space_group_name_H-M   'P 1'
_cell_length_a   5.88490536
_cell_length_b   5.88490536
_cell_length_c   5.88490536
_cell_angle_alpha   56.58635504
_cell_angle_beta   56.58635504
_cell_angle_gamma   56.58635504
_symmetry_Int_Tables_number   1
_chemical_formula_structural   In2O3
_chemical_formula_sum   'In4 O6'
_cell_volume   132.74701860
_cell_formula_units_Z   2
loop_
 _symmetry_equiv_pos_site_id
 _symmetry_equiv_pos_as_xyz
  1  'x, y, z'
loop_
 _atom_site_type_symbol
 _atom_site_label
 _atom_site_symmetry_multiplicity
 _atom_site_fract_x
 _atom_site_fract_y
 _atom_site_fract_z
 _atom_site_occupancy
  In  In0  1  0.85718635  -0.14281365  -0.14281365  1.0
  In  In1  1  0.35718635  0.35718635  0.35718635  1.0
  In  In2  1  0.64281365  0.64281365  -0.35718635  1.0
  In  In3  1  1.14281365  0.14281365  0.14281365  1.0
  O  O4  1  0.45363974  0.75000000  0.04636026  1.0
  O  O5  1  0.95363974  -0.45363974  0.25000000  1.0
  O  O6  1  0.25000000  0.95363974  -0.45363974  1.0
  O  O7  1  0.75000000  1.04636026  -0.54636026  1.0
  O  O8  1  0.54636026  0.25000000  -0.04636026  1.0
  O  O9  1  1.04636026  0.45363974  -0.25000000  1.0
