# generated using pymatgen
data_NbCoSi
_symmetry_space_group_name_H-M   'P 1'
_cell_length_a   6.23767160
_cell_length_b   3.65459917
_cell_length_c   7.04959034
_cell_angle_alpha   90.00000000
_cell_angle_beta   90.00000000
_cell_angle_gamma   90.00000000
_symmetry_Int_Tables_number   1
_chemical_formula_structural   NbCoSi
_chemical_formula_sum   'Nb4 Co4 Si4'
_cell_volume   160.70379713
_cell_formula_units_Z   4
loop_
 _symmetry_equiv_pos_site_id
 _symmetry_equiv_pos_as_xyz
  1  'x, y, z'
loop_
 _atom_site_type_symbol
 _atom_site_label
 _atom_site_symmetry_multiplicity
 _atom_site_fract_x
 _atom_site_fract_y
 _atom_site_fract_z
 _atom_site_occupancy
  Nb  Nb0  1  0.97939321  0.75000000  0.67979964  1.0
  Nb  Nb1  1  0.47939321  0.75000000  0.82020036  1.0
  Nb  Nb2  1  0.02060679  0.25000000  0.32020036  1.0
  Nb  Nb3  1  0.52060679  0.25000000  0.17979964  1.0
  Co  Co4  1  0.85908515  0.75000000  0.06292710  1.0
  Co  Co5  1  0.35908515  0.75000000  0.43707290  1.0
  Co  Co6  1  0.14091485  0.25000000  0.93707290  1.0
  Co  Co7  1  0.64091485  0.25000000  0.56292710  1.0
  Si  Si8  1  0.72498037  0.75000000  0.38212834  1.0
  Si  Si9  1  0.22498037  0.75000000  0.11787166  1.0
  Si  Si10  1  0.27501963  0.25000000  0.61787166  1.0
  Si  Si11  1  0.77501963  0.25000000  0.88212834  1.0
