# generated using pymatgen
data_Co7(AsO6)2
_symmetry_space_group_name_H-M   'P 1'
_cell_length_a   10.48026178
_cell_length_b   10.48026178
_cell_length_c   10.48026178
_cell_angle_alpha   58.82835619
_cell_angle_beta   147.34984889
_cell_angle_gamma   132.50255865
_symmetry_Int_Tables_number   1
_chemical_formula_structural   Co7(AsO6)2
_chemical_formula_sum   'Co14 As4 O24'
_cell_volume   454.03660171
_cell_formula_units_Z   2
loop_
 _symmetry_equiv_pos_site_id
 _symmetry_equiv_pos_as_xyz
  1  'x, y, z'
loop_
 _atom_site_type_symbol
 _atom_site_label
 _atom_site_symmetry_multiplicity
 _atom_site_fract_x
 _atom_site_fract_y
 _atom_site_fract_z
 _atom_site_occupancy
  Co  Co0  1  0.62755091  0.70119229  0.57364138  1.0
  Co  Co1  1  1.37244909  0.94609047  1.07364138  1.0
  Co  Co2  1  1.37244909  1.29880771  1.42635862  1.0
  Co  Co3  1  0.62755091  1.05390953  0.92635862  1.0
  Co  Co4  1  0.98866630  1.15203981  0.66337351  1.0
  Co  Co5  1  1.01133370  0.67470721  1.16337351  1.0
  Co  Co6  1  1.01133370  0.84796019  1.33662649  1.0
  Co  Co7  1  0.98866630  1.32529279  0.83662649  1.0
  Co  Co8  1  0.50000000  0.34119643  0.84119643  1.0
  Co  Co9  1  0.00000000  0.34119643  0.34119643  1.0
  Co  Co10  1  0.00000000  0.65880357  0.65880357  1.0
  Co  Co11  1  0.50000000  0.65880357  1.15880357  1.0
  Co  Co12  1  0.00000000  0.50000000  0.50000000  1.0
  Co  Co13  1  0.50000000  0.50000000  1.00000000  1.0
  As  As14  1  0.62508624  0.87508624  0.75000000  1.0
  As  As15  1  1.37491376  1.12491376  1.25000000  1.0
  As  As16  1  1.00000000  1.00000000  0.50000000  1.0
  As  As17  1  1.00000000  0.50000000  1.00000000  1.0
  O  O18  1  0.77514561  1.07563169  0.35301910  1.0
  O  O19  1  0.77738742  0.57787350  0.85301910  1.0
  O  O20  1  0.77738742  0.92436831  1.19951392  1.0
  O  O21  1  0.77514561  1.42212650  0.69951392  1.0
  O  O22  1  1.22261258  1.07563169  0.80048608  1.0
  O  O23  1  1.22485439  0.57787350  1.30048608  1.0
  O  O24  1  1.22485439  0.92436831  1.64698090  1.0
  O  O25  1  1.22261258  1.42212650  1.14698090  1.0
  O  O26  1  1.74208400  1.24428287  1.49780113  1.0
  O  O27  1  0.75351827  0.75571713  0.99780113  1.0
  O  O28  1  1.24648173  1.24428287  1.00219887  1.0
  O  O29  1  0.25791600  0.75571713  0.50219887  1.0
  O  O30  1  0.74235969  0.91213383  0.66977414  1.0
  O  O31  1  1.25764031  0.92741445  1.16977414  1.0
  O  O32  1  1.25764031  1.08786617  1.33022586  1.0
  O  O33  1  0.74235969  1.07258555  0.83022586  1.0
  O  O34  1  0.77374489  0.28346867  1.00972378  1.0
  O  O35  1  1.22625511  1.23597889  0.50972378  1.0
  O  O36  1  1.22625511  1.71653133  0.99027622  1.0
  O  O37  1  0.77374489  0.76402111  1.49027622  1.0
  O  O38  1  0.77440411  0.44534331  1.17093920  1.0
  O  O39  1  1.22559589  1.39653509  0.67093920  1.0
  O  O40  1  1.22559589  1.55465669  0.82906080  1.0
  O  O41  1  0.77440411  0.60346491  1.32906080  1.0
