# generated using pymatgen
data_Na4Fe2O5
_symmetry_space_group_name_H-M   'P 1'
_cell_length_a   9.29219034
_cell_length_b   5.75721863
_cell_length_c   13.03498958
_cell_angle_alpha   90.00000000
_cell_angle_beta   118.14872506
_cell_angle_gamma   90.00000000
_symmetry_Int_Tables_number   1
_chemical_formula_structural   Na4Fe2O5
_chemical_formula_sum   'Na16 Fe8 O20'
_cell_volume   614.85845771
_cell_formula_units_Z   4
loop_
 _symmetry_equiv_pos_site_id
 _symmetry_equiv_pos_as_xyz
  1  'x, y, z'
loop_
 _atom_site_type_symbol
 _atom_site_label
 _atom_site_symmetry_multiplicity
 _atom_site_fract_x
 _atom_site_fract_y
 _atom_site_fract_z
 _atom_site_occupancy
  Na  Na0  1  0.89310472  0.88306509  0.37503611  1.0
  Na  Na1  1  0.89310472  0.61693491  0.87503611  1.0
  Na  Na2  1  0.10689528  0.38306509  0.12496389  1.0
  Na  Na3  1  0.10689528  0.11693491  0.62496389  1.0
  Na  Na4  1  0.79615415  0.41034632  0.46017420  1.0
  Na  Na5  1  0.79615415  0.08965368  0.96017420  1.0
  Na  Na6  1  0.20384585  0.91034632  0.03982580  1.0
  Na  Na7  1  0.20384585  0.58965368  0.53982580  1.0
  Na  Na8  1  0.62813613  0.12227555  0.13613775  1.0
  Na  Na9  1  0.62813613  0.37772445  0.63613775  1.0
  Na  Na10  1  0.37186387  0.62227555  0.36386225  1.0
  Na  Na11  1  0.37186387  0.87772445  0.86386225  1.0
  Na  Na12  1  0.30302313  0.07193880  0.46460720  1.0
  Na  Na13  1  0.30302313  0.42806120  0.96460720  1.0
  Na  Na14  1  0.69697687  0.57193880  0.03539280  1.0
  Na  Na15  1  0.69697687  0.92806120  0.53539280  1.0
  Fe  Fe16  1  0.95893457  0.38485581  0.30038018  1.0
  Fe  Fe17  1  0.95893457  0.11514419  0.80038018  1.0
  Fe  Fe18  1  0.04106543  0.88485581  0.19961982  1.0
  Fe  Fe19  1  0.04106543  0.61514419  0.69961982  1.0
  Fe  Fe20  1  0.45489156  0.15715175  0.29687780  1.0
  Fe  Fe21  1  0.45489156  0.34284825  0.79687780  1.0
  Fe  Fe22  1  0.54510844  0.65715175  0.20312220  1.0
  Fe  Fe23  1  0.54510844  0.84284825  0.70312220  1.0
  O  O24  1  0.94892304  0.73843030  0.05776816  1.0
  O  O25  1  0.94892304  0.76156970  0.55776816  1.0
  O  O26  1  0.05107696  0.23843030  0.44223184  1.0
  O  O27  1  0.05107696  0.26156970  0.94223184  1.0
  O  O28  1  0.91608123  0.16978697  0.17446447  1.0
  O  O29  1  0.91608123  0.33021303  0.67446447  1.0
  O  O30  1  0.08391877  0.66978697  0.32553553  1.0
  O  O31  1  0.08391877  0.83021303  0.82553553  1.0
  O  O32  1  0.74360864  0.48592347  0.26009778  1.0
  O  O33  1  0.74360864  0.01407653  0.76009778  1.0
  O  O34  1  0.25639136  0.98592347  0.23990222  1.0
  O  O35  1  0.25639136  0.51407653  0.73990222  1.0
  O  O36  1  0.53013490  0.26127128  0.44666491  1.0
  O  O37  1  0.53013490  0.23872872  0.94666491  1.0
  O  O38  1  0.46986510  0.76127128  0.05333509  1.0
  O  O39  1  0.46986510  0.73872872  0.55333509  1.0
  O  O40  1  0.38857151  0.43021207  0.19692212  1.0
  O  O41  1  0.38857151  0.06978793  0.69692212  1.0
  O  O42  1  0.61142849  0.93021207  0.30307788  1.0
  O  O43  1  0.61142849  0.56978793  0.80307788  1.0
