# generated using pymatgen
data_Na5La(WO4)4
_symmetry_space_group_name_H-M   'P 1'
_cell_length_a   10.18595058
_cell_length_b   10.18595058
_cell_length_c   10.18595058
_cell_angle_alpha   109.19492691
_cell_angle_beta   109.19492691
_cell_angle_gamma   110.02523261
_symmetry_Int_Tables_number   1
_chemical_formula_structural   Na5La(WO4)4
_chemical_formula_sum   'Na10 La2 W8 O32'
_cell_volume   813.49017943
_cell_formula_units_Z   2
loop_
 _symmetry_equiv_pos_site_id
 _symmetry_equiv_pos_as_xyz
  1  'x, y, z'
loop_
 _atom_site_type_symbol
 _atom_site_label
 _atom_site_symmetry_multiplicity
 _atom_site_fract_x
 _atom_site_fract_y
 _atom_site_fract_z
 _atom_site_occupancy
  Na  Na0  1  0.50000000  0.50000000  -0.00000000  1.0
  Na  Na1  1  0.25000000  0.75000000  0.50000000  1.0
  Na  Na2  1  0.33853594  1.00980121  0.91788265  1.0
  Na  Na3  1  1.09191856  0.42065329  1.08211735  1.0
  Na  Na4  1  0.75980121  1.34191856  1.17126527  1.0
  Na  Na5  1  1.17065329  1.58853594  0.82873473  1.0
  Na  Na6  1  1.41146406  1.24019879  1.58211735  1.0
  Na  Na7  1  0.65808144  0.82934671  0.41788265  1.0
  Na  Na8  1  0.99019879  0.90808144  1.32873473  1.0
  Na  Na9  1  1.57934671  1.66146406  1.67126527  1.0
  La  La10  1  1.00000000  1.00000000  1.00000000  1.0
  La  La11  1  0.75000000  0.25000000  0.50000000  1.0
  W  W12  1  0.44822231  0.36518497  0.27634525  1.0
  W  W13  1  1.08883972  1.17187706  1.72365475  1.0
  W  W14  1  1.11518497  1.33883972  1.41696266  1.0
  W  W15  1  0.92187706  0.69822231  1.58303734  1.0
  W  W16  1  1.30177769  0.88481503  1.22365475  1.0
  W  W17  1  0.66116028  1.07812294  0.77634525  1.0
  W  W18  1  0.63481503  0.91116028  1.08303734  1.0
  W  W19  1  0.82812294  1.55177769  0.91696266  1.0
  O  O20  1  0.54019259  0.57712221  0.39584755  1.0
  O  O21  1  1.18127465  1.14434504  1.60415245  1.0
  O  O22  1  1.32712221  1.43127465  1.53692961  1.0
  O  O23  1  0.89434504  0.79019259  1.46307039  1.0
  O  O24  1  1.20980741  0.67287779  1.10415245  1.0
  O  O25  1  0.56872535  1.10565496  0.89584755  1.0
  O  O26  1  0.42287779  0.81872535  0.96307039  1.0
  O  O27  1  0.85565496  1.45980741  1.03692961  1.0
  O  O28  1  0.50306565  1.32778089  1.12308593  1.0
  O  O29  1  1.20469495  0.37997972  0.87691407  1.0
  O  O30  1  1.07778089  0.45469495  1.32471523  1.0
  O  O31  1  0.12997972  0.75306565  0.67528477  1.0
  O  O32  1  1.24693435  0.92221911  1.37691407  1.0
  O  O33  1  0.54530505  0.87002028  0.62308593  1.0
  O  O34  1  0.67221911  0.79530505  0.17528477  1.0
  O  O35  1  1.62002028  1.49693435  1.82471523  1.0
  O  O36  1  1.23269347  1.28531995  1.17481666  1.0
  O  O37  1  1.11050329  1.05787681  1.82518334  1.0
  O  O38  1  1.03531995  1.36050329  0.55262648  1.0
  O  O39  1  0.80787681  0.48269347  0.44737352  1.0
  O  O40  1  0.51730653  0.96468005  1.32518334  1.0
  O  O41  1  0.63949671  1.19212319  0.67481666  1.0
  O  O42  1  1.71468005  0.88949671  0.94737352  1.0
  O  O43  1  0.94212319  0.76730653  1.05262648  1.0
  O  O44  1  1.50495220  1.27671045  1.39928730  1.0
  O  O45  1  0.87742315  1.10566490  1.60071270  1.0
  O  O46  1  1.02671045  1.12742315  1.27175825  1.0
  O  O47  1  0.85566490  0.75495220  0.72824175  1.0
  O  O48  1  0.24504780  0.97328955  1.10071270  1.0
  O  O49  1  0.87257685  1.14433510  0.89928730  1.0
  O  O50  1  0.72328955  1.12257685  1.22824175  1.0
  O  O51  1  0.89433510  0.49504780  0.77175825  1.0
