# generated using pymatgen
data_HfGe2Ru
_symmetry_space_group_name_H-M   'P 1'
_cell_length_a   9.28914644
_cell_length_b   10.43394888
_cell_length_c   8.11897264
_cell_angle_alpha   90.00000000
_cell_angle_beta   90.00000000
_cell_angle_gamma   90.00000000
_symmetry_Int_Tables_number   1
_chemical_formula_structural   HfGe2Ru
_chemical_formula_sum   'Hf12 Ge24 Ru12'
_cell_volume   786.91095658
_cell_formula_units_Z   12
loop_
 _symmetry_equiv_pos_site_id
 _symmetry_equiv_pos_as_xyz
  1  'x, y, z'
loop_
 _atom_site_type_symbol
 _atom_site_label
 _atom_site_symmetry_multiplicity
 _atom_site_fract_x
 _atom_site_fract_y
 _atom_site_fract_z
 _atom_site_occupancy
  Hf  Hf0  1  0.17547142  0.55030304  0.76134943  1.0
  Hf  Hf1  1  0.17547142  0.55030304  0.23865057  1.0
  Hf  Hf2  1  0.67547142  0.94969696  0.76134943  1.0
  Hf  Hf3  1  0.67547142  0.94969696  0.23865057  1.0
  Hf  Hf4  1  0.82452858  0.44969696  0.76134943  1.0
  Hf  Hf5  1  0.82452858  0.44969696  0.23865057  1.0
  Hf  Hf6  1  0.32452858  0.05030304  0.76134943  1.0
  Hf  Hf7  1  0.32452858  0.05030304  0.23865057  1.0
  Hf  Hf8  1  0.16391695  0.82078451  0.00000000  1.0
  Hf  Hf9  1  0.66391695  0.67921549  0.00000000  1.0
  Hf  Hf10  1  0.83608305  0.17921549  0.00000000  1.0
  Hf  Hf11  1  0.33608305  0.32078451  0.00000000  1.0
  Ge  Ge12  1  0.15842169  0.81921662  0.65299281  1.0
  Ge  Ge13  1  0.15842169  0.81921662  0.34700719  1.0
  Ge  Ge14  1  0.65842169  0.68078338  0.65299281  1.0
  Ge  Ge15  1  0.65842169  0.68078338  0.34700719  1.0
  Ge  Ge16  1  0.84157831  0.18078338  0.65299281  1.0
  Ge  Ge17  1  0.84157831  0.18078338  0.34700719  1.0
  Ge  Ge18  1  0.34157831  0.31921662  0.65299281  1.0
  Ge  Ge19  1  0.34157831  0.31921662  0.34700719  1.0
  Ge  Ge20  1  0.46436379  0.88499717  0.50000000  1.0
  Ge  Ge21  1  0.96436379  0.61500283  0.50000000  1.0
  Ge  Ge22  1  0.53563621  0.11500283  0.50000000  1.0
  Ge  Ge23  1  0.03563621  0.38499717  0.50000000  1.0
  Ge  Ge24  1  0.36628479  0.59726447  0.50000000  1.0
  Ge  Ge25  1  0.86628479  0.90273553  0.50000000  1.0
  Ge  Ge26  1  0.63371521  0.40273553  0.50000000  1.0
  Ge  Ge27  1  0.13371521  0.09726447  0.50000000  1.0
  Ge  Ge28  1  0.46084578  0.88463725  0.00000000  1.0
  Ge  Ge29  1  0.96084578  0.61536275  0.00000000  1.0
  Ge  Ge30  1  0.53915422  0.11536275  0.00000000  1.0
  Ge  Ge31  1  0.03915422  0.38463725  0.00000000  1.0
  Ge  Ge32  1  0.36857378  0.60348319  -0.00000000  1.0
  Ge  Ge33  1  0.86857378  0.89651681  0.00000000  1.0
  Ge  Ge34  1  0.63142622  0.39651681  -0.00000000  1.0
  Ge  Ge35  1  0.13142622  0.10348319  0.00000000  1.0
  Ru  Ru36  1  0.40777231  0.76045696  0.74788806  1.0
  Ru  Ru37  1  0.40777231  0.76045696  0.25211194  1.0
  Ru  Ru38  1  0.90777231  0.73954304  0.74788806  1.0
  Ru  Ru39  1  0.90777231  0.73954304  0.25211194  1.0
  Ru  Ru40  1  0.59222769  0.23954304  0.74788806  1.0
  Ru  Ru41  1  0.59222769  0.23954304  0.25211194  1.0
  Ru  Ru42  1  0.09222769  0.26045696  0.74788806  1.0
  Ru  Ru43  1  0.09222769  0.26045696  0.25211194  1.0
  Ru  Ru44  1  0.50000000  0.50000000  0.75496604  1.0
  Ru  Ru45  1  0.50000000  0.50000000  0.24503396  1.0
  Ru  Ru46  1  0.00000000  0.00000000  0.75496604  1.0
  Ru  Ru47  1  0.00000000  0.00000000  0.24503396  1.0
