# generated using pymatgen
data_Al3GaN4
_symmetry_space_group_name_H-M   'P 1'
_cell_length_a   4.43898330
_cell_length_b   4.43898330
_cell_length_c   4.43898330
_cell_angle_alpha   90.00000000
_cell_angle_beta   90.00000000
_cell_angle_gamma   90.00000000
_symmetry_Int_Tables_number   1
_chemical_formula_structural   Al3GaN4
_chemical_formula_sum   'Al3 Ga1 N4'
_cell_volume   87.46826908
_cell_formula_units_Z   1
loop_
 _symmetry_equiv_pos_site_id
 _symmetry_equiv_pos_as_xyz
  1  'x, y, z'
loop_
 _atom_site_type_symbol
 _atom_site_label
 _atom_site_symmetry_multiplicity
 _atom_site_fract_x
 _atom_site_fract_y
 _atom_site_fract_z
 _atom_site_occupancy
  Al  Al0  1  0.50000000  0.50000000  0.00000000  1.0
  Al  Al1  1  0.50000000  0.00000000  0.50000000  1.0
  Al  Al2  1  0.00000000  0.50000000  0.50000000  1.0
  Ga  Ga3  1  0.00000000  0.00000000  0.00000000  1.0
  N  N4  1  0.74411333  0.74411333  0.25588667  1.0
  N  N5  1  0.74411333  0.25588667  0.74411333  1.0
  N  N6  1  0.25588667  0.74411333  0.74411333  1.0
  N  N7  1  0.25588667  0.25588667  0.25588667  1.0
