# generated using pymatgen
data_K5Zn4Sn5H4S17N
_symmetry_space_group_name_H-M   'P 1'
_cell_length_a   11.04830216
_cell_length_b   11.04830216
_cell_length_c   11.04830216
_cell_angle_alpha   100.93972931
_cell_angle_beta   100.93972931
_cell_angle_gamma   128.34881412
_symmetry_Int_Tables_number   1
_chemical_formula_structural   K5Zn4Sn5H4S17N
_chemical_formula_sum   'K5 Zn4 Sn5 H4 S17 N1'
_cell_volume   952.01228553
_cell_formula_units_Z   1
loop_
 _symmetry_equiv_pos_site_id
 _symmetry_equiv_pos_as_xyz
  1  'x, y, z'
loop_
 _atom_site_type_symbol
 _atom_site_label
 _atom_site_symmetry_multiplicity
 _atom_site_fract_x
 _atom_site_fract_y
 _atom_site_fract_z
 _atom_site_occupancy
  K  K0  1  0.00000000  0.00000000  0.00000000  1.0
  K  K1  1  0.73868732  1.26131268  1.00000000  1.0
  K  K2  1  0.73868732  0.73868732  0.47737465  1.0
  K  K3  1  0.26131268  0.26131268  0.52262535  1.0
  K  K4  1  0.26131268  0.73868732  1.00000000  1.0
  Zn  Zn5  1  1.50202369  0.63932211  0.86270158  1.0
  Zn  Zn6  1  1.36067789  1.49797631  1.13729842  1.0
  Zn  Zn7  1  1.36067789  1.22337947  0.86270158  1.0
  Zn  Zn8  1  0.77662053  0.63932211  0.13729842  1.0
  Sn  Sn9  1  1.05160130  0.27523375  0.77636756  1.0
  Sn  Sn10  1  0.72476625  0.94839870  1.22363244  1.0
  Sn  Sn11  1  0.72476625  0.50113381  0.77636756  1.0
  Sn  Sn12  1  0.49886619  0.27523375  0.22363244  1.0
  Sn  Sn13  1  0.75000000  0.25000000  0.50000000  1.0
  H  H14  1  1.37238200  0.81303325  0.55934875  1.0
  H  H15  1  1.18696675  1.62761800  1.44065125  1.0
  H  H16  1  1.18696675  0.74631550  0.55934875  1.0
  H  H17  1  1.25368450  0.81303325  0.44065125  1.0
  S  S18  1  0.50000000  0.50000000  0.00000000  1.0
  S  S19  1  1.08104769  1.35873553  1.00544992  1.0
  S  S20  1  1.08104769  1.07559777  0.72231216  1.0
  S  S21  1  1.64126447  0.91895231  0.99455008  1.0
  S  S22  1  1.64126447  1.64671439  1.72231216  1.0
  S  S23  1  1.35328561  1.35873553  1.27768784  1.0
  S  S24  1  1.35328561  1.07559777  0.99455008  1.0
  S  S25  1  0.92440223  0.91895231  0.27768784  1.0
  S  S26  1  0.92440223  1.64671439  1.00544992  1.0
  S  S27  1  1.23073793  0.51120747  0.71953046  1.0
  S  S28  1  1.48879253  1.76926207  1.28046954  1.0
  S  S29  1  1.48879253  1.20832299  0.71953046  1.0
  S  S30  1  0.79167701  0.51120747  0.28046954  1.0
  S  S31  1  0.74633955  0.10416091  0.64217864  1.0
  S  S32  1  0.89583909  1.25366045  1.35782136  1.0
  S  S33  1  0.89583909  0.53801773  0.64217864  1.0
  S  S34  1  0.46198227  0.10416091  0.35782136  1.0
  N  N35  1  1.25000000  0.75000000  0.50000000  1.0
