# generated using pymatgen
data_Mg2GeO4
_symmetry_space_group_name_H-M   'P 1'
_cell_length_a   10.41186114
_cell_length_b   6.10372512
_cell_length_c   4.96551194
_cell_angle_alpha   90.00000000
_cell_angle_beta   90.00000000
_cell_angle_gamma   90.00000000
_symmetry_Int_Tables_number   1
_chemical_formula_structural   Mg2GeO4
_chemical_formula_sum   'Mg8 Ge4 O16'
_cell_volume   315.56393635
_cell_formula_units_Z   4
loop_
 _symmetry_equiv_pos_site_id
 _symmetry_equiv_pos_as_xyz
  1  'x, y, z'
loop_
 _atom_site_type_symbol
 _atom_site_label
 _atom_site_symmetry_multiplicity
 _atom_site_fract_x
 _atom_site_fract_y
 _atom_site_fract_z
 _atom_site_occupancy
  Mg  Mg0  1  0.77613598  0.25000000  0.50699826  1.0
  Mg  Mg1  1  0.27613598  0.25000000  0.99300174  1.0
  Mg  Mg2  1  0.22386402  0.75000000  0.49300174  1.0
  Mg  Mg3  1  0.72386402  0.75000000  0.00699826  1.0
  Mg  Mg4  1  0.00000000  0.50000000  0.00000000  1.0
  Mg  Mg5  1  0.00000000  0.00000000  0.00000000  1.0
  Mg  Mg6  1  0.50000000  0.50000000  0.50000000  1.0
  Mg  Mg7  1  0.50000000  0.00000000  0.50000000  1.0
  Ge  Ge8  1  0.59436165  0.25000000  0.06397579  1.0
  Ge  Ge9  1  0.09436165  0.25000000  0.43602421  1.0
  Ge  Ge10  1  0.40563835  0.75000000  0.93602421  1.0
  Ge  Ge11  1  0.90563835  0.75000000  0.56397579  1.0
  O  O12  1  0.59206880  0.25000000  0.71045390  1.0
  O  O13  1  0.09206880  0.25000000  0.78954610  1.0
  O  O14  1  0.40793120  0.75000000  0.28954610  1.0
  O  O15  1  0.90793120  0.75000000  0.21045390  1.0
  O  O16  1  0.66448656  0.47878527  0.23351037  1.0
  O  O17  1  0.66448656  0.02121473  0.23351037  1.0
  O  O18  1  0.16448656  0.47878527  0.26648963  1.0
  O  O19  1  0.16448656  0.02121473  0.26648963  1.0
  O  O20  1  0.33551344  0.97878527  0.76648963  1.0
  O  O21  1  0.33551344  0.52121473  0.76648963  1.0
  O  O22  1  0.83551344  0.97878527  0.73351037  1.0
  O  O23  1  0.83551344  0.52121473  0.73351037  1.0
  O  O24  1  0.93979663  0.25000000  0.26970787  1.0
  O  O25  1  0.43979663  0.25000000  0.23029213  1.0
  O  O26  1  0.06020337  0.75000000  0.73029213  1.0
  O  O27  1  0.56020337  0.75000000  0.76970787  1.0
