# generated using pymatgen
data_MnSb2
_symmetry_space_group_name_H-M   'P 1'
_cell_length_a   5.84519699
_cell_length_b   6.70762180
_cell_length_c   3.42820556
_cell_angle_alpha   90.00000000
_cell_angle_beta   90.00000000
_cell_angle_gamma   90.00000000
_symmetry_Int_Tables_number   1
_chemical_formula_structural   MnSb2
_chemical_formula_sum   'Mn2 Sb4'
_cell_volume   134.41092652
_cell_formula_units_Z   2
loop_
 _symmetry_equiv_pos_site_id
 _symmetry_equiv_pos_as_xyz
  1  'x, y, z'
loop_
 _atom_site_type_symbol
 _atom_site_label
 _atom_site_symmetry_multiplicity
 _atom_site_fract_x
 _atom_site_fract_y
 _atom_site_fract_z
 _atom_site_occupancy
  Mn  Mn0  1  0.50000000  0.50000000  0.50000000  1.0
  Mn  Mn1  1  0.00000000  0.00000000  0.00000000  1.0
  Sb  Sb2  1  0.30441130  0.85998810  0.50000000  1.0
  Sb  Sb3  1  0.80441130  0.64001190  0.00000000  1.0
  Sb  Sb4  1  0.69558870  0.14001190  0.50000000  1.0
  Sb  Sb5  1  0.19558870  0.35998810  0.00000000  1.0
