# generated using pymatgen
data_Ta3P
_symmetry_space_group_name_H-M   'P 1'
_cell_length_a   10.20542398
_cell_length_b   10.20542398
_cell_length_c   5.03373825
_cell_angle_alpha   90.00000000
_cell_angle_beta   90.00000000
_cell_angle_gamma   90.00000000
_symmetry_Int_Tables_number   1
_chemical_formula_structural   Ta3P
_chemical_formula_sum   'Ta24 P8'
_cell_volume   524.26725523
_cell_formula_units_Z   8
loop_
 _symmetry_equiv_pos_site_id
 _symmetry_equiv_pos_as_xyz
  1  'x, y, z'
loop_
 _atom_site_type_symbol
 _atom_site_label
 _atom_site_symmetry_multiplicity
 _atom_site_fract_x
 _atom_site_fract_y
 _atom_site_fract_z
 _atom_site_occupancy
  Ta  Ta0  1  0.49999616  0.35413406  1.24998441  1.0
  Ta  Ta1  1  0.99999616  0.85413406  0.25001559  1.0
  Ta  Ta2  1  0.35413406  0.50000384  -0.24998441  1.0
  Ta  Ta3  1  0.85413406  0.00000384  0.74998441  1.0
  Ta  Ta4  1  0.50000384  0.64586594  1.24998441  1.0
  Ta  Ta5  1  0.00000384  0.14586594  0.25001559  1.0
  Ta  Ta6  1  0.64586594  0.49999616  -0.24998441  1.0
  Ta  Ta7  1  0.14586594  0.99999616  0.74998441  1.0
  Ta  Ta8  1  0.29921879  0.79919861  0.49999724  1.0
  Ta  Ta9  1  0.79921879  0.29919861  0.00000276  1.0
  Ta  Ta10  1  0.79919861  0.70078121  0.50000276  1.0
  Ta  Ta11  1  0.29919861  0.20078121  0.99999724  1.0
  Ta  Ta12  1  0.70078121  0.20080139  0.49999724  1.0
  Ta  Ta13  1  0.20078121  0.70080139  0.00000276  1.0
  Ta  Ta14  1  0.20080139  0.29921879  0.50000276  1.0
  Ta  Ta15  1  0.70080139  0.79921879  0.99999724  1.0
  Ta  Ta16  1  1.09274403  0.40726022  0.00000190  1.0
  Ta  Ta17  1  0.59274403  0.90726022  0.49999810  1.0
  Ta  Ta18  1  0.40726022  -0.09274403  0.99999810  1.0
  Ta  Ta19  1  0.90726022  0.40725597  0.50000190  1.0
  Ta  Ta20  1  -0.09274403  0.59273978  0.00000190  1.0
  Ta  Ta21  1  0.40725597  0.09273978  0.49999810  1.0
  Ta  Ta22  1  0.59273978  1.09274403  0.99999810  1.0
  Ta  Ta23  1  0.09273978  0.59274403  0.50000190  1.0
  P  P24  1  0.49998479  0.29246865  0.74999840  1.0
  P  P25  1  0.99998479  0.79246865  -0.24999840  1.0
  P  P26  1  0.29246865  0.50001521  0.25000160  1.0
  P  P27  1  0.79246865  0.00001521  1.24999840  1.0
  P  P28  1  0.50001521  0.70753135  0.74999840  1.0
  P  P29  1  0.00001521  0.20753135  -0.24999840  1.0
  P  P30  1  0.70753135  0.49998479  0.25000160  1.0
  P  P31  1  0.20753135  0.99998479  1.24999840  1.0
