# generated using pymatgen
data_KP4N7
_symmetry_space_group_name_H-M   'P 1'
_cell_length_a   9.95937281
_cell_length_b   12.38239792
_cell_length_c   4.71655736
_cell_angle_alpha   90.00000000
_cell_angle_beta   90.00000000
_cell_angle_gamma   90.00000000
_symmetry_Int_Tables_number   1
_chemical_formula_structural   KP4N7
_chemical_formula_sum   'K4 P16 N28'
_cell_volume   581.65018003
_cell_formula_units_Z   4
loop_
 _symmetry_equiv_pos_site_id
 _symmetry_equiv_pos_as_xyz
  1  'x, y, z'
loop_
 _atom_site_type_symbol
 _atom_site_label
 _atom_site_symmetry_multiplicity
 _atom_site_fract_x
 _atom_site_fract_y
 _atom_site_fract_z
 _atom_site_occupancy
  K  K0  1  0.34745420  0.75000000  0.24283063  1.0
  K  K1  1  0.84745420  0.75000000  0.25716937  1.0
  K  K2  1  0.65254580  0.25000000  0.75716937  1.0
  K  K3  1  0.15254580  0.25000000  0.74283063  1.0
  P  P4  1  0.08840806  0.63058885  0.71333773  1.0
  P  P5  1  0.58840806  0.86941115  0.78666227  1.0
  P  P6  1  0.91159194  0.13058885  0.28666227  1.0
  P  P7  1  0.41159194  0.36941115  0.21333773  1.0
  P  P8  1  0.91159194  0.36941115  0.28666227  1.0
  P  P9  1  0.41159194  0.13058885  0.21333773  1.0
  P  P10  1  0.08840806  0.86941115  0.71333773  1.0
  P  P11  1  0.58840806  0.63058885  0.78666227  1.0
  P  P12  1  0.34336561  0.50037528  0.72095743  1.0
  P  P13  1  0.84336561  0.99962472  0.77904257  1.0
  P  P14  1  0.65663439  0.00037528  0.27904257  1.0
  P  P15  1  0.15663439  0.49962472  0.22095743  1.0
  P  P16  1  0.65663439  0.49962472  0.27904257  1.0
  P  P17  1  0.15663439  0.00037528  0.22095743  1.0
  P  P18  1  0.34336561  0.99962472  0.72095743  1.0
  P  P19  1  0.84336561  0.50037528  0.77904257  1.0
  N  N20  1  0.13240115  0.75000000  0.79916681  1.0
  N  N21  1  0.63240115  0.75000000  0.70083319  1.0
  N  N22  1  0.86759885  0.25000000  0.20083319  1.0
  N  N23  1  0.36759885  0.25000000  0.29916681  1.0
  N  N24  1  0.11346412  0.60705286  0.38111767  1.0
  N  N25  1  0.61346412  0.89294714  0.11888233  1.0
  N  N26  1  0.88653588  0.10705286  0.61888233  1.0
  N  N27  1  0.38653588  0.39294714  0.88111767  1.0
  N  N28  1  0.88653588  0.39294714  0.61888233  1.0
  N  N29  1  0.38653588  0.10705286  0.88111767  1.0
  N  N30  1  0.11346412  0.89294714  0.38111767  1.0
  N  N31  1  0.61346412  0.60705286  0.11888233  1.0
  N  N32  1  0.43845571  0.60292579  0.68068018  1.0
  N  N33  1  0.93845571  0.89707421  0.81931982  1.0
  N  N34  1  0.56154429  0.10292579  0.31931982  1.0
  N  N35  1  0.06154429  0.39707421  0.18068018  1.0
  N  N36  1  0.56154429  0.39707421  0.31931982  1.0
  N  N37  1  0.06154429  0.10292579  0.18068018  1.0
  N  N38  1  0.43845571  0.89707421  0.68068018  1.0
  N  N39  1  0.93845571  0.60292579  0.81931982  1.0
  N  N40  1  0.19932690  0.54305080  0.88409458  1.0
  N  N41  1  0.69932690  0.95694920  0.61590542  1.0
  N  N42  1  0.80067310  0.04305080  0.11590542  1.0
  N  N43  1  0.30067310  0.45694920  0.38409458  1.0
  N  N44  1  0.80067310  0.45694920  0.11590542  1.0
  N  N45  1  0.30067310  0.04305080  0.38409458  1.0
  N  N46  1  0.19932690  0.95694920  0.88409458  1.0
  N  N47  1  0.69932690  0.54305080  0.61590542  1.0
