# generated using pymatgen
data_Cs4Ni3F10
_symmetry_space_group_name_H-M   'P 1'
_cell_length_a   7.95531509
_cell_length_b   7.95531509
_cell_length_c   13.98906021
_cell_angle_alpha   90.00000000
_cell_angle_beta   90.00000000
_cell_angle_gamma   133.69797799
_symmetry_Int_Tables_number   1
_chemical_formula_structural   Cs4Ni3F10
_chemical_formula_sum   'Cs8 Ni6 F20'
_cell_volume   640.08333253
_cell_formula_units_Z   2
loop_
 _symmetry_equiv_pos_site_id
 _symmetry_equiv_pos_as_xyz
  1  'x, y, z'
loop_
 _atom_site_type_symbol
 _atom_site_label
 _atom_site_symmetry_multiplicity
 _atom_site_fract_x
 _atom_site_fract_y
 _atom_site_fract_z
 _atom_site_occupancy
  Cs  Cs0  1  0.25149023  0.74850977  0.61516016  1.0
  Cs  Cs1  1  -0.24850977  0.24850977  0.88483984  1.0
  Cs  Cs2  1  -0.25149023  0.25149023  0.38483984  1.0
  Cs  Cs3  1  0.24850977  0.75149023  0.11516016  1.0
  Cs  Cs4  1  0.45300384  0.54699616  0.86036390  1.0
  Cs  Cs5  1  -0.04699616  0.04699616  0.63963610  1.0
  Cs  Cs6  1  -0.45300384  0.45300384  0.13963610  1.0
  Cs  Cs7  1  0.04699616  0.95300384  0.36036390  1.0
  Ni  Ni8  1  0.11549746  0.88450254  0.84656923  1.0
  Ni  Ni9  1  -0.38450254  0.38450254  0.65343077  1.0
  Ni  Ni10  1  -0.11549746  0.11549746  0.15343077  1.0
  Ni  Ni11  1  0.38450254  0.61549746  0.34656923  1.0
  Ni  Ni12  1  0.00000000  0.00000000  -0.00000000  1.0
  Ni  Ni13  1  0.50000000  0.50000000  0.50000000  1.0
  F  F14  1  -0.11414679  0.68947939  0.96058812  1.0
  F  F15  1  0.38585321  1.18947939  0.53941188  1.0
  F  F16  1  0.68947939  0.88585321  0.03941188  1.0
  F  F17  1  0.18947939  0.38585321  0.46058812  1.0
  F  F18  1  0.31052061  1.11414679  0.96058812  1.0
  F  F19  1  -0.18947939  0.61414679  0.53941188  1.0
  F  F20  1  0.11414679  0.31052061  0.03941188  1.0
  F  F21  1  0.61414679  0.81052061  0.46058812  1.0
  F  F22  1  0.24947023  0.75052977  0.84763023  1.0
  F  F23  1  -0.25052977  0.25052977  0.65236977  1.0
  F  F24  1  -0.24947023  0.24947023  0.15236977  1.0
  F  F25  1  0.25052977  0.74947023  0.34763023  1.0
  F  F26  1  0.47099224  0.52900776  0.64213292  1.0
  F  F27  1  -0.02900776  0.02900776  0.85786708  1.0
  F  F28  1  -0.47099224  0.47099224  0.35786708  1.0
  F  F29  1  0.02900776  0.97099224  0.14213292  1.0
  F  F30  1  -0.14207596  0.64207596  0.75000000  1.0
  F  F31  1  0.35792404  1.14207596  0.75000000  1.0
  F  F32  1  0.64207596  0.85792404  0.25000000  1.0
  F  F33  1  0.14207596  0.35792404  0.25000000  1.0
