# generated using pymatgen
data_EuCO4
_symmetry_space_group_name_H-M   'P 1'
_cell_length_a   4.99641342
_cell_length_b   7.36136467
_cell_length_c   8.47983737
_cell_angle_alpha   90.00000000
_cell_angle_beta   90.00000000
_cell_angle_gamma   90.00000000
_symmetry_Int_Tables_number   1
_chemical_formula_structural   EuCO4
_chemical_formula_sum   'Eu4 C4 O16'
_cell_volume   311.89199054
_cell_formula_units_Z   4
loop_
 _symmetry_equiv_pos_site_id
 _symmetry_equiv_pos_as_xyz
  1  'x, y, z'
loop_
 _atom_site_type_symbol
 _atom_site_label
 _atom_site_symmetry_multiplicity
 _atom_site_fract_x
 _atom_site_fract_y
 _atom_site_fract_z
 _atom_site_occupancy
  C  C0  1  0.49992262  0.96453052  0.65775813  1.0
  C  C1  1  0.99992262  0.53546948  0.34224187  1.0
  C  C2  1  0.50007738  0.46453052  0.84224187  1.0
  C  C3  1  0.00007738  0.03546948  0.15775813  1.0
  O  O4  1  0.50015483  0.56984618  0.72109215  1.0
  O  O5  1  1.00015483  0.93015382  0.27890785  1.0
  O  O6  1  0.49984517  0.06984618  0.77890785  1.0
  O  O7  1  -0.00015483  0.43015382  0.22109215  1.0
  O  O8  1  0.27599672  0.41479337  0.90447419  1.0
  O  O9  1  0.77599672  0.08520663  0.09552581  1.0
  O  O10  1  0.72400328  0.91479337  0.59552581  1.0
  O  O11  1  0.22400328  0.58520663  0.40447419  1.0
  O  O12  1  0.27592921  0.91461678  0.59552335  1.0
  O  O13  1  0.77592921  0.58538322  0.40447665  1.0
  O  O14  1  0.72407079  0.41461678  0.90447665  1.0
  O  O15  1  0.22407079  0.08538322  0.09552335  1.0
  O  O16  1  -0.00014218  0.82014263  0.87000717  1.0
  O  O17  1  0.49985782  0.67985737  0.12999283  1.0
  O  O18  1  1.00014218  0.32014263  0.62999283  1.0
  O  O19  1  0.50014218  0.17985737  0.37000717  1.0
  Eu  Eu20  1  1.00010439  0.60888750  0.69470751  1.0
  Eu  Eu21  1  0.50010439  0.89111250  0.30529249  1.0
  Eu  Eu22  1  -0.00010439  0.10888750  0.80529249  1.0
  Eu  Eu23  1  0.49989561  0.39111250  0.19470751  1.0
