# generated using pymatgen
data_KH3CN
_symmetry_space_group_name_H-M   'P 1'
_cell_length_a   7.16030886
_cell_length_b   5.68781947
_cell_length_c   8.52335954
_cell_angle_alpha   90.00000000
_cell_angle_beta   116.48069744
_cell_angle_gamma   90.00000000
_symmetry_Int_Tables_number   1
_chemical_formula_structural   KH3CN
_chemical_formula_sum   'K4 H12 C4 N4'
_cell_volume   310.70802369
_cell_formula_units_Z   4
loop_
 _symmetry_equiv_pos_site_id
 _symmetry_equiv_pos_as_xyz
  1  'x, y, z'
loop_
 _atom_site_type_symbol
 _atom_site_label
 _atom_site_symmetry_multiplicity
 _atom_site_fract_x
 _atom_site_fract_y
 _atom_site_fract_z
 _atom_site_occupancy
  K  K0  1  0.68990449  0.91225944  0.40450812  1.0
  K  K1  1  0.68990449  0.58774056  0.90450812  1.0
  K  K2  1  0.31009551  0.41225944  0.09549188  1.0
  K  K3  1  0.31009551  0.08774056  0.59549188  1.0
  H  H4  1  0.99876798  0.93174913  0.16794870  1.0
  H  H5  1  0.99876798  0.56825087  0.66794870  1.0
  H  H6  1  0.00123202  0.43174913  0.33205130  1.0
  H  H7  1  0.00123202  0.06825087  0.83205130  1.0
  H  H8  1  0.81397834  0.37113608  0.39147140  1.0
  H  H9  1  0.81397834  0.12886392  0.89147140  1.0
  H  H10  1  0.18602166  0.87113608  0.10852860  1.0
  H  H11  1  0.18602166  0.62886392  0.60852860  1.0
  H  H12  1  0.80799891  0.24717270  0.21373714  1.0
  H  H13  1  0.80799891  0.25282730  0.71373714  1.0
  H  H14  1  0.19200109  0.74717270  0.28626286  1.0
  H  H15  1  0.19200109  0.75282730  0.78626286  1.0
  C  C16  1  0.55717779  0.42278620  0.48949725  1.0
  C  C17  1  0.55717779  0.07721380  0.98949725  1.0
  C  C18  1  0.44282221  0.92278620  0.01050275  1.0
  C  C19  1  0.44282221  0.57721380  0.51050275  1.0
  N  N20  1  0.90816573  0.30049267  0.34014515  1.0
  N  N21  1  0.90816573  0.19950733  0.84014515  1.0
  N  N22  1  0.09183427  0.80049267  0.15985485  1.0
  N  N23  1  0.09183427  0.69950733  0.65985485  1.0
