# generated using pymatgen
data_B6O
_symmetry_space_group_name_H-M   'P 1'
_cell_length_a   5.14745011
_cell_length_b   5.14745011
_cell_length_c   5.14745011
_cell_angle_alpha   63.10950729
_cell_angle_beta   63.10950729
_cell_angle_gamma   63.10950729
_symmetry_Int_Tables_number   1
_chemical_formula_structural   B6O
_chemical_formula_sum   'B12 O2'
_cell_volume   103.09285539
_cell_formula_units_Z   2
loop_
 _symmetry_equiv_pos_site_id
 _symmetry_equiv_pos_as_xyz
  1  'x, y, z'
loop_
 _atom_site_type_symbol
 _atom_site_label
 _atom_site_symmetry_multiplicity
 _atom_site_fract_x
 _atom_site_fract_y
 _atom_site_fract_z
 _atom_site_occupancy
  B  B0  1  0.50229385  0.50229385  -0.16677761  1.0
  B  B1  1  0.50229385  0.83322239  -0.49770615  1.0
  B  B2  1  0.16677761  0.49770615  -0.50229385  1.0
  B  B3  1  0.49770615  0.16677761  -0.50229385  1.0
  B  B4  1  0.49770615  0.49770615  -0.83322239  1.0
  B  B5  1  0.83322239  0.50229385  -0.49770615  1.0
  B  B6  1  0.29883143  0.29883143  -0.17623784  1.0
  B  B7  1  0.29883143  0.82376216  -0.70116857  1.0
  B  B8  1  0.17623784  0.70116857  -0.29883143  1.0
  B  B9  1  0.70116857  0.17623784  -0.29883143  1.0
  B  B10  1  0.70116857  0.70116857  -0.82376216  1.0
  B  B11  1  0.82376216  0.29883143  -0.70116857  1.0
  O  O12  1  0.87781266  0.87781266  -0.12218734  1.0
  O  O13  1  1.12218734  1.12218734  0.12218734  1.0
