# generated using pymatgen
data_K2NaInP2
_symmetry_space_group_name_H-M   'P 1'
_cell_length_a   8.90099648
_cell_length_b   8.90099648
_cell_length_c   8.90099648
_cell_angle_alpha   136.02735695
_cell_angle_beta   64.07406873
_cell_angle_gamma   135.85154226
_symmetry_Int_Tables_number   1
_chemical_formula_structural   K2NaInP2
_chemical_formula_sum   'K4 Na2 In2 P4'
_cell_volume   336.43793321
_cell_formula_units_Z   2
loop_
 _symmetry_equiv_pos_site_id
 _symmetry_equiv_pos_as_xyz
  1  'x, y, z'
loop_
 _atom_site_type_symbol
 _atom_site_label
 _atom_site_symmetry_multiplicity
 _atom_site_fract_x
 _atom_site_fract_y
 _atom_site_fract_z
 _atom_site_occupancy
  K  K0  1  0.17705008  0.25887951  0.43592959  1.0
  K  K1  1  0.32294992  0.75887951  1.08182943  1.0
  K  K2  1  0.67705008  1.24112049  0.91817057  1.0
  K  K3  1  0.82294992  0.74112049  0.56407041  1.0
  Na  Na4  1  0.25000000  0.75000000  0.50000000  1.0
  Na  Na5  1  0.75000000  1.25000000  0.50000000  1.0
  In  In6  1  0.25000000  0.25000000  -0.00000000  1.0
  In  In7  1  0.75000000  0.75000000  -0.00000000  1.0
  P  P8  1  0.40064402  0.28473840  0.68538242  1.0
  P  P9  1  0.09935598  0.78473840  0.88409438  1.0
  P  P10  1  0.90064402  1.21526160  1.11590562  1.0
  P  P11  1  0.59935598  0.71526160  0.31461758  1.0
