# generated using pymatgen
data_Lu(SiPt)2
_symmetry_space_group_name_H-M   'P 1'
_cell_length_a   4.13910649
_cell_length_b   4.13910649
_cell_length_c   9.95343934
_cell_angle_alpha   90.00000000
_cell_angle_beta   90.00000000
_cell_angle_gamma   90.00000000
_symmetry_Int_Tables_number   1
_chemical_formula_structural   Lu(SiPt)2
_chemical_formula_sum   'Lu2 Si4 Pt4'
_cell_volume   170.52433872
_cell_formula_units_Z   2
loop_
 _symmetry_equiv_pos_site_id
 _symmetry_equiv_pos_as_xyz
  1  'x, y, z'
loop_
 _atom_site_type_symbol
 _atom_site_label
 _atom_site_symmetry_multiplicity
 _atom_site_fract_x
 _atom_site_fract_y
 _atom_site_fract_z
 _atom_site_occupancy
  Lu  Lu0  1  0.50000000  0.00000000  0.75095389  1.0
  Lu  Lu1  1  0.00000000  0.50000000  0.24904611  1.0
  Si  Si2  1  0.00000000  0.00000000  0.00000000  1.0
  Si  Si3  1  0.50000000  0.50000000  0.00000000  1.0
  Si  Si4  1  0.50000000  0.00000000  0.36417949  1.0
  Si  Si5  1  0.00000000  0.50000000  0.63582051  1.0
  Pt  Pt6  1  0.50000000  0.00000000  0.12666236  1.0
  Pt  Pt7  1  0.00000000  0.50000000  0.87333764  1.0
  Pt  Pt8  1  0.00000000  0.00000000  0.50000000  1.0
  Pt  Pt9  1  0.50000000  0.50000000  0.50000000  1.0
