# generated using pymatgen
data_Ti3Rh5
_symmetry_space_group_name_H-M   'P 1'
_cell_length_a   5.40717998
_cell_length_b   10.48694306
_cell_length_c   4.12636824
_cell_angle_alpha   90.00000000
_cell_angle_beta   90.00000000
_cell_angle_gamma   90.00000000
_symmetry_Int_Tables_number   1
_chemical_formula_structural   Ti3Rh5
_chemical_formula_sum   'Ti6 Rh10'
_cell_volume   233.98483877
_cell_formula_units_Z   2
loop_
 _symmetry_equiv_pos_site_id
 _symmetry_equiv_pos_as_xyz
  1  'x, y, z'
loop_
 _atom_site_type_symbol
 _atom_site_label
 _atom_site_symmetry_multiplicity
 _atom_site_fract_x
 _atom_site_fract_y
 _atom_site_fract_z
 _atom_site_occupancy
  Ti  Ti0  1  0.34028941  0.64384768  0.50000000  1.0
  Ti  Ti1  1  0.84028941  0.85615232  0.50000000  1.0
  Ti  Ti2  1  0.65971059  0.35615232  0.50000000  1.0
  Ti  Ti3  1  0.15971059  0.14384768  0.50000000  1.0
  Ti  Ti4  1  0.50000000  0.00000000  0.00000000  1.0
  Ti  Ti5  1  0.00000000  0.50000000  0.00000000  1.0
  Rh  Rh6  1  0.50000000  0.50000000  0.00000000  1.0
  Rh  Rh7  1  0.00000000  0.00000000  0.00000000  1.0
  Rh  Rh8  1  0.31355052  0.89304351  0.50000000  1.0
  Rh  Rh9  1  0.81355052  0.60695649  0.50000000  1.0
  Rh  Rh10  1  0.68644948  0.10695649  0.50000000  1.0
  Rh  Rh11  1  0.18644948  0.39304351  0.50000000  1.0
  Rh  Rh12  1  0.10520938  0.73543881  0.00000000  1.0
  Rh  Rh13  1  0.60520938  0.76456119  0.00000000  1.0
  Rh  Rh14  1  0.89479062  0.26456119  0.00000000  1.0
  Rh  Rh15  1  0.39479062  0.23543881  0.00000000  1.0
