# generated using pymatgen
data_Ag2Te9Pd14
_symmetry_space_group_name_H-M   'P 1'
_cell_length_a   8.81920281
_cell_length_b   8.81920281
_cell_length_c   8.81920281
_cell_angle_alpha   117.76209416
_cell_angle_beta   117.76209416
_cell_angle_gamma   93.92194255
_symmetry_Int_Tables_number   1
_chemical_formula_structural   Ag2Te9Pd14
_chemical_formula_sum   'Ag2 Te9 Pd14'
_cell_volume   500.17404856
_cell_formula_units_Z   1
loop_
 _symmetry_equiv_pos_site_id
 _symmetry_equiv_pos_as_xyz
  1  'x, y, z'
loop_
 _atom_site_type_symbol
 _atom_site_label
 _atom_site_symmetry_multiplicity
 _atom_site_fract_x
 _atom_site_fract_y
 _atom_site_fract_z
 _atom_site_occupancy
  Ag  Ag0  1  0.68846588  0.68846588  0.00000000  1.0
  Ag  Ag1  1  0.31153412  0.31153412  -0.00000000  1.0
  Te  Te2  1  0.00000000  0.00000000  0.00000000  1.0
  Te  Te3  1  0.77408964  1.33712606  0.81704146  1.0
  Te  Te4  1  0.52008460  0.95704819  1.18295854  1.0
  Te  Te5  1  0.33712606  0.52008460  0.56303642  1.0
  Te  Te6  1  0.95704819  0.77408964  0.43696358  1.0
  Te  Te7  1  1.22591036  1.66287394  1.18295854  1.0
  Te  Te8  1  0.47991540  1.04295181  0.81704146  1.0
  Te  Te9  1  0.66287394  0.47991540  0.43696358  1.0
  Te  Te10  1  1.04295181  1.22591036  0.56303642  1.0
  Pd  Pd11  1  0.70446434  1.40772040  1.11218473  1.0
  Pd  Pd12  1  0.29553566  0.59227960  0.88781527  1.0
  Pd  Pd13  1  1.40772040  1.29553566  1.70325606  1.0
  Pd  Pd14  1  0.59227960  0.70446434  1.29674394  1.0
  Pd  Pd15  1  0.93247265  0.63900088  0.85033881  1.0
  Pd  Pd16  1  0.78866206  1.08213384  1.14966119  1.0
  Pd  Pd17  1  0.63900088  0.78866206  0.70652823  1.0
  Pd  Pd18  1  1.08213384  0.93247265  1.29347177  1.0
  Pd  Pd19  1  1.06752735  0.36099912  1.14966119  1.0
  Pd  Pd20  1  0.21133794  0.91786616  0.85033881  1.0
  Pd  Pd21  1  0.36099912  0.21133794  0.29347177  1.0
  Pd  Pd22  1  0.91786616  1.06752735  1.70652823  1.0
  Pd  Pd23  1  0.50000000  0.00000000  0.50000000  1.0
  Pd  Pd24  1  0.00000000  0.50000000  0.50000000  1.0
