# generated using pymatgen
data_ZnBP2PbO9
_symmetry_space_group_name_H-M   'P 1'
_cell_length_a   8.20903096
_cell_length_b   8.34719503
_cell_length_c   5.32921178
_cell_angle_alpha   89.14438660
_cell_angle_beta   101.28751500
_cell_angle_gamma   91.11172623
_symmetry_Int_Tables_number   1
_chemical_formula_structural   ZnBP2PbO9
_chemical_formula_sum   'Zn2 B2 P4 Pb2 O18'
_cell_volume   358.01642080
_cell_formula_units_Z   2
loop_
 _symmetry_equiv_pos_site_id
 _symmetry_equiv_pos_as_xyz
  1  'x, y, z'
loop_
 _atom_site_type_symbol
 _atom_site_label
 _atom_site_symmetry_multiplicity
 _atom_site_fract_x
 _atom_site_fract_y
 _atom_site_fract_z
 _atom_site_occupancy
  B  B0  1  0.54132919  0.72701385  -0.85846270  1.0
  B  B1  1  0.45867081  0.27298615  -0.14153730  1.0
  Zn  Zn2  1  0.20361216  0.83352167  -0.70737663  1.0
  Zn  Zn3  1  0.79638784  0.16647833  -0.29262337  1.0
  P  P4  1  0.70463363  0.43427155  -0.78661940  1.0
  P  P5  1  0.29536637  0.56572845  -0.21338060  1.0
  P  P6  1  0.81204670  0.93722081  -0.76993022  1.0
  P  P7  1  0.18795330  0.06277919  -0.23006978  1.0
  Pb  Pb8  1  0.91795796  0.68881202  -0.23976947  1.0
  Pb  Pb9  1  0.08204204  0.31118798  -0.76023053  1.0
  O  O10  1  0.18075012  0.54912332  -1.01537207  1.0
  O  O11  1  0.81924988  0.45087668  0.01537207  1.0
  O  O12  1  0.63848916  0.86788234  -0.92233560  1.0
  O  O13  1  0.36151084  0.13211766  -0.07766440  1.0
  O  O14  1  0.84385858  0.09531273  -0.90547773  1.0
  O  O15  1  0.15614142  0.90468727  -0.09452227  1.0
  O  O16  1  0.54283286  0.33631542  -0.89161095  1.0
  O  O17  1  0.45716714  0.66368458  -0.10838905  1.0
  O  O18  1  0.93976725  0.80427522  -0.79302819  1.0
  O  O19  1  0.06023275  0.19572478  -0.20697181  1.0
  O  O20  1  0.64886080  0.60363846  -0.70743239  1.0
  O  O21  1  0.35113920  0.39636154  -0.29256761  1.0
  O  O22  1  0.80596062  0.36101311  -0.53802272  1.0
  O  O23  1  0.19403938  0.63898689  -0.46197728  1.0
  O  O24  1  0.80706019  0.96081194  -0.48425261  1.0
  O  O25  1  0.19293981  0.03918806  -0.51574739  1.0
  O  O26  1  0.44210352  0.79229968  -0.69277032  1.0
  O  O27  1  0.55789648  0.20770032  -0.30722968  1.0
