# generated using pymatgen
data_YTe3
_symmetry_space_group_name_H-M   'P 1'
_cell_length_a   13.63178979
_cell_length_b   13.63178979
_cell_length_c   4.33926546
_cell_angle_alpha   90.00000000
_cell_angle_beta   90.00000000
_cell_angle_gamma   161.69852567
_symmetry_Int_Tables_number   1
_chemical_formula_structural   YTe3
_chemical_formula_sum   'Y2 Te6'
_cell_volume   253.20657766
_cell_formula_units_Z   2
loop_
 _symmetry_equiv_pos_site_id
 _symmetry_equiv_pos_as_xyz
  1  'x, y, z'
loop_
 _atom_site_type_symbol
 _atom_site_label
 _atom_site_symmetry_multiplicity
 _atom_site_fract_x
 _atom_site_fract_y
 _atom_site_fract_z
 _atom_site_occupancy
  Y  Y0  1  0.17312934  0.82687066  0.25000000  1.0
  Y  Y1  1  -0.17312934  0.17312934  0.75000000  1.0
  Te  Te2  1  -0.07967045  0.07967045  0.25000000  1.0
  Te  Te3  1  0.07967045  0.92032955  0.75000000  1.0
  Te  Te4  1  -0.42036565  0.42036565  0.25000000  1.0
  Te  Te5  1  0.42036565  0.57963435  0.75000000  1.0
  Te  Te6  1  0.29209011  0.70790989  0.25000000  1.0
  Te  Te7  1  -0.29209011  0.29209011  0.75000000  1.0
