# generated using pymatgen
data_Nb13Ni4N
_symmetry_space_group_name_H-M   'P 1'
_cell_length_a   10.05503195
_cell_length_b   10.05503195
_cell_length_c   10.05503195
_cell_angle_alpha   60.00000000
_cell_angle_beta   60.00000000
_cell_angle_gamma   60.00000000
_symmetry_Int_Tables_number   1
_chemical_formula_structural   Nb13Ni4N
_chemical_formula_sum   'Nb26 Ni8 N2'
_cell_volume   718.84518266
_cell_formula_units_Z   2
loop_
 _symmetry_equiv_pos_site_id
 _symmetry_equiv_pos_as_xyz
  1  'x, y, z'
loop_
 _atom_site_type_symbol
 _atom_site_label
 _atom_site_symmetry_multiplicity
 _atom_site_fract_x
 _atom_site_fract_y
 _atom_site_fract_z
 _atom_site_occupancy
  Nb  Nb0  1  0.95557381  -0.61214513  0.70099750  1.0
  Nb  Nb1  1  -0.04442619  0.70099750  0.38785487  1.0
  Nb  Nb2  1  -0.13785487  0.29442619  0.29442619  1.0
  Nb  Nb3  1  0.54900250  0.29442619  0.29442619  1.0
  Nb  Nb4  1  -0.61214513  0.95557381  0.70099750  1.0
  Nb  Nb5  1  0.95557381  -0.04442619  0.70099750  1.0
  Nb  Nb6  1  0.95557381  -0.29900250  0.95557381  1.0
  Nb  Nb7  1  -0.61214513  0.70099750  0.95557381  1.0
  Nb  Nb8  1  0.29442619  -0.13785487  0.29442619  1.0
  Nb  Nb9  1  0.29442619  0.29442619  -0.13785487  1.0
  Nb  Nb10  1  0.54900250  0.29442619  -0.13785487  1.0
  Nb  Nb11  1  0.54900250  -0.13785487  0.29442619  1.0
  Nb  Nb12  1  0.70099750  -0.04442619  0.95557381  1.0
  Nb  Nb13  1  -0.61214513  0.95557381  0.95557381  1.0
  Nb  Nb14  1  0.29442619  0.54900250  -0.13785487  1.0
  Nb  Nb15  1  0.29442619  -0.13785487  0.54900250  1.0
  Nb  Nb16  1  -0.29900250  0.95557381  0.38785487  1.0
  Nb  Nb17  1  0.70099750  -0.61214513  0.95557381  1.0
  Nb  Nb18  1  0.95557381  -0.61214513  0.95557381  1.0
  Nb  Nb19  1  -0.04442619  0.95557381  0.38785487  1.0
  Nb  Nb20  1  0.29442619  0.54900250  0.29442619  1.0
  Nb  Nb21  1  -0.13785487  0.54900250  0.29442619  1.0
  Nb  Nb22  1  -0.13785487  0.29442619  0.54900250  1.0
  Nb  Nb23  1  0.29442619  0.29442619  0.54900250  1.0
  Nb  Nb24  1  0.50000000  0.50000000  -0.50000000  1.0
  Nb  Nb25  1  0.75000000  -0.25000000  0.75000000  1.0
  Ni  Ni26  1  0.66492783  -0.33507217  1.00521650  1.0
  Ni  Ni27  1  0.66492783  0.00521650  0.66492783  1.0
  Ni  Ni28  1  0.58507217  -0.41492783  0.58507217  1.0
  Ni  Ni29  1  1.24478350  -0.41492783  0.58507217  1.0
  Ni  Ni30  1  1.00521650  -0.33507217  0.66492783  1.0
  Ni  Ni31  1  0.66492783  -0.33507217  0.66492783  1.0
  Ni  Ni32  1  0.58507217  0.24478350  0.58507217  1.0
  Ni  Ni33  1  0.58507217  -0.41492783  1.24478350  1.0
  N  N34  1  0.00000000  1.00000000  -0.00000000  1.0
  N  N35  1  0.25000000  0.25000000  0.25000000  1.0
