# generated using pymatgen
data_As2O3
_symmetry_space_group_name_H-M   'P 1'
_cell_length_a   4.64867544
_cell_length_b   13.97418043
_cell_length_c   7.09302036
_cell_angle_alpha   90.00000000
_cell_angle_beta   126.44126117
_cell_angle_gamma   90.00000000
_symmetry_Int_Tables_number   1
_chemical_formula_structural   As2O3
_chemical_formula_sum   'As8 O12'
_cell_volume   370.67611559
_cell_formula_units_Z   4
loop_
 _symmetry_equiv_pos_site_id
 _symmetry_equiv_pos_as_xyz
  1  'x, y, z'
loop_
 _atom_site_type_symbol
 _atom_site_label
 _atom_site_symmetry_multiplicity
 _atom_site_fract_x
 _atom_site_fract_y
 _atom_site_fract_z
 _atom_site_occupancy
  As  As0  1  0.89320443  0.15766259  0.38343206  1.0
  As  As1  1  0.89320443  0.34233741  0.88343206  1.0
  As  As2  1  0.10679557  0.65766259  0.11656794  1.0
  As  As3  1  0.10679557  0.84233741  0.61656794  1.0
  As  As4  1  0.73958918  0.39190129  0.26529029  1.0
  As  As5  1  0.73958918  0.10809871  0.76529029  1.0
  As  As6  1  0.26041082  0.89190129  0.23470971  1.0
  As  As7  1  0.26041082  0.60809871  0.73470971  1.0
  O  O8  1  0.96618201  0.88888058  0.32816924  1.0
  O  O9  1  0.96618201  0.61111942  0.82816924  1.0
  O  O10  1  0.03381799  0.38888058  0.17183076  1.0
  O  O11  1  0.03381799  0.11111942  0.67183076  1.0
  O  O12  1  0.89187788  0.28532813  0.45122852  1.0
  O  O13  1  0.89187788  0.21467187  0.95122852  1.0
  O  O14  1  0.10812212  0.78532813  0.04877148  1.0
  O  O15  1  0.10812212  0.71467187  0.54877148  1.0
  O  O16  1  0.35504802  0.14908274  0.47372357  1.0
  O  O17  1  0.35504802  0.35091726  0.97372357  1.0
  O  O18  1  0.64495198  0.64908274  0.02627643  1.0
  O  O19  1  0.64495198  0.85091726  0.52627643  1.0
