# generated using pymatgen
data_Ni3(PbS)2
_symmetry_space_group_name_H-M   'P 1'
_cell_length_a   7.02072463
_cell_length_b   7.02072463
_cell_length_c   7.02072463
_cell_angle_alpha   109.47122063
_cell_angle_beta   109.47122063
_cell_angle_gamma   109.47122063
_symmetry_Int_Tables_number   1
_chemical_formula_structural   Ni3(PbS)2
_chemical_formula_sum   'Ni6 Pb4 S4'
_cell_volume   266.39368576
_cell_formula_units_Z   2
loop_
 _symmetry_equiv_pos_site_id
 _symmetry_equiv_pos_as_xyz
  1  'x, y, z'
loop_
 _atom_site_type_symbol
 _atom_site_label
 _atom_site_symmetry_multiplicity
 _atom_site_fract_x
 _atom_site_fract_y
 _atom_site_fract_z
 _atom_site_occupancy
  Ni  Ni0  1  1.01300076  0.25000000  1.26300076  1.0
  Ni  Ni1  1  0.25000000  1.26300076  1.01300076  1.0
  Ni  Ni2  1  1.26300076  1.01300076  1.25000000  1.0
  Ni  Ni3  1  0.48699924  0.75000000  0.23699924  1.0
  Ni  Ni4  1  0.75000000  1.23699924  0.48699924  1.0
  Ni  Ni5  1  0.23699924  0.48699924  0.75000000  1.0
  Pb  Pb6  1  1.51150046  1.51150046  1.51150046  1.0
  Pb  Pb7  1  1.50000000  1.00000000  0.98849954  1.0
  Pb  Pb8  1  1.00000000  0.98849954  1.50000000  1.0
  Pb  Pb9  1  0.98849954  0.50000000  1.00000000  1.0
  S  S10  1  0.97147681  0.97147681  0.97147681  1.0
  S  S11  1  0.50000000  1.00000000  0.52852319  1.0
  S  S12  1  1.00000000  0.52852319  1.50000000  1.0
  S  S13  1  0.52852319  1.50000000  1.00000000  1.0
