# generated using pymatgen
data_Ti23C6
_symmetry_space_group_name_H-M   'P 1'
_cell_length_a   8.28705711
_cell_length_b   8.28705711
_cell_length_c   8.28705711
_cell_angle_alpha   60.00000000
_cell_angle_beta   60.00000000
_cell_angle_gamma   60.00000000
_symmetry_Int_Tables_number   1
_chemical_formula_structural   Ti23C6
_chemical_formula_sum   'Ti23 C6'
_cell_volume   402.42596851
_cell_formula_units_Z   1
loop_
 _symmetry_equiv_pos_site_id
 _symmetry_equiv_pos_as_xyz
  1  'x, y, z'
loop_
 _atom_site_type_symbol
 _atom_site_label
 _atom_site_symmetry_multiplicity
 _atom_site_fract_x
 _atom_site_fract_y
 _atom_site_fract_z
 _atom_site_occupancy
  Ti  Ti0  1  0.00000000  0.00000000  0.00000000  1.0
  Ti  Ti1  1  0.61508148  0.61508148  1.15475557  1.0
  Ti  Ti2  1  0.61508148  1.15475557  -0.38491852  1.0
  Ti  Ti3  1  1.15475557  0.61508148  0.61508148  1.0
  Ti  Ti4  1  0.61508148  0.61508148  -0.38491852  1.0
  Ti  Ti5  1  0.38491852  1.38491852  -0.15475557  1.0
  Ti  Ti6  1  1.38491852  -0.15475557  0.38491852  1.0
  Ti  Ti7  1  -0.15475557  1.38491852  0.38491852  1.0
  Ti  Ti8  1  1.38491852  0.38491852  0.38491852  1.0
  Ti  Ti9  1  0.00000000  0.00000000  0.34316861  1.0
  Ti  Ti10  1  0.65683139  1.00000000  -0.65683139  1.0
  Ti  Ti11  1  1.00000000  0.65683139  -0.65683139  1.0
  Ti  Ti12  1  0.65683139  -0.65683139  1.00000000  1.0
  Ti  Ti13  1  0.00000000  1.34316861  -0.00000000  1.0
  Ti  Ti14  1  1.00000000  0.34316861  -0.34316861  1.0
  Ti  Ti15  1  0.34316861  -0.34316861  1.00000000  1.0
  Ti  Ti16  1  0.34316861  1.00000000  -0.34316861  1.0
  Ti  Ti17  1  1.34316861  0.00000000  -0.00000000  1.0
  Ti  Ti18  1  0.00000000  0.00000000  0.65683139  1.0
  Ti  Ti19  1  0.00000000  1.65683139  -0.00000000  1.0
  Ti  Ti20  1  1.65683139  0.00000000  -0.00000000  1.0
  Ti  Ti21  1  0.75000000  0.75000000  -0.25000000  1.0
  Ti  Ti22  1  1.25000000  0.25000000  0.25000000  1.0
  C  C23  1  0.72403513  0.72403513  -0.72403513  1.0
  C  C24  1  0.27596487  -0.27596487  1.27596487  1.0
  C  C25  1  -0.27596487  0.27596487  0.27596487  1.0
  C  C26  1  0.27596487  1.27596487  -0.27596487  1.0
  C  C27  1  -0.27596487  0.27596487  0.72403513  1.0
  C  C28  1  -0.72403513  0.72403513  0.72403513  1.0
