# generated using pymatgen
data_LaSiNi
_symmetry_space_group_name_H-M   'P 1'
_cell_length_a   7.61688734
_cell_length_b   7.61688734
_cell_length_c   7.61688734
_cell_angle_alpha   148.06410079
_cell_angle_beta   148.06410079
_cell_angle_gamma   45.79074904
_symmetry_Int_Tables_number   1
_chemical_formula_structural   LaSiNi
_chemical_formula_sum   'La2 Si2 Ni2'
_cell_volume   123.23508068
_cell_formula_units_Z   2
loop_
 _symmetry_equiv_pos_site_id
 _symmetry_equiv_pos_as_xyz
  1  'x, y, z'
loop_
 _atom_site_type_symbol
 _atom_site_label
 _atom_site_symmetry_multiplicity
 _atom_site_fract_x
 _atom_site_fract_y
 _atom_site_fract_z
 _atom_site_occupancy
  La  La0  1  0.57944398  0.57944398  1.00000000  1.0
  La  La1  1  0.32944398  0.82944398  0.50000000  1.0
  Si  Si2  1  -0.00068233  -0.00068233  -0.00000000  1.0
  Si  Si3  1  0.74931767  0.24931767  0.50000000  1.0
  Ni  Ni4  1  0.16823835  0.16823835  0.00000000  1.0
  Ni  Ni5  1  0.91823835  0.41823835  0.50000000  1.0
