# generated using pymatgen
data_CaSiO3
_symmetry_space_group_name_H-M   'P 1'
_cell_length_a   5.10157175
_cell_length_b   7.19126219
_cell_length_c   5.11928231
_cell_angle_alpha   90.00000000
_cell_angle_beta   90.00000000
_cell_angle_gamma   90.00000000
_symmetry_Int_Tables_number   1
_chemical_formula_structural   CaSiO3
_chemical_formula_sum   'Ca4 Si4 O12'
_cell_volume   187.80977968
_cell_formula_units_Z   4
loop_
 _symmetry_equiv_pos_site_id
 _symmetry_equiv_pos_as_xyz
  1  'x, y, z'
loop_
 _atom_site_type_symbol
 _atom_site_label
 _atom_site_symmetry_multiplicity
 _atom_site_fract_x
 _atom_site_fract_y
 _atom_site_fract_z
 _atom_site_occupancy
  Ca  Ca0  1  0.00439987  0.75000000  0.49881579  1.0
  Ca  Ca1  1  0.50439987  0.75000000  0.00118421  1.0
  Ca  Ca2  1  0.99560013  0.25000000  0.50118421  1.0
  Ca  Ca3  1  0.49560013  0.25000000  0.99881579  1.0
  Si  Si4  1  0.50000000  0.50000000  0.50000000  1.0
  Si  Si5  1  0.00000000  0.00000000  0.00000000  1.0
  Si  Si6  1  0.50000000  0.00000000  0.50000000  1.0
  Si  Si7  1  0.00000000  0.50000000  0.00000000  1.0
  O  O8  1  0.75720183  0.51985900  0.25720635  1.0
  O  O9  1  0.25720183  0.98014100  0.24279365  1.0
  O  O10  1  0.24279817  0.01985900  0.74279365  1.0
  O  O11  1  0.74279817  0.48014100  0.75720635  1.0
  O  O12  1  0.24279817  0.48014100  0.74279365  1.0
  O  O13  1  0.74279817  0.01985900  0.75720635  1.0
  O  O14  1  0.75720183  0.98014100  0.25720635  1.0
  O  O15  1  0.25720183  0.51985900  0.24279365  1.0
  O  O16  1  0.49923706  0.75000000  0.53866575  1.0
  O  O17  1  0.99923706  0.75000000  0.96133425  1.0
  O  O18  1  0.50076294  0.25000000  0.46133425  1.0
  O  O19  1  0.00076294  0.25000000  0.03866575  1.0
