# generated using pymatgen
data_NaCu4(AsO4)3
_symmetry_space_group_name_H-M   'P 1'
_cell_length_a   8.78854026
_cell_length_b   8.78854026
_cell_length_c   7.67658532
_cell_angle_alpha   70.00128493
_cell_angle_beta   109.99871507
_cell_angle_gamma   88.97578511
_symmetry_Int_Tables_number   1
_chemical_formula_structural   NaCu4(AsO4)3
_chemical_formula_sum   'Na2 Cu8 As6 O24'
_cell_volume   517.43660846
_cell_formula_units_Z   2
loop_
 _symmetry_equiv_pos_site_id
 _symmetry_equiv_pos_as_xyz
  1  'x, y, z'
loop_
 _atom_site_type_symbol
 _atom_site_label
 _atom_site_symmetry_multiplicity
 _atom_site_fract_x
 _atom_site_fract_y
 _atom_site_fract_z
 _atom_site_occupancy
  As  As0  1  0.39219259  -0.15395125  0.88239275  1.0
  As  As1  1  1.15395125  0.60780741  0.38239275  1.0
  As  As2  1  0.84604875  -0.60780741  0.61760725  1.0
  As  As3  1  1.60780741  0.15395125  0.11760725  1.0
  As  As4  1  0.77189527  -0.22810473  0.75000000  1.0
  As  As5  1  1.22810473  0.22810473  0.25000000  1.0
  Cu  Cu6  1  1.56575604  0.12218328  0.64253699  1.0
  Cu  Cu7  1  0.87781672  -0.56575604  0.14253699  1.0
  Cu  Cu8  1  1.12218328  0.56575604  0.85746301  1.0
  Cu  Cu9  1  0.43424396  -0.12218328  0.35746301  1.0
  Cu  Cu10  1  1.23561863  0.23561863  0.75000000  1.0
  Cu  Cu11  1  0.76438137  -0.23561863  0.25000000  1.0
  Cu  Cu12  1  0.99295546  -0.00704454  0.75000000  1.0
  Cu  Cu13  1  1.00704454  0.00704454  0.25000000  1.0
  Na  Na14  1  0.50624555  -0.49375445  0.75000000  1.0
  Na  Na15  1  1.49375445  0.49375445  0.25000000  1.0
  O  O16  1  0.65048529  -0.25936700  0.53842147  1.0
  O  O17  1  1.25936700  0.34951471  0.03842147  1.0
  O  O18  1  0.74063300  -0.34951471  0.96157853  1.0
  O  O19  1  1.34951471  0.25936700  0.46157853  1.0
  O  O20  1  0.77317109  -0.01880696  0.73780100  1.0
  O  O21  1  1.01880696  0.22682891  0.23780100  1.0
  O  O22  1  0.98119304  -0.22682891  0.76219900  1.0
  O  O23  1  1.22682891  0.01880696  0.26219900  1.0
  O  O24  1  0.47365026  -0.08275653  0.69653462  1.0
  O  O25  1  1.08275653  0.52634974  0.19653462  1.0
  O  O26  1  0.91724347  -0.52634974  0.80346538  1.0
  O  O27  1  1.52634974  0.08275653  0.30346538  1.0
  O  O28  1  1.65956270  0.32898588  0.61540261  1.0
  O  O29  1  0.67101412  -0.65956270  0.11540261  1.0
  O  O30  1  1.32898588  0.65956270  0.88459739  1.0
  O  O31  1  0.34043730  -0.32898588  0.38459739  1.0
  O  O32  1  1.47609061  0.19270419  0.87224503  1.0
  O  O33  1  0.80729581  -0.47609061  0.37224503  1.0
  O  O34  1  1.19270419  0.47609061  0.62775497  1.0
  O  O35  1  0.52390939  -0.19270419  0.12775497  1.0
  O  O36  1  0.22620792  -0.00360940  0.82601106  1.0
  O  O37  1  1.00360940  0.77379208  0.32601106  1.0
  O  O38  1  0.99639060  -0.77379208  0.67398894  1.0
  O  O39  1  1.77379208  0.00360940  0.17398894  1.0
