# generated using pymatgen
data_SrNiC4N4O5
_symmetry_space_group_name_H-M   'P 1'
_cell_length_a   8.97703203
_cell_length_b   8.97703203
_cell_length_c   6.53678179
_cell_angle_alpha   86.67818375
_cell_angle_beta   93.32181625
_cell_angle_gamma   66.13843305
_symmetry_Int_Tables_number   1
_chemical_formula_structural   SrNiC4N4O5
_chemical_formula_sum   'Sr2 Ni2 C8 N8 O10'
_cell_volume   479.02999890
_cell_formula_units_Z   2
loop_
 _symmetry_equiv_pos_site_id
 _symmetry_equiv_pos_as_xyz
  1  'x, y, z'
loop_
 _atom_site_type_symbol
 _atom_site_label
 _atom_site_symmetry_multiplicity
 _atom_site_fract_x
 _atom_site_fract_y
 _atom_site_fract_z
 _atom_site_occupancy
  Sr  Sr0  1  0.63244525  -0.36755475  -0.00000000  1.0
  Sr  Sr1  1  1.36755475  0.36755475  -0.00000000  1.0
  N  N2  1  0.69336417  -0.69336417  -0.00320975  1.0
  N  N3  1  0.30663583  -0.30663583  0.00320975  1.0
  N  N4  1  0.80030731  -0.19969269  -0.00000000  1.0
  N  N5  1  1.19969269  0.19969269  -0.00000000  1.0
  N  N6  1  0.30779665  -0.30779665  0.48897963  1.0
  N  N7  1  0.69220335  -0.69220335  0.51102037  1.0
  N  N8  1  0.79928322  -0.20071678  0.50000000  1.0
  N  N9  1  1.20071678  0.20071678  0.50000000  1.0
  C  C10  1  0.18862696  -0.18862696  0.50027790  1.0
  C  C11  1  0.81137304  -0.81137304  0.49972210  1.0
  C  C12  1  0.81359817  -0.81359817  0.00339580  1.0
  C  C13  1  0.18640183  -0.18640183  -0.00339580  1.0
  C  C14  1  0.87771603  -0.12228397  0.50000000  1.0
  C  C15  1  1.12228397  0.12228397  0.50000000  1.0
  C  C16  1  0.87782524  -0.12217476  -0.00000000  1.0
  C  C17  1  1.12217476  0.12217476  -0.00000000  1.0
  Ni  Ni18  1  0.00000000  -0.00000000  0.50000000  1.0
  Ni  Ni19  1  0.00000000  0.00000000  0.00000000  1.0
  O  O20  1  1.12875342  0.46004541  0.35245764  1.0
  O  O21  1  0.53995459  -0.12875342  0.35245764  1.0
  O  O22  1  1.46004541  0.12875342  0.64754236  1.0
  O  O23  1  0.87124658  -0.46004541  0.64754236  1.0
  O  O24  1  0.87503793  -0.47738318  0.33174332  1.0
  O  O25  1  1.47738318  0.12496207  0.33174332  1.0
  O  O26  1  0.52261682  -0.12496207  0.66825668  1.0
  O  O27  1  1.12496207  0.47738318  0.66825668  1.0
  O  O28  1  0.54636807  -0.54636807  0.26085317  1.0
  O  O29  1  0.45363193  -0.45363193  0.73914683  1.0
