# generated using pymatgen
data_GdZnAsO
_symmetry_space_group_name_H-M   'P 1'
_cell_length_a   3.99816142
_cell_length_b   3.99816142
_cell_length_c   8.97450035
_cell_angle_alpha   90.00000000
_cell_angle_beta   90.00000000
_cell_angle_gamma   90.00000000
_symmetry_Int_Tables_number   1
_chemical_formula_structural   GdZnAsO
_chemical_formula_sum   'Gd2 Zn2 As2 O2'
_cell_volume   143.46003302
_cell_formula_units_Z   2
loop_
 _symmetry_equiv_pos_site_id
 _symmetry_equiv_pos_as_xyz
  1  'x, y, z'
loop_
 _atom_site_type_symbol
 _atom_site_label
 _atom_site_symmetry_multiplicity
 _atom_site_fract_x
 _atom_site_fract_y
 _atom_site_fract_z
 _atom_site_occupancy
  Gd  Gd0  1  0.50000000  0.00000000  0.62612139  1.0
  Gd  Gd1  1  0.00000000  0.50000000  0.37387861  1.0
  Zn  Zn2  1  0.00000000  0.00000000  0.00000000  1.0
  Zn  Zn3  1  0.50000000  0.50000000  0.00000000  1.0
  As  As4  1  0.50000000  0.00000000  0.18050842  1.0
  As  As5  1  0.00000000  0.50000000  0.81949158  1.0
  O  O6  1  0.00000000  0.00000000  0.50000000  1.0
  O  O7  1  0.50000000  0.50000000  0.50000000  1.0
