# generated using pymatgen
data_V5(PbO6)2
_symmetry_space_group_name_H-M   'P 1'
_cell_length_a   8.35280802
_cell_length_b   5.43334086
_cell_length_c   11.90866236
_cell_angle_alpha   90.00000000
_cell_angle_beta   98.79686352
_cell_angle_gamma   90.00000000
_symmetry_Int_Tables_number   1
_chemical_formula_structural   V5(PbO6)2
_chemical_formula_sum   'V10 Pb4 O24'
_cell_volume   534.10105376
_cell_formula_units_Z   2
loop_
 _symmetry_equiv_pos_site_id
 _symmetry_equiv_pos_as_xyz
  1  'x, y, z'
loop_
 _atom_site_type_symbol
 _atom_site_label
 _atom_site_symmetry_multiplicity
 _atom_site_fract_x
 _atom_site_fract_y
 _atom_site_fract_z
 _atom_site_occupancy
  V  V0  1  0.93605090  0.90005255  0.88117258  1.0
  V  V1  1  0.93605090  0.09994745  0.38117258  1.0
  V  V2  1  0.06394910  0.90005255  0.61882742  1.0
  V  V3  1  0.06394910  0.09994745  0.11882742  1.0
  V  V4  1  0.65447365  0.88181720  0.47661145  1.0
  V  V5  1  0.65447365  0.11818280  0.97661145  1.0
  V  V6  1  0.34552635  0.88181720  0.02338855  1.0
  V  V7  1  0.34552635  0.11818280  0.52338855  1.0
  V  V8  1  0.50000000  0.10103905  0.25000000  1.0
  V  V9  1  0.50000000  0.89896095  0.75000000  1.0
  Pb  Pb10  1  0.77855115  0.64351778  0.17745178  1.0
  Pb  Pb11  1  0.77855115  0.35648222  0.67745178  1.0
  Pb  Pb12  1  0.22144885  0.64351778  0.32254822  1.0
  Pb  Pb13  1  0.22144885  0.35648222  0.82254822  1.0
  O  O14  1  0.95303060  0.39734835  0.36166310  1.0
  O  O15  1  0.95303060  0.60265165  0.86166310  1.0
  O  O16  1  0.04696940  0.39734835  0.13833691  1.0
  O  O17  1  0.04696940  0.60265165  0.63833691  1.0
  O  O18  1  0.86498188  0.96161449  0.03025032  1.0
  O  O19  1  0.86498188  0.03838551  0.53025032  1.0
  O  O20  1  0.13501812  0.96161449  0.46974968  1.0
  O  O21  1  0.13501812  0.03838551  0.96974968  1.0
  O  O22  1  0.71249240  0.98281197  0.33013274  1.0
  O  O23  1  0.71249240  0.01718803  0.83013274  1.0
  O  O24  1  0.28750760  0.98281197  0.16986726  1.0
  O  O25  1  0.28750760  0.01718803  0.66986726  1.0
  O  O26  1  0.67393564  0.58547966  0.49427236  1.0
  O  O27  1  0.67393564  0.41452034  0.99427236  1.0
  O  O28  1  0.32606436  0.58547966  0.00572764  1.0
  O  O29  1  0.32606436  0.41452034  0.50572764  1.0
  O  O30  1  0.43929668  0.97332593  0.39467511  1.0
  O  O31  1  0.43929668  0.02667407  0.89467511  1.0
  O  O32  1  0.56070332  0.97332593  0.10532489  1.0
  O  O33  1  0.56070332  0.02667407  0.60532489  1.0
  O  O34  1  0.50000000  0.40062321  0.25000000  1.0
  O  O35  1  0.50000000  0.59937679  0.75000000  1.0
  O  O36  1  -0.00000000  0.93358410  0.25000000  1.0
  O  O37  1  -0.00000000  0.06641590  0.75000000  1.0
