# generated using pymatgen
data_Hf(SO4)2
_symmetry_space_group_name_H-M   'P 1'
_cell_length_a   8.70089988
_cell_length_b   5.51211100
_cell_length_c   11.11842450
_cell_angle_alpha   90.00000000
_cell_angle_beta   90.00000000
_cell_angle_gamma   90.00000000
_symmetry_Int_Tables_number   1
_chemical_formula_structural   Hf(SO4)2
_chemical_formula_sum   'Hf4 S8 O32'
_cell_volume   533.24326301
_cell_formula_units_Z   4
loop_
 _symmetry_equiv_pos_site_id
 _symmetry_equiv_pos_as_xyz
  1  'x, y, z'
loop_
 _atom_site_type_symbol
 _atom_site_label
 _atom_site_symmetry_multiplicity
 _atom_site_fract_x
 _atom_site_fract_y
 _atom_site_fract_z
 _atom_site_occupancy
  Hf  Hf0  1  0.75534725  0.75000000  0.40130971  1.0
  Hf  Hf1  1  0.25534725  0.75000000  0.09869029  1.0
  Hf  Hf2  1  0.24465275  0.25000000  0.59869029  1.0
  Hf  Hf3  1  0.74465275  0.25000000  0.90130971  1.0
  S  S4  1  1.00556159  0.75000000  0.65365425  1.0
  S  S5  1  0.50556159  0.75000000  0.84634575  1.0
  S  S6  1  -0.00556159  0.25000000  0.34634575  1.0
  S  S7  1  0.49443841  0.25000000  0.15365425  1.0
  S  S8  1  0.85502251  0.75000000  0.09475581  1.0
  S  S9  1  0.35502251  0.75000000  0.40524419  1.0
  S  S10  1  0.14497749  0.25000000  0.90524419  1.0
  S  S11  1  0.64497749  0.25000000  0.59475581  1.0
  O  O12  1  0.88969429  0.46680717  0.34269012  1.0
  O  O13  1  0.88969429  0.03319283  0.34269012  1.0
  O  O14  1  0.38969429  0.46680717  0.15730988  1.0
  O  O15  1  0.38969429  0.03319283  0.15730988  1.0
  O  O16  1  0.11030571  0.96680717  0.65730988  1.0
  O  O17  1  0.11030571  0.53319283  0.65730988  1.0
  O  O18  1  0.61030571  0.96680717  0.84269012  1.0
  O  O19  1  0.61030571  0.53319283  0.84269012  1.0
  O  O20  1  0.83318195  0.97118269  0.02020058  1.0
  O  O21  1  0.83318195  0.52881731  0.02020058  1.0
  O  O22  1  0.33318195  0.97118269  0.47979942  1.0
  O  O23  1  0.33318195  0.52881731  0.47979942  1.0
  O  O24  1  0.16681805  0.47118269  0.97979942  1.0
  O  O25  1  0.16681805  0.02881731  0.97979942  1.0
  O  O26  1  0.66681805  0.47118269  0.52020058  1.0
  O  O27  1  0.66681805  0.02881731  0.52020058  1.0
  O  O28  1  0.92914059  0.75000000  0.53339429  1.0
  O  O29  1  0.42914059  0.75000000  0.96660571  1.0
  O  O30  1  0.07085941  0.25000000  0.46660571  1.0
  O  O31  1  0.57085941  0.25000000  0.03339429  1.0
  O  O32  1  0.90099641  0.75000000  0.75374452  1.0
  O  O33  1  0.40099641  0.75000000  0.74625548  1.0
  O  O34  1  0.09900359  0.25000000  0.24625548  1.0
  O  O35  1  0.59900359  0.25000000  0.25374452  1.0
  O  O36  1  0.74373551  0.75000000  0.19569171  1.0
  O  O37  1  0.24373551  0.75000000  0.30430829  1.0
  O  O38  1  0.25626449  0.25000000  0.80430829  1.0
  O  O39  1  0.75626449  0.25000000  0.69569171  1.0
  O  O40  1  0.51649697  0.75000000  0.35823083  1.0
  O  O41  1  0.01649697  0.75000000  0.14176917  1.0
  O  O42  1  0.48350303  0.25000000  0.64176917  1.0
  O  O43  1  0.98350303  0.25000000  0.85823083  1.0
