# generated using pymatgen
data_Ga2BiS4
_symmetry_space_group_name_H-M   'P 1'
_cell_length_a   7.69217511
_cell_length_b   7.69217511
_cell_length_c   12.26704536
_cell_angle_alpha   90.00000000
_cell_angle_beta   90.00000000
_cell_angle_gamma   90.00000000
_symmetry_Int_Tables_number   1
_chemical_formula_structural   Ga2BiS4
_chemical_formula_sum   'Ga8 Bi4 S16'
_cell_volume   725.83565006
_cell_formula_units_Z   4
loop_
 _symmetry_equiv_pos_site_id
 _symmetry_equiv_pos_as_xyz
  1  'x, y, z'
loop_
 _atom_site_type_symbol
 _atom_site_label
 _atom_site_symmetry_multiplicity
 _atom_site_fract_x
 _atom_site_fract_y
 _atom_site_fract_z
 _atom_site_occupancy
  Ga  Ga0  1  0.00000000  0.50000000  0.75000000  1.0
  Ga  Ga1  1  0.00000000  0.50000000  0.25000000  1.0
  Ga  Ga2  1  0.50000000  0.00000000  0.75000000  1.0
  Ga  Ga3  1  0.50000000  0.00000000  0.25000000  1.0
  Ga  Ga4  1  0.00000000  0.50000000  0.00000000  1.0
  Ga  Ga5  1  0.50000000  0.00000000  0.50000000  1.0
  Ga  Ga6  1  0.50000000  0.00000000  0.00000000  1.0
  Ga  Ga7  1  0.00000000  0.50000000  0.50000000  1.0
  Bi  Bi8  1  0.50000000  0.50000000  0.62855560  1.0
  Bi  Bi9  1  0.50000000  0.50000000  0.37144440  1.0
  Bi  Bi10  1  0.00000000  0.00000000  0.87144440  1.0
  Bi  Bi11  1  0.00000000  0.00000000  0.12855560  1.0
  S  S12  1  0.65662376  0.16249250  0.62491064  1.0
  S  S13  1  0.34337624  0.83750750  0.62491064  1.0
  S  S14  1  0.34337624  0.16249250  0.37508936  1.0
  S  S15  1  0.65662376  0.83750750  0.37508936  1.0
  S  S16  1  0.84337624  0.33750750  0.87508936  1.0
  S  S17  1  0.15662376  0.66249250  0.87508936  1.0
  S  S18  1  0.15662376  0.33750750  0.12491064  1.0
  S  S19  1  0.84337624  0.66249250  0.12491064  1.0
  S  S20  1  0.16249250  0.65662376  0.37508936  1.0
  S  S21  1  0.83750750  0.34337624  0.37508936  1.0
  S  S22  1  0.16249250  0.34337624  0.62491064  1.0
  S  S23  1  0.83750750  0.65662376  0.62491064  1.0
  S  S24  1  0.33750750  0.84337624  0.12491064  1.0
  S  S25  1  0.66249250  0.15662376  0.12491064  1.0
  S  S26  1  0.33750750  0.15662376  0.87508936  1.0
  S  S27  1  0.66249250  0.84337624  0.87508936  1.0
