# generated using pymatgen
data_LaVO4
_symmetry_space_group_name_H-M   'P 1'
_cell_length_a   6.76340154
_cell_length_b   7.34734615
_cell_length_c   8.46404269
_cell_angle_alpha   90.00000000
_cell_angle_beta   125.52070682
_cell_angle_gamma   90.00000000
_symmetry_Int_Tables_number   1
_chemical_formula_structural   LaVO4
_chemical_formula_sum   'La4 V4 O16'
_cell_volume   342.33204402
_cell_formula_units_Z   4
loop_
 _symmetry_equiv_pos_site_id
 _symmetry_equiv_pos_as_xyz
  1  'x, y, z'
loop_
 _atom_site_type_symbol
 _atom_site_label
 _atom_site_symmetry_multiplicity
 _atom_site_fract_x
 _atom_site_fract_y
 _atom_site_fract_z
 _atom_site_occupancy
  La  La0  1  0.82040299  0.84520342  0.22077553  1.0
  La  La1  1  0.82040299  0.65479658  0.72077553  1.0
  La  La2  1  0.17959701  0.34520342  0.27922447  1.0
  La  La3  1  0.17959701  0.15479658  0.77922447  1.0
  V  V4  1  0.68742564  0.33671644  0.30090843  1.0
  V  V5  1  0.68742564  0.16328356  0.80090843  1.0
  V  V6  1  0.31257436  0.83671644  0.19909157  1.0
  V  V7  1  0.31257436  0.66328356  0.69909157  1.0
  O  O8  1  0.88669866  0.15633202  0.38569307  1.0
  O  O9  1  0.88669866  0.34366798  0.88569307  1.0
  O  O10  1  0.11330134  0.65633202  0.11430693  1.0
  O  O11  1  0.11330134  0.84366798  0.61430693  1.0
  O  O12  1  0.82246359  0.50235048  0.24717439  1.0
  O  O13  1  0.82246359  -0.00235048  0.74717439  1.0
  O  O14  1  0.17753641  1.00235048  0.25282561  1.0
  O  O15  1  0.17753641  0.49764952  0.75282561  1.0
  O  O16  1  0.65451421  0.39806466  0.47881837  1.0
  O  O17  1  0.65451421  0.10193534  0.97881837  1.0
  O  O18  1  0.34548579  0.89806466  0.02118163  1.0
  O  O19  1  0.34548579  0.60193534  0.52118163  1.0
  O  O20  1  0.39281519  0.28209328  0.11767977  1.0
  O  O21  1  0.39281519  0.21790672  0.61767977  1.0
  O  O22  1  0.60718481  0.78209328  0.38232023  1.0
  O  O23  1  0.60718481  0.71790672  0.88232023  1.0
