# generated using pymatgen
data_K4Be3O5
_symmetry_space_group_name_H-M   'P 1'
_cell_length_a   6.37313577
_cell_length_b   6.37313577
_cell_length_c   10.89135095
_cell_angle_alpha   67.14326631
_cell_angle_beta   112.85673369
_cell_angle_gamma   110.35152752
_symmetry_Int_Tables_number   1
_chemical_formula_structural   K4Be3O5
_chemical_formula_sum   'K8 Be6 O10'
_cell_volume   365.39006481
_cell_formula_units_Z   2
loop_
 _symmetry_equiv_pos_site_id
 _symmetry_equiv_pos_as_xyz
  1  'x, y, z'
loop_
 _atom_site_type_symbol
 _atom_site_label
 _atom_site_symmetry_multiplicity
 _atom_site_fract_x
 _atom_site_fract_y
 _atom_site_fract_z
 _atom_site_occupancy
  K  K0  1  1.74688805  0.08749905  0.42409523  1.0
  K  K1  1  0.91250095  0.25311195  0.92409523  1.0
  K  K2  1  1.08749905  0.74688805  0.07590477  1.0
  K  K3  1  1.25311195  -0.08749905  0.57590477  1.0
  K  K4  1  1.55804424  0.22217431  0.09431675  1.0
  K  K5  1  0.77782569  0.44195576  0.59431675  1.0
  K  K6  1  1.22217431  0.55804424  0.40568325  1.0
  K  K7  1  1.44195576  -0.22217431  0.90568325  1.0
  Be  Be8  1  0.98091602  0.98091602  0.25000000  1.0
  Be  Be9  1  1.01908398  0.01908398  0.75000000  1.0
  Be  Be10  1  0.69067563  -0.30932437  0.25000000  1.0
  Be  Be11  1  0.30932437  0.30932437  0.75000000  1.0
  Be  Be12  1  1.26956594  0.26956594  0.25000000  1.0
  Be  Be13  1  0.73043406  0.73043406  0.75000000  1.0
  O  O14  1  1.77295755  -0.12421403  0.12219105  1.0
  O  O15  1  1.12421403  -0.77295755  0.62219105  1.0
  O  O16  1  0.87578597  -0.22704245  0.37780895  1.0
  O  O17  1  1.22704245  0.12421403  0.87780895  1.0
  O  O18  1  1.26650128  0.01281798  0.26805249  1.0
  O  O19  1  0.98718202  0.73349872  0.76805249  1.0
  O  O20  1  1.01281798  0.26650128  0.23194751  1.0
  O  O21  1  1.73349872  -0.01281798  0.73194751  1.0
  O  O22  1  1.47969654  0.47969654  0.25000000  1.0
  O  O23  1  0.52030346  0.52030346  0.75000000  1.0
