# generated using pymatgen
data_Sn(SO2)2
_symmetry_space_group_name_H-M   'P 1'
_cell_length_a   7.62563280
_cell_length_b   7.11666147
_cell_length_c   12.00609631
_cell_angle_alpha   90.00000000
_cell_angle_beta   118.23840180
_cell_angle_gamma   90.00000000
_symmetry_Int_Tables_number   1
_chemical_formula_structural   Sn(SO2)2
_chemical_formula_sum   'Sn4 S8 O16'
_cell_volume   574.01506244
_cell_formula_units_Z   4
loop_
 _symmetry_equiv_pos_site_id
 _symmetry_equiv_pos_as_xyz
  1  'x, y, z'
loop_
 _atom_site_type_symbol
 _atom_site_label
 _atom_site_symmetry_multiplicity
 _atom_site_fract_x
 _atom_site_fract_y
 _atom_site_fract_z
 _atom_site_occupancy
  Sn  Sn0  1  0.42235800  0.24259695  0.09363878  1.0
  Sn  Sn1  1  0.42235800  0.25740305  0.59363878  1.0
  Sn  Sn2  1  0.57764200  0.74259695  0.40636122  1.0
  Sn  Sn3  1  0.57764200  0.75740305  0.90636122  1.0
  S  S4  1  0.86237727  0.50778331  0.19102234  1.0
  S  S5  1  0.86237727  -0.00778331  0.69102234  1.0
  S  S6  1  0.13762273  1.00778331  0.30897766  1.0
  S  S7  1  0.13762273  0.49221669  0.80897766  1.0
  S  S8  1  0.80719957  0.30940290  0.01159874  1.0
  S  S9  1  0.80719957  0.19059710  0.51159874  1.0
  S  S10  1  0.19280043  0.80940290  0.48840126  1.0
  S  S11  1  0.19280043  0.69059710  0.98840126  1.0
  O  O12  1  0.72433512  0.03406394  0.41246640  1.0
  O  O13  1  0.72433512  0.46593606  0.91246640  1.0
  O  O14  1  0.27566488  0.53406394  0.08753360  1.0
  O  O15  1  0.27566488  0.96593606  0.58753360  1.0
  O  O16  1  0.70198729  0.41581876  0.21554213  1.0
  O  O17  1  0.70198729  0.08418124  0.71554213  1.0
  O  O18  1  0.29801271  0.91581876  0.28445787  1.0
  O  O19  1  0.29801271  0.58418124  0.78445787  1.0
  O  O20  1  0.63924746  0.30886845  0.51272837  1.0
  O  O21  1  0.63924746  0.19113155  1.01272837  1.0
  O  O22  1  0.36075254  0.80886845  -0.01272837  1.0
  O  O23  1  0.36075254  0.69113155  0.48727163  1.0
  O  O24  1  0.21422225  0.18984943  0.38515452  1.0
  O  O25  1  0.21422225  0.31015057  0.88515452  1.0
  O  O26  1  0.78577775  0.68984943  0.11484548  1.0
  O  O27  1  0.78577775  0.81015057  0.61484548  1.0
