# generated using pymatgen
data_CsIn7S9
_symmetry_space_group_name_H-M   'P 1'
_cell_length_a   3.99506880
_cell_length_b   25.41786682
_cell_length_c   9.11690666
_cell_angle_alpha   90.00000000
_cell_angle_beta   90.00000000
_cell_angle_gamma   90.00000000
_symmetry_Int_Tables_number   1
_chemical_formula_structural   CsIn7S9
_chemical_formula_sum   'Cs2 In14 S18'
_cell_volume   925.78655793
_cell_formula_units_Z   2
loop_
 _symmetry_equiv_pos_site_id
 _symmetry_equiv_pos_as_xyz
  1  'x, y, z'
loop_
 _atom_site_type_symbol
 _atom_site_label
 _atom_site_symmetry_multiplicity
 _atom_site_fract_x
 _atom_site_fract_y
 _atom_site_fract_z
 _atom_site_occupancy
  Cs  Cs0  1  0.50000000  0.50000000  0.37313614  1.0
  Cs  Cs1  1  0.00000000  0.00000000  0.62686386  1.0
  In  In2  1  0.50000000  0.65287917  0.05329106  1.0
  In  In3  1  0.50000000  0.34712083  0.05329106  1.0
  In  In4  1  0.00000000  0.15287917  0.94670894  1.0
  In  In5  1  0.00000000  0.84712083  0.94670894  1.0
  In  In6  1  0.50000000  0.63119267  0.75140627  1.0
  In  In7  1  0.50000000  0.36880733  0.75140627  1.0
  In  In8  1  0.00000000  0.13119267  0.24859373  1.0
  In  In9  1  0.00000000  0.86880733  0.24859373  1.0
  In  In10  1  0.50000000  0.21432541  0.66029795  1.0
  In  In11  1  0.50000000  0.78567459  0.66029795  1.0
  In  In12  1  0.00000000  0.71432541  0.33970205  1.0
  In  In13  1  0.00000000  0.28567459  0.33970205  1.0
  In  In14  1  0.50000000  0.00000000  0.15559851  1.0
  In  In15  1  0.00000000  0.50000000  0.84440149  1.0
  S  S16  1  0.50000000  0.74364402  0.17102428  1.0
  S  S17  1  0.50000000  0.25635598  0.17102428  1.0
  S  S18  1  0.00000000  0.24364402  0.82897572  1.0
  S  S19  1  0.00000000  0.75635598  0.82897572  1.0
  S  S20  1  0.50000000  0.69154331  0.53043072  1.0
  S  S21  1  0.50000000  0.30845669  0.53043072  1.0
  S  S22  1  0.00000000  0.19154331  0.46956928  1.0
  S  S23  1  0.00000000  0.80845669  0.46956928  1.0
  S  S24  1  0.50000000  0.12033890  0.79368425  1.0
  S  S25  1  0.50000000  0.87966110  0.79368425  1.0
  S  S26  1  0.00000000  0.62033890  0.20631575  1.0
  S  S27  1  0.00000000  0.37966110  0.20631575  1.0
  S  S28  1  0.50000000  0.07401036  0.33983663  1.0
  S  S29  1  0.50000000  0.92598964  0.33983663  1.0
  S  S30  1  0.00000000  0.57401036  0.66016337  1.0
  S  S31  1  0.00000000  0.42598964  0.66016337  1.0
  S  S32  1  0.50000000  0.50000000  0.00018392  1.0
  S  S33  1  0.00000000  0.00000000  0.99981608  1.0
