# generated using pymatgen
data_LiIr3
_symmetry_space_group_name_H-M   'P 1'
_cell_length_a   5.14698305
_cell_length_b   5.14698305
_cell_length_c   5.14698305
_cell_angle_alpha   149.65829320
_cell_angle_beta   63.45860388
_cell_angle_gamma   125.71940532
_symmetry_Int_Tables_number   1
_chemical_formula_structural   LiIr3
_chemical_formula_sum   'Li1 Ir3'
_cell_volume   55.37866437
_cell_formula_units_Z   1
loop_
 _symmetry_equiv_pos_site_id
 _symmetry_equiv_pos_as_xyz
  1  'x, y, z'
loop_
 _atom_site_type_symbol
 _atom_site_label
 _atom_site_symmetry_multiplicity
 _atom_site_fract_x
 _atom_site_fract_y
 _atom_site_fract_z
 _atom_site_occupancy
  Li  Li0  1  -0.00181970  -0.00181970  -0.00000000  1.0
  Ir  Ir1  1  0.91396538  0.67324574  0.24071965  1.0
  Ir  Ir2  1  0.43252609  0.67324574  0.75928035  1.0
  Ir  Ir3  1  0.48332822  0.98332822  0.50000000  1.0
