# generated using pymatgen
data_K3YF6
_symmetry_space_group_name_H-M   'P 1'
_cell_length_a   6.81806365
_cell_length_b   6.81806365
_cell_length_c   6.81806365
_cell_angle_alpha   117.02290672
_cell_angle_beta   117.02290672
_cell_angle_gamma   95.23878092
_symmetry_Int_Tables_number   1
_chemical_formula_structural   K3YF6
_chemical_formula_sum   'K3 Y1 F6'
_cell_volume   233.14367008
_cell_formula_units_Z   1
loop_
 _symmetry_equiv_pos_site_id
 _symmetry_equiv_pos_as_xyz
  1  'x, y, z'
loop_
 _atom_site_type_symbol
 _atom_site_label
 _atom_site_symmetry_multiplicity
 _atom_site_fract_x
 _atom_site_fract_y
 _atom_site_fract_z
 _atom_site_occupancy
  K  K0  1  0.50000000  0.50000000  1.00000000  1.0
  K  K1  1  0.25000000  0.75000000  0.50000000  1.0
  K  K2  1  0.75000000  0.25000000  0.50000000  1.0
  Y  Y3  1  -0.00000000  -0.00000000  -0.00000000  1.0
  F  F4  1  -0.00000000  0.69486910  0.69486910  1.0
  F  F5  1  0.69486910  -0.00000000  0.69486910  1.0
  F  F6  1  0.30513090  -0.00000000  0.30513090  1.0
  F  F7  1  -0.00000000  0.30513090  0.30513090  1.0
  F  F8  1  0.76164615  0.76164615  1.00000000  1.0
  F  F9  1  0.23835385  0.23835385  -0.00000000  1.0
