# generated using pymatgen
data_SrAu2(SO4)4
_symmetry_space_group_name_H-M   'P 1'
_cell_length_a   9.39250596
_cell_length_b   9.39250596
_cell_length_c   10.98017315
_cell_angle_alpha   76.11488711
_cell_angle_beta   103.88511289
_cell_angle_gamma   64.38253374
_symmetry_Int_Tables_number   1
_chemical_formula_structural   SrAu2(SO4)4
_chemical_formula_sum   'Sr2 Au4 S8 O32'
_cell_volume   779.81155606
_cell_formula_units_Z   2
loop_
 _symmetry_equiv_pos_site_id
 _symmetry_equiv_pos_as_xyz
  1  'x, y, z'
loop_
 _atom_site_type_symbol
 _atom_site_label
 _atom_site_symmetry_multiplicity
 _atom_site_fract_x
 _atom_site_fract_y
 _atom_site_fract_z
 _atom_site_occupancy
  Sr  Sr0  1  0.87458004  -0.12541996  0.25000000  1.0
  Sr  Sr1  1  1.12541996  0.12541996  0.75000000  1.0
  Au  Au2  1  0.50000000  -0.50000000  0.00000000  1.0
  Au  Au3  1  0.50000000  -0.50000000  0.50000000  1.0
  Au  Au4  1  1.00000000  -0.50000000  -0.00000000  1.0
  Au  Au5  1  1.50000000  -0.00000000  0.50000000  1.0
  S  S6  1  1.15517273  0.73463301  1.01691266  1.0
  S  S7  1  1.73463301  0.15517273  0.48308734  1.0
  S  S8  1  0.84482727  -0.73463301  -0.01691266  1.0
  S  S9  1  0.26536699  -0.15517273  0.51691266  1.0
  S  S10  1  1.36356619  0.24626575  0.02024706  1.0
  S  S11  1  1.24626575  0.36356619  0.47975294  1.0
  S  S12  1  0.63643381  -0.24626575  0.97975294  1.0
  S  S13  1  0.75373425  -0.36356619  0.52024706  1.0
  O  O14  1  1.34327636  0.58262937  0.09802239  1.0
  O  O15  1  1.58262937  0.34327636  0.40197761  1.0
  O  O16  1  0.65672364  -0.58262937  0.90197761  1.0
  O  O17  1  0.41737063  -0.34327636  0.59802239  1.0
  O  O18  1  1.05350156  0.68061801  0.92385379  1.0
  O  O19  1  1.68061801  0.05350156  0.57614621  1.0
  O  O20  1  0.94649844  -0.68061801  0.07614621  1.0
  O  O21  1  0.31938199  -0.05350156  0.42385379  1.0
  O  O22  1  0.15054183  -0.12487662  0.92052039  1.0
  O  O23  1  0.87512338  -0.84945817  0.57947961  1.0
  O  O24  1  1.84945817  0.12487662  0.07947961  1.0
  O  O25  1  1.12487662  0.84945817  0.42052039  1.0
  O  O26  1  1.09003115  0.76739277  0.12066670  1.0
  O  O27  1  1.76739277  0.09003115  0.37933330  1.0
  O  O28  1  0.90996885  -0.76739277  0.87933330  1.0
  O  O29  1  0.23260723  -0.09003115  0.62066670  1.0
  O  O30  1  1.25348779  0.32061060  0.09921708  1.0
  O  O31  1  1.32061060  0.25348779  0.40078292  1.0
  O  O32  1  0.74651221  -0.32061060  0.90078292  1.0
  O  O33  1  0.67938940  -0.25348779  0.59921708  1.0
  O  O34  1  1.37426175  0.39079079  0.92626732  1.0
  O  O35  1  1.39079079  0.37426175  0.57373268  1.0
  O  O36  1  0.62573825  -0.39079079  0.07373268  1.0
  O  O37  1  0.60920921  -0.37426175  0.42626732  1.0
  O  O38  1  1.53051210  0.11212320  0.12577348  1.0
  O  O39  1  1.11212320  0.53051210  0.37422652  1.0
  O  O40  1  0.46948790  -0.11212320  0.87422652  1.0
  O  O41  1  0.88787680  -0.53051210  0.62577348  1.0
  O  O42  1  1.27501786  0.19852922  0.92471952  1.0
  O  O43  1  1.19852922  0.27501786  0.57528048  1.0
  O  O44  1  0.72498214  -0.19852922  0.07528048  1.0
  O  O45  1  0.80147078  -0.27501786  0.42471952  1.0
