# generated using pymatgen
data_Y3(Si3Os)4
_symmetry_space_group_name_H-M   'P 1'
_cell_length_a   10.14869176
_cell_length_b   10.14869176
_cell_length_c   8.16746103
_cell_angle_alpha   90.00000000
_cell_angle_beta   90.00000000
_cell_angle_gamma   47.43209659
_symmetry_Int_Tables_number   1
_chemical_formula_structural   Y3(Si3Os)4
_chemical_formula_sum   'Y6 Si24 Os8'
_cell_volume   619.53505334
_cell_formula_units_Z   2
loop_
 _symmetry_equiv_pos_site_id
 _symmetry_equiv_pos_as_xyz
  1  'x, y, z'
loop_
 _atom_site_type_symbol
 _atom_site_label
 _atom_site_symmetry_multiplicity
 _atom_site_fract_x
 _atom_site_fract_y
 _atom_site_fract_z
 _atom_site_occupancy
  Y  Y0  1  0.50205723  0.99794277  0.25000000  1.0
  Y  Y1  1  0.00205723  1.49794277  0.25000000  1.0
  Y  Y2  1  -0.00205723  1.50205723  0.75000000  1.0
  Y  Y3  1  0.49794277  1.00205723  0.75000000  1.0
  Y  Y4  1  -0.50000000  0.50000000  0.50000000  1.0
  Y  Y5  1  0.00000000  0.00000000  0.00000000  1.0
  Si  Si6  1  0.38621290  1.37957902  0.22791913  1.0
  Si  Si7  1  -0.11378710  1.87957902  0.27208087  1.0
  Si  Si8  1  0.37957902  1.38621290  0.77208087  1.0
  Si  Si9  1  0.87957902  0.88621290  0.72791913  1.0
  Si  Si10  1  -0.37957902  1.61378710  0.22791913  1.0
  Si  Si11  1  0.12042098  1.11378710  0.27208087  1.0
  Si  Si12  1  0.61378710  0.62042098  0.77208087  1.0
  Si  Si13  1  0.11378710  1.12042098  0.72791913  1.0
  Si  Si14  1  0.34502719  0.88923748  0.49517477  1.0
  Si  Si15  1  -0.15497281  1.38923748  0.00482523  1.0
  Si  Si16  1  -0.11076252  1.34502719  0.50482523  1.0
  Si  Si17  1  0.38923748  0.84502719  0.99517477  1.0
  Si  Si18  1  0.11076252  1.65497281  0.49517477  1.0
  Si  Si19  1  0.61076252  1.15497281  0.00482523  1.0
  Si  Si20  1  0.65497281  1.11076252  0.50482523  1.0
  Si  Si21  1  0.15497281  1.61076252  0.99517477  1.0
  Si  Si22  1  -0.16751194  0.16751194  0.33286974  1.0
  Si  Si23  1  -0.66751194  0.66751194  0.16713026  1.0
  Si  Si24  1  -0.83248806  0.83248806  0.66713026  1.0
  Si  Si25  1  -0.33248806  0.33248806  0.83286974  1.0
  Si  Si26  1  0.20492516  1.20492516  0.50000000  1.0
  Si  Si27  1  0.70492516  0.70492516  0.00000000  1.0
  Si  Si28  1  0.79507484  0.79507484  0.50000000  1.0
  Si  Si29  1  0.29507484  1.29507484  0.00000000  1.0
  Os  Os30  1  -0.37296207  0.37296207  0.12727380  1.0
  Os  Os31  1  -0.87296207  0.87296207  0.37272620  1.0
  Os  Os32  1  -0.62703793  0.62703793  0.87272620  1.0
  Os  Os33  1  -0.12703793  0.12703793  0.62727380  1.0
  Os  Os34  1  0.33092605  1.33092605  0.50000000  1.0
  Os  Os35  1  0.83092605  0.83092605  0.00000000  1.0
  Os  Os36  1  0.66907395  0.66907395  0.50000000  1.0
  Os  Os37  1  0.16907395  1.16907395  0.00000000  1.0
