# generated using pymatgen
data_NaGe4(PO4)3
_symmetry_space_group_name_H-M   'P 1'
_cell_length_a   9.81303530
_cell_length_b   9.81303530
_cell_length_c   9.81303530
_cell_angle_alpha   59.35174589
_cell_angle_beta   59.35174589
_cell_angle_gamma   59.35174589
_symmetry_Int_Tables_number   1
_chemical_formula_structural   NaGe4(PO4)3
_chemical_formula_sum   'Na2 Ge8 P6 O24'
_cell_volume   658.32262856
_cell_formula_units_Z   2
loop_
 _symmetry_equiv_pos_site_id
 _symmetry_equiv_pos_as_xyz
  1  'x, y, z'
loop_
 _atom_site_type_symbol
 _atom_site_label
 _atom_site_symmetry_multiplicity
 _atom_site_fract_x
 _atom_site_fract_y
 _atom_site_fract_z
 _atom_site_occupancy
  Na  Na0  1  0.86032722  -0.13967278  -0.13967278  1.0
  Na  Na1  1  0.36032722  0.36032722  -0.63967278  1.0
  Ge  Ge2  1  1.05729351  -0.58099787  -0.05948168  1.0
  Ge  Ge3  1  0.55729351  0.44051832  -0.08099787  1.0
  Ge  Ge4  1  0.44051832  0.91900213  -0.44270649  1.0
  Ge  Ge5  1  0.94051832  0.05729351  -0.58099787  1.0
  Ge  Ge6  1  0.91900213  0.55729351  -0.55948168  1.0
  Ge  Ge7  1  0.41900213  -0.05948168  0.05729351  1.0
  Ge  Ge8  1  0.00099930  0.00099930  0.00099930  1.0
  Ge  Ge9  1  0.50099930  0.50099930  -0.49900070  1.0
  P  P10  1  1.14439119  -0.39877188  0.05442369  1.0
  P  P11  1  0.64439119  0.55442369  -0.89877188  1.0
  P  P12  1  0.55442369  0.10122812  -0.35560881  1.0
  P  P13  1  1.05442369  0.14439119  -0.39877188  1.0
  P  P14  1  0.10122812  0.64439119  -0.44557631  1.0
  P  P15  1  0.60122812  0.05442369  0.14439119  1.0
  O  O16  1  0.79174057  -0.04889899  0.11808795  1.0
  O  O17  1  0.29174057  0.61808795  -0.54889899  1.0
  O  O18  1  0.61808795  0.45110101  -0.70825943  1.0
  O  O19  1  1.11808795  -0.20825943  -0.04889899  1.0
  O  O20  1  0.45110101  0.29174057  -0.38191205  1.0
  O  O21  1  0.95110101  0.11808795  -0.20825943  1.0
  O  O22  1  0.62638595  -0.26199308  0.05833122  1.0
  O  O23  1  1.12638595  -0.44166878  0.23800692  1.0
  O  O24  1  0.55833122  0.23800692  0.12638595  1.0
  O  O25  1  1.05833122  -0.37361405  -0.26199308  1.0
  O  O26  1  1.23800692  0.12638595  -0.44166878  1.0
  O  O27  1  0.73800692  0.05833122  -0.37361405  1.0
  O  O28  1  0.82112206  -0.53541624  -0.00531971  1.0
  O  O29  1  0.32112206  0.49468029  -0.03541624  1.0
  O  O30  1  0.49468029  0.96458376  -0.67887794  1.0
  O  O31  1  0.99468029  -0.17887794  -0.53541624  1.0
  O  O32  1  0.96458376  0.32112206  -0.50531971  1.0
  O  O33  1  0.46458376  -0.00531971  -0.17887794  1.0
  O  O34  1  1.00765197  -0.44094388  0.05906871  1.0
  O  O35  1  0.50765197  0.55906871  -0.94094388  1.0
  O  O36  1  0.55906871  0.05905612  -0.49234803  1.0
  O  O37  1  1.05906871  0.00765197  -0.44094388  1.0
  O  O38  1  0.05905612  0.50765197  -0.44093129  1.0
  O  O39  1  0.55905612  0.05906871  0.00765197  1.0
