# generated using pymatgen
data_Y(CoB)4
_symmetry_space_group_name_H-M   'P 1'
_cell_length_a   4.99952275
_cell_length_b   4.99952275
_cell_length_c   6.97246007
_cell_angle_alpha   90.00000000
_cell_angle_beta   90.00000000
_cell_angle_gamma   90.00000000
_symmetry_Int_Tables_number   1
_chemical_formula_structural   Y(CoB)4
_chemical_formula_sum   'Y2 Co8 B8'
_cell_volume   174.27822771
_cell_formula_units_Z   2
loop_
 _symmetry_equiv_pos_site_id
 _symmetry_equiv_pos_as_xyz
  1  'x, y, z'
loop_
 _atom_site_type_symbol
 _atom_site_label
 _atom_site_symmetry_multiplicity
 _atom_site_fract_x
 _atom_site_fract_y
 _atom_site_fract_z
 _atom_site_occupancy
  Y  Y0  1  0.00000000  0.00000000  0.00000000  1.0
  Y  Y1  1  0.50000000  0.50000000  0.50000000  1.0
  Co  Co2  1  0.25402422  0.50000000  0.86381273  1.0
  Co  Co3  1  0.74597578  0.50000000  0.86381273  1.0
  Co  Co4  1  0.00000000  0.75402422  0.36381273  1.0
  Co  Co5  1  0.00000000  0.24597578  0.36381273  1.0
  Co  Co6  1  0.24597578  0.00000000  0.63618727  1.0
  Co  Co7  1  0.75402422  0.00000000  0.63618727  1.0
  Co  Co8  1  0.50000000  0.74597578  0.13618727  1.0
  Co  Co9  1  0.50000000  0.25402422  0.13618727  1.0
  B  B10  1  0.82482497  0.50000000  0.15982428  1.0
  B  B11  1  0.17517503  0.50000000  0.15982428  1.0
  B  B12  1  0.00000000  0.32482497  0.65982428  1.0
  B  B13  1  0.00000000  0.67517503  0.65982428  1.0
  B  B14  1  0.67517503  0.00000000  0.34017572  1.0
  B  B15  1  0.32482497  0.00000000  0.34017572  1.0
  B  B16  1  0.50000000  0.17517503  0.84017572  1.0
  B  B17  1  0.50000000  0.82482497  0.84017572  1.0
