# generated using pymatgen
data_BePH4NO4
_symmetry_space_group_name_H-M   'P 1'
_cell_length_a   8.83494413
_cell_length_b   8.71214767
_cell_length_c   4.98304187
_cell_angle_alpha   90.00000000
_cell_angle_beta   90.00000000
_cell_angle_gamma   90.00000000
_symmetry_Int_Tables_number   1
_chemical_formula_structural   BePH4NO4
_chemical_formula_sum   'Be4 P4 H16 N4 O16'
_cell_volume   383.55139948
_cell_formula_units_Z   4
loop_
 _symmetry_equiv_pos_site_id
 _symmetry_equiv_pos_as_xyz
  1  'x, y, z'
loop_
 _atom_site_type_symbol
 _atom_site_label
 _atom_site_symmetry_multiplicity
 _atom_site_fract_x
 _atom_site_fract_y
 _atom_site_fract_z
 _atom_site_occupancy
  Be  Be0  1  0.17302355  0.09407019  0.49258107  1.0
  Be  Be1  1  0.67302355  0.40592981  0.49258107  1.0
  Be  Be2  1  0.82697645  0.90592981  -0.00741893  1.0
  Be  Be3  1  0.32697645  0.59407019  -0.00741893  1.0
  P  P4  1  0.31596302  0.41431459  0.49274631  1.0
  P  P5  1  0.81596302  0.08568541  0.49274631  1.0
  P  P6  1  0.68403698  0.58568541  -0.00725369  1.0
  P  P7  1  0.18403698  0.91431459  -0.00725369  1.0
  H  H8  1  0.50614672  0.28276577  0.14491669  1.0
  H  H9  1  0.00614672  0.21723423  0.14491669  1.0
  H  H10  1  0.49385328  0.71723423  0.64491669  1.0
  H  H11  1  0.99385328  0.78276577  0.64491669  1.0
  H  H12  1  0.48838414  0.77439830  0.32261676  1.0
  H  H13  1  0.98838414  0.72560170  0.32261676  1.0
  H  H14  1  0.51161586  0.22560170  0.82261676  1.0
  H  H15  1  0.01161586  0.27439830  0.82261676  1.0
  H  H16  1  0.40379127  0.12998197  0.05528621  1.0
  H  H17  1  0.90379127  0.37001803  0.05528621  1.0
  H  H18  1  0.59620873  0.87001803  0.55528621  1.0
  H  H19  1  0.09620873  0.62998197  0.55528621  1.0
  H  H20  1  0.10025374  0.37706663  0.06757685  1.0
  H  H21  1  0.60025374  0.12293337  0.06757685  1.0
  H  H22  1  0.89974626  0.62293337  0.56757685  1.0
  H  H23  1  0.39974626  0.87706663  0.56757685  1.0
  N  N24  1  0.50484231  0.18859402  0.01873099  1.0
  N  N25  1  0.00484231  0.31140598  0.01873099  1.0
  N  N26  1  0.49515769  0.81140598  0.51873099  1.0
  N  N27  1  0.99515769  0.68859402  0.51873099  1.0
  O  O28  1  0.48892043  0.38772800  0.49975429  1.0
  O  O29  1  0.98892043  0.11227200  0.49975429  1.0
  O  O30  1  0.51107957  0.61227200  -0.00024571  1.0
  O  O31  1  0.01107957  0.88772800  -0.00024571  1.0
  O  O32  1  0.26449726  0.76406622  0.06976502  1.0
  O  O33  1  0.76449726  0.73593378  0.06976502  1.0
  O  O34  1  0.73550274  0.23593378  0.56976502  1.0
  O  O35  1  0.23550274  0.26406622  0.56976502  1.0
  O  O36  1  0.23121457  0.04433062  0.19147887  1.0
  O  O37  1  0.73121457  0.45566938  0.19147887  1.0
  O  O38  1  0.76878543  0.95566938  0.69147887  1.0
  O  O39  1  0.26878543  0.54433062  0.69147887  1.0
  O  O40  1  0.26555383  0.46448296  0.20524693  1.0
  O  O41  1  0.76555383  0.03551704  0.20524693  1.0
  O  O42  1  0.73444617  0.53551704  0.70524693  1.0
  O  O43  1  0.23444617  0.96448296  0.70524693  1.0
