# generated using pymatgen
data_KZn(BO2)3
_symmetry_space_group_name_H-M   'P 1'
_cell_length_a   6.95002738
_cell_length_b   7.11984591
_cell_length_c   6.92575091
_cell_angle_alpha   63.68426513
_cell_angle_beta   69.79675917
_cell_angle_gamma   73.68892699
_symmetry_Int_Tables_number   1
_chemical_formula_structural   KZn(BO2)3
_chemical_formula_sum   'K2 Zn2 B6 O12'
_cell_volume   284.94690909
_cell_formula_units_Z   2
loop_
 _symmetry_equiv_pos_site_id
 _symmetry_equiv_pos_as_xyz
  1  'x, y, z'
loop_
 _atom_site_type_symbol
 _atom_site_label
 _atom_site_symmetry_multiplicity
 _atom_site_fract_x
 _atom_site_fract_y
 _atom_site_fract_z
 _atom_site_occupancy
  K  K0  1  -0.74024134  -0.41580372  -0.71035005  1.0
  K  K1  1  -0.25975866  -0.58419628  -0.28964995  1.0
  Zn  Zn2  1  -0.32689534  -0.87076497  -0.64943599  1.0
  Zn  Zn3  1  -0.67310466  -0.12923503  -0.35056401  1.0
  B  B4  1  -0.90654641  -0.90394889  -0.00374410  1.0
  B  B5  1  -0.09345359  -0.09605111  -0.99625590  1.0
  B  B6  1  -0.75563584  -0.56765079  -0.17791644  1.0
  B  B7  1  -0.24436416  -0.43234921  -0.82208356  1.0
  B  B8  1  -0.69867740  -0.83616706  -0.81897868  1.0
  B  B9  1  -0.30132260  -0.16383294  -0.18102132  1.0
  O  O10  1  -0.86980942  -0.69762840  -0.18002823  1.0
  O  O11  1  -0.13019058  -0.30237160  -0.81997177  1.0
  O  O12  1  -0.80394175  -0.96690767  -0.82812929  1.0
  O  O13  1  -0.19605825  -0.03309233  -0.17187071  1.0
  O  O14  1  -0.66942550  -0.63882802  -0.99492698  1.0
  O  O15  1  -0.33057450  -0.36117198  -0.00507302  1.0
  O  O16  1  -0.62095865  -0.88714685  -0.64327424  1.0
  O  O17  1  -0.37904135  -0.11285315  -0.35672576  1.0
  O  O18  1  -0.28034360  -0.61739662  -0.65130892  1.0
  O  O19  1  -0.71965640  -0.38260338  -0.34869108  1.0
  O  O20  1  -0.13535655  -0.92290633  -0.91172978  1.0
  O  O21  1  -0.86464345  -0.07709367  -0.08827022  1.0
