# generated using pymatgen
data_CsScP2(HO4)2
_symmetry_space_group_name_H-M   'P 1'
_cell_length_a   5.43160285
_cell_length_b   9.32591289
_cell_length_c   14.92469225
_cell_angle_alpha   90.00000000
_cell_angle_beta   94.65574191
_cell_angle_gamma   90.00000000
_symmetry_Int_Tables_number   1
_chemical_formula_structural   CsScP2(HO4)2
_chemical_formula_sum   'Cs4 Sc4 P8 H8 O32'
_cell_volume   753.51061057
_cell_formula_units_Z   4
loop_
 _symmetry_equiv_pos_site_id
 _symmetry_equiv_pos_as_xyz
  1  'x, y, z'
loop_
 _atom_site_type_symbol
 _atom_site_label
 _atom_site_symmetry_multiplicity
 _atom_site_fract_x
 _atom_site_fract_y
 _atom_site_fract_z
 _atom_site_occupancy
  Cs  Cs0  1  0.73055596  0.99523472  0.88909913  1.0
  Cs  Cs1  1  0.73055596  0.50476528  0.38909913  1.0
  Cs  Cs2  1  0.26944404  0.49523472  0.61090087  1.0
  Cs  Cs3  1  0.26944404  0.00476528  0.11090087  1.0
  Sc  Sc4  1  0.74655056  0.53549191  0.84956783  1.0
  Sc  Sc5  1  0.74655056  0.96450809  0.34956783  1.0
  Sc  Sc6  1  0.25344944  0.03549191  0.65043217  1.0
  Sc  Sc7  1  0.25344944  0.46450809  0.15043217  1.0
  P  P8  1  0.77471632  0.25327555  0.69292900  1.0
  P  P9  1  0.77471632  0.24672445  0.19292900  1.0
  P  P10  1  0.22528368  0.75327555  0.80707100  1.0
  P  P11  1  0.22528368  0.74672445  0.30707100  1.0
  P  P12  1  0.72306184  0.84914242  0.56093922  1.0
  P  P13  1  0.72306184  0.65085758  0.06093922  1.0
  P  P14  1  0.27693816  0.34914242  0.93906078  1.0
  P  P15  1  0.27693816  0.15085758  0.43906078  1.0
  H  H16  1  0.83879884  0.70037676  0.67136259  1.0
  H  H17  1  0.83879884  0.79962324  0.17136259  1.0
  H  H18  1  0.16120116  0.20037676  0.82863741  1.0
  H  H19  1  0.16120116  0.29962324  0.32863741  1.0
  H  H20  1  0.25822444  0.70837700  0.95226941  1.0
  H  H21  1  0.25822444  0.79162300  0.45226941  1.0
  H  H22  1  0.74177556  0.20837700  0.54773059  1.0
  H  H23  1  0.74177556  0.29162300  0.04773059  1.0
  O  O24  1  0.96403680  0.69227697  0.77943236  1.0
  O  O25  1  0.96403680  0.80772303  0.27943236  1.0
  O  O26  1  0.03596320  0.19227697  0.72056764  1.0
  O  O27  1  0.03596320  0.30772303  0.22056764  1.0
  O  O28  1  0.91242518  0.95743294  0.60183994  1.0
  O  O29  1  0.91242518  0.54256706  0.10183994  1.0
  O  O30  1  0.08757482  0.45743294  0.89816006  1.0
  O  O31  1  0.08757482  0.04256706  0.39816006  1.0
  O  O32  1  0.78763454  0.69352633  0.60516239  1.0
  O  O33  1  0.78763454  0.80647367  0.10516239  1.0
  O  O34  1  0.21236546  0.19352633  0.89483761  1.0
  O  O35  1  0.21236546  0.30647367  0.39483761  1.0
  O  O36  1  0.74166897  0.67525739  0.95983328  1.0
  O  O37  1  0.74166897  0.82474261  0.45983328  1.0
  O  O38  1  0.25833103  0.17525739  0.54016672  1.0
  O  O39  1  0.25833103  0.32474261  0.04016672  1.0
  O  O40  1  0.73827970  0.40018365  0.73619380  1.0
  O  O41  1  0.73827970  0.09981635  0.23619380  1.0
  O  O42  1  0.26172030  0.90018365  0.76380620  1.0
  O  O43  1  0.26172030  0.59981635  0.26380620  1.0
  O  O44  1  0.45518845  0.88610379  0.58096839  1.0
  O  O45  1  0.45518845  0.61389621  0.08096839  1.0
  O  O46  1  0.54481155  0.38610379  0.91903161  1.0
  O  O47  1  0.54481155  0.11389621  0.41903161  1.0
  O  O48  1  0.43115739  0.64575997  0.79077707  1.0
  O  O49  1  0.43115739  0.85424003  0.29077707  1.0
  O  O50  1  0.56884261  0.14575997  0.70922293  1.0
  O  O51  1  0.56884261  0.35424003  0.20922293  1.0
  O  O52  1  0.23872638  0.79345811  0.91350987  1.0
  O  O53  1  0.23872638  0.70654189  0.41350987  1.0
  O  O54  1  0.76127362  0.29345811  0.58649013  1.0
  O  O55  1  0.76127362  0.20654189  0.08649013  1.0
