# generated using pymatgen
data_Bi2TeO5
_symmetry_space_group_name_H-M   'P 1'
_cell_length_a   8.87800867
_cell_length_b   8.87800867
_cell_length_c   11.73496626
_cell_angle_alpha   90.00000000
_cell_angle_beta   90.00000000
_cell_angle_gamma   36.94537456
_symmetry_Int_Tables_number   1
_chemical_formula_structural   Bi2TeO5
_chemical_formula_sum   'Bi8 Te4 O20'
_cell_volume   555.93752176
_cell_formula_units_Z   4
loop_
 _symmetry_equiv_pos_site_id
 _symmetry_equiv_pos_as_xyz
  1  'x, y, z'
loop_
 _atom_site_type_symbol
 _atom_site_label
 _atom_site_symmetry_multiplicity
 _atom_site_fract_x
 _atom_site_fract_y
 _atom_site_fract_z
 _atom_site_occupancy
  Bi  Bi0  1  -0.25126180  1.08153016  0.10685415  1.0
  Bi  Bi1  1  -0.58153016  0.75126180  0.10685415  1.0
  Bi  Bi2  1  0.24873820  0.58153016  0.89314585  1.0
  Bi  Bi3  1  -0.08153016  0.25126180  0.89314585  1.0
  Bi  Bi4  1  0.04897529  0.45102471  0.12015137  1.0
  Bi  Bi5  1  -0.45102471  0.95102471  0.87984863  1.0
  Bi  Bi6  1  0.06781442  0.43218558  0.62772811  1.0
  Bi  Bi7  1  -0.43218558  0.93218558  0.37227189  1.0
  Te  Te8  1  0.24788593  0.58651915  0.36930257  1.0
  Te  Te9  1  -0.08651915  0.25211407  0.36930257  1.0
  Te  Te10  1  -0.25211407  1.08651915  0.63069743  1.0
  Te  Te11  1  -0.58651915  0.75211407  0.63069743  1.0
  O  O12  1  0.03479744  -0.03479744  0.00000000  1.0
  O  O13  1  -0.46520256  0.46520256  0.00000000  1.0
  O  O14  1  -0.04466797  0.72625987  0.01967409  1.0
  O  O15  1  -0.22625987  0.54466797  0.01967409  1.0
  O  O16  1  -0.54466797  1.22625987  0.98032591  1.0
  O  O17  1  -0.72625987  1.04466797  0.98032591  1.0
  O  O18  1  0.10432382  0.81894171  0.24654406  1.0
  O  O19  1  -0.31894171  0.39567618  0.24654406  1.0
  O  O20  1  -0.39567618  1.31894171  0.75345594  1.0
  O  O21  1  -0.81894171  0.89567618  0.75345594  1.0
  O  O22  1  -0.63679717  1.31895394  0.28428590  1.0
  O  O23  1  -0.81895394  1.13679717  0.28428590  1.0
  O  O24  1  -0.13679717  0.81895394  0.71571410  1.0
  O  O25  1  -0.31895394  0.63679717  0.71571410  1.0
  O  O26  1  -0.06376455  0.75991298  0.43897787  1.0
  O  O27  1  -0.25991298  0.56376455  0.43897787  1.0
  O  O28  1  -0.56376455  1.25991298  0.56102213  1.0
  O  O29  1  -0.75991298  1.06376455  0.56102213  1.0
  O  O30  1  0.20591241  0.29408759  0.79242715  1.0
  O  O31  1  -0.29408759  0.79408759  0.20757285  1.0
