# generated using pymatgen
data_Ga3Ru
_symmetry_space_group_name_H-M   'P 1'
_cell_length_a   6.52765450
_cell_length_b   6.52765450
_cell_length_c   6.77440785
_cell_angle_alpha   90.00000000
_cell_angle_beta   90.00000000
_cell_angle_gamma   90.00000000
_symmetry_Int_Tables_number   1
_chemical_formula_structural   Ga3Ru
_chemical_formula_sum   'Ga12 Ru4'
_cell_volume   288.65936994
_cell_formula_units_Z   4
loop_
 _symmetry_equiv_pos_site_id
 _symmetry_equiv_pos_as_xyz
  1  'x, y, z'
loop_
 _atom_site_type_symbol
 _atom_site_label
 _atom_site_symmetry_multiplicity
 _atom_site_fract_x
 _atom_site_fract_y
 _atom_site_fract_z
 _atom_site_occupancy
  Ga  Ga0  1  0.15526562  0.84473438  0.23496694  1.0
  Ga  Ga1  1  0.15526562  0.84473438  0.76503306  1.0
  Ga  Ga2  1  0.65526562  0.65526562  0.73496694  1.0
  Ga  Ga3  1  0.65526562  0.65526562  0.26503306  1.0
  Ga  Ga4  1  0.84473438  0.15526562  0.23496694  1.0
  Ga  Ga5  1  0.84473438  0.15526562  0.76503306  1.0
  Ga  Ga6  1  0.34473438  0.34473438  0.73496694  1.0
  Ga  Ga7  1  0.34473438  0.34473438  0.26503306  1.0
  Ga  Ga8  1  0.50000000  0.00000000  0.50000000  1.0
  Ga  Ga9  1  0.00000000  0.50000000  0.00000000  1.0
  Ga  Ga10  1  0.00000000  0.50000000  0.50000000  1.0
  Ga  Ga11  1  0.50000000  0.00000000  0.00000000  1.0
  Ru  Ru12  1  0.34104513  0.65895487  0.50000000  1.0
  Ru  Ru13  1  0.84104513  0.84104513  0.00000000  1.0
  Ru  Ru14  1  0.65895487  0.34104513  0.50000000  1.0
  Ru  Ru15  1  0.15895487  0.15895487  0.00000000  1.0
