# generated using pymatgen
data_CsGd2Ag3Se5
_symmetry_space_group_name_H-M   'P 1'
_cell_length_a   8.09607733
_cell_length_b   8.09607733
_cell_length_c   17.71924581
_cell_angle_alpha   90.00000000
_cell_angle_beta   90.00000000
_cell_angle_gamma   148.83269198
_symmetry_Int_Tables_number   1
_chemical_formula_structural   CsGd2Ag3Se5
_chemical_formula_sum   'Cs2 Gd4 Ag6 Se10'
_cell_volume   601.08722863
_cell_formula_units_Z   2
loop_
 _symmetry_equiv_pos_site_id
 _symmetry_equiv_pos_as_xyz
  1  'x, y, z'
loop_
 _atom_site_type_symbol
 _atom_site_label
 _atom_site_symmetry_multiplicity
 _atom_site_fract_x
 _atom_site_fract_y
 _atom_site_fract_z
 _atom_site_occupancy
  Cs  Cs0  1  0.43681321  0.56318679  0.75000000  1.0
  Cs  Cs1  1  -0.43681321  0.43681321  0.25000000  1.0
  Gd  Gd2  1  0.30787859  0.69212141  0.40529869  1.0
  Gd  Gd3  1  0.30787859  0.69212141  0.09470131  1.0
  Gd  Gd4  1  -0.30787859  0.30787859  0.90529869  1.0
  Gd  Gd5  1  -0.30787859  0.30787859  0.59470131  1.0
  Ag  Ag6  1  0.08369502  0.91630498  0.46006263  1.0
  Ag  Ag7  1  0.08369502  0.91630498  0.03993737  1.0
  Ag  Ag8  1  -0.08369502  0.08369502  0.96006263  1.0
  Ag  Ag9  1  -0.08369502  0.08369502  0.53993737  1.0
  Ag  Ag10  1  0.15575443  0.84424557  0.75000000  1.0
  Ag  Ag11  1  -0.15575443  0.15575443  0.25000000  1.0
  Se  Se12  1  0.06797844  0.93202156  0.88405801  1.0
  Se  Se13  1  0.06797844  0.93202156  0.61594199  1.0
  Se  Se14  1  -0.06797844  0.06797844  0.38405801  1.0
  Se  Se15  1  -0.06797844  0.06797844  0.11594199  1.0
  Se  Se16  1  0.31939393  0.68060607  0.93034173  1.0
  Se  Se17  1  0.31939393  0.68060607  0.56965827  1.0
  Se  Se18  1  -0.31939393  0.31939393  0.43034173  1.0
  Se  Se19  1  -0.31939393  0.31939393  0.06965827  1.0
  Se  Se20  1  -0.24950982  0.24950982  0.75000000  1.0
  Se  Se21  1  0.24950982  0.75049018  0.25000000  1.0
