# generated using pymatgen
data_Y3Si2(SnRh3)3
_symmetry_space_group_name_H-M   'P 1'
_cell_length_a   9.79807664
_cell_length_b   9.79807664
_cell_length_c   3.51244997
_cell_angle_alpha   90.00000000
_cell_angle_beta   90.00000000
_cell_angle_gamma   120.00000000
_symmetry_Int_Tables_number   1
_chemical_formula_structural   Y3Si2(SnRh3)3
_chemical_formula_sum   'Y3 Si2 Sn3 Rh9'
_cell_volume   292.02662044
_cell_formula_units_Z   1
loop_
 _symmetry_equiv_pos_site_id
 _symmetry_equiv_pos_as_xyz
  1  'x, y, z'
loop_
 _atom_site_type_symbol
 _atom_site_label
 _atom_site_symmetry_multiplicity
 _atom_site_fract_x
 _atom_site_fract_y
 _atom_site_fract_z
 _atom_site_occupancy
  Y  Y0  1  0.60030936  0.60030936  0.50000000  1.0
  Y  Y1  1  0.00000000  0.39969064  0.50000000  1.0
  Y  Y2  1  0.39969064  0.00000000  0.50000000  1.0
  Si  Si3  1  0.33333333  0.66666667  0.50000000  1.0
  Si  Si4  1  0.66666667  0.33333333  0.50000000  1.0
  Sn  Sn5  1  0.24019922  0.24019922  0.50000000  1.0
  Sn  Sn6  1  -0.00000000  0.75980078  0.50000000  1.0
  Sn  Sn7  1  0.75980078  0.00000000  0.50000000  1.0
  Rh  Rh8  1  0.18476418  0.70195463  -0.00000000  1.0
  Rh  Rh9  1  0.70195463  0.18476418  0.00000000  1.0
  Rh  Rh10  1  0.51719045  0.81523582  -0.00000000  1.0
  Rh  Rh11  1  0.29804537  0.48280955  -0.00000000  1.0
  Rh  Rh12  1  0.81523582  0.51719045  0.00000000  1.0
  Rh  Rh13  1  0.48280955  0.29804537  0.00000000  1.0
  Rh  Rh14  1  0.83550273  0.83550273  0.00000000  1.0
  Rh  Rh15  1  -0.00000000  0.16449727  0.00000000  1.0
  Rh  Rh16  1  0.16449727  0.00000000  0.00000000  1.0
