# generated using pymatgen
data_Ta(PO4)2
_symmetry_space_group_name_H-M   'P 1'
_cell_length_a   15.62704538
_cell_length_b   5.30056948
_cell_length_c   7.88626533
_cell_angle_alpha   90.00000000
_cell_angle_beta   90.00000000
_cell_angle_gamma   90.00000000
_symmetry_Int_Tables_number   1
_chemical_formula_structural   Ta(PO4)2
_chemical_formula_sum   'Ta4 P8 O32'
_cell_volume   653.23702054
_cell_formula_units_Z   4
loop_
 _symmetry_equiv_pos_site_id
 _symmetry_equiv_pos_as_xyz
  1  'x, y, z'
loop_
 _atom_site_type_symbol
 _atom_site_label
 _atom_site_symmetry_multiplicity
 _atom_site_fract_x
 _atom_site_fract_y
 _atom_site_fract_z
 _atom_site_occupancy
  P  P0  1  0.50074603  0.75000000  0.26570619  1.0
  P  P1  1  1.00074603  0.75000000  0.23429381  1.0
  P  P2  1  0.49925397  0.25000000  0.73429381  1.0
  P  P3  1  -0.00074603  0.25000000  0.76570619  1.0
  P  P4  1  0.30720767  0.75000000  0.61759231  1.0
  P  P5  1  0.80720767  0.75000000  0.88240769  1.0
  P  P6  1  0.69279233  0.25000000  0.38240769  1.0
  P  P7  1  0.19279233  0.25000000  0.11759231  1.0
  O  O8  1  0.31179296  0.98801729  0.50258744  1.0
  O  O9  1  0.31179296  0.51198271  0.50258744  1.0
  O  O10  1  0.81179296  0.98801729  0.99741256  1.0
  O  O11  1  0.81179296  0.51198271  0.99741256  1.0
  O  O12  1  0.68820704  0.48801729  0.49741256  1.0
  O  O13  1  0.68820704  0.01198271  0.49741256  1.0
  O  O14  1  0.18820704  0.48801729  0.00258744  1.0
  O  O15  1  0.18820704  0.01198271  0.00258744  1.0
  O  O16  1  0.06027402  0.48379921  0.75307018  1.0
  O  O17  1  0.06027402  0.01620079  0.75307018  1.0
  O  O18  1  0.56027402  0.48379921  0.74692982  1.0
  O  O19  1  0.56027402  0.01620079  0.74692982  1.0
  O  O20  1  0.93972598  0.98379921  0.24692982  1.0
  O  O21  1  0.93972598  0.51620079  0.24692982  1.0
  O  O22  1  0.43972598  0.98379921  0.25307018  1.0
  O  O23  1  0.43972598  0.51620079  0.25307018  1.0
  O  O24  1  0.21585824  0.75000000  0.69918475  1.0
  O  O25  1  0.71585824  0.75000000  0.80081525  1.0
  O  O26  1  0.78414176  0.25000000  0.30081525  1.0
  O  O27  1  0.28414176  0.25000000  0.19918475  1.0
  O  O28  1  0.03834186  0.75000000  0.05054632  1.0
  O  O29  1  0.53834186  0.75000000  0.44945368  1.0
  O  O30  1  0.96165814  0.25000000  0.94945368  1.0
  O  O31  1  0.46165814  0.25000000  0.55054632  1.0
  O  O32  1  0.57083384  0.75000000  0.13278181  1.0
  O  O33  1  1.07083384  0.75000000  0.36721819  1.0
  O  O34  1  0.42916616  0.25000000  0.86721819  1.0
  O  O35  1  -0.07083384  0.25000000  0.63278181  1.0
  O  O36  1  0.37903462  0.75000000  0.74922774  1.0
  O  O37  1  0.87903462  0.75000000  0.75077226  1.0
  O  O38  1  0.62096538  0.25000000  0.25077226  1.0
  O  O39  1  0.12096538  0.25000000  0.24922774  1.0
  Ta  Ta40  1  0.12503449  0.75000000  0.86817796  1.0
  Ta  Ta41  1  0.62503449  0.75000000  0.63182204  1.0
  Ta  Ta42  1  0.87496551  0.25000000  0.13182204  1.0
  Ta  Ta43  1  0.37496551  0.25000000  0.36817796  1.0
