# generated using pymatgen
data_Ge2Os
_symmetry_space_group_name_H-M   'P 1'
_cell_length_a   4.80732066
_cell_length_b   4.80732066
_cell_length_c   7.75551396
_cell_angle_alpha   62.54333434
_cell_angle_beta   117.45666566
_cell_angle_gamma   141.99318269
_symmetry_Int_Tables_number   1
_chemical_formula_structural   Ge2Os
_chemical_formula_sum   'Ge4 Os2'
_cell_volume   96.35121268
_cell_formula_units_Z   2
loop_
 _symmetry_equiv_pos_site_id
 _symmetry_equiv_pos_as_xyz
  1  'x, y, z'
loop_
 _atom_site_type_symbol
 _atom_site_label
 _atom_site_symmetry_multiplicity
 _atom_site_fract_x
 _atom_site_fract_y
 _atom_site_fract_z
 _atom_site_occupancy
  Ge  Ge0  1  0.85589514  -0.85589514  0.46749013  1.0
  Ge  Ge1  1  0.14410486  -0.14410486  0.53250987  1.0
  Ge  Ge2  1  0.60095531  0.39904469  0.88876739  1.0
  Ge  Ge3  1  1.39904469  -0.39904469  0.11123261  1.0
  Os  Os4  1  0.84605999  0.15394001  0.79940942  1.0
  Os  Os5  1  1.15394001  -0.15394001  0.20059058  1.0
