# generated using pymatgen
data_VO3
_symmetry_space_group_name_H-M   'P 1'
_cell_length_a   18.01311514
_cell_length_b   18.01311514
_cell_length_c   5.68277477
_cell_angle_alpha   90.00000000
_cell_angle_beta   90.00000000
_cell_angle_gamma   90.00000000
_symmetry_Int_Tables_number   1
_chemical_formula_structural   VO3
_chemical_formula_sum   'V16 O48'
_cell_volume   1843.90309659
_cell_formula_units_Z   16
loop_
 _symmetry_equiv_pos_site_id
 _symmetry_equiv_pos_as_xyz
  1  'x, y, z'
loop_
 _atom_site_type_symbol
 _atom_site_label
 _atom_site_symmetry_multiplicity
 _atom_site_fract_x
 _atom_site_fract_y
 _atom_site_fract_z
 _atom_site_occupancy
  V  V0  1  0.18868190  1.05671263  0.75001821  1.0
  V  V1  1  0.18868190  -0.05671263  1.25001821  1.0
  V  V2  1  0.68868190  0.55671263  -0.25001821  1.0
  V  V3  1  0.68868190  0.44328737  0.24998179  1.0
  V  V4  1  1.05671263  0.18868190  -0.25001821  1.0
  V  V5  1  1.05671263  0.81131810  0.24998179  1.0
  V  V6  1  0.55671263  0.68868190  0.75001821  1.0
  V  V7  1  0.55671263  0.31131810  1.25001821  1.0
  V  V8  1  0.81131810  1.05671263  1.25001821  1.0
  V  V9  1  0.81131810  -0.05671263  0.75001821  1.0
  V  V10  1  0.31131810  0.55671263  0.24998179  1.0
  V  V11  1  0.31131810  0.44328737  -0.25001821  1.0
  V  V12  1  -0.05671263  0.18868190  0.24998179  1.0
  V  V13  1  -0.05671263  0.81131810  -0.25001821  1.0
  V  V14  1  0.44328737  0.68868190  1.25001821  1.0
  V  V15  1  0.44328737  0.31131810  0.75001821  1.0
  O  O16  1  0.20823268  0.99998650  0.50005000  1.0
  O  O17  1  0.20823268  0.00001350  1.00005000  1.0
  O  O18  1  0.70823268  0.49998650  -0.00005000  1.0
  O  O19  1  0.70823268  0.50001350  0.49995000  1.0
  O  O20  1  0.99998650  0.20823268  -0.00005000  1.0
  O  O21  1  0.99998650  0.79176732  0.49995000  1.0
  O  O22  1  0.49998650  0.70823268  0.50005000  1.0
  O  O23  1  0.49998650  0.29176732  1.00005000  1.0
  O  O24  1  0.79176732  0.99998650  1.00005000  1.0
  O  O25  1  0.79176732  0.00001350  0.50005000  1.0
  O  O26  1  0.29176732  0.49998650  0.49995000  1.0
  O  O27  1  0.29176732  0.50001350  -0.00005000  1.0
  O  O28  1  0.00001350  0.20823268  0.49995000  1.0
  O  O29  1  0.00001350  0.79176732  -0.00005000  1.0
  O  O30  1  0.50001350  0.70823268  1.00005000  1.0
  O  O31  1  0.50001350  0.29176732  0.50005000  1.0
  O  O32  1  0.37680146  0.25464582  0.74997862  1.0
  O  O33  1  0.37680146  0.74535418  1.24997862  1.0
  O  O34  1  0.87680146  0.75464582  -0.24997862  1.0
  O  O35  1  0.87680146  0.24535418  0.25002138  1.0
  O  O36  1  0.25464582  0.37680146  -0.24997862  1.0
  O  O37  1  0.25464582  0.62319854  0.25002138  1.0
  O  O38  1  0.75464582  0.87680146  0.74997862  1.0
  O  O39  1  0.75464582  0.12319854  1.24997862  1.0
  O  O40  1  0.62319854  0.25464582  1.24997862  1.0
  O  O41  1  0.62319854  0.74535418  0.74997862  1.0
  O  O42  1  0.12319854  0.75464582  0.25002138  1.0
  O  O43  1  0.12319854  0.24535418  -0.24997862  1.0
  O  O44  1  0.74535418  0.37680146  0.25002138  1.0
  O  O45  1  0.74535418  0.62319854  -0.24997862  1.0
  O  O46  1  0.24535418  0.87680146  1.24997862  1.0
  O  O47  1  0.24535418  0.12319854  0.74997862  1.0
  O  O48  1  0.40791575  0.40790724  0.88008550  1.0
  O  O49  1  0.40791575  0.59209276  0.38008551  1.0
  O  O50  1  0.90791575  0.90790724  0.61991449  1.0
  O  O51  1  0.90791575  0.09209276  0.11991449  1.0
  O  O52  1  0.40790724  0.40791575  0.61991449  1.0
  O  O53  1  0.40790724  0.59208425  0.11991449  1.0
  O  O54  1  0.90790724  0.90791575  0.88008550  1.0
  O  O55  1  0.90790724  0.09208425  0.38008551  1.0
  O  O56  1  0.59208425  0.40790724  0.38008551  1.0
  O  O57  1  0.59208425  0.59209276  0.88008550  1.0
  O  O58  1  0.09208425  0.90790724  0.11991449  1.0
  O  O59  1  0.09208425  0.09209276  0.61991449  1.0
  O  O60  1  0.59209276  0.40791575  0.11991449  1.0
  O  O61  1  0.59209276  0.59208425  0.61991449  1.0
  O  O62  1  0.09209276  0.90791575  0.38008551  1.0
  O  O63  1  0.09209276  0.09208425  0.88008550  1.0
