# generated using pymatgen
data_Rb2NaMn3F12
_symmetry_space_group_name_H-M   'P 1'
_cell_length_a   10.37063322
_cell_length_b   7.66184436
_cell_length_c   7.29088335
_cell_angle_alpha   89.45520946
_cell_angle_beta   86.44330719
_cell_angle_gamma   89.93790740
_symmetry_Int_Tables_number   1
_chemical_formula_structural   Rb2NaMn3F12
_chemical_formula_sum   'Rb4 Na2 Mn6 F24'
_cell_volume   578.17826883
_cell_formula_units_Z   2
loop_
 _symmetry_equiv_pos_site_id
 _symmetry_equiv_pos_as_xyz
  1  'x, y, z'
loop_
 _atom_site_type_symbol
 _atom_site_label
 _atom_site_symmetry_multiplicity
 _atom_site_fract_x
 _atom_site_fract_y
 _atom_site_fract_z
 _atom_site_occupancy
  Rb  Rb0  1  -0.39454102  -0.75099367  -0.98067111  1.0
  Rb  Rb1  1  -0.60545898  -0.24900633  -0.01932889  1.0
  Rb  Rb2  1  -0.86121192  -0.23702790  -0.47268091  1.0
  Rb  Rb3  1  -0.13878808  -0.76297210  -0.52731909  1.0
  Na  Na4  1  -0.74652692  -0.73864328  -0.20897945  1.0
  Na  Na5  1  -0.25347308  -0.26135672  -0.79102055  1.0
  Mn  Mn6  1  -0.78347638  -0.75137704  -0.68977634  1.0
  Mn  Mn7  1  -0.21652362  -0.24862296  -0.31022366  1.0
  Mn  Mn8  1  -0.50000000  -0.50000000  -0.50000000  1.0
  Mn  Mn9  1  -0.50000000  -0.00000000  -0.50000000  1.0
  Mn  Mn10  1  -0.00000000  -0.50000000  0.00000000  1.0
  Mn  Mn11  1  0.00000000  0.00000000  0.00000000  1.0
  F  F12  1  -0.68593950  -0.73304734  -0.90859950  1.0
  F  F13  1  -0.31406050  -0.26695266  -0.09140050  1.0
  F  F14  1  -0.16007042  -0.96828762  -0.87916510  1.0
  F  F15  1  -0.83992958  -0.03171238  -0.12083490  1.0
  F  F16  1  -0.15479070  -0.54611661  -0.86696933  1.0
  F  F17  1  -0.84520930  -0.45388339  -0.13303067  1.0
  F  F18  1  -0.91947441  -0.94493379  -0.78204156  1.0
  F  F19  1  -0.08052559  -0.05506621  -0.21795844  1.0
  F  F20  1  -0.89471845  -0.56947145  -0.75779203  1.0
  F  F21  1  -0.10528155  -0.43052855  -0.24220797  1.0
  F  F22  1  -0.45217335  -0.45176558  -0.74414141  1.0
  F  F23  1  -0.54782665  -0.54823442  -0.25585859  1.0
  F  F24  1  -0.68023521  -0.94107356  -0.61938053  1.0
  F  F25  1  -0.31976479  -0.05892644  -0.38061947  1.0
  F  F26  1  -0.66896266  -0.55284374  -0.56105688  1.0
  F  F27  1  -0.33103734  -0.44715626  -0.43894312  1.0
  F  F28  1  -0.43627361  -0.77096824  -0.54853498  1.0
  F  F29  1  -0.56372639  -0.22903176  -0.45146502  1.0
  F  F30  1  -0.87273192  -0.76825568  -0.46396372  1.0
  F  F31  1  -0.12726808  -0.23174432  -0.53603628  1.0
  F  F32  1  -0.56600592  -0.93493960  -0.26930758  1.0
  F  F33  1  -0.43399408  -0.06506040  -0.73069242  1.0
  F  F34  1  -0.98903616  -0.73167117  -0.08219452  1.0
  F  F35  1  -0.01096384  -0.26832883  -0.91780548  1.0
