# generated using pymatgen
data_Cd2Fe(CN)6
_symmetry_space_group_name_H-M   'P 1'
_cell_length_a   6.37497699
_cell_length_b   6.37497699
_cell_length_c   6.38279499
_cell_angle_alpha   90.00000000
_cell_angle_beta   90.00000000
_cell_angle_gamma   120.00000000
_symmetry_Int_Tables_number   1
_chemical_formula_structural   Cd2Fe(CN)6
_chemical_formula_sum   'Cd2 Fe1 C6 N6'
_cell_volume   224.64604146
_cell_formula_units_Z   1
loop_
 _symmetry_equiv_pos_site_id
 _symmetry_equiv_pos_as_xyz
  1  'x, y, z'
loop_
 _atom_site_type_symbol
 _atom_site_label
 _atom_site_symmetry_multiplicity
 _atom_site_fract_x
 _atom_site_fract_y
 _atom_site_fract_z
 _atom_site_occupancy
  Cd  Cd0  1  0.33333333  0.66666667  0.50002029  1.0
  Cd  Cd1  1  0.66666667  0.33333333  0.49997971  1.0
  Fe  Fe2  1  0.00000000  0.00000000  0.00000000  1.0
  C  C3  1  0.23346391  0.99999792  0.17700143  1.0
  C  C4  1  0.99999792  0.76653400  0.82299857  1.0
  C  C5  1  0.76653400  0.76653609  0.17700143  1.0
  C  C6  1  0.00000208  0.23346600  0.17700143  1.0
  C  C7  1  0.76653609  0.00000208  0.82299857  1.0
  C  C8  1  0.23346600  0.23346391  0.82299857  1.0
  N  N9  1  0.37283458  0.99999026  0.29943487  1.0
  N  N10  1  0.99999026  0.62715569  0.70056513  1.0
  N  N11  1  0.62715569  0.62716542  0.29943487  1.0
  N  N12  1  0.00000974  0.37284431  0.29943487  1.0
  N  N13  1  0.62716542  0.00000974  0.70056513  1.0
  N  N14  1  0.37284431  0.37283458  0.70056513  1.0
