# generated using pymatgen
data_SrH6C4SN2O7
_symmetry_space_group_name_H-M   'P 1'
_cell_length_a   9.24626849
_cell_length_b   7.18783259
_cell_length_c   9.57050697
_cell_angle_alpha   66.79681188
_cell_angle_beta   57.47499776
_cell_angle_gamma   69.11784047
_symmetry_Int_Tables_number   1
_chemical_formula_structural   SrH6C4SN2O7
_chemical_formula_sum   'Sr2 H12 C8 S2 N4 O14'
_cell_volume   484.26251170
_cell_formula_units_Z   2
loop_
 _symmetry_equiv_pos_site_id
 _symmetry_equiv_pos_as_xyz
  1  'x, y, z'
loop_
 _atom_site_type_symbol
 _atom_site_label
 _atom_site_symmetry_multiplicity
 _atom_site_fract_x
 _atom_site_fract_y
 _atom_site_fract_z
 _atom_site_occupancy
  Sr  Sr0  1  -0.43603592  0.80403176  -0.16271318  1.0
  Sr  Sr1  1  0.43603592  0.19596824  -0.83728682  1.0
  H  H2  1  0.84103342  1.00175715  -1.02342115  1.0
  H  H3  1  -0.84103342  -0.00175715  0.02342115  1.0
  H  H4  1  0.82034638  0.95676295  -0.84158175  1.0
  H  H5  1  -0.82034638  0.04323705  -0.15841825  1.0
  H  H6  1  -0.62492667  0.82090530  -0.37904455  1.0
  H  H7  1  0.62492667  0.17909470  -0.62095545  1.0
  H  H8  1  0.73690235  0.72151132  -0.92459553  1.0
  H  H9  1  -0.73690235  0.27848868  -0.07540447  1.0
  H  H10  1  -0.46334705  0.63716575  -0.40718777  1.0
  H  H11  1  0.46334705  0.36283425  -0.59281223  1.0
  H  H12  1  0.68178490  0.50723407  -0.86539363  1.0
  H  H13  1  -0.68178490  0.49276593  -0.13460637  1.0
  C  C14  1  -0.11620406  0.91031842  -0.60261775  1.0
  C  C15  1  0.11620406  0.08968158  -0.39738225  1.0
  C  C16  1  -0.00646951  0.77167357  -0.51377951  1.0
  C  C17  1  0.00646951  0.22832643  -0.48622049  1.0
  C  C18  1  0.30299553  0.72333918  -0.77645616  1.0
  C  C19  1  -0.30299553  0.27666082  -0.22354384  1.0
  C  C20  1  0.17417367  0.68027321  -0.58878309  1.0
  C  C21  1  -0.17417367  0.31972679  -0.41121691  1.0
  S  S22  1  -0.06033410  0.45076707  -0.71811474  1.0
  S  S23  1  0.06033410  0.54923293  -0.28188526  1.0
  N  N24  1  -0.22815849  0.44928780  -0.52604762  1.0
  N  N25  1  0.22815849  0.55071220  -0.47395238  1.0
  N  N26  1  0.08295648  0.28988361  -0.65691267  1.0
  N  N27  1  -0.08295648  0.71011639  -0.34308733  1.0
  O  O28  1  0.75749836  0.95986923  -0.90114703  1.0
  O  O29  1  -0.75749836  0.04013077  -0.09885297  1.0
  O  O30  1  -0.27366551  0.97854234  -0.50658500  1.0
  O  O31  1  0.27366551  0.02145766  -0.49341500  1.0
  O  O32  1  -0.04378975  0.94073917  -0.76362816  1.0
  O  O33  1  0.04378975  0.05926083  -0.23637184  1.0
  O  O34  1  0.35955187  0.88954413  -0.84201982  1.0
  O  O35  1  -0.35955187  0.11045587  -0.15798018  1.0
  O  O36  1  -0.56241762  0.70451191  -0.31844122  1.0
  O  O37  1  0.56241762  0.29548809  -0.68155878  1.0
  O  O38  1  0.72948592  0.62125040  -0.96612144  1.0
  O  O39  1  -0.72948592  0.37874960  -0.03387856  1.0
  O  O40  1  0.34904609  0.59211250  -0.85677099  1.0
  O  O41  1  -0.34904609  0.40788750  -0.14322901  1.0
