# generated using pymatgen
data_BaCaV2O7
_symmetry_space_group_name_H-M   'P 1'
_cell_length_a   15.60820948
_cell_length_b   5.84888097
_cell_length_c   7.58347904
_cell_angle_alpha   90.00000000
_cell_angle_beta   90.00000000
_cell_angle_gamma   90.00000000
_symmetry_Int_Tables_number   1
_chemical_formula_structural   BaCaV2O7
_chemical_formula_sum   'Ba4 Ca4 V8 O28'
_cell_volume   692.30004407
_cell_formula_units_Z   4
loop_
 _symmetry_equiv_pos_site_id
 _symmetry_equiv_pos_as_xyz
  1  'x, y, z'
loop_
 _atom_site_type_symbol
 _atom_site_label
 _atom_site_symmetry_multiplicity
 _atom_site_fract_x
 _atom_site_fract_y
 _atom_site_fract_z
 _atom_site_occupancy
  Ba  Ba0  1  0.21527180  0.75000000  0.13599293  1.0
  Ba  Ba1  1  0.71527180  0.75000000  0.36400707  1.0
  Ba  Ba2  1  0.78472820  0.25000000  0.86400707  1.0
  Ba  Ba3  1  0.28472820  0.25000000  0.63599293  1.0
  Ca  Ca4  1  0.44681408  0.75000000  0.38595420  1.0
  Ca  Ca5  1  0.94681408  0.75000000  0.11404580  1.0
  Ca  Ca6  1  0.55318592  0.25000000  0.61404580  1.0
  Ca  Ca7  1  0.05318592  0.25000000  0.88595420  1.0
  V  V8  1  0.43906452  0.75000000  0.79798795  1.0
  V  V9  1  0.93906452  0.75000000  0.70201205  1.0
  V  V10  1  0.56093548  0.25000000  0.20201205  1.0
  V  V11  1  0.06093548  0.25000000  0.29798795  1.0
  V  V12  1  0.14148159  0.75000000  0.66159326  1.0
  V  V13  1  0.64148159  0.75000000  0.83840674  1.0
  V  V14  1  0.85851841  0.25000000  0.33840674  1.0
  V  V15  1  0.35851841  0.25000000  0.16159326  1.0
  O  O16  1  0.43984303  0.98052308  0.65531521  1.0
  O  O17  1  0.43984303  0.51947692  0.65531521  1.0
  O  O18  1  0.93984303  0.98052308  0.84468479  1.0
  O  O19  1  0.93984303  0.51947692  0.84468479  1.0
  O  O20  1  0.56015697  0.48052308  0.34468479  1.0
  O  O21  1  0.56015697  0.01947692  0.34468479  1.0
  O  O22  1  0.06015697  0.48052308  0.15531521  1.0
  O  O23  1  0.06015697  0.01947692  0.15531521  1.0
  O  O24  1  0.15352954  0.98481219  0.79305834  1.0
  O  O25  1  0.15352954  0.51518781  0.79305834  1.0
  O  O26  1  0.65352954  0.98481219  0.70694166  1.0
  O  O27  1  0.65352954  0.51518781  0.70694166  1.0
  O  O28  1  0.84647046  0.48481219  0.20694166  1.0
  O  O29  1  0.84647046  0.01518781  0.20694166  1.0
  O  O30  1  0.34647046  0.48481219  0.29305834  1.0
  O  O31  1  0.34647046  0.01518781  0.29305834  1.0
  O  O32  1  0.35020203  0.75000000  0.91625318  1.0
  O  O33  1  0.85020203  0.75000000  0.58374682  1.0
  O  O34  1  0.64979797  0.25000000  0.08374682  1.0
  O  O35  1  0.14979797  0.25000000  0.41625318  1.0
  O  O36  1  0.21875152  0.75000000  0.50976346  1.0
  O  O37  1  0.71875152  0.75000000  0.99023654  1.0
  O  O38  1  0.78124848  0.25000000  0.49023654  1.0
  O  O39  1  0.28124848  0.25000000  0.00976346  1.0
  O  O40  1  0.03395277  0.75000000  0.56670795  1.0
  O  O41  1  0.53395277  0.75000000  0.93329205  1.0
  O  O42  1  0.96604723  0.25000000  0.43329205  1.0
  O  O43  1  0.46604723  0.25000000  0.06670795  1.0
