# generated using pymatgen
data_NaZn2Se2O7
_symmetry_space_group_name_H-M   'P 1'
_cell_length_a   13.57517867
_cell_length_b   6.28716531
_cell_length_c   8.32756542
_cell_angle_alpha   90.00000000
_cell_angle_beta   90.00000000
_cell_angle_gamma   90.00000000
_symmetry_Int_Tables_number   1
_chemical_formula_structural   NaZn2Se2O7
_chemical_formula_sum   'Na4 Zn8 Se8 O28'
_cell_volume   710.75264903
_cell_formula_units_Z   4
loop_
 _symmetry_equiv_pos_site_id
 _symmetry_equiv_pos_as_xyz
  1  'x, y, z'
loop_
 _atom_site_type_symbol
 _atom_site_label
 _atom_site_symmetry_multiplicity
 _atom_site_fract_x
 _atom_site_fract_y
 _atom_site_fract_z
 _atom_site_occupancy
  O  O0  1  0.48777984  0.46564480  0.75456179  1.0
  O  O1  1  0.48777984  0.03435520  0.75456179  1.0
  O  O2  1  0.98777984  0.46564480  0.74543821  1.0
  O  O3  1  0.98777984  0.03435520  0.74543821  1.0
  O  O4  1  0.51222016  0.96564480  0.24543821  1.0
  O  O5  1  0.51222016  0.53435520  0.24543821  1.0
  O  O6  1  0.01222016  0.96564480  0.25456179  1.0
  O  O7  1  0.01222016  0.53435520  0.25456179  1.0
  O  O8  1  0.26034024  0.95135497  0.79309732  1.0
  O  O9  1  0.26034024  0.54864503  0.79309732  1.0
  O  O10  1  0.76034024  0.95135497  0.70690268  1.0
  O  O11  1  0.76034024  0.54864503  0.70690268  1.0
  O  O12  1  0.73965976  0.45135497  0.20690268  1.0
  O  O13  1  0.73965976  0.04864503  0.20690268  1.0
  O  O14  1  0.23965976  0.45135497  0.29309732  1.0
  O  O15  1  0.23965976  0.04864503  0.29309732  1.0
  O  O16  1  0.41181700  0.75000000  0.02226597  1.0
  O  O17  1  0.91181700  0.75000000  0.47773403  1.0
  O  O18  1  0.58818300  0.25000000  0.97773403  1.0
  O  O19  1  0.08818300  0.25000000  0.52226597  1.0
  O  O20  1  0.11804445  0.75000000  0.96221341  1.0
  O  O21  1  0.61804445  0.75000000  0.53778659  1.0
  O  O22  1  0.88195555  0.25000000  0.03778659  1.0
  O  O23  1  0.38195555  0.25000000  0.46221341  1.0
  O  O24  1  0.41962495  0.75000000  0.54121962  1.0
  O  O25  1  0.91962495  0.75000000  0.95878038  1.0
  O  O26  1  0.58037505  0.25000000  0.45878038  1.0
  O  O27  1  0.08037505  0.25000000  0.04121962  1.0
  Zn  Zn28  1  0.39037990  0.75000000  0.77775120  1.0
  Zn  Zn29  1  0.89037990  0.75000000  0.72224880  1.0
  Zn  Zn30  1  0.60962010  0.25000000  0.22224880  1.0
  Zn  Zn31  1  0.10962010  0.25000000  0.27775120  1.0
  Zn  Zn32  1  0.50000000  0.00000000  0.50000000  1.0
  Zn  Zn33  1  0.50000000  0.50000000  0.50000000  1.0
  Zn  Zn34  1  -0.00000000  0.00000000  0.00000000  1.0
  Zn  Zn35  1  0.00000000  0.50000000  -0.00000000  1.0
  Se  Se36  1  0.17584950  0.75000000  0.77152371  1.0
  Se  Se37  1  0.67584950  0.75000000  0.72847629  1.0
  Se  Se38  1  0.82415050  0.25000000  0.22847629  1.0
  Se  Se39  1  0.32415050  0.25000000  0.27152371  1.0
  Se  Se40  1  0.02441427  0.75000000  0.38301643  1.0
  Se  Se41  1  0.52441427  0.75000000  0.11698357  1.0
  Se  Se42  1  0.97558573  0.25000000  0.61698357  1.0
  Se  Se43  1  0.47558573  0.25000000  0.88301643  1.0
  Na  Na44  1  0.25592231  0.75000000  0.13843145  1.0
  Na  Na45  1  0.75592231  0.75000000  0.36156855  1.0
  Na  Na46  1  0.74407769  0.25000000  0.86156855  1.0
  Na  Na47  1  0.24407769  0.25000000  0.63843145  1.0
