# generated using pymatgen
data_Pb2Au
_symmetry_space_group_name_H-M   'P 1'
_cell_length_a   6.02792149
_cell_length_b   6.02792149
_cell_length_c   6.02792149
_cell_angle_alpha   103.21140073
_cell_angle_beta   103.21140073
_cell_angle_gamma   122.88201188
_symmetry_Int_Tables_number   1
_chemical_formula_structural   Pb2Au
_chemical_formula_sum   'Pb4 Au2'
_cell_volume   161.55821983
_cell_formula_units_Z   2
loop_
 _symmetry_equiv_pos_site_id
 _symmetry_equiv_pos_as_xyz
  1  'x, y, z'
loop_
 _atom_site_type_symbol
 _atom_site_label
 _atom_site_symmetry_multiplicity
 _atom_site_fract_x
 _atom_site_fract_y
 _atom_site_fract_z
 _atom_site_occupancy
  Pb  Pb0  1  0.84016178  0.34016178  1.18032357  1.0
  Pb  Pb1  1  0.65983822  0.84016178  0.50000000  1.0
  Pb  Pb2  1  1.34016178  1.15983822  1.50000000  1.0
  Pb  Pb3  1  0.15983822  0.65983822  0.81967643  1.0
  Au  Au4  1  0.25000000  0.25000000  -0.00000000  1.0
  Au  Au5  1  0.75000000  0.75000000  -0.00000000  1.0
