# generated using pymatgen
data_AsS3(NF3)2
_symmetry_space_group_name_H-M   'P 1'
_cell_length_a   9.81314759
_cell_length_b   8.21267893
_cell_length_c   5.95281943
_cell_angle_alpha   106.48924487
_cell_angle_beta   100.53889628
_cell_angle_gamma   88.67109331
_symmetry_Int_Tables_number   1
_chemical_formula_structural   AsS3(NF3)2
_chemical_formula_sum   'As2 S6 N4 F12'
_cell_volume   452.05022090
_cell_formula_units_Z   2
loop_
 _symmetry_equiv_pos_site_id
 _symmetry_equiv_pos_as_xyz
  1  'x, y, z'
loop_
 _atom_site_type_symbol
 _atom_site_label
 _atom_site_symmetry_multiplicity
 _atom_site_fract_x
 _atom_site_fract_y
 _atom_site_fract_z
 _atom_site_occupancy
  F  F0  1  0.70373199  0.92406763  -0.96175101  1.0
  F  F1  1  0.29626801  0.07593237  -0.03824899  1.0
  F  F2  1  0.36786577  0.39038981  -0.85314562  1.0
  F  F3  1  0.63213423  0.60961019  -0.14685438  1.0
  F  F4  1  0.84623050  0.53172015  -0.88770410  1.0
  F  F5  1  0.15376950  0.46827985  -0.11229590  1.0
  F  F6  1  0.91747979  0.84385844  -0.70572241  1.0
  F  F7  1  0.08252021  0.15614156  -0.29427759  1.0
  F  F8  1  0.67739239  0.74143637  -0.69490326  1.0
  F  F9  1  0.32260761  0.25856363  -0.30509674  1.0
  F  F10  1  0.87297767  0.71727750  -0.15493432  1.0
  F  F11  1  0.12702233  0.28272250  -0.84506568  1.0
  S  S12  1  0.43159534  0.75972853  -0.46818945  1.0
  S  S13  1  0.56840466  0.24027147  -0.53181055  1.0
  S  S14  1  0.19202415  0.85799181  -0.72068352  1.0
  S  S15  1  0.80797585  0.14200819  -0.27931648  1.0
  S  S16  1  0.84901634  0.29017403  -0.52036913  1.0
  S  S17  1  0.15098366  0.70982597  -0.47963087  1.0
  As  As18  1  0.77384949  0.72589562  -0.92815056  1.0
  As  As19  1  0.22615051  0.27410438  -0.07184944  1.0
  N  N20  1  0.35832155  0.85250338  -0.65653130  1.0
  N  N21  1  0.64167845  0.14749662  -0.34346870  1.0
  N  N22  1  0.68877496  0.31461601  -0.62217876  1.0
  N  N23  1  0.31122504  0.68538399  -0.37782124  1.0
