# generated using pymatgen
data_Bi3S3O2
_symmetry_space_group_name_H-M   'P 1'
_cell_length_a   21.83696116
_cell_length_b   21.83696116
_cell_length_c   21.83696116
_cell_angle_alpha   169.56217163
_cell_angle_beta   169.56217163
_cell_angle_gamma   14.78187578
_symmetry_Int_Tables_number   1
_chemical_formula_structural   Bi3S3O2
_chemical_formula_sum   'Bi6 S6 O4'
_cell_volume   341.76439316
_cell_formula_units_Z   2
loop_
 _symmetry_equiv_pos_site_id
 _symmetry_equiv_pos_as_xyz
  1  'x, y, z'
loop_
 _atom_site_type_symbol
 _atom_site_label
 _atom_site_symmetry_multiplicity
 _atom_site_fract_x
 _atom_site_fract_y
 _atom_site_fract_z
 _atom_site_occupancy
  Bi  Bi0  1  0.88503251  0.88503251  1.00000000  1.0
  Bi  Bi1  1  0.11496749  0.11496749  0.00000000  1.0
  Bi  Bi2  1  0.70574275  0.70574275  1.00000000  1.0
  Bi  Bi3  1  0.29425725  0.29425725  0.00000000  1.0
  Bi  Bi4  1  0.55592884  0.55592884  1.00000000  1.0
  Bi  Bi5  1  0.44407116  0.44407116  0.00000000  1.0
  S  S6  1  0.97596219  0.97596219  1.00000000  1.0
  S  S7  1  0.02403781  0.02403781  0.00000000  1.0
  S  S8  1  0.78429987  0.78429987  1.00000000  1.0
  S  S9  1  0.21570013  0.21570013  0.00000000  1.0
  S  S10  1  0.64724620  0.64724620  1.00000000  1.0
  S  S11  1  0.35275380  0.35275380  0.00000000  1.0
  O  O12  1  0.41454737  0.91454737  0.50000000  1.0
  O  O13  1  0.58545263  0.08545263  0.50000000  1.0
  O  O14  1  0.91454737  0.41454737  0.50000000  1.0
  O  O15  1  0.08545263  0.58545263  0.50000000  1.0
