# generated using pymatgen
data_NbFeSi
_symmetry_space_group_name_H-M   'P 1'
_cell_length_a   6.21660037
_cell_length_b   3.73810560
_cell_length_c   6.98939880
_cell_angle_alpha   90.00000000
_cell_angle_beta   90.00000000
_cell_angle_gamma   90.00000000
_symmetry_Int_Tables_number   1
_chemical_formula_structural   NbFeSi
_chemical_formula_sum   'Nb4 Fe4 Si4'
_cell_volume   162.42180658
_cell_formula_units_Z   4
loop_
 _symmetry_equiv_pos_site_id
 _symmetry_equiv_pos_as_xyz
  1  'x, y, z'
loop_
 _atom_site_type_symbol
 _atom_site_label
 _atom_site_symmetry_multiplicity
 _atom_site_fract_x
 _atom_site_fract_y
 _atom_site_fract_z
 _atom_site_occupancy
  Nb  Nb0  1  0.98614141  0.75000000  0.68848899  1.0
  Nb  Nb1  1  0.48614141  0.75000000  0.81151101  1.0
  Nb  Nb2  1  0.01385859  0.25000000  0.31151101  1.0
  Nb  Nb3  1  0.51385859  0.25000000  0.18848899  1.0
  Fe  Fe4  1  0.85310326  0.75000000  0.06623477  1.0
  Fe  Fe5  1  0.35310326  0.75000000  0.43376523  1.0
  Fe  Fe6  1  0.14689674  0.25000000  0.93376523  1.0
  Fe  Fe7  1  0.64689674  0.25000000  0.56623477  1.0
  Si  Si8  1  0.72135576  0.75000000  0.38668551  1.0
  Si  Si9  1  0.22135576  0.75000000  0.11331449  1.0
  Si  Si10  1  0.27864424  0.25000000  0.61331449  1.0
  Si  Si11  1  0.77864424  0.25000000  0.88668551  1.0
