# generated using pymatgen
data_SiO2
_symmetry_space_group_name_H-M   'P 1'
_cell_length_a   12.87994861
_cell_length_b   12.87994861
_cell_length_c   3.89688438
_cell_angle_alpha   90.00000000
_cell_angle_beta   90.00000000
_cell_angle_gamma   120.00000000
_symmetry_Int_Tables_number   1
_chemical_formula_structural   SiO2
_chemical_formula_sum   'Si12 O24'
_cell_volume   559.85609779
_cell_formula_units_Z   12
loop_
 _symmetry_equiv_pos_site_id
 _symmetry_equiv_pos_as_xyz
  1  'x, y, z'
loop_
 _atom_site_type_symbol
 _atom_site_label
 _atom_site_symmetry_multiplicity
 _atom_site_fract_x
 _atom_site_fract_y
 _atom_site_fract_z
 _atom_site_occupancy
  Si  Si0  1  0.42918014  0.33431639  0.15491554  1.0
  Si  Si1  1  0.66568361  0.09486375  0.15491554  1.0
  Si  Si2  1  0.90513625  0.57081986  0.15491554  1.0
  Si  Si3  1  0.57081986  0.66568361  0.15491554  1.0
  Si  Si4  1  0.33431639  0.90513625  0.15491554  1.0
  Si  Si5  1  0.09486375  0.42918014  0.15491554  1.0
  Si  Si6  1  0.33431639  0.42918014  0.84508446  1.0
  Si  Si7  1  0.09486375  0.66568361  0.84508446  1.0
  Si  Si8  1  0.57081986  0.90513625  0.84508446  1.0
  Si  Si9  1  0.66568361  0.57081986  0.84508446  1.0
  Si  Si10  1  0.90513625  0.33431639  0.84508446  1.0
  Si  Si11  1  0.42918014  0.09486375  0.84508446  1.0
  O  O12  1  -0.00000000  0.70373365  -0.00000000  1.0
  O  O13  1  0.29626635  0.29626635  0.00000000  1.0
  O  O14  1  0.70373365  -0.00000000  0.00000000  1.0
  O  O15  1  0.00000000  0.29626635  -0.00000000  1.0
  O  O16  1  0.70373365  0.70373365  0.00000000  1.0
  O  O17  1  0.29626635  0.00000000  0.00000000  1.0
  O  O18  1  0.11853152  0.55926576  -0.00000000  1.0
  O  O19  1  0.44073424  0.55926576  0.00000000  1.0
  O  O20  1  0.44073424  0.88146848  0.00000000  1.0
  O  O21  1  0.88146848  0.44073424  -0.00000000  1.0
  O  O22  1  0.55926576  0.44073424  0.00000000  1.0
  O  O23  1  0.55926576  0.11853152  -0.00000000  1.0
  O  O24  1  0.22182812  0.77817188  0.00000000  1.0
  O  O25  1  0.22182812  0.44365624  -0.00000000  1.0
  O  O26  1  0.55634376  0.77817188  0.00000000  1.0
  O  O27  1  0.77817188  0.22182812  -0.00000000  1.0
  O  O28  1  0.77817188  0.55634376  0.00000000  1.0
  O  O29  1  0.44365624  0.22182812  0.00000000  1.0
  O  O30  1  -0.00000000  0.59829618  0.50000000  1.0
  O  O31  1  0.40170382  0.40170382  0.50000000  1.0
  O  O32  1  0.59829618  0.00000000  0.50000000  1.0
  O  O33  1  -0.00000000  0.40170382  0.50000000  1.0
  O  O34  1  0.59829618  0.59829618  0.50000000  1.0
  O  O35  1  0.40170382  -0.00000000  0.50000000  1.0
