# generated using pymatgen
data_AgN2ClO4
_symmetry_space_group_name_H-M   'P 1'
_cell_length_a   7.35302679
_cell_length_b   10.79518977
_cell_length_c   7.51106682
_cell_angle_alpha   90.00000000
_cell_angle_beta   90.00000000
_cell_angle_gamma   90.00000000
_symmetry_Int_Tables_number   1
_chemical_formula_structural   AgN2ClO4
_chemical_formula_sum   'Ag4 N8 Cl4 O16'
_cell_volume   596.20835151
_cell_formula_units_Z   4
loop_
 _symmetry_equiv_pos_site_id
 _symmetry_equiv_pos_as_xyz
  1  'x, y, z'
loop_
 _atom_site_type_symbol
 _atom_site_label
 _atom_site_symmetry_multiplicity
 _atom_site_fract_x
 _atom_site_fract_y
 _atom_site_fract_z
 _atom_site_occupancy
  Ag  Ag0  1  0.50000000  0.50000000  0.00000000  1.0
  Ag  Ag1  1  0.00000000  0.00000000  0.50000000  1.0
  Ag  Ag2  1  0.50000000  0.50000000  0.50000000  1.0
  Ag  Ag3  1  0.00000000  0.00000000  0.00000000  1.0
  O  O4  1  0.34227273  0.68615100  0.50000000  1.0
  O  O5  1  0.84227273  0.81384900  -0.00000000  1.0
  O  O6  1  0.65772727  0.31384900  0.50000000  1.0
  O  O7  1  0.15772727  0.18615100  -0.00000000  1.0
  O  O8  1  0.29871056  0.90712038  0.50000000  1.0
  O  O9  1  0.79871056  0.59287962  -0.00000000  1.0
  O  O10  1  0.70128944  0.09287962  0.50000000  1.0
  O  O11  1  0.20128944  0.40712038  -0.00000000  1.0
  O  O12  1  0.04943038  0.68105824  0.16026675  1.0
  O  O13  1  0.04943038  0.68105824  0.83973325  1.0
  O  O14  1  0.54943038  0.81894176  0.66026675  1.0
  O  O15  1  0.54943038  0.81894176  0.33973325  1.0
  O  O16  1  0.95056962  0.31894176  0.16026675  1.0
  O  O17  1  0.95056962  0.31894176  0.83973325  1.0
  O  O18  1  0.45056962  0.18105824  0.66026675  1.0
  O  O19  1  0.45056962  0.18105824  0.33973325  1.0
  Cl  Cl20  1  0.43983971  0.80926509  0.50000000  1.0
  Cl  Cl21  1  0.93983971  0.69073491  0.00000000  1.0
  Cl  Cl22  1  0.56016029  0.19073491  0.50000000  1.0
  Cl  Cl23  1  0.06016029  0.30926509  0.00000000  1.0
  N  N24  1  0.77930119  0.56170447  0.50000000  1.0
  N  N25  1  0.27930119  0.93829553  0.00000000  1.0
  N  N26  1  0.22069881  0.43829553  0.50000000  1.0
  N  N27  1  0.72069881  0.06170447  0.00000000  1.0
  N  N28  1  0.91457547  0.81392300  0.50000000  1.0
  N  N29  1  0.41457547  0.68607700  0.00000000  1.0
  N  N30  1  0.08542453  0.18607700  0.50000000  1.0
  N  N31  1  0.58542453  0.31392300  0.00000000  1.0
