# generated using pymatgen
data_K2Te2Pd
_symmetry_space_group_name_H-M   'P 1'
_cell_length_a   7.25517418
_cell_length_b   7.25517418
_cell_length_c   7.25517418
_cell_angle_alpha   147.13473016
_cell_angle_beta   107.02239474
_cell_angle_gamma   82.37467934
_symmetry_Int_Tables_number   1
_chemical_formula_structural   K2Te2Pd
_chemical_formula_sum   'K2 Te2 Pd1'
_cell_volume   193.38911739
_cell_formula_units_Z   1
loop_
 _symmetry_equiv_pos_site_id
 _symmetry_equiv_pos_as_xyz
  1  'x, y, z'
loop_
 _atom_site_type_symbol
 _atom_site_label
 _atom_site_symmetry_multiplicity
 _atom_site_fract_x
 _atom_site_fract_y
 _atom_site_fract_z
 _atom_site_occupancy
  K  K0  1  1.28013472  1.28013472  1.00000000  1.0
  K  K1  1  0.71986528  0.71986528  1.00000000  1.0
  Te  Te2  1  0.20034716  0.50000000  0.70034716  1.0
  Te  Te3  1  0.79965284  0.50000000  1.29965284  1.0
  Pd  Pd4  1  0.00000000  0.00000000  0.00000000  1.0
