# generated using pymatgen
data_K(MoS)3
_symmetry_space_group_name_H-M   'P 1'
_cell_length_a   8.98853000
_cell_length_b   8.98853000
_cell_length_c   4.44095755
_cell_angle_alpha   90.00000000
_cell_angle_beta   90.00000000
_cell_angle_gamma   120.00000000
_symmetry_Int_Tables_number   1
_chemical_formula_structural   K(MoS)3
_chemical_formula_sum   'K2 Mo6 S6'
_cell_volume   310.73101100
_cell_formula_units_Z   2
loop_
 _symmetry_equiv_pos_site_id
 _symmetry_equiv_pos_as_xyz
  1  'x, y, z'
loop_
 _atom_site_type_symbol
 _atom_site_label
 _atom_site_symmetry_multiplicity
 _atom_site_fract_x
 _atom_site_fract_y
 _atom_site_fract_z
 _atom_site_occupancy
  K  K0  1  0.33333333  0.66666667  0.25000000  1.0
  K  K1  1  0.66666667  0.33333333  0.75000000  1.0
  Mo  Mo2  1  0.03390592  0.84869362  0.25000000  1.0
  Mo  Mo3  1  0.84869362  0.81478770  0.75000000  1.0
  Mo  Mo4  1  0.81478770  0.96609408  0.25000000  1.0
  Mo  Mo5  1  0.15130638  0.18521230  0.25000000  1.0
  Mo  Mo6  1  0.96609408  0.15130638  0.75000000  1.0
  Mo  Mo7  1  0.18521230  0.03390592  0.75000000  1.0
  S  S8  1  0.71732075  0.65213535  0.25000000  1.0
  S  S9  1  0.65213535  0.93481460  0.75000000  1.0
  S  S10  1  0.93481460  0.28267925  0.25000000  1.0
  S  S11  1  0.34786465  0.06518540  0.25000000  1.0
  S  S12  1  0.28267925  0.34786465  0.75000000  1.0
  S  S13  1  0.06518540  0.71732075  0.75000000  1.0
