# generated using pymatgen
data_K3WS3ClO
_symmetry_space_group_name_H-M   'P 1'
_cell_length_a   12.69501766
_cell_length_b   6.41786495
_cell_length_c   12.55777745
_cell_angle_alpha   90.00000000
_cell_angle_beta   90.00000000
_cell_angle_gamma   90.00000000
_symmetry_Int_Tables_number   1
_chemical_formula_structural   K3WS3ClO
_chemical_formula_sum   'K12 W4 S12 Cl4 O4'
_cell_volume   1023.14377287
_cell_formula_units_Z   4
loop_
 _symmetry_equiv_pos_site_id
 _symmetry_equiv_pos_as_xyz
  1  'x, y, z'
loop_
 _atom_site_type_symbol
 _atom_site_label
 _atom_site_symmetry_multiplicity
 _atom_site_fract_x
 _atom_site_fract_y
 _atom_site_fract_z
 _atom_site_occupancy
  K  K0  1  0.48191352  0.41673922  0.74912600  1.0
  K  K1  1  0.98191352  0.58326078  0.74912600  1.0
  K  K2  1  0.51808648  0.58326078  0.24912600  1.0
  K  K3  1  0.01808648  0.41673922  0.24912600  1.0
  K  K4  1  0.23514220  0.60245151  0.50982011  1.0
  K  K5  1  0.73514220  0.39754849  0.50982011  1.0
  K  K6  1  0.76485780  0.39754849  0.00982011  1.0
  K  K7  1  0.26485780  0.60245151  0.00982011  1.0
  K  K8  1  0.20386795  0.03947430  0.75183152  1.0
  K  K9  1  0.70386795  0.96052570  0.75183152  1.0
  K  K10  1  0.79613205  0.96052570  0.25183152  1.0
  K  K11  1  0.29613205  0.03947430  0.25183152  1.0
  W  W12  1  0.49414732  0.00035304  0.50050679  1.0
  W  W13  1  0.99414732  0.99964696  0.50050679  1.0
  W  W14  1  0.50585268  0.99964696  0.00050679  1.0
  W  W15  1  0.00585268  0.00035304  0.00050679  1.0
  S  S16  1  0.32742348  0.09840562  0.51999059  1.0
  S  S17  1  0.82742348  0.90159438  0.51999059  1.0
  S  S18  1  0.67257652  0.90159438  0.01999059  1.0
  S  S19  1  0.17257652  0.09840562  0.01999059  1.0
  S  S20  1  0.00468855  0.34307661  0.51922428  1.0
  S  S21  1  0.50468855  0.65692339  0.51922428  1.0
  S  S22  1  0.99531145  0.65692339  0.01922428  1.0
  S  S23  1  0.49531145  0.34307661  0.01922428  1.0
  S  S24  1  0.95167963  0.08358027  0.83778010  1.0
  S  S25  1  0.45167963  0.91641973  0.83778010  1.0
  S  S26  1  0.04832037  0.91641973  0.33778010  1.0
  S  S27  1  0.54832037  0.08358027  0.33778010  1.0
  Cl  Cl28  1  0.23340156  0.52541723  0.76172955  1.0
  Cl  Cl29  1  0.73340156  0.47458277  0.76172955  1.0
  Cl  Cl30  1  0.76659844  0.47458277  0.26172955  1.0
  Cl  Cl31  1  0.26659844  0.52541723  0.26172955  1.0
  O  O32  1  0.92620649  0.12845851  0.09589105  1.0
  O  O33  1  0.42620649  0.87154149  0.09589105  1.0
  O  O34  1  0.07379351  0.87154149  0.59589105  1.0
  O  O35  1  0.57379351  0.12845851  0.59589105  1.0
