# generated using pymatgen
data_Sb3O8
_symmetry_space_group_name_H-M   'P 1'
_cell_length_a   9.62595535
_cell_length_b   9.02808144
_cell_length_c   13.84656110
_cell_angle_alpha   90.00000000
_cell_angle_beta   133.55241665
_cell_angle_gamma   90.00000000
_symmetry_Int_Tables_number   1
_chemical_formula_structural   Sb3O8
_chemical_formula_sum   'Sb18 O48'
_cell_volume   872.09955454
_cell_formula_units_Z   6
loop_
 _symmetry_equiv_pos_site_id
 _symmetry_equiv_pos_as_xyz
  1  'x, y, z'
loop_
 _atom_site_type_symbol
 _atom_site_label
 _atom_site_symmetry_multiplicity
 _atom_site_fract_x
 _atom_site_fract_y
 _atom_site_fract_z
 _atom_site_occupancy
  O  O0  1  0.96719901  0.50960572  0.33614589  1.0
  O  O1  1  0.96719901  0.49039428  0.83614589  1.0
  O  O2  1  0.03280099  0.50960572  0.16385411  1.0
  O  O3  1  0.03280099  0.49039428  0.66385411  1.0
  O  O4  1  0.95364424  0.83275310  0.84002501  1.0
  O  O5  1  0.95364424  0.16724690  0.34002501  1.0
  O  O6  1  0.04635576  0.83275310  0.65997499  1.0
  O  O7  1  0.04635576  0.16724690  0.15997499  1.0
  O  O8  1  0.94220609  0.83760241  0.32634426  1.0
  O  O9  1  0.94220609  0.16239759  0.82634426  1.0
  O  O10  1  0.05779391  0.83760241  0.17365574  1.0
  O  O11  1  0.05779391  0.16239759  0.67365574  1.0
  O  O12  1  0.76365993  0.67426139  0.41916580  1.0
  O  O13  1  0.76365993  0.32573861  0.91916580  1.0
  O  O14  1  0.23634007  0.67426139  0.08083420  1.0
  O  O15  1  0.23634007  0.32573861  0.58083420  1.0
  O  O16  1  0.73604480  0.65987460  0.08337832  1.0
  O  O17  1  0.73604480  0.34012540  0.58337832  1.0
  O  O18  1  0.26395520  0.65987460  0.41662168  1.0
  O  O19  1  0.26395520  0.34012540  0.91662168  1.0
  O  O20  1  0.73337951  0.33344531  0.09049279  1.0
  O  O21  1  0.73337951  0.66655469  0.59049279  1.0
  O  O22  1  0.26662049  0.33344531  0.40950721  1.0
  O  O23  1  0.26662049  0.66655469  0.90950721  1.0
  O  O24  1  0.73592238  1.00104014  0.09518804  1.0
  O  O25  1  0.73592238  -0.00104014  0.59518804  1.0
  O  O26  1  0.26407762  1.00104014  0.40481196  1.0
  O  O27  1  0.26407762  -0.00104014  0.90481196  1.0
  O  O28  1  0.55049896  0.49913117  0.15768852  1.0
  O  O29  1  0.55049896  0.50086883  0.65768852  1.0
  O  O30  1  0.44950104  0.49913117  0.34231148  1.0
  O  O31  1  0.44950104  0.50086883  0.84231148  1.0
  O  O32  1  0.78606717  0.99385205  0.40984246  1.0
  O  O33  1  0.78606717  0.00614795  0.90984246  1.0
  O  O34  1  0.21393283  0.99385205  0.09015754  1.0
  O  O35  1  0.21393283  0.00614795  0.59015754  1.0
  O  O36  1  0.46835798  0.85322900  0.35296648  1.0
  O  O37  1  0.46835798  0.14677100  0.85296648  1.0
  O  O38  1  0.53164202  0.85322900  0.14703352  1.0
  O  O39  1  0.53164202  0.14677100  0.64703352  1.0
  O  O40  1  0.41344946  0.82480887  0.82140300  1.0
  O  O41  1  0.41344946  0.17519113  0.32140300  1.0
  O  O42  1  0.58655054  0.82480887  0.67859700  1.0
  O  O43  1  0.58655054  0.17519113  0.17859700  1.0
  O  O44  1  0.79060594  0.35210545  0.40728267  1.0
  O  O45  1  0.79060594  0.64789455  0.90728267  1.0
  O  O46  1  0.20939406  0.35210545  0.09271733  1.0
  O  O47  1  0.20939406  0.64789455  0.59271733  1.0
  Sb  Sb48  1  0.75777814  0.35342552  0.24993982  1.0
  Sb  Sb49  1  0.75777814  0.64657448  0.74993982  1.0
  Sb  Sb50  1  0.24222186  0.35342552  0.25006018  1.0
  Sb  Sb51  1  0.24222186  0.64657448  0.75006018  1.0
  Sb  Sb52  1  0.74839199  0.99362595  0.24820570  1.0
  Sb  Sb53  1  0.74839199  0.00637405  0.74820570  1.0
  Sb  Sb54  1  0.25160801  0.99362595  0.25179430  1.0
  Sb  Sb55  1  0.25160801  0.00637405  0.75179430  1.0
  Sb  Sb56  1  0.73060388  0.49548159  0.48155085  1.0
  Sb  Sb57  1  0.73060388  0.50451841  0.98155085  1.0
  Sb  Sb58  1  0.26939612  0.49548159  0.01844915  1.0
  Sb  Sb59  1  0.26939612  0.50451841  0.51844915  1.0
  Sb  Sb60  1  0.24741832  0.84845244  1.00000636  1.0
  Sb  Sb61  1  0.24741832  0.15154756  0.50000636  1.0
  Sb  Sb62  1  0.75258168  0.84845244  0.49999364  1.0
  Sb  Sb63  1  0.75258168  0.15154756  -0.00000636  1.0
  Sb  Sb64  1  0.00000000  0.69421002  0.25000000  1.0
  Sb  Sb65  1  -0.00000000  0.30578998  0.75000000  1.0
