# generated using pymatgen
data_CrCuS2
_symmetry_space_group_name_H-M   'P 1'
_cell_length_a   6.44979336
_cell_length_b   6.44979336
_cell_length_c   6.44979336
_cell_angle_alpha   31.72661457
_cell_angle_beta   31.72661457
_cell_angle_gamma   31.72661457
_symmetry_Int_Tables_number   1
_chemical_formula_structural   CrCuS2
_chemical_formula_sum   'Cr1 Cu1 S2'
_cell_volume   65.89571509
_cell_formula_units_Z   1
loop_
 _symmetry_equiv_pos_site_id
 _symmetry_equiv_pos_as_xyz
  1  'x, y, z'
loop_
 _atom_site_type_symbol
 _atom_site_label
 _atom_site_symmetry_multiplicity
 _atom_site_fract_x
 _atom_site_fract_y
 _atom_site_fract_z
 _atom_site_occupancy
  Cr  Cr0  1  0.73424559  -0.26575441  -0.26575441  1.0
  Cu  Cu1  1  0.88073708  -0.11926292  -0.11926292  1.0
  S  S2  1  0.00101185  0.00101185  0.00101185  1.0
  S  S3  1  0.47940548  0.47940548  -0.52059452  1.0
