# generated using pymatgen
data_Sc3(NbSi2)2
_symmetry_space_group_name_H-M   'P 1'
_cell_length_a   6.74181938
_cell_length_b   13.15355571
_cell_length_c   6.97074904
_cell_angle_alpha   90.00000000
_cell_angle_beta   90.00000000
_cell_angle_gamma   90.00000000
_symmetry_Int_Tables_number   1
_chemical_formula_structural   Sc3(NbSi2)2
_chemical_formula_sum   'Sc12 Nb8 Si16'
_cell_volume   618.15833408
_cell_formula_units_Z   4
loop_
 _symmetry_equiv_pos_site_id
 _symmetry_equiv_pos_as_xyz
  1  'x, y, z'
loop_
 _atom_site_type_symbol
 _atom_site_label
 _atom_site_symmetry_multiplicity
 _atom_site_fract_x
 _atom_site_fract_y
 _atom_site_fract_z
 _atom_site_occupancy
  Sc  Sc0  1  0.15129359  0.37448834  0.67364880  1.0
  Sc  Sc1  1  0.15129359  0.12551166  0.67364880  1.0
  Sc  Sc2  1  0.65129359  0.37448834  0.82635120  1.0
  Sc  Sc3  1  0.65129359  0.12551166  0.82635120  1.0
  Sc  Sc4  1  0.84870641  0.87448834  0.32635120  1.0
  Sc  Sc5  1  0.84870641  0.62551166  0.32635120  1.0
  Sc  Sc6  1  0.34870641  0.87448834  0.17364880  1.0
  Sc  Sc7  1  0.34870641  0.62551166  0.17364880  1.0
  Sc  Sc8  1  0.32978171  0.25000000  0.00575165  1.0
  Sc  Sc9  1  0.82978171  0.25000000  0.49424835  1.0
  Sc  Sc10  1  0.67021829  0.75000000  0.99424835  1.0
  Sc  Sc11  1  0.17021829  0.75000000  0.50575165  1.0
  Nb  Nb12  1  0.50438414  0.90575682  0.67896021  1.0
  Nb  Nb13  1  0.50438414  0.59424318  0.67896021  1.0
  Nb  Nb14  1  1.00438414  0.90575682  0.82103979  1.0
  Nb  Nb15  1  1.00438414  0.59424318  0.82103979  1.0
  Nb  Nb16  1  0.49561586  0.40575682  0.32103979  1.0
  Nb  Nb17  1  0.49561586  0.09424318  0.32103979  1.0
  Nb  Nb18  1  -0.00438414  0.40575682  0.17896021  1.0
  Nb  Nb19  1  -0.00438414  0.09424318  0.17896021  1.0
  Si  Si20  1  0.31650906  0.46308384  0.96653945  1.0
  Si  Si21  1  0.31650906  0.03691616  0.96653945  1.0
  Si  Si22  1  0.81650906  0.46308384  0.53346055  1.0
  Si  Si23  1  0.81650906  0.03691616  0.53346055  1.0
  Si  Si24  1  0.68349094  0.96308384  0.03346055  1.0
  Si  Si25  1  0.68349094  0.53691616  0.03346055  1.0
  Si  Si26  1  0.18349094  0.96308384  0.46653945  1.0
  Si  Si27  1  0.18349094  0.53691616  0.46653945  1.0
  Si  Si28  1  0.45550070  0.25000000  0.59035037  1.0
  Si  Si29  1  0.95550070  0.25000000  0.90964963  1.0
  Si  Si30  1  0.54449930  0.75000000  0.40964963  1.0
  Si  Si31  1  0.04449930  0.75000000  0.09035037  1.0
  Si  Si32  1  0.19786501  0.25000000  0.35746521  1.0
  Si  Si33  1  0.69786501  0.25000000  0.14253479  1.0
  Si  Si34  1  0.80213499  0.75000000  0.64253479  1.0
  Si  Si35  1  0.30213499  0.75000000  0.85746521  1.0
