# generated using pymatgen
data_KSi2HO5
_symmetry_space_group_name_H-M   'P 1'
_cell_length_a   8.47595094
_cell_length_b   8.47595094
_cell_length_c   9.91143128
_cell_angle_alpha   61.69039264
_cell_angle_beta   118.30960736
_cell_angle_gamma   120.01935314
_symmetry_Int_Tables_number   1
_chemical_formula_structural   KSi2HO5
_chemical_formula_sum   'K4 Si8 H4 O20'
_cell_volume   515.90270799
_cell_formula_units_Z   4
loop_
 _symmetry_equiv_pos_site_id
 _symmetry_equiv_pos_as_xyz
  1  'x, y, z'
loop_
 _atom_site_type_symbol
 _atom_site_label
 _atom_site_symmetry_multiplicity
 _atom_site_fract_x
 _atom_site_fract_y
 _atom_site_fract_z
 _atom_site_occupancy
  K  K0  1  0.68608406  0.31391594  0.52368076  1.0
  K  K1  1  1.31391594  -0.31391594  0.47631924  1.0
  K  K2  1  0.00000000  -0.00000000  0.50000000  1.0
  K  K3  1  0.00000000  0.00000000  0.00000000  1.0
  Si  Si4  1  0.48882509  -0.11833112  0.82655061  1.0
  Si  Si5  1  1.11833112  0.51117491  0.82655061  1.0
  Si  Si6  1  0.88166888  -0.51117491  0.17344939  1.0
  Si  Si7  1  1.51117491  0.11833112  0.17344939  1.0
  Si  Si8  1  0.40753659  0.22025386  0.79405694  1.0
  Si  Si9  1  0.77974614  0.59246341  0.79405694  1.0
  Si  Si10  1  1.22025386  -0.59246341  0.20594306  1.0
  Si  Si11  1  1.59246341  -0.22025386  0.20594306  1.0
  H  H12  1  1.68024270  -0.14683847  0.70251694  1.0
  H  H13  1  1.14683847  -0.68024270  0.70251694  1.0
  H  H14  1  0.85316153  0.68024270  0.29748306  1.0
  H  H15  1  0.31975730  0.14683847  0.29748306  1.0
  O  O16  1  1.71199411  -0.22818910  0.66367132  1.0
  O  O17  1  1.22818910  -0.71199411  0.66367132  1.0
  O  O18  1  0.77181090  0.71199411  0.33632868  1.0
  O  O19  1  0.28800589  0.22818910  0.33632868  1.0
  O  O20  1  0.64267254  -0.03942286  0.73952267  1.0
  O  O21  1  1.03942286  0.35732746  0.73952267  1.0
  O  O22  1  0.96057714  -0.35732746  0.26047733  1.0
  O  O23  1  1.35732746  0.03942286  0.26047733  1.0
  O  O24  1  0.38244742  0.03521049  0.76124234  1.0
  O  O25  1  0.96478951  0.61755258  0.76124234  1.0
  O  O26  1  1.03521049  -0.61755258  0.23875766  1.0
  O  O27  1  1.61755258  -0.03521049  0.23875766  1.0
  O  O28  1  0.40656444  0.15966911  0.97691023  1.0
  O  O29  1  0.84033089  0.59343556  0.97691023  1.0
  O  O30  1  1.15966911  -0.59343556  0.02308977  1.0
  O  O31  1  1.59343556  -0.15966911  0.02308977  1.0
  O  O32  1  0.61450144  0.38549856  0.77017337  1.0
  O  O33  1  1.38549856  -0.38549856  0.22982663  1.0
  O  O34  1  0.31594231  -0.31594231  0.78897472  1.0
  O  O35  1  0.68405769  -0.68405769  0.21102528  1.0
