# generated using pymatgen
data_RbLi2(H2N)3
_symmetry_space_group_name_H-M   'P 1'
_cell_length_a   7.06589337
_cell_length_b   7.06589337
_cell_length_c   5.36186713
_cell_angle_alpha   90.00000000
_cell_angle_beta   90.00000000
_cell_angle_gamma   104.04712375
_symmetry_Int_Tables_number   1
_chemical_formula_structural   RbLi2(H2N)3
_chemical_formula_sum   'Rb2 Li4 H12 N6'
_cell_volume   259.69591049
_cell_formula_units_Z   2
loop_
 _symmetry_equiv_pos_site_id
 _symmetry_equiv_pos_as_xyz
  1  'x, y, z'
loop_
 _atom_site_type_symbol
 _atom_site_label
 _atom_site_symmetry_multiplicity
 _atom_site_fract_x
 _atom_site_fract_y
 _atom_site_fract_z
 _atom_site_occupancy
  Rb  Rb0  1  -0.27596128  1.27596128  0.25000000  1.0
  Rb  Rb1  1  0.27596128  0.72403872  0.75000000  1.0
  Li  Li2  1  0.85485796  0.85485796  0.50000000  1.0
  Li  Li3  1  0.85485796  0.85485796  0.00000000  1.0
  Li  Li4  1  0.14514204  0.14514204  0.50000000  1.0
  Li  Li5  1  0.14514204  0.14514204  0.00000000  1.0
  H  H6  1  0.06471526  0.75245859  0.25000000  1.0
  H  H7  1  -0.24754141  1.06471526  0.75000000  1.0
  H  H8  1  0.24754141  0.93528474  0.25000000  1.0
  H  H9  1  -0.06471526  1.24754141  0.75000000  1.0
  H  H10  1  0.31754941  0.44169308  0.25000000  1.0
  H  H11  1  -0.55830692  1.31754941  0.75000000  1.0
  H  H12  1  0.55830692  0.68245059  0.25000000  1.0
  H  H13  1  -0.31754941  1.55830692  0.75000000  1.0
  H  H14  1  0.10654462  0.48564102  0.25000000  1.0
  H  H15  1  -0.51435898  1.10654463  0.75000000  1.0
  H  H16  1  0.51435898  0.89345538  0.25000000  1.0
  H  H17  1  -0.10654463  1.51435898  0.75000000  1.0
  N  N18  1  0.17209575  0.37107657  0.25000000  1.0
  N  N19  1  -0.62892343  1.17209575  0.75000000  1.0
  N  N20  1  0.62892343  0.82790425  0.25000000  1.0
  N  N21  1  -0.17209575  1.62892343  0.75000000  1.0
  N  N22  1  0.09754636  0.90245364  0.25000000  1.0
  N  N23  1  -0.09754636  1.09754636  0.75000000  1.0
