# generated using pymatgen
data_Ca2YAs(WO3)2
_symmetry_space_group_name_H-M   'P 1'
_cell_length_a   18.25754049
_cell_length_b   18.25754049
_cell_length_c   18.25754049
_cell_angle_alpha   159.36375005
_cell_angle_beta   159.36375005
_cell_angle_gamma   29.34630400
_symmetry_Int_Tables_number   1
_chemical_formula_structural   Ca2YAs(WO3)2
_chemical_formula_sum   'Ca8 Y4 As4 W8 O24'
_cell_volume   755.51527355
_cell_formula_units_Z   4
loop_
 _symmetry_equiv_pos_site_id
 _symmetry_equiv_pos_as_xyz
  1  'x, y, z'
loop_
 _atom_site_type_symbol
 _atom_site_label
 _atom_site_symmetry_multiplicity
 _atom_site_fract_x
 _atom_site_fract_y
 _atom_site_fract_z
 _atom_site_occupancy
  Ca  Ca0  1  1.05378809  0.29899124  0.75472221  1.0
  Ca  Ca1  1  1.20573097  0.95093412  1.25472221  1.0
  Ca  Ca2  1  0.70100876  0.45573097  0.75479685  1.0
  Ca  Ca3  1  0.04906588  0.30378809  0.25479685  1.0
  Ca  Ca4  1  0.54426903  0.29906588  0.24527779  1.0
  Ca  Ca5  1  0.69621191  0.95100876  0.74527779  1.0
  Ca  Ca6  1  0.70093412  0.94621191  1.24520315  1.0
  Ca  Ca7  1  0.04899124  0.79426903  0.74520315  1.0
  Y  Y8  1  0.37500000  0.62500000  0.75000000  1.0
  Y  Y9  1  0.87500000  0.62500000  1.25000000  1.0
  Y  Y10  1  0.37500000  1.12500000  0.75000000  1.0
  Y  Y11  1  0.37500000  0.62500000  0.25000000  1.0
  As  As12  1  0.87500000  0.12500000  0.75000000  1.0
  As  As13  1  0.37500000  0.12500000  0.25000000  1.0
  As  As14  1  0.87500000  0.62500000  0.75000000  1.0
  As  As15  1  0.87500000  1.12500000  1.25000000  1.0
  W  W16  1  1.28969877  0.47338936  0.81624794  1.0
  W  W17  1  1.09285858  0.77654917  1.31624794  1.0
  W  W18  1  0.52661064  0.34285858  0.81630941  1.0
  W  W19  1  0.22345083  0.53969877  0.31630941  1.0
  W  W20  1  0.65714142  0.47345083  0.18375206  1.0
  W  W21  1  0.46030123  0.77661064  0.68375206  1.0
  W  W22  1  0.52654917  0.71030123  1.18369059  1.0
  W  W23  1  0.22338936  0.90714142  0.68369059  1.0
  O  O24  1  1.11623523  0.85727629  1.74103427  1.0
  O  O25  1  0.63375798  0.87479903  1.24103427  1.0
  O  O26  1  1.14272371  0.88375798  1.25895894  1.0
  O  O27  1  1.12520097  1.36623523  1.75895894  1.0
  O  O28  1  0.11624202  0.37520097  0.25896573  1.0
  O  O29  1  0.63376477  0.39272371  0.75896573  1.0
  O  O30  1  0.62479903  0.88376477  0.74104106  1.0
  O  O31  1  0.60727629  0.36624202  0.24104106  1.0
  O  O32  1  0.77177409  0.77183312  1.54360792  1.0
  O  O33  1  0.52177479  1.02183383  1.04360792  1.0
  O  O34  1  1.22816688  0.77177479  0.99994097  1.0
  O  O35  1  0.97816617  1.02177409  1.49994097  1.0
  O  O36  1  0.22822521  0.22816617  0.45639208  1.0
  O  O37  1  0.97822591  0.47816688  0.95639208  1.0
  O  O38  1  0.77183383  1.22822591  1.00005903  1.0
  O  O39  1  0.52183312  0.47822521  0.50005903  1.0
  O  O40  1  0.33645713  0.56152183  0.77494214  1.0
  O  O41  1  0.96342030  0.68848501  1.27494214  1.0
  O  O42  1  1.43847817  1.21342030  1.77493530  1.0
  O  O43  1  1.31151499  0.58645713  1.27493530  1.0
  O  O44  1  0.78657970  0.56151499  1.22505786  1.0
  O  O45  1  0.41354287  0.68847817  0.72505786  1.0
  O  O46  1  0.43848501  0.66354287  0.22506470  1.0
  O  O47  1  0.31152183  1.03657970  0.72506470  1.0
