# generated using pymatgen
data_Ca5Sb3
_symmetry_space_group_name_H-M   'P 1'
_cell_length_a   12.71620127
_cell_length_b   9.58036138
_cell_length_c   8.28232046
_cell_angle_alpha   90.00000000
_cell_angle_beta   90.00000000
_cell_angle_gamma   90.00000000
_symmetry_Int_Tables_number   1
_chemical_formula_structural   Ca5Sb3
_chemical_formula_sum   'Ca20 Sb12'
_cell_volume   1009.00034493
_cell_formula_units_Z   4
loop_
 _symmetry_equiv_pos_site_id
 _symmetry_equiv_pos_as_xyz
  1  'x, y, z'
loop_
 _atom_site_type_symbol
 _atom_site_label
 _atom_site_symmetry_multiplicity
 _atom_site_fract_x
 _atom_site_fract_y
 _atom_site_fract_z
 _atom_site_occupancy
  Ca  Ca0  1  0.91902061  0.46020550  0.18889397  1.0
  Ca  Ca1  1  0.91902061  0.03979450  0.18889397  1.0
  Ca  Ca2  1  0.41902061  0.46020550  0.31110603  1.0
  Ca  Ca3  1  0.41902061  0.03979450  0.31110603  1.0
  Ca  Ca4  1  0.08097939  0.96020550  0.81110603  1.0
  Ca  Ca5  1  0.08097939  0.53979450  0.81110603  1.0
  Ca  Ca6  1  0.58097939  0.96020550  0.68889397  1.0
  Ca  Ca7  1  0.58097939  0.53979450  0.68889397  1.0
  Ca  Ca8  1  0.99626317  0.25000000  0.53593903  1.0
  Ca  Ca9  1  0.49626317  0.25000000  0.96406097  1.0
  Ca  Ca10  1  0.00373683  0.75000000  0.46406097  1.0
  Ca  Ca11  1  0.50373683  0.75000000  0.03593903  1.0
  Ca  Ca12  1  0.77323818  0.25000000  0.82022051  1.0
  Ca  Ca13  1  0.27323818  0.25000000  0.67977949  1.0
  Ca  Ca14  1  0.22676182  0.75000000  0.17977949  1.0
  Ca  Ca15  1  0.72676182  0.75000000  0.32022051  1.0
  Ca  Ca16  1  0.70524073  0.25000000  0.34539289  1.0
  Ca  Ca17  1  0.20524073  0.25000000  0.15460711  1.0
  Ca  Ca18  1  0.29475927  0.75000000  0.65460711  1.0
  Ca  Ca19  1  0.79475927  0.75000000  0.84539289  1.0
  Sb  Sb20  1  0.67138464  0.49015126  0.05771212  1.0
  Sb  Sb21  1  0.67138464  0.00984874  0.05771212  1.0
  Sb  Sb22  1  0.17138464  0.49015126  0.44228788  1.0
  Sb  Sb23  1  0.17138464  0.00984874  0.44228788  1.0
  Sb  Sb24  1  0.32861536  0.99015126  0.94228788  1.0
  Sb  Sb25  1  0.32861536  0.50984874  0.94228788  1.0
  Sb  Sb26  1  0.82861536  0.99015126  0.55771212  1.0
  Sb  Sb27  1  0.82861536  0.50984874  0.55771212  1.0
  Sb  Sb28  1  0.51380225  0.25000000  0.57430892  1.0
  Sb  Sb29  1  0.01380225  0.25000000  0.92569108  1.0
  Sb  Sb30  1  0.48619775  0.75000000  0.42569108  1.0
  Sb  Sb31  1  0.98619775  0.75000000  0.07430892  1.0
