# generated using pymatgen
data_MnB
_symmetry_space_group_name_H-M   'P 1'
_cell_length_a   5.44146552
_cell_length_b   2.97969016
_cell_length_c   4.11355619
_cell_angle_alpha   90.00000000
_cell_angle_beta   90.00000000
_cell_angle_gamma   90.00000000
_symmetry_Int_Tables_number   1
_chemical_formula_structural   MnB
_chemical_formula_sum   'Mn4 B4'
_cell_volume   66.69671159
_cell_formula_units_Z   4
loop_
 _symmetry_equiv_pos_site_id
 _symmetry_equiv_pos_as_xyz
  1  'x, y, z'
loop_
 _atom_site_type_symbol
 _atom_site_label
 _atom_site_symmetry_multiplicity
 _atom_site_fract_x
 _atom_site_fract_y
 _atom_site_fract_z
 _atom_site_occupancy
  Mn  Mn0  1  0.32467583  0.75000000  0.12327795  1.0
  Mn  Mn1  1  0.82467583  0.75000000  0.37672205  1.0
  Mn  Mn2  1  0.67532417  0.25000000  0.87672205  1.0
  Mn  Mn3  1  0.17532417  0.25000000  0.62327795  1.0
  B  B4  1  0.46657310  0.75000000  0.61498144  1.0
  B  B5  1  0.96657310  0.75000000  0.88501856  1.0
  B  B6  1  0.53342690  0.25000000  0.38501856  1.0
  B  B7  1  0.03342690  0.25000000  0.11498144  1.0
