# generated using pymatgen
data_Y(Re2Si)2
_symmetry_space_group_name_H-M   'P 1'
_cell_length_a   7.40191813
_cell_length_b   7.40191813
_cell_length_c   4.12506569
_cell_angle_alpha   90.00000000
_cell_angle_beta   90.00000000
_cell_angle_gamma   90.00000000
_symmetry_Int_Tables_number   1
_chemical_formula_structural   Y(Re2Si)2
_chemical_formula_sum   'Y2 Re8 Si4'
_cell_volume   226.00571609
_cell_formula_units_Z   2
loop_
 _symmetry_equiv_pos_site_id
 _symmetry_equiv_pos_as_xyz
  1  'x, y, z'
loop_
 _atom_site_type_symbol
 _atom_site_label
 _atom_site_symmetry_multiplicity
 _atom_site_fract_x
 _atom_site_fract_y
 _atom_site_fract_z
 _atom_site_occupancy
  Y  Y0  1  0.50000000  0.50000000  0.50000000  1.0
  Y  Y1  1  0.00000000  0.00000000  0.00000000  1.0
  Re  Re2  1  0.34215657  0.09368437  0.50000000  1.0
  Re  Re3  1  0.84215657  0.40631563  0.00000000  1.0
  Re  Re4  1  0.90631563  0.65784343  0.50000000  1.0
  Re  Re5  1  0.40631563  0.84215657  0.00000000  1.0
  Re  Re6  1  0.65784343  0.90631563  0.50000000  1.0
  Re  Re7  1  0.15784343  0.59368437  0.00000000  1.0
  Re  Re8  1  0.09368437  0.34215657  0.50000000  1.0
  Re  Re9  1  0.59368437  0.15784343  0.00000000  1.0
  Si  Si10  1  0.20847427  0.79152573  0.50000000  1.0
  Si  Si11  1  0.70847427  0.70847427  0.00000000  1.0
  Si  Si12  1  0.79152573  0.20847427  0.50000000  1.0
  Si  Si13  1  0.29152573  0.29152573  0.00000000  1.0
