# generated using pymatgen
data_NaAgF4
_symmetry_space_group_name_H-M   'P 1'
_cell_length_a   6.70038718
_cell_length_b   6.70038718
_cell_length_c   6.70038718
_cell_angle_alpha   129.81077637
_cell_angle_beta   129.81077637
_cell_angle_gamma   73.70945132
_symmetry_Int_Tables_number   1
_chemical_formula_structural   NaAgF4
_chemical_formula_sum   'Na2 Ag2 F8'
_cell_volume   173.18156214
_cell_formula_units_Z   2
loop_
 _symmetry_equiv_pos_site_id
 _symmetry_equiv_pos_as_xyz
  1  'x, y, z'
loop_
 _atom_site_type_symbol
 _atom_site_label
 _atom_site_symmetry_multiplicity
 _atom_site_fract_x
 _atom_site_fract_y
 _atom_site_fract_z
 _atom_site_occupancy
  Na  Na0  1  0.75000000  0.75000000  1.00000000  1.0
  Na  Na1  1  0.25000000  0.25000000  -0.00000000  1.0
  Ag  Ag2  1  0.50000000  -0.00000000  0.50000000  1.0
  Ag  Ag3  1  -0.00000000  0.50000000  0.50000000  1.0
  F  F4  1  1.19838723  0.69838723  1.14942366  1.0
  F  F5  1  0.45103643  0.95103643  1.14942366  1.0
  F  F6  1  1.04896357  1.19838723  1.50000000  1.0
  F  F7  1  0.30161277  0.45103643  0.50000000  1.0
  F  F8  1  0.69838723  0.54896357  0.50000000  1.0
  F  F9  1  0.95103643  0.80161277  1.50000000  1.0
  F  F10  1  0.54896357  1.04896357  0.85057634  1.0
  F  F11  1  0.80161277  0.30161277  0.85057634  1.0
