# generated using pymatgen
data_Eu2C(NCl)2
_symmetry_space_group_name_H-M   'P 1'
_cell_length_a   5.27158312
_cell_length_b   5.27158312
_cell_length_c   7.21417707
_cell_angle_alpha   82.38724554
_cell_angle_beta   97.61275446
_cell_angle_gamma   133.09162972
_symmetry_Int_Tables_number   1
_chemical_formula_structural   Eu2C(NCl)2
_chemical_formula_sum   'Eu2 C1 N2 Cl2'
_cell_volume   144.86766298
_cell_formula_units_Z   1
loop_
 _symmetry_equiv_pos_site_id
 _symmetry_equiv_pos_as_xyz
  1  'x, y, z'
loop_
 _atom_site_type_symbol
 _atom_site_label
 _atom_site_symmetry_multiplicity
 _atom_site_fract_x
 _atom_site_fract_y
 _atom_site_fract_z
 _atom_site_occupancy
  Eu  Eu0  1  0.68245442  0.31754558  0.77145931  1.0
  Eu  Eu1  1  0.31754558  -0.31754558  0.22854069  1.0
  C  C2  1  0.00000000  0.00000000  0.00000000  1.0
  N  N3  1  0.11595237  -0.11595237  0.94610847  1.0
  N  N4  1  0.88404763  0.11595237  0.05389153  1.0
  Cl  Cl5  1  0.37127133  -0.37127133  0.64835817  1.0
  Cl  Cl6  1  0.62872867  0.37127133  0.35164183  1.0
