# generated using pymatgen
data_POsS
_symmetry_space_group_name_H-M   'P 1'
_cell_length_a   5.79999395
_cell_length_b   5.80308639
_cell_length_c   5.86827797
_cell_angle_alpha   90.00000000
_cell_angle_beta   110.80320971
_cell_angle_gamma   90.00000000
_symmetry_Int_Tables_number   1
_chemical_formula_structural   POsS
_chemical_formula_sum   'P4 Os4 S4'
_cell_volume   184.63696108
_cell_formula_units_Z   4
loop_
 _symmetry_equiv_pos_site_id
 _symmetry_equiv_pos_as_xyz
  1  'x, y, z'
loop_
 _atom_site_type_symbol
 _atom_site_label
 _atom_site_symmetry_multiplicity
 _atom_site_fract_x
 _atom_site_fract_y
 _atom_site_fract_z
 _atom_site_occupancy
  P  P0  1  0.64949567  0.37598624  0.87519157  1.0
  P  P1  1  0.64949567  0.12401376  0.37519157  1.0
  P  P2  1  0.35050433  0.87598624  0.62480843  1.0
  P  P3  1  0.35050433  0.62401376  0.12480843  1.0
  Os  Os4  1  0.77325840  1.00270681  0.79263996  1.0
  Os  Os5  1  0.77325840  0.49729319  0.29263996  1.0
  Os  Os6  1  0.22674160  0.50270681  0.70736004  1.0
  Os  Os7  1  0.22674160  -0.00270681  0.20736004  1.0
  S  S8  1  0.83680776  0.62318110  0.69110088  1.0
  S  S9  1  0.83680776  0.87681890  0.19110088  1.0
  S  S10  1  0.16319224  0.12318110  0.80889912  1.0
  S  S11  1  0.16319224  0.37681890  0.30889912  1.0
