# generated using pymatgen
data_Sr3CrN3
_symmetry_space_group_name_H-M   'P 1'
_cell_length_a   7.81775314
_cell_length_b   7.81775314
_cell_length_c   5.24017012
_cell_angle_alpha   90.00000000
_cell_angle_beta   90.00000000
_cell_angle_gamma   120.00000000
_symmetry_Int_Tables_number   1
_chemical_formula_structural   Sr3CrN3
_chemical_formula_sum   'Sr6 Cr2 N6'
_cell_volume   277.35750627
_cell_formula_units_Z   2
loop_
 _symmetry_equiv_pos_site_id
 _symmetry_equiv_pos_as_xyz
  1  'x, y, z'
loop_
 _atom_site_type_symbol
 _atom_site_label
 _atom_site_symmetry_multiplicity
 _atom_site_fract_x
 _atom_site_fract_y
 _atom_site_fract_z
 _atom_site_occupancy
  Sr  Sr0  1  0.91639540  0.64182676  0.25000000  1.0
  Sr  Sr1  1  0.64182676  0.72543136  0.75000000  1.0
  Sr  Sr2  1  0.72543136  0.08360460  0.25000000  1.0
  Sr  Sr3  1  0.35817324  0.27456864  0.25000000  1.0
  Sr  Sr4  1  0.08360460  0.35817324  0.75000000  1.0
  Sr  Sr5  1  0.27456864  0.91639540  0.75000000  1.0
  Cr  Cr6  1  0.33333333  0.66666667  0.25000000  1.0
  Cr  Cr7  1  0.66666667  0.33333333  0.75000000  1.0
  N  N8  1  0.31498293  0.87751167  0.25000000  1.0
  N  N9  1  0.87751167  0.56252874  0.75000000  1.0
  N  N10  1  0.56252874  0.68501707  0.25000000  1.0
  N  N11  1  0.12248833  0.43747126  0.25000000  1.0
  N  N12  1  0.68501707  0.12248833  0.75000000  1.0
  N  N13  1  0.43747126  0.31498293  0.75000000  1.0
