# generated using pymatgen
data_V2Ni(PO5)2
_symmetry_space_group_name_H-M   'P 1'
_cell_length_a   6.36248197
_cell_length_b   7.30486341
_cell_length_c   7.56569689
_cell_angle_alpha   90.00000000
_cell_angle_beta   89.51109646
_cell_angle_gamma   90.00000000
_symmetry_Int_Tables_number   1
_chemical_formula_structural   V2Ni(PO5)2
_chemical_formula_sum   'V4 Ni2 P4 O20'
_cell_volume   351.61856038
_cell_formula_units_Z   2
loop_
 _symmetry_equiv_pos_site_id
 _symmetry_equiv_pos_as_xyz
  1  'x, y, z'
loop_
 _atom_site_type_symbol
 _atom_site_label
 _atom_site_symmetry_multiplicity
 _atom_site_fract_x
 _atom_site_fract_y
 _atom_site_fract_z
 _atom_site_occupancy
  V  V0  1  0.74605472  0.71794419  0.82772659  1.0
  V  V1  1  0.74605472  0.78205581  0.32772659  1.0
  V  V2  1  0.25394528  0.21794419  0.67227341  1.0
  V  V3  1  0.25394528  0.28205581  0.17227341  1.0
  Ni  Ni4  1  0.00000000  0.00000000  0.00000000  1.0
  Ni  Ni5  1  0.00000000  0.50000000  0.50000000  1.0
  P  P6  1  0.25169133  0.62003762  0.87177903  1.0
  P  P7  1  0.25169133  0.87996238  0.37177903  1.0
  P  P8  1  0.74830867  0.12003762  0.62822097  1.0
  P  P9  1  0.74830867  0.37996238  0.12822097  1.0
  O  O10  1  0.94225442  0.25226592  0.62103125  1.0
  O  O11  1  0.94225442  0.24773408  0.12103125  1.0
  O  O12  1  0.05774558  0.75226592  0.87896875  1.0
  O  O13  1  0.05774558  0.74773408  0.37896875  1.0
  O  O14  1  0.77743823  0.99197896  0.79283647  1.0
  O  O15  1  0.77743823  0.50802104  0.29283647  1.0
  O  O16  1  0.22256177  0.49197896  0.70716353  1.0
  O  O17  1  0.22256177  0.00802104  0.20716353  1.0
  O  O18  1  0.77452435  0.65091452  0.62022640  1.0
  O  O19  1  0.77452435  0.84908548  0.12022640  1.0
  O  O20  1  0.22547565  0.15091452  0.87977360  1.0
  O  O21  1  0.22547565  0.34908548  0.37977360  1.0
  O  O22  1  0.74025217  0.49484600  0.95795958  1.0
  O  O23  1  0.74025217  0.00515400  0.45795958  1.0
  O  O24  1  0.25974783  0.99484600  0.54204042  1.0
  O  O25  1  0.25974783  0.50515400  0.04204042  1.0
  O  O26  1  0.44763313  0.74295130  0.85176845  1.0
  O  O27  1  0.44763313  0.75704870  0.35176845  1.0
  O  O28  1  0.55236687  0.24295130  0.64823155  1.0
  O  O29  1  0.55236687  0.25704870  0.14823155  1.0
