# generated using pymatgen
data_CaPHO4
_symmetry_space_group_name_H-M   'P 1'
_cell_length_a   6.97698673
_cell_length_b   6.71871136
_cell_length_c   7.10080321
_cell_angle_alpha   96.64707268
_cell_angle_beta   104.21041791
_cell_angle_gamma   88.13367995
_symmetry_Int_Tables_number   1
_chemical_formula_structural   CaPHO4
_chemical_formula_sum   'Ca4 P4 H4 O16'
_cell_volume   320.50254233
_cell_formula_units_Z   4
loop_
 _symmetry_equiv_pos_site_id
 _symmetry_equiv_pos_as_xyz
  1  'x, y, z'
loop_
 _atom_site_type_symbol
 _atom_site_label
 _atom_site_symmetry_multiplicity
 _atom_site_fract_x
 _atom_site_fract_y
 _atom_site_fract_z
 _atom_site_occupancy
  Ca  Ca0  1  0.29143833  0.44413880  -0.73025486  1.0
  Ca  Ca1  1  0.69831884  0.55731245  -0.27474108  1.0
  Ca  Ca2  1  0.19052852  0.83685492  -0.33435615  1.0
  Ca  Ca3  1  0.84055782  0.16119349  -0.67284727  1.0
  P  P4  1  0.20418428  0.38010009  -0.27806592  1.0
  P  P5  1  0.79304379  0.62158847  -0.71579328  1.0
  P  P6  1  0.29113856  0.94458415  -0.78915862  1.0
  P  P7  1  0.69457681  0.04915614  -0.20651932  1.0
  H  H8  1  0.99259910  0.00598209  -1.02367027  1.0
  H  H9  1  0.46287152  0.26701161  -0.04948053  1.0
  H  H10  1  0.54489752  0.74282634  -0.94607029  1.0
  H  H11  1  0.53131866  0.12182413  -0.54076276  1.0
  O  O12  1  0.32760584  0.34096237  -0.06014130  1.0
  O  O13  1  0.67638896  0.66355480  -0.93499054  1.0
  O  O14  1  0.34434803  0.48973459  -0.37292862  1.0
  O  O15  1  0.64962761  0.50868917  -0.62734013  1.0
  O  O16  1  0.13528509  0.17789373  -0.39649967  1.0
  O  O17  1  0.86338849  0.82244133  -0.59595496  1.0
  O  O18  1  0.03576998  0.52428958  -0.24954570  1.0
  O  O19  1  0.96132763  0.47551058  -0.74183374  1.0
  O  O20  1  0.33885135  0.84693364  -0.97922970  1.0
  O  O21  1  0.66811836  0.16959798  -0.01529411  1.0
  O  O22  1  0.46538271  0.10705768  -0.69005238  1.0
  O  O23  1  0.54765270  0.87719353  -0.28497086  1.0
  O  O24  1  0.10512810  0.08212930  -0.83216152  1.0
  O  O25  1  0.90963307  0.94630837  -0.16186554  1.0
  O  O26  1  0.27916379  0.79166395  -0.64972873  1.0
  O  O27  1  0.68585453  0.19546671  -0.36374217  1.0
