# generated using pymatgen
data_La2Fe(SeO)2
_symmetry_space_group_name_H-M   'P 1'
_cell_length_a   6.02741434
_cell_length_b   6.02741434
_cell_length_c   7.23006375
_cell_angle_alpha   60.71746815
_cell_angle_beta   119.28253185
_cell_angle_gamma   141.18964321
_symmetry_Int_Tables_number   1
_chemical_formula_structural   La2Fe(SeO)2
_chemical_formula_sum   'La2 Fe1 Se2 O2'
_cell_volume   140.75932438
_cell_formula_units_Z   1
loop_
 _symmetry_equiv_pos_site_id
 _symmetry_equiv_pos_as_xyz
  1  'x, y, z'
loop_
 _atom_site_type_symbol
 _atom_site_label
 _atom_site_symmetry_multiplicity
 _atom_site_fract_x
 _atom_site_fract_y
 _atom_site_fract_z
 _atom_site_occupancy
  La  La0  1  0.80686319  -0.80686319  0.25676885  1.0
  La  La1  1  0.19313681  -0.19313681  0.74323115  1.0
  Fe  Fe2  1  0.00000000  0.00000000  0.00000000  1.0
  Se  Se3  1  1.44297530  -0.44297530  0.68344271  1.0
  Se  Se4  1  0.55702470  0.44297530  0.31655729  1.0
  O  O5  1  0.80818467  0.19181533  0.92083981  1.0
  O  O6  1  1.19181533  -0.19181533  0.07916019  1.0
