# generated using pymatgen
data_Y5(TeAu)2
_symmetry_space_group_name_H-M   'P 1'
_cell_length_a   8.68165553
_cell_length_b   8.68165553
_cell_length_c   7.92906398
_cell_angle_alpha   90.00000000
_cell_angle_beta   90.00000000
_cell_angle_gamma   54.87535767
_symmetry_Int_Tables_number   1
_chemical_formula_structural   Y5(TeAu)2
_chemical_formula_sum   'Y10 Te4 Au4'
_cell_volume   488.79693260
_cell_formula_units_Z   2
loop_
 _symmetry_equiv_pos_site_id
 _symmetry_equiv_pos_as_xyz
  1  'x, y, z'
loop_
 _atom_site_type_symbol
 _atom_site_label
 _atom_site_symmetry_multiplicity
 _atom_site_fract_x
 _atom_site_fract_y
 _atom_site_fract_z
 _atom_site_occupancy
  Y  Y0  1  0.00000000  0.00000000  0.00000000  1.0
  Y  Y1  1  -0.50000000  0.50000000  0.50000000  1.0
  Y  Y2  1  0.02654846  0.67287763  0.65061904  1.0
  Y  Y3  1  -0.47345154  1.17287763  0.84938096  1.0
  Y  Y4  1  -0.32712237  1.02654846  0.34938096  1.0
  Y  Y5  1  0.17287763  0.52654846  0.15061904  1.0
  Y  Y6  1  -0.67287763  0.97345154  0.65061904  1.0
  Y  Y7  1  -0.17287763  0.47345154  0.84938096  1.0
  Y  Y8  1  -0.02654846  0.32712237  0.34938096  1.0
  Y  Y9  1  -0.52654846  0.82712237  0.15061904  1.0
  Te  Te10  1  -0.64878626  0.64878626  0.85121757  1.0
  Te  Te11  1  -0.14878626  0.14878626  0.64878243  1.0
  Te  Te12  1  -0.35121374  0.35121374  0.14878243  1.0
  Te  Te13  1  -0.85121374  0.85121374  0.35121757  1.0
  Au  Au14  1  -0.19885336  0.80114664  0.00000000  1.0
  Au  Au15  1  0.30114664  0.30114664  0.50000000  1.0
  Au  Au16  1  0.19885336  0.19885336  0.00000000  1.0
  Au  Au17  1  -0.30114664  0.69885336  0.50000000  1.0
