# generated using pymatgen
data_KAlF4
_symmetry_space_group_name_H-M   'P 1'
_cell_length_a   6.54894206
_cell_length_b   7.37278632
_cell_length_c   7.49791668
_cell_angle_alpha   90.00000000
_cell_angle_beta   106.61144107
_cell_angle_gamma   90.00000000
_symmetry_Int_Tables_number   1
_chemical_formula_structural   KAlF4
_chemical_formula_sum   'K4 Al4 F16'
_cell_volume   346.91993948
_cell_formula_units_Z   4
loop_
 _symmetry_equiv_pos_site_id
 _symmetry_equiv_pos_as_xyz
  1  'x, y, z'
loop_
 _atom_site_type_symbol
 _atom_site_label
 _atom_site_symmetry_multiplicity
 _atom_site_fract_x
 _atom_site_fract_y
 _atom_site_fract_z
 _atom_site_occupancy
  K  K0  1  0.45335498  0.75000000  0.86300446  1.0
  K  K1  1  0.54664502  0.25000000  0.13699554  1.0
  K  K2  1  0.45305582  0.75000000  0.36301282  1.0
  K  K3  1  0.54694418  0.25000000  0.63698718  1.0
  Al  Al4  1  0.00000000  0.00000000  0.50000000  1.0
  Al  Al5  1  0.00000000  0.50000000  0.50000000  1.0
  Al  Al6  1  0.00000000  0.00000000  0.00000000  1.0
  Al  Al7  1  0.00000000  0.50000000  0.00000000  1.0
  F  F8  1  0.99985692  0.49958897  0.74996389  1.0
  F  F9  1  0.99985692  0.00041103  0.74996389  1.0
  F  F10  1  0.00014308  0.99958897  0.25003611  1.0
  F  F11  1  0.00014308  0.50041103  0.25003611  1.0
  F  F12  1  0.71863753  0.46429436  0.92990258  1.0
  F  F13  1  0.71863753  0.03570564  0.92990258  1.0
  F  F14  1  0.28136247  0.96429436  0.07009742  1.0
  F  F15  1  0.28136247  0.53570564  0.07009742  1.0
  F  F16  1  0.28142319  0.96450860  0.57039496  1.0
  F  F17  1  0.28142319  0.53549140  0.57039496  1.0
  F  F18  1  0.71857681  0.46450860  0.42960504  1.0
  F  F19  1  0.71857681  0.03549140  0.42960504  1.0
  F  F20  1  0.95237530  0.75000000  0.48853591  1.0
  F  F21  1  0.04762470  0.25000000  0.51146409  1.0
  F  F22  1  0.95206985  0.75000000  0.98763131  1.0
  F  F23  1  0.04793015  0.25000000  0.01236869  1.0
