# generated using pymatgen
data_K5SnBi3
_symmetry_space_group_name_H-M   'P 1'
_cell_length_a   10.24473007
_cell_length_b   8.93107681
_cell_length_c   19.49059904
_cell_angle_alpha   90.00000000
_cell_angle_beta   121.84500543
_cell_angle_gamma   90.00000000
_symmetry_Int_Tables_number   1
_chemical_formula_structural   K5SnBi3
_chemical_formula_sum   'K20 Sn4 Bi12'
_cell_volume   1514.89289490
_cell_formula_units_Z   4
loop_
 _symmetry_equiv_pos_site_id
 _symmetry_equiv_pos_as_xyz
  1  'x, y, z'
loop_
 _atom_site_type_symbol
 _atom_site_label
 _atom_site_symmetry_multiplicity
 _atom_site_fract_x
 _atom_site_fract_y
 _atom_site_fract_z
 _atom_site_occupancy
  K  K0  1  0.56247679  0.49406609  0.75475466  1.0
  K  K1  1  0.56247679  0.00593391  0.25475466  1.0
  K  K2  1  0.43752321  0.99406609  0.74524534  1.0
  K  K3  1  0.43752321  0.50593391  0.24524534  1.0
  K  K4  1  0.08669360  0.51828040  0.92297000  1.0
  K  K5  1  0.08669360  0.98171960  0.42297000  1.0
  K  K6  1  0.91330640  0.01828040  0.57703000  1.0
  K  K7  1  0.91330640  0.48171960  0.07703000  1.0
  K  K8  1  0.50146759  0.18013428  0.57846863  1.0
  K  K9  1  0.50146759  0.31986572  0.07846863  1.0
  K  K10  1  0.49853241  0.68013428  0.92153137  1.0
  K  K11  1  0.49853241  0.81986572  0.42153137  1.0
  K  K12  1  0.20404835  0.00232701  0.91439632  1.0
  K  K13  1  0.20404835  0.49767299  0.41439632  1.0
  K  K14  1  0.79595165  0.50232701  0.58560368  1.0
  K  K15  1  0.79595165  -0.00232701  0.08560368  1.0
  K  K16  1  0.18589997  0.33807066  0.76062163  1.0
  K  K17  1  0.18589997  0.16192934  0.26062163  1.0
  K  K18  1  0.81410003  0.83807066  0.73937837  1.0
  K  K19  1  0.81410003  0.66192934  0.23937837  1.0
  Sn  Sn20  1  0.84013106  0.14745867  0.91186330  1.0
  Sn  Sn21  1  0.84013106  0.35254133  0.41186330  1.0
  Sn  Sn22  1  0.15986894  0.64745867  0.58813670  1.0
  Sn  Sn23  1  0.15986894  0.85254133  0.08813670  1.0
  Bi  Bi24  1  0.14962049  0.30851916  0.56724923  1.0
  Bi  Bi25  1  0.14962049  0.19148084  0.06724923  1.0
  Bi  Bi26  1  0.85037951  0.80851916  0.93275077  1.0
  Bi  Bi27  1  0.85037951  0.69148084  0.43275077  1.0
  Bi  Bi28  1  0.85361208  0.23829404  0.76979010  1.0
  Bi  Bi29  1  0.85361208  0.26170596  0.26979010  1.0
  Bi  Bi30  1  0.14638792  0.73829404  0.73020990  1.0
  Bi  Bi31  1  0.14638792  0.76170596  0.23020990  1.0
  Bi  Bi32  1  0.57663143  0.26638628  0.91894321  1.0
  Bi  Bi33  1  0.57663143  0.23361372  0.41894321  1.0
  Bi  Bi34  1  0.42336857  0.76638628  0.58105679  1.0
  Bi  Bi35  1  0.42336857  0.73361372  0.08105679  1.0
