# generated using pymatgen
data_Mg2GeSe4
_symmetry_space_group_name_H-M   'P 1'
_cell_length_a   13.61173697
_cell_length_b   7.91083053
_cell_length_c   6.39103276
_cell_angle_alpha   90.00000000
_cell_angle_beta   90.00000000
_cell_angle_gamma   90.00000000
_symmetry_Int_Tables_number   1
_chemical_formula_structural   Mg2GeSe4
_chemical_formula_sum   'Mg8 Ge4 Se16'
_cell_volume   688.18733042
_cell_formula_units_Z   4
loop_
 _symmetry_equiv_pos_site_id
 _symmetry_equiv_pos_as_xyz
  1  'x, y, z'
loop_
 _atom_site_type_symbol
 _atom_site_label
 _atom_site_symmetry_multiplicity
 _atom_site_fract_x
 _atom_site_fract_y
 _atom_site_fract_z
 _atom_site_occupancy
  Mg  Mg0  1  0.76877590  0.25000000  0.50279857  1.0
  Mg  Mg1  1  0.26877590  0.25000000  0.99720143  1.0
  Mg  Mg2  1  0.23122410  0.75000000  0.49720143  1.0
  Mg  Mg3  1  0.73122410  0.75000000  0.00279857  1.0
  Mg  Mg4  1  0.00000000  0.50000000  0.00000000  1.0
  Mg  Mg5  1  0.00000000  0.00000000  0.00000000  1.0
  Mg  Mg6  1  0.50000000  0.50000000  0.50000000  1.0
  Mg  Mg7  1  0.50000000  0.00000000  0.50000000  1.0
  Ge  Ge8  1  0.58824607  0.25000000  0.08867533  1.0
  Ge  Ge9  1  0.08824607  0.25000000  0.41132467  1.0
  Ge  Ge10  1  0.41175393  0.75000000  0.91132467  1.0
  Ge  Ge11  1  0.91175393  0.75000000  0.58867533  1.0
  Se  Se12  1  0.66811011  0.48479666  0.25618935  1.0
  Se  Se13  1  0.66811011  0.01520334  0.25618935  1.0
  Se  Se14  1  0.16811011  0.48479666  0.24381065  1.0
  Se  Se15  1  0.16811011  0.01520334  0.24381065  1.0
  Se  Se16  1  0.33188989  0.98479666  0.74381065  1.0
  Se  Se17  1  0.33188989  0.51520334  0.74381065  1.0
  Se  Se18  1  0.83188989  0.98479666  0.75618935  1.0
  Se  Se19  1  0.83188989  0.51520334  0.75618935  1.0
  Se  Se20  1  0.92836576  0.25000000  0.25089015  1.0
  Se  Se21  1  0.42836576  0.25000000  0.24910985  1.0
  Se  Se22  1  0.07163424  0.75000000  0.74910985  1.0
  Se  Se23  1  0.57163424  0.75000000  0.75089015  1.0
  Se  Se24  1  0.59326211  0.25000000  0.71842757  1.0
  Se  Se25  1  0.09326211  0.25000000  0.78157243  1.0
  Se  Se26  1  0.40673789  0.75000000  0.28157243  1.0
  Se  Se27  1  0.90673789  0.75000000  0.21842757  1.0
