# generated using pymatgen
data_P2H12C4O3
_symmetry_space_group_name_H-M   'P 1'
_cell_length_a   6.19473285
_cell_length_b   6.19473285
_cell_length_c   12.69086620
_cell_angle_alpha   77.95917212
_cell_angle_beta   102.04082788
_cell_angle_gamma   85.59066140
_symmetry_Int_Tables_number   1
_chemical_formula_structural   P2H12C4O3
_chemical_formula_sum   'P4 H24 C8 O6'
_cell_volume   462.10979793
_cell_formula_units_Z   2
loop_
 _symmetry_equiv_pos_site_id
 _symmetry_equiv_pos_as_xyz
  1  'x, y, z'
loop_
 _atom_site_type_symbol
 _atom_site_label
 _atom_site_symmetry_multiplicity
 _atom_site_fract_x
 _atom_site_fract_y
 _atom_site_fract_z
 _atom_site_occupancy
  P  P0  1  0.87925436  -0.15357896  0.13869976  1.0
  P  P1  1  0.84642104  -0.12074564  0.36130024  1.0
  P  P2  1  1.12074564  0.15357896  0.86130024  1.0
  P  P3  1  1.15357896  0.12074564  0.63869976  1.0
  H  H4  1  0.73186258  -0.47057482  0.07865615  1.0
  H  H5  1  0.52942518  -0.26813742  0.42134385  1.0
  H  H6  1  1.26813742  0.47057482  0.92134385  1.0
  H  H7  1  1.47057482  0.26813742  0.57865615  1.0
  H  H8  1  0.78434708  -0.26178970  0.96972352  1.0
  H  H9  1  0.73821030  -0.21565292  0.53027648  1.0
  H  H10  1  1.21565292  0.26178970  0.03027648  1.0
  H  H11  1  1.26178970  0.21565292  0.46972352  1.0
  H  H12  1  0.54032202  -0.21912058  0.02138969  1.0
  H  H13  1  0.78087942  -0.45967798  0.47861031  1.0
  H  H14  1  1.45967798  0.21912058  0.97861031  1.0
  H  H15  1  1.21912058  0.45967798  0.52138969  1.0
  H  H16  1  1.22189056  0.72403448  0.10195687  1.0
  H  H17  1  1.72403448  0.22189056  0.39804313  1.0
  H  H18  1  0.77810944  -0.72403448  0.89804313  1.0
  H  H19  1  0.27596552  -0.22189056  0.60195687  1.0
  H  H20  1  1.15472294  0.52161147  0.21011409  1.0
  H  H21  1  1.52161147  0.15472294  0.28988591  1.0
  H  H22  1  0.84527706  -0.52161147  0.78988591  1.0
  H  H23  1  0.47838853  -0.15472294  0.71011409  1.0
  H  H24  1  1.25933033  0.76910317  0.24013994  1.0
  H  H25  1  1.76910317  0.25933033  0.25986006  1.0
  H  H26  1  0.74066967  -0.76910317  0.75986006  1.0
  H  H27  1  0.23089683  -0.25933033  0.74013994  1.0
  C  C28  1  0.71587712  -0.29068324  0.04400700  1.0
  C  C29  1  0.70931676  -0.28412288  0.45599300  1.0
  C  C30  1  1.28412288  0.29068324  0.95599300  1.0
  C  C31  1  1.29068324  0.28412288  0.54400700  1.0
  C  C32  1  1.15705287  0.69966402  0.17717893  1.0
  C  C33  1  1.69966402  0.15705287  0.32282107  1.0
  C  C34  1  0.84294713  -0.69966402  0.82282107  1.0
  C  C35  1  0.30033598  -0.15705287  0.67717893  1.0
  O  O36  1  0.77780898  -0.22219102  0.25000000  1.0
  O  O37  1  1.22219102  0.22219102  0.75000000  1.0
  O  O38  1  1.86636865  0.09360649  0.09819902  1.0
  O  O39  1  1.09360649  0.86636865  0.40180098  1.0
  O  O40  1  0.13363135  -0.09360649  0.90180098  1.0
  O  O41  1  0.90639351  -0.86636865  0.59819902  1.0
