# generated using pymatgen
data_Tl3GeF7
_symmetry_space_group_name_H-M   'P 1'
_cell_length_a   8.24802285
_cell_length_b   8.24802285
_cell_length_c   6.02087141
_cell_angle_alpha   90.00000000
_cell_angle_beta   90.00000000
_cell_angle_gamma   90.00000000
_symmetry_Int_Tables_number   1
_chemical_formula_structural   Tl3GeF7
_chemical_formula_sum   'Tl6 Ge2 F14'
_cell_volume   409.59916464
_cell_formula_units_Z   2
loop_
 _symmetry_equiv_pos_site_id
 _symmetry_equiv_pos_as_xyz
  1  'x, y, z'
loop_
 _atom_site_type_symbol
 _atom_site_label
 _atom_site_symmetry_multiplicity
 _atom_site_fract_x
 _atom_site_fract_y
 _atom_site_fract_z
 _atom_site_occupancy
  Tl  Tl0  1  0.50000000  0.50000000  0.00000000  1.0
  Tl  Tl1  1  0.00000000  0.00000000  0.00000000  1.0
  Tl  Tl2  1  0.30083211  0.19916789  0.50000000  1.0
  Tl  Tl3  1  0.80083211  0.30083211  0.50000000  1.0
  Tl  Tl4  1  0.69916789  0.80083211  0.50000000  1.0
  Tl  Tl5  1  0.19916789  0.69916789  0.50000000  1.0
  Ge  Ge6  1  0.50000000  0.00000000  0.00000000  1.0
  Ge  Ge7  1  0.00000000  0.50000000  0.00000000  1.0
  F  F8  1  0.88993437  0.61006563  0.78250888  1.0
  F  F9  1  0.88993437  0.61006563  0.21749112  1.0
  F  F10  1  0.38993437  0.88993437  0.78250888  1.0
  F  F11  1  0.38993437  0.88993437  0.21749112  1.0
  F  F12  1  0.11006563  0.38993437  0.78250888  1.0
  F  F13  1  0.11006563  0.38993437  0.21749112  1.0
  F  F14  1  0.61006563  0.11006563  0.78250888  1.0
  F  F15  1  0.61006563  0.11006563  0.21749112  1.0
  F  F16  1  0.34273665  0.15726335  0.00000000  1.0
  F  F17  1  0.84273665  0.34273665  0.00000000  1.0
  F  F18  1  0.65726335  0.84273665  0.00000000  1.0
  F  F19  1  0.15726335  0.65726335  0.00000000  1.0
  F  F20  1  0.50000000  0.50000000  0.50000000  1.0
  F  F21  1  0.00000000  0.00000000  0.50000000  1.0
