# generated using pymatgen
data_TiCoSi
_symmetry_space_group_name_H-M   'P 1'
_cell_length_a   6.01773653
_cell_length_b   6.01773653
_cell_length_c   3.71517581
_cell_angle_alpha   90.00000000
_cell_angle_beta   90.00000000
_cell_angle_gamma   120.00000000
_symmetry_Int_Tables_number   1
_chemical_formula_structural   TiCoSi
_chemical_formula_sum   'Ti3 Co3 Si3'
_cell_volume   116.51352479
_cell_formula_units_Z   3
loop_
 _symmetry_equiv_pos_site_id
 _symmetry_equiv_pos_as_xyz
  1  'x, y, z'
loop_
 _atom_site_type_symbol
 _atom_site_label
 _atom_site_symmetry_multiplicity
 _atom_site_fract_x
 _atom_site_fract_y
 _atom_site_fract_z
 _atom_site_occupancy
  Ti  Ti0  1  0.56558850  0.56558850  0.50000000  1.0
  Ti  Ti1  1  0.43441150  0.00000000  0.50000000  1.0
  Ti  Ti2  1  0.00000000  0.43441150  0.50000000  1.0
  Co  Co3  1  0.75744021  0.00000000  0.00000000  1.0
  Co  Co4  1  0.00000000  0.75744021  0.00000000  1.0
  Co  Co5  1  0.24255979  0.24255979  0.00000000  1.0
  Si  Si6  1  0.00000000  0.00000000  0.50000000  1.0
  Si  Si7  1  0.66666667  0.33333333  0.00000000  1.0
  Si  Si8  1  0.33333333  0.66666667  0.00000000  1.0
