# generated using pymatgen
data_TiAu4
_symmetry_space_group_name_H-M   'P 1'
_cell_length_a   5.04813336
_cell_length_b   5.04813336
_cell_length_c   5.04813336
_cell_angle_alpha   99.06661888
_cell_angle_beta   99.06661888
_cell_angle_gamma   133.22259087
_symmetry_Int_Tables_number   1
_chemical_formula_structural   TiAu4
_chemical_formula_sum   'Ti1 Au4'
_cell_volume   86.04072380
_cell_formula_units_Z   1
loop_
 _symmetry_equiv_pos_site_id
 _symmetry_equiv_pos_as_xyz
  1  'x, y, z'
loop_
 _atom_site_type_symbol
 _atom_site_label
 _atom_site_symmetry_multiplicity
 _atom_site_fract_x
 _atom_site_fract_y
 _atom_site_fract_z
 _atom_site_occupancy
  Ti  Ti0  1  0.00000000  0.00000000  0.00000000  1.0
  Au  Au1  1  0.79336909  0.60542232  0.39879141  1.0
  Au  Au2  1  0.60542232  0.20663091  0.81205323  1.0
  Au  Au3  1  1.20663091  1.39457768  1.60120859  1.0
  Au  Au4  1  0.39457768  0.79336909  1.18794677  1.0
