# generated using pymatgen
data_Ba3NaIr2O9
_symmetry_space_group_name_H-M   'P 1'
_cell_length_a   5.94875037
_cell_length_b   5.94875037
_cell_length_c   14.81217239
_cell_angle_alpha   88.69780141
_cell_angle_beta   91.30219859
_cell_angle_gamma   60.45859792
_symmetry_Int_Tables_number   1
_chemical_formula_structural   Ba3NaIr2O9
_chemical_formula_sum   'Ba6 Na2 Ir4 O18'
_cell_volume   455.56088682
_cell_formula_units_Z   2
loop_
 _symmetry_equiv_pos_site_id
 _symmetry_equiv_pos_as_xyz
  1  'x, y, z'
loop_
 _atom_site_type_symbol
 _atom_site_label
 _atom_site_symmetry_multiplicity
 _atom_site_fract_x
 _atom_site_fract_y
 _atom_site_fract_z
 _atom_site_occupancy
  O  O0  1  0.51704640  -0.03865255  0.23668975  1.0
  O  O1  1  1.03865255  0.48295360  0.73668975  1.0
  O  O2  1  0.96134745  -0.48295360  0.26331025  1.0
  O  O3  1  1.48295360  0.03865255  0.76331025  1.0
  O  O4  1  0.51454747  -0.48545253  0.25000000  1.0
  O  O5  1  1.48545253  0.48545253  0.75000000  1.0
  O  O6  1  0.39714825  -0.22033489  0.07496126  1.0
  O  O7  1  1.22033489  0.60285175  0.57496126  1.0
  O  O8  1  0.77966511  -0.60285175  0.42503874  1.0
  O  O9  1  1.60285175  0.22033489  0.92503874  1.0
  O  O10  1  0.31859548  -0.13968966  0.39799699  1.0
  O  O11  1  1.13968966  0.68140452  0.89799699  1.0
  O  O12  1  0.86031034  -0.68140452  0.10200301  1.0
  O  O13  1  1.68140452  0.13968966  0.60200301  1.0
  O  O14  1  0.78035508  -0.13706580  0.40965570  1.0
  O  O15  1  1.13706580  0.21964492  0.90965570  1.0
  O  O16  1  0.86293420  -0.21964492  0.09034430  1.0
  O  O17  1  1.21964492  0.13706580  0.59034430  1.0
  Ir  Ir18  1  0.64395512  -0.31396817  0.34213641  1.0
  Ir  Ir19  1  1.31396817  0.35604488  0.84213641  1.0
  Ir  Ir20  1  0.68603183  -0.35604488  0.15786359  1.0
  Ir  Ir21  1  1.35604488  0.31396817  0.65786359  1.0
  Ba  Ba22  1  1.32389418  0.33877551  0.41429178  1.0
  Ba  Ba23  1  0.66122449  -0.32389418  0.91429178  1.0
  Ba  Ba24  1  1.33877551  0.32389418  0.08570822  1.0
  Ba  Ba25  1  0.67610582  -0.33877551  0.58570822  1.0
  Ba  Ba26  1  0.99252596  -0.00747404  0.25000000  1.0
  Ba  Ba27  1  1.00747404  0.00747404  0.75000000  1.0
  Na  Na28  1  -0.00000000  0.00000000  0.50000000  1.0
  Na  Na29  1  0.00000000  0.00000000  0.00000000  1.0
