# generated using pymatgen
data_La3ReO8
_symmetry_space_group_name_H-M   'P 1'
_cell_length_a   7.61438895
_cell_length_b   6.32969261
_cell_length_c   7.61449500
_cell_angle_alpha   90.00000000
_cell_angle_beta   110.01700909
_cell_angle_gamma   90.00000000
_symmetry_Int_Tables_number   1
_chemical_formula_structural   La3ReO8
_chemical_formula_sum   'La6 Re2 O16'
_cell_volume   344.82413245
_cell_formula_units_Z   2
loop_
 _symmetry_equiv_pos_site_id
 _symmetry_equiv_pos_as_xyz
  1  'x, y, z'
loop_
 _atom_site_type_symbol
 _atom_site_label
 _atom_site_symmetry_multiplicity
 _atom_site_fract_x
 _atom_site_fract_y
 _atom_site_fract_z
 _atom_site_occupancy
  La  La0  1  0.10729407  0.25000000  0.33651988  1.0
  La  La1  1  0.89270593  0.75000000  0.66348012  1.0
  La  La2  1  0.66347795  0.25000000  0.89270426  1.0
  La  La3  1  0.33652205  0.75000000  0.10729574  1.0
  La  La4  1  0.60131053  0.25000000  0.39869197  1.0
  La  La5  1  0.39868947  0.75000000  0.60130803  1.0
  Re  Re6  1  0.18214811  0.25000000  0.81784256  1.0
  Re  Re7  1  0.81785189  0.75000000  0.18215744  1.0
  O  O8  1  0.80527201  0.45293225  0.19472780  1.0
  O  O9  1  0.80527201  0.04706775  0.19472780  1.0
  O  O10  1  0.19472799  0.95293225  0.80527220  1.0
  O  O11  1  0.19472799  0.54706775  0.80527220  1.0
  O  O12  1  0.66420275  0.50000872  0.66422010  1.0
  O  O13  1  0.66420275  -0.00000872  0.66422010  1.0
  O  O14  1  0.33579725  1.00000872  0.33577990  1.0
  O  O15  1  0.33579725  0.49999128  0.33577990  1.0
  O  O16  1  0.97146721  0.25000000  0.59325334  1.0
  O  O17  1  0.02853279  0.75000000  0.40674666  1.0
  O  O18  1  1.03476953  0.25000000  0.96522799  1.0
  O  O19  1  -0.03476953  0.75000000  0.03477201  1.0
  O  O20  1  0.40674733  0.25000000  0.02850473  1.0
  O  O21  1  0.59325267  0.75000000  0.97149527  1.0
  O  O22  1  0.33764029  0.25000000  0.66233147  1.0
  O  O23  1  0.66235971  0.75000000  0.33766853  1.0
