# generated using pymatgen
data_Na4Ca4Be4AlSi7(O6F)4
_symmetry_space_group_name_H-M   'P 1'
_cell_length_a   9.04326992
_cell_length_b   9.04326992
_cell_length_c   9.04326992
_cell_angle_alpha   107.94551291
_cell_angle_beta   107.94551291
_cell_angle_gamma   112.56772174
_symmetry_Int_Tables_number   1
_chemical_formula_structural   Na4Ca4Be4AlSi7(O6F)4
_chemical_formula_sum   'Na4 Ca4 Be4 Al1 Si7 O24 F4'
_cell_volume   568.06314582
_cell_formula_units_Z   1
loop_
 _symmetry_equiv_pos_site_id
 _symmetry_equiv_pos_as_xyz
  1  'x, y, z'
loop_
 _atom_site_type_symbol
 _atom_site_label
 _atom_site_symmetry_multiplicity
 _atom_site_fract_x
 _atom_site_fract_y
 _atom_site_fract_z
 _atom_site_occupancy
  Be  Be0  1  1.42212789  1.28018779  1.64512755  1.0
  Be  Be1  1  1.22299966  1.57787211  0.85805990  1.0
  Be  Be2  1  0.63506024  0.77700034  1.35487245  1.0
  Be  Be3  1  0.71981221  1.36493976  1.14194010  1.0
  F  F4  1  1.26076023  1.12496347  1.64494867  1.0
  F  F5  1  0.38418844  0.73923977  0.86420324  1.0
  F  F6  1  1.48001480  1.61581156  1.35505133  1.0
  F  F7  1  0.87503653  1.51998520  1.13579676  1.0
  Al  Al8  1  0.00000000  0.00000000  0.00000000  1.0
  Ca  Ca9  1  0.83567247  1.48759220  0.83487437  1.0
  Ca  Ca10  1  0.99920190  1.16432753  0.65191972  1.0
  Ca  Ca11  1  0.65271783  1.00079810  1.16512563  1.0
  Ca  Ca12  1  0.51240780  0.34728217  0.34808028  1.0
  Na  Na13  1  0.33435294  1.00846608  0.84562702  1.0
  Na  Na14  1  0.51127408  0.66564706  0.67411314  1.0
  Na  Na15  1  1.16283906  1.48872592  1.15437298  1.0
  Na  Na16  1  0.99153392  0.83716094  0.32588686  1.0
  Si  Si17  1  0.50000000  0.50000000  0.00000000  1.0
  Si  Si18  1  0.99478415  0.49478415  0.50000000  1.0
  Si  Si19  1  0.50521585  0.00521585  0.50000000  1.0
  Si  Si20  1  0.91285077  0.77122940  0.63239031  1.0
  Si  Si21  1  0.71953954  1.08714923  0.85837863  1.0
  Si  Si22  1  0.13883909  0.28046046  0.36760969  1.0
  Si  Si23  1  1.22877060  1.86116091  1.14162137  1.0
  O  O24  1  1.16701034  1.65689213  1.00151121  1.0
  O  O25  1  0.83450087  0.83298966  0.48988180  1.0
  O  O26  1  0.65538092  1.16549913  0.99848879  1.0
  O  O27  1  0.34310787  0.34461908  0.51011820  1.0
  O  O28  1  1.04917760  0.96780571  1.82146332  1.0
  O  O29  1  0.77228572  0.95082240  0.91862811  1.0
  O  O30  1  0.14634239  0.22771428  0.17853668  1.0
  O  O31  1  1.03219429  0.85365761  1.08137189  1.0
  O  O32  1  1.55271066  1.21660029  1.58259978  1.0
  O  O33  1  1.02988912  1.44728934  0.66388963  1.0
  O  O34  1  0.63400051  0.97011088  1.41740022  1.0
  O  O35  1  0.78339971  1.36599949  1.33611037  1.0
  O  O36  1  1.05335117  0.71284840  1.58125824  1.0
  O  O37  1  0.52790708  0.94664884  0.65949724  1.0
  O  O38  1  0.13159016  0.47209292  0.41874176  1.0
  O  O39  1  1.28715160  0.86840984  1.34050276  1.0
  O  O40  1  0.76280054  0.60810813  0.63977939  1.0
  O  O41  1  0.87697885  0.23719946  0.84530760  1.0
  O  O42  1  0.96832875  1.12302115  1.36022061  1.0
  O  O43  1  0.39189187  1.03167125  1.15469240  1.0
  O  O44  1  1.56018843  1.46318261  1.84398832  1.0
  O  O45  1  1.28379990  1.43981157  0.90299419  1.0
  O  O46  1  0.61919429  0.71620010  1.15601168  1.0
  O  O47  1  0.53681739  1.38080571  1.09700581  1.0
