# generated using pymatgen
data_K2CrO4
_symmetry_space_group_name_H-M   'P 1'
_cell_length_a   7.74245228
_cell_length_b   6.03937240
_cell_length_c   10.53584468
_cell_angle_alpha   90.00000000
_cell_angle_beta   90.00000000
_cell_angle_gamma   90.00000000
_symmetry_Int_Tables_number   1
_chemical_formula_structural   K2CrO4
_chemical_formula_sum   'K8 Cr4 O16'
_cell_volume   492.65138380
_cell_formula_units_Z   4
loop_
 _symmetry_equiv_pos_site_id
 _symmetry_equiv_pos_as_xyz
  1  'x, y, z'
loop_
 _atom_site_type_symbol
 _atom_site_label
 _atom_site_symmetry_multiplicity
 _atom_site_fract_x
 _atom_site_fract_y
 _atom_site_fract_z
 _atom_site_occupancy
  K  K0  1  0.83263158  0.75000000  0.42449379  1.0
  K  K1  1  0.33263158  0.75000000  0.07550621  1.0
  K  K2  1  0.16736842  0.25000000  0.57550621  1.0
  K  K3  1  0.66736842  0.25000000  0.92449379  1.0
  K  K4  1  0.50054654  0.75000000  0.70020307  1.0
  K  K5  1  0.00054654  0.75000000  0.79979693  1.0
  K  K6  1  0.49945346  0.25000000  0.29979693  1.0
  K  K7  1  0.99945346  0.25000000  0.20020307  1.0
  Cr  Cr8  1  0.77542546  0.75000000  0.08305127  1.0
  Cr  Cr9  1  0.27542546  0.75000000  0.41694873  1.0
  Cr  Cr10  1  0.22457454  0.25000000  0.91694873  1.0
  Cr  Cr11  1  0.72457454  0.25000000  0.58305127  1.0
  O  O12  1  0.71138687  0.97403250  0.16055094  1.0
  O  O13  1  0.71138687  0.52596750  0.16055094  1.0
  O  O14  1  0.21138687  0.97403250  0.33944906  1.0
  O  O15  1  0.21138687  0.52596750  0.33944906  1.0
  O  O16  1  0.28861313  0.47403250  0.83944906  1.0
  O  O17  1  0.28861313  0.02596750  0.83944906  1.0
  O  O18  1  0.78861313  0.47403250  0.66055094  1.0
  O  O19  1  0.78861313  0.02596750  0.66055094  1.0
  O  O20  1  0.98736423  0.75000000  0.07052475  1.0
  O  O21  1  0.48736423  0.75000000  0.42947525  1.0
  O  O22  1  0.01263577  0.25000000  0.92947525  1.0
  O  O23  1  0.51263577  0.25000000  0.57052475  1.0
  O  O24  1  0.18583424  0.75000000  0.56047858  1.0
  O  O25  1  0.68583424  0.75000000  0.93952142  1.0
  O  O26  1  0.81416576  0.25000000  0.43952142  1.0
  O  O27  1  0.31416576  0.25000000  0.06047858  1.0
