# generated using pymatgen
data_LiLuF2
_symmetry_space_group_name_H-M   'P 1'
_cell_length_a   7.78406875
_cell_length_b   7.78406875
_cell_length_c   7.78406875
_cell_angle_alpha   127.37058719
_cell_angle_beta   127.37058719
_cell_angle_gamma   77.64689399
_symmetry_Int_Tables_number   1
_chemical_formula_structural   LiLuF2
_chemical_formula_sum   'Li4 Lu4 F8'
_cell_volume   288.84232577
_cell_formula_units_Z   4
loop_
 _symmetry_equiv_pos_site_id
 _symmetry_equiv_pos_as_xyz
  1  'x, y, z'
loop_
 _atom_site_type_symbol
 _atom_site_label
 _atom_site_symmetry_multiplicity
 _atom_site_fract_x
 _atom_site_fract_y
 _atom_site_fract_z
 _atom_site_occupancy
  Li  Li0  1  0.87500000  0.12500000  0.75000000  1.0
  Li  Li1  1  0.37500000  0.12500000  0.25000000  1.0
  Li  Li2  1  0.87500000  0.62500000  0.75000000  1.0
  Li  Li3  1  0.87500000  1.12500000  1.25000000  1.0
  Lu  Lu4  1  0.37500000  0.62500000  0.75000000  1.0
  Lu  Lu5  1  0.87500000  0.62500000  1.25000000  1.0
  Lu  Lu6  1  0.37500000  1.12500000  0.75000000  1.0
  Lu  Lu7  1  0.37500000  0.62500000  0.25000000  1.0
  F  F8  1  1.18323068  0.88205885  1.69883419  1.0
  F  F9  1  0.56677534  0.76560351  1.19883419  1.0
  F  F10  1  1.11794115  0.81677534  1.30117183  1.0
  F  F11  1  1.23439649  1.43323068  1.80117183  1.0
  F  F12  1  0.18322466  0.48439649  0.30116581  1.0
  F  F13  1  0.56676932  0.36794115  0.80116581  1.0
  F  F14  1  0.51560351  0.81676932  0.69882817  1.0
  F  F15  1  0.63205885  0.43322466  0.19882817  1.0
