# generated using pymatgen
data_K4V2O7
_symmetry_space_group_name_H-M   'P 1'
_cell_length_a   6.10062427
_cell_length_b   6.10062427
_cell_length_c   7.31254995
_cell_angle_alpha   80.27893065
_cell_angle_beta   99.72106935
_cell_angle_gamma   117.77969979
_symmetry_Int_Tables_number   1
_chemical_formula_structural   K4V2O7
_chemical_formula_sum   'K4 V2 O7'
_cell_volume   236.05960017
_cell_formula_units_Z   1
loop_
 _symmetry_equiv_pos_site_id
 _symmetry_equiv_pos_as_xyz
  1  'x, y, z'
loop_
 _atom_site_type_symbol
 _atom_site_label
 _atom_site_symmetry_multiplicity
 _atom_site_fract_x
 _atom_site_fract_y
 _atom_site_fract_z
 _atom_site_occupancy
  K  K0  1  0.82084562  -0.82084562  0.30391426  1.0
  K  K1  1  0.17915438  -0.17915438  0.69608574  1.0
  K  K2  1  0.50000000  -0.50000000  0.50000000  1.0
  K  K3  1  0.50000000  -0.50000000  0.00000000  1.0
  V  V4  1  0.86492223  -0.86492223  0.79972124  1.0
  V  V5  1  0.13507777  -0.13507777  0.20027876  1.0
  O  O6  1  0.00000000  0.00000000  0.00000000  1.0
  O  O7  1  0.66237167  -0.10239537  0.67351313  1.0
  O  O8  1  1.10239537  0.33762833  0.67351313  1.0
  O  O9  1  0.89760463  -0.33762833  0.32648687  1.0
  O  O10  1  1.33762833  0.10239537  0.32648687  1.0
  O  O11  1  0.71694727  -0.71694727  0.86155938  1.0
  O  O12  1  0.28305273  -0.28305273  0.13844062  1.0
