# generated using pymatgen
data_HgSO4
_symmetry_space_group_name_H-M   'P 1'
_cell_length_a   6.56897561
_cell_length_b   5.00376341
_cell_length_c   5.03671559
_cell_angle_alpha   90.00000000
_cell_angle_beta   90.00000000
_cell_angle_gamma   90.00000000
_symmetry_Int_Tables_number   1
_chemical_formula_structural   HgSO4
_chemical_formula_sum   'Hg2 S2 O8'
_cell_volume   165.55482566
_cell_formula_units_Z   2
loop_
 _symmetry_equiv_pos_site_id
 _symmetry_equiv_pos_as_xyz
  1  'x, y, z'
loop_
 _atom_site_type_symbol
 _atom_site_label
 _atom_site_symmetry_multiplicity
 _atom_site_fract_x
 _atom_site_fract_y
 _atom_site_fract_z
 _atom_site_occupancy
  Hg  Hg0  1  0.50000000  0.80695521  0.50767633  1.0
  Hg  Hg1  1  -0.00000000  0.19304479  0.00767633  1.0
  S  S2  1  0.50000000  0.31590733  0.00734217  1.0
  S  S3  1  0.00000000  0.68409267  0.50734217  1.0
  O  O4  1  0.17930392  0.82834958  0.63304805  1.0
  O  O5  1  0.67930392  0.17165042  0.13304805  1.0
  O  O6  1  0.82069608  0.82834958  0.63304805  1.0
  O  O7  1  0.32069608  0.17165042  0.13304805  1.0
  O  O8  1  0.50000000  0.60488535  0.07695183  1.0
  O  O9  1  0.00000000  0.39511465  0.57695183  1.0
  O  O10  1  0.50000000  0.28876985  0.71403357  1.0
  O  O11  1  0.00000000  0.71123015  0.21403357  1.0
