# generated using pymatgen
data_Li2HIO
_symmetry_space_group_name_H-M   'P 1'
_cell_length_a   10.63650047
_cell_length_b   5.61890088
_cell_length_c   6.57616663
_cell_angle_alpha   90.00000000
_cell_angle_beta   90.00000000
_cell_angle_gamma   90.00000000
_symmetry_Int_Tables_number   1
_chemical_formula_structural   Li2HIO
_chemical_formula_sum   'Li8 H4 I4 O4'
_cell_volume   393.02750476
_cell_formula_units_Z   4
loop_
 _symmetry_equiv_pos_site_id
 _symmetry_equiv_pos_as_xyz
  1  'x, y, z'
loop_
 _atom_site_type_symbol
 _atom_site_label
 _atom_site_symmetry_multiplicity
 _atom_site_fract_x
 _atom_site_fract_y
 _atom_site_fract_z
 _atom_site_occupancy
  Li  Li0  1  0.10689502  -0.00081560  0.93577846  1.0
  Li  Li1  1  0.10689502  0.50081560  0.93577846  1.0
  Li  Li2  1  0.60689502  -0.00081560  0.56422154  1.0
  Li  Li3  1  0.60689502  0.50081560  0.56422154  1.0
  Li  Li4  1  0.89310498  0.49918440  0.06422154  1.0
  Li  Li5  1  0.89310498  1.00081560  0.06422154  1.0
  Li  Li6  1  0.39310498  0.49918440  0.43577846  1.0
  Li  Li7  1  0.39310498  1.00081560  0.43577846  1.0
  H  H8  1  0.44783320  0.75000000  0.72129018  1.0
  H  H9  1  0.94783320  0.75000000  0.77870982  1.0
  H  H10  1  0.55216680  0.25000000  0.27870982  1.0
  H  H11  1  0.05216680  0.25000000  0.22129018  1.0
  I  I12  1  0.32001419  0.75000000  0.07857516  1.0
  I  I13  1  0.82001419  0.75000000  0.42142484  1.0
  I  I14  1  0.67998581  0.25000000  0.92142484  1.0
  I  I15  1  0.17998581  0.25000000  0.57857516  1.0
  O  O16  1  0.48057142  0.75000000  0.58214870  1.0
  O  O17  1  0.98057142  0.75000000  0.91785130  1.0
  O  O18  1  0.51942858  0.25000000  0.41785130  1.0
  O  O19  1  0.01942858  0.25000000  0.08214870  1.0
