# generated using pymatgen
data_La2ZrSe5
_symmetry_space_group_name_H-M   'P 1'
_cell_length_a   12.09835128
_cell_length_b   8.58307156
_cell_length_c   7.78802775
_cell_angle_alpha   90.00000000
_cell_angle_beta   90.00000000
_cell_angle_gamma   90.00000000
_symmetry_Int_Tables_number   1
_chemical_formula_structural   La2ZrSe5
_chemical_formula_sum   'La8 Zr4 Se20'
_cell_volume   808.71670533
_cell_formula_units_Z   4
loop_
 _symmetry_equiv_pos_site_id
 _symmetry_equiv_pos_as_xyz
  1  'x, y, z'
loop_
 _atom_site_type_symbol
 _atom_site_label
 _atom_site_symmetry_multiplicity
 _atom_site_fract_x
 _atom_site_fract_y
 _atom_site_fract_z
 _atom_site_occupancy
  La  La0  1  0.67329654  0.49915333  0.05338008  1.0
  La  La1  1  0.67329654  0.00084667  0.05338008  1.0
  La  La2  1  0.17329654  0.49915333  0.44661992  1.0
  La  La3  1  0.17329654  0.00084667  0.44661992  1.0
  La  La4  1  0.32670346  0.99915333  0.94661992  1.0
  La  La5  1  0.32670346  0.50084667  0.94661992  1.0
  La  La6  1  0.82670346  0.99915333  0.55338008  1.0
  La  La7  1  0.82670346  0.50084667  0.55338008  1.0
  Zr  Zr8  1  0.99005253  0.25000000  0.07654155  1.0
  Zr  Zr9  1  0.49005253  0.25000000  0.42345845  1.0
  Zr  Zr10  1  0.00994747  0.75000000  0.92345845  1.0
  Zr  Zr11  1  0.50994747  0.75000000  0.57654155  1.0
  Se  Se12  1  0.92422041  0.96356846  0.17537869  1.0
  Se  Se13  1  0.92422041  0.53643154  0.17537869  1.0
  Se  Se14  1  0.42422041  0.96356846  0.32462131  1.0
  Se  Se15  1  0.42422041  0.53643154  0.32462131  1.0
  Se  Se16  1  0.07577959  0.46356846  0.82462131  1.0
  Se  Se17  1  0.07577959  0.03643154  0.82462131  1.0
  Se  Se18  1  0.57577959  0.46356846  0.67537869  1.0
  Se  Se19  1  0.57577959  0.03643154  0.67537869  1.0
  Se  Se20  1  0.99475767  0.25000000  0.44423383  1.0
  Se  Se21  1  0.49475767  0.25000000  0.05576617  1.0
  Se  Se22  1  0.00524233  0.75000000  0.55576617  1.0
  Se  Se23  1  0.50524233  0.75000000  0.94423383  1.0
  Se  Se24  1  0.81021344  0.25000000  0.85490013  1.0
  Se  Se25  1  0.31021344  0.25000000  0.64509987  1.0
  Se  Se26  1  0.18978656  0.75000000  0.14509987  1.0
  Se  Se27  1  0.68978656  0.75000000  0.35490013  1.0
  Se  Se28  1  0.70833405  0.25000000  0.33669205  1.0
  Se  Se29  1  0.20833405  0.25000000  0.16330795  1.0
  Se  Se30  1  0.29166595  0.75000000  0.66330795  1.0
  Se  Se31  1  0.79166595  0.75000000  0.83669205  1.0
