# generated using pymatgen
data_CsAg5Te3
_symmetry_space_group_name_H-M   'P 1'
_cell_length_a   14.88145597
_cell_length_b   14.88145597
_cell_length_c   4.64038099
_cell_angle_alpha   90.00000000
_cell_angle_beta   90.00000000
_cell_angle_gamma   90.00000000
_symmetry_Int_Tables_number   1
_chemical_formula_structural   CsAg5Te3
_chemical_formula_sum   'Cs4 Ag20 Te12'
_cell_volume   1027.64824914
_cell_formula_units_Z   4
loop_
 _symmetry_equiv_pos_site_id
 _symmetry_equiv_pos_as_xyz
  1  'x, y, z'
loop_
 _atom_site_type_symbol
 _atom_site_label
 _atom_site_symmetry_multiplicity
 _atom_site_fract_x
 _atom_site_fract_y
 _atom_site_fract_z
 _atom_site_occupancy
  Cs  Cs0  1  0.11249427  0.88750573  0.50000000  1.0
  Cs  Cs1  1  0.61249427  0.61249427  0.00000000  1.0
  Cs  Cs2  1  0.88750573  0.11249427  0.50000000  1.0
  Cs  Cs3  1  0.38750573  0.38750573  0.00000000  1.0
  Ag  Ag4  1  0.39739835  0.98254197  0.50000000  1.0
  Ag  Ag5  1  0.89739835  0.51745803  0.00000000  1.0
  Ag  Ag6  1  0.01745803  0.60260165  0.50000000  1.0
  Ag  Ag7  1  0.51745803  0.89739835  0.00000000  1.0
  Ag  Ag8  1  0.60260165  0.01745803  0.50000000  1.0
  Ag  Ag9  1  0.10260165  0.48254197  0.00000000  1.0
  Ag  Ag10  1  0.98254197  0.39739835  0.50000000  1.0
  Ag  Ag11  1  0.48254197  0.10260165  0.00000000  1.0
  Ag  Ag12  1  0.17849308  0.17849308  0.50000000  1.0
  Ag  Ag13  1  0.67849308  0.32150692  0.00000000  1.0
  Ag  Ag14  1  0.82150692  0.82150692  0.50000000  1.0
  Ag  Ag15  1  0.32150692  0.67849308  0.00000000  1.0
  Ag  Ag16  1  0.42002178  0.78773125  0.50000000  1.0
  Ag  Ag17  1  0.92002178  0.71226875  0.00000000  1.0
  Ag  Ag18  1  0.21226875  0.57997822  0.50000000  1.0
  Ag  Ag19  1  0.71226875  0.92002178  0.00000000  1.0
  Ag  Ag20  1  0.57997822  0.21226875  0.50000000  1.0
  Ag  Ag21  1  0.07997822  0.28773125  0.00000000  1.0
  Ag  Ag22  1  0.78773125  0.42002178  0.50000000  1.0
  Ag  Ag23  1  0.28773125  0.07997822  0.00000000  1.0
  Te  Te24  1  0.38290451  0.17208804  0.50000000  1.0
  Te  Te25  1  0.88290451  0.32791196  0.00000000  1.0
  Te  Te26  1  0.82791196  0.61709549  0.50000000  1.0
  Te  Te27  1  0.32791196  0.88290451  0.00000000  1.0
  Te  Te28  1  0.61709549  0.82791196  0.50000000  1.0
  Te  Te29  1  0.11709549  0.67208804  0.00000000  1.0
  Te  Te30  1  0.17208804  0.38290451  0.50000000  1.0
  Te  Te31  1  0.67208804  0.11709549  0.00000000  1.0
  Te  Te32  1  0.39923267  0.60076733  0.50000000  1.0
  Te  Te33  1  0.89923267  0.89923267  0.00000000  1.0
  Te  Te34  1  0.60076733  0.39923267  0.50000000  1.0
  Te  Te35  1  0.10076733  0.10076733  0.00000000  1.0
