# generated using pymatgen
data_Ca4Fe9O17
_symmetry_space_group_name_H-M   'P 1'
_cell_length_a   6.06790806
_cell_length_b   6.06790806
_cell_length_c   11.31239100
_cell_angle_alpha   82.45601304
_cell_angle_beta   97.54398696
_cell_angle_gamma   119.75204461
_symmetry_Int_Tables_number   1
_chemical_formula_structural   Ca4Fe9O17
_chemical_formula_sum   'Ca4 Fe9 O17'
_cell_volume   357.42196298
_cell_formula_units_Z   1
loop_
 _symmetry_equiv_pos_site_id
 _symmetry_equiv_pos_as_xyz
  1  'x, y, z'
loop_
 _atom_site_type_symbol
 _atom_site_label
 _atom_site_symmetry_multiplicity
 _atom_site_fract_x
 _atom_site_fract_y
 _atom_site_fract_z
 _atom_site_occupancy
  Ca  Ca0  1  0.97824122  0.05623218  0.75412034  1.0
  Ca  Ca1  1  0.05623218  -0.02175878  0.24587966  1.0
  Ca  Ca2  1  0.31238031  -0.27327490  0.75260134  1.0
  Ca  Ca3  1  0.72672510  0.31238031  0.24739866  1.0
  Fe  Fe4  1  1.02766101  0.35859115  1.00051013  1.0
  Fe  Fe5  1  0.35859115  0.02766101  -0.00051013  1.0
  Fe  Fe6  1  0.77738113  0.26814173  0.51286329  1.0
  Fe  Fe7  1  0.26814173  -0.22261887  0.48713671  1.0
  Fe  Fe8  1  0.65195686  0.38900228  0.77403287  1.0
  Fe  Fe9  1  0.38900228  -0.34804314  0.22596713  1.0
  Fe  Fe10  1  0.26314466  0.26314466  0.50000000  1.0
  Fe  Fe11  1  0.77389321  0.77389321  0.50000000  1.0
  Fe  Fe12  1  0.61921346  0.61921346  0.00000000  1.0
  O  O13  1  0.91253067  0.11414344  0.39897282  1.0
  O  O14  1  0.11414344  -0.08746933  0.60102718  1.0
  O  O15  1  1.12634916  0.41790362  0.60134067  1.0
  O  O16  1  0.41790362  0.12634916  0.39865933  1.0
  O  O17  1  0.35659860  -0.29393470  0.98008604  1.0
  O  O18  1  0.70606530  0.35659860  0.01991396  1.0
  O  O19  1  0.95444469  0.37619666  0.83316897  1.0
  O  O20  1  0.37619666  -0.04555531  0.16683103  1.0
  O  O21  1  0.92276919  0.61860723  0.39810202  1.0
  O  O22  1  0.61860723  -0.07723081  0.60189798  1.0
  O  O23  1  0.36538242  0.09101918  0.83165512  1.0
  O  O24  1  1.09101918  0.36538242  0.16834488  1.0
  O  O25  1  0.61946421  0.42209825  0.60335960  1.0
  O  O26  1  0.42209825  -0.38053579  0.39664040  1.0
  O  O27  1  0.65693834  -0.32894203  0.83615910  1.0
  O  O28  1  0.67105797  0.65693834  0.16384090  1.0
  O  O29  1  0.06886677  0.06886677  0.00000000  1.0
