# generated using pymatgen
data_Sr2CoClO3
_symmetry_space_group_name_H-M   'P 1'
_cell_length_a   3.84716661
_cell_length_b   3.84716661
_cell_length_c   15.22309827
_cell_angle_alpha   90.00000000
_cell_angle_beta   90.00000000
_cell_angle_gamma   90.00000000
_symmetry_Int_Tables_number   1
_chemical_formula_structural   Sr2CoClO3
_chemical_formula_sum   'Sr4 Co2 Cl2 O6'
_cell_volume   225.31237295
_cell_formula_units_Z   2
loop_
 _symmetry_equiv_pos_site_id
 _symmetry_equiv_pos_as_xyz
  1  'x, y, z'
loop_
 _atom_site_type_symbol
 _atom_site_label
 _atom_site_symmetry_multiplicity
 _atom_site_fract_x
 _atom_site_fract_y
 _atom_site_fract_z
 _atom_site_occupancy
  Sr  Sr0  1  0.50000000  0.00000000  0.58963870  1.0
  Sr  Sr1  1  0.00000000  0.50000000  0.41036130  1.0
  Sr  Sr2  1  0.50000000  0.00000000  0.83032115  1.0
  Sr  Sr3  1  0.00000000  0.50000000  0.16967885  1.0
  Co  Co4  1  0.50000000  0.00000000  0.29706925  1.0
  Co  Co5  1  0.00000000  0.50000000  0.70293075  1.0
  Cl  Cl6  1  0.50000000  0.00000000  0.08622728  1.0
  Cl  Cl7  1  0.00000000  0.50000000  0.91377272  1.0
  O  O8  1  0.00000000  0.00000000  0.27952447  1.0
  O  O9  1  0.50000000  0.50000000  0.72047553  1.0
  O  O10  1  0.50000000  0.50000000  0.27952447  1.0
  O  O11  1  0.00000000  0.00000000  0.72047553  1.0
  O  O12  1  0.50000000  0.00000000  0.42779721  1.0
  O  O13  1  0.00000000  0.50000000  0.57220279  1.0
