# generated using pymatgen
data_CaCuGeH2O5
_symmetry_space_group_name_H-M   'P 1'
_cell_length_a   5.20442224
_cell_length_b   16.20991135
_cell_length_c   5.57269504
_cell_angle_alpha   90.00000000
_cell_angle_beta   101.48635531
_cell_angle_gamma   90.00000000
_symmetry_Int_Tables_number   1
_chemical_formula_structural   CaCuGeH2O5
_chemical_formula_sum   'Ca4 Cu4 Ge4 H8 O20'
_cell_volume   460.71481444
_cell_formula_units_Z   4
loop_
 _symmetry_equiv_pos_site_id
 _symmetry_equiv_pos_as_xyz
  1  'x, y, z'
loop_
 _atom_site_type_symbol
 _atom_site_label
 _atom_site_symmetry_multiplicity
 _atom_site_fract_x
 _atom_site_fract_y
 _atom_site_fract_z
 _atom_site_occupancy
  Ge  Ge0  1  0.99119259  0.11111358  0.46598786  1.0
  Ge  Ge1  1  0.99119259  0.38888642  0.96598786  1.0
  Ge  Ge2  1  0.00880741  0.61111358  0.03401214  1.0
  Ge  Ge3  1  0.00880741  0.88888642  0.53401214  1.0
  O  O4  1  0.90796458  0.28839169  0.04673356  1.0
  O  O5  1  0.90796458  0.21160831  0.54673356  1.0
  O  O6  1  0.09203542  0.78839169  0.45326644  1.0
  O  O7  1  0.09203542  0.71160831  0.95326644  1.0
  O  O8  1  0.85452475  0.08901919  0.15445880  1.0
  O  O9  1  0.85452475  0.41098081  0.65445880  1.0
  O  O10  1  0.14547525  0.58901919  0.34554120  1.0
  O  O11  1  0.14547525  0.91098081  0.84554120  1.0
  O  O12  1  0.65794170  0.89418863  0.46817589  1.0
  O  O13  1  0.65794170  0.60581137  0.96817589  1.0
  O  O14  1  0.34205830  0.39418863  0.03182411  1.0
  O  O15  1  0.34205830  0.10581137  0.53182411  1.0
  O  O16  1  0.37098354  0.20912919  0.13601397  1.0
  O  O17  1  0.37098354  0.29087081  0.63601397  1.0
  O  O18  1  0.62901646  0.70912919  0.36398603  1.0
  O  O19  1  0.62901646  0.79087081  0.86398603  1.0
  O  O20  1  0.83810535  0.45350499  0.16908153  1.0
  O  O21  1  0.83810535  0.04649501  0.66908153  1.0
  O  O22  1  0.16189465  0.95350499  0.33091847  1.0
  O  O23  1  0.16189465  0.54649501  0.83091847  1.0
  H  H24  1  0.80971281  0.73609059  0.39969529  1.0
  H  H25  1  0.80971281  0.76390941  0.89969529  1.0
  H  H26  1  0.19028719  0.23609059  0.10030471  1.0
  H  H27  1  0.19028719  0.26390941  0.60030471  1.0
  H  H28  1  0.36875013  0.16761107  0.26757590  1.0
  H  H29  1  0.36875013  0.33238893  0.76757590  1.0
  H  H30  1  0.63124987  0.66761107  0.23242410  1.0
  H  H31  1  0.63124987  0.83238893  0.73242410  1.0
  Ca  Ca32  1  0.65756140  0.32225313  0.34473874  1.0
  Ca  Ca33  1  0.65756140  0.17774687  0.84473874  1.0
  Ca  Ca34  1  0.34243860  0.82225313  0.15526126  1.0
  Ca  Ca35  1  0.34243860  0.67774687  0.65526126  1.0
  Cu  Cu36  1  0.50000000  0.50000000  0.00000000  1.0
  Cu  Cu37  1  0.50000000  0.00000000  0.50000000  1.0
  Cu  Cu38  1  0.00000000  0.50000000  0.50000000  1.0
  Cu  Cu39  1  0.00000000  0.00000000  0.00000000  1.0
