# generated using pymatgen
data_Rb3NaBe2F8
_symmetry_space_group_name_H-M   'P 1'
_cell_length_a   5.85965650
_cell_length_b   5.85965650
_cell_length_c   7.61836294
_cell_angle_alpha   90.00000000
_cell_angle_beta   90.00000000
_cell_angle_gamma   120.00000000
_symmetry_Int_Tables_number   1
_chemical_formula_structural   Rb3NaBe2F8
_chemical_formula_sum   'Rb3 Na1 Be2 F8'
_cell_volume   226.53567606
_cell_formula_units_Z   1
loop_
 _symmetry_equiv_pos_site_id
 _symmetry_equiv_pos_as_xyz
  1  'x, y, z'
loop_
 _atom_site_type_symbol
 _atom_site_label
 _atom_site_symmetry_multiplicity
 _atom_site_fract_x
 _atom_site_fract_y
 _atom_site_fract_z
 _atom_site_occupancy
  Rb  Rb0  1  0.33333333  0.66666667  0.68137286  1.0
  Rb  Rb1  1  0.66666667  0.33333333  0.31862714  1.0
  Rb  Rb2  1  0.00000000  0.00000000  0.00000000  1.0
  Na  Na3  1  0.00000000  0.00000000  0.50000000  1.0
  Be  Be4  1  0.33333333  0.66666667  0.24177492  1.0
  Be  Be5  1  0.66666667  0.33333333  0.75822508  1.0
  F  F6  1  0.62576017  0.81288009  0.31731809  1.0
  F  F7  1  0.81288009  0.62576017  0.68268191  1.0
  F  F8  1  0.81288009  0.18711991  0.68268191  1.0
  F  F9  1  0.18711991  0.81288009  0.31731809  1.0
  F  F10  1  0.18711991  0.37423983  0.31731809  1.0
  F  F11  1  0.37423983  0.18711991  0.68268191  1.0
  F  F12  1  0.33333333  0.66666667  0.04045871  1.0
  F  F13  1  0.66666667  0.33333333  0.95954129  1.0
