# generated using pymatgen
data_AlCu3
_symmetry_space_group_name_H-M   'P 1'
_cell_length_a   4.23352197
_cell_length_b   5.21228497
_cell_length_c   4.52659787
_cell_angle_alpha   90.00000000
_cell_angle_beta   90.00000000
_cell_angle_gamma   90.00000000
_symmetry_Int_Tables_number   1
_chemical_formula_structural   AlCu3
_chemical_formula_sum   'Al2 Cu6'
_cell_volume   99.88537049
_cell_formula_units_Z   2
loop_
 _symmetry_equiv_pos_site_id
 _symmetry_equiv_pos_as_xyz
  1  'x, y, z'
loop_
 _atom_site_type_symbol
 _atom_site_label
 _atom_site_symmetry_multiplicity
 _atom_site_fract_x
 _atom_site_fract_y
 _atom_site_fract_z
 _atom_site_occupancy
  Al  Al0  1  0.00000000  0.00000000  0.66640076  1.0
  Al  Al1  1  0.50000000  0.50000000  0.33359924  1.0
  Cu  Cu2  1  0.00000000  0.50000000  0.66747185  1.0
  Cu  Cu3  1  0.50000000  0.00000000  0.33252815  1.0
  Cu  Cu4  1  0.00000000  0.25098844  0.16562174  1.0
  Cu  Cu5  1  0.00000000  0.74901156  0.16562174  1.0
  Cu  Cu6  1  0.50000000  0.24901156  0.83437826  1.0
  Cu  Cu7  1  0.50000000  0.75098844  0.83437826  1.0
