# generated using pymatgen
data_SrCa(SnO3)2
_symmetry_space_group_name_H-M   'P 1'
_cell_length_a   8.09468276
_cell_length_b   5.67615992
_cell_length_c   5.78902248
_cell_angle_alpha   90.00000000
_cell_angle_beta   90.00000000
_cell_angle_gamma   90.00000000
_symmetry_Int_Tables_number   1
_chemical_formula_structural   SrCa(SnO3)2
_chemical_formula_sum   'Sr2 Ca2 Sn4 O12'
_cell_volume   265.98655905
_cell_formula_units_Z   2
loop_
 _symmetry_equiv_pos_site_id
 _symmetry_equiv_pos_as_xyz
  1  'x, y, z'
loop_
 _atom_site_type_symbol
 _atom_site_label
 _atom_site_symmetry_multiplicity
 _atom_site_fract_x
 _atom_site_fract_y
 _atom_site_fract_z
 _atom_site_occupancy
  Sr  Sr0  1  0.50000000  0.73804064  0.04109876  1.0
  Sr  Sr1  1  0.50000000  0.26195936  0.54109876  1.0
  Ca  Ca2  1  0.00000000  0.75907538  0.94915784  1.0
  Ca  Ca3  1  0.00000000  0.24092462  0.44915784  1.0
  Sn  Sn4  1  0.75461304  0.74898157  0.49849848  1.0
  Sn  Sn5  1  0.24538696  0.74898157  0.49849848  1.0
  Sn  Sn6  1  0.24538696  0.25101843  0.99849848  1.0
  Sn  Sn7  1  0.75461304  0.25101843  0.99849848  1.0
  O  O8  1  0.80563148  0.04754641  0.70350260  1.0
  O  O9  1  0.19436852  0.04754641  0.70350260  1.0
  O  O10  1  0.19436852  0.95245359  0.20350260  1.0
  O  O11  1  0.80563148  0.95245359  0.20350260  1.0
  O  O12  1  0.70891375  0.45334765  0.29342653  1.0
  O  O13  1  0.29108625  0.45334765  0.29342653  1.0
  O  O14  1  0.29108625  0.54665235  0.79342653  1.0
  O  O15  1  0.70891375  0.54665235  0.79342653  1.0
  O  O16  1  0.00000000  0.64721194  0.54047067  1.0
  O  O17  1  0.00000000  0.35278806  0.04047067  1.0
  O  O18  1  0.50000000  0.83068484  0.47821750  1.0
  O  O19  1  0.50000000  0.16931516  0.97821750  1.0
