# generated using pymatgen
data_KNb(AgSe2)2
_symmetry_space_group_name_H-M   'P 1'
_cell_length_a   10.20966493
_cell_length_b   10.20966493
_cell_length_c   8.44376370
_cell_angle_alpha   90.00000000
_cell_angle_beta   90.00000000
_cell_angle_gamma   34.99119390
_symmetry_Int_Tables_number   1
_chemical_formula_structural   KNb(AgSe2)2
_chemical_formula_sum   'K2 Nb2 Ag4 Se8'
_cell_volume   504.72522252
_cell_formula_units_Z   2
loop_
 _symmetry_equiv_pos_site_id
 _symmetry_equiv_pos_as_xyz
  1  'x, y, z'
loop_
 _atom_site_type_symbol
 _atom_site_label
 _atom_site_symmetry_multiplicity
 _atom_site_fract_x
 _atom_site_fract_y
 _atom_site_fract_z
 _atom_site_occupancy
  K  K0  1  0.58142206  1.04523820  0.25000000  1.0
  K  K1  1  -0.04523820  1.41857794  0.75000000  1.0
  Nb  Nb2  1  0.08169432  1.14638457  0.25000000  1.0
  Nb  Nb3  1  0.85361543  0.91830568  0.75000000  1.0
  Ag  Ag4  1  0.58510284  0.64858586  0.25000000  1.0
  Ag  Ag5  1  0.35141414  1.41489716  0.75000000  1.0
  Ag  Ag6  1  -0.00361144  0.00361144  0.50000000  1.0
  Ag  Ag7  1  -0.00361144  0.00361144  0.00000000  1.0
  Se  Se8  1  0.07181574  1.68737022  0.50881822  1.0
  Se  Se9  1  0.31262978  0.92818426  1.00881822  1.0
  Se  Se10  1  0.31262978  0.92818426  0.49118178  1.0
  Se  Se11  1  0.07181574  1.68737022  -0.00881822  1.0
  Se  Se12  1  -0.25667641  1.27491440  0.25000000  1.0
  Se  Se13  1  0.72508560  1.25667641  0.75000000  1.0
  Se  Se14  1  -0.02826699  1.46482093  0.25000000  1.0
  Se  Se15  1  0.53517907  1.02826699  0.75000000  1.0
