# generated using pymatgen
data_ScF3
_symmetry_space_group_name_H-M   'P 1'
_cell_length_a   7.91162027
_cell_length_b   7.91162027
_cell_length_c   4.07016437
_cell_angle_alpha   90.00000000
_cell_angle_beta   90.00000000
_cell_angle_gamma   120.00000000
_symmetry_Int_Tables_number   1
_chemical_formula_structural   ScF3
_chemical_formula_sum   'Sc3 F9'
_cell_volume   220.63451326
_cell_formula_units_Z   3
loop_
 _symmetry_equiv_pos_site_id
 _symmetry_equiv_pos_as_xyz
  1  'x, y, z'
loop_
 _atom_site_type_symbol
 _atom_site_label
 _atom_site_symmetry_multiplicity
 _atom_site_fract_x
 _atom_site_fract_y
 _atom_site_fract_z
 _atom_site_occupancy
  Sc  Sc0  1  0.50000000  0.00000000  -0.00000000  1.0
  Sc  Sc1  1  0.50000000  0.50000000  0.00000000  1.0
  Sc  Sc2  1  0.00000000  0.50000000  -0.00000000  1.0
  F  F3  1  0.21424948  0.42849895  0.00000000  1.0
  F  F4  1  0.78575052  0.21424948  -0.00000000  1.0
  F  F5  1  0.78575052  0.57150105  0.00000000  1.0
  F  F6  1  0.21424948  0.78575052  0.00000000  1.0
  F  F7  1  0.57150105  0.78575052  -0.00000000  1.0
  F  F8  1  0.42849895  0.21424948  0.00000000  1.0
  F  F9  1  0.50000000  -0.00000000  0.50000000  1.0
  F  F10  1  0.50000000  0.50000000  0.50000000  1.0
  F  F11  1  0.00000000  0.50000000  0.50000000  1.0
