# generated using pymatgen
data_Co2AsHO5
_symmetry_space_group_name_H-M   'P 1'
_cell_length_a   8.19094469
_cell_length_b   8.77439435
_cell_length_c   6.04521814
_cell_angle_alpha   90.00000000
_cell_angle_beta   90.00000000
_cell_angle_gamma   90.00000000
_symmetry_Int_Tables_number   1
_chemical_formula_structural   Co2AsHO5
_chemical_formula_sum   'Co8 As4 H4 O20'
_cell_volume   434.47332660
_cell_formula_units_Z   4
loop_
 _symmetry_equiv_pos_site_id
 _symmetry_equiv_pos_as_xyz
  1  'x, y, z'
loop_
 _atom_site_type_symbol
 _atom_site_label
 _atom_site_symmetry_multiplicity
 _atom_site_fract_x
 _atom_site_fract_y
 _atom_site_fract_z
 _atom_site_occupancy
  Co  Co0  1  0.50000000  0.50000000  0.73460201  1.0
  Co  Co1  1  0.00000000  0.00000000  0.76539799  1.0
  Co  Co2  1  0.50000000  0.50000000  0.26539799  1.0
  Co  Co3  1  0.00000000  0.00000000  0.23460201  1.0
  Co  Co4  1  0.63718840  0.13041478  0.50000000  1.0
  Co  Co5  1  0.36281160  0.86958522  0.50000000  1.0
  Co  Co6  1  0.13718840  0.36958522  0.00000000  1.0
  Co  Co7  1  0.86281160  0.63041478  0.00000000  1.0
  As  As8  1  0.74646982  0.25391786  0.00000000  1.0
  As  As9  1  0.25353018  0.74608214  0.00000000  1.0
  As  As10  1  0.24646982  0.24608214  0.50000000  1.0
  As  As11  1  0.75353018  0.75391786  0.50000000  1.0
  H  H12  1  0.72625464  0.41078095  0.50000000  1.0
  H  H13  1  0.27374536  0.58921905  0.50000000  1.0
  H  H14  1  0.22625464  0.08921905  0.00000000  1.0
  H  H15  1  0.77374536  0.91078095  0.00000000  1.0
  O  O16  1  0.56285236  0.35458402  0.00000000  1.0
  O  O17  1  0.43714764  0.64541598  0.00000000  1.0
  O  O18  1  0.06285236  0.14541598  0.50000000  1.0
  O  O19  1  0.93714764  0.85458402  0.50000000  1.0
  O  O20  1  0.61629501  0.36786680  0.50000000  1.0
  O  O21  1  0.38370499  0.63213320  0.50000000  1.0
  O  O22  1  0.11629501  0.13213320  0.00000000  1.0
  O  O23  1  0.88370499  0.86786680  0.00000000  1.0
  O  O24  1  0.90042904  0.39290256  0.00000000  1.0
  O  O25  1  0.09957096  0.60709744  0.00000000  1.0
  O  O26  1  0.40042904  0.10709744  0.50000000  1.0
  O  O27  1  0.59957096  0.89290256  0.50000000  1.0
  O  O28  1  0.76607848  0.12859518  0.77371007  1.0
  O  O29  1  0.23392152  0.87140482  0.77371007  1.0
  O  O30  1  0.26607848  0.37140482  0.72628993  1.0
  O  O31  1  0.73392152  0.62859518  0.72628993  1.0
  O  O32  1  0.23392152  0.87140482  0.22628993  1.0
  O  O33  1  0.76607848  0.12859518  0.22628993  1.0
  O  O34  1  0.73392152  0.62859518  0.27371007  1.0
  O  O35  1  0.26607848  0.37140482  0.27371007  1.0
