# generated using pymatgen
data_BaPb2BrF5
_symmetry_space_group_name_H-M   'P 1'
_cell_length_a   6.04526409
_cell_length_b   6.04526409
_cell_length_c   9.94622178
_cell_angle_alpha   90.00000000
_cell_angle_beta   90.00000000
_cell_angle_gamma   90.00000000
_symmetry_Int_Tables_number   1
_chemical_formula_structural   BaPb2BrF5
_chemical_formula_sum   'Ba2 Pb4 Br2 F10'
_cell_volume   363.48684290
_cell_formula_units_Z   2
loop_
 _symmetry_equiv_pos_site_id
 _symmetry_equiv_pos_as_xyz
  1  'x, y, z'
loop_
 _atom_site_type_symbol
 _atom_site_label
 _atom_site_symmetry_multiplicity
 _atom_site_fract_x
 _atom_site_fract_y
 _atom_site_fract_z
 _atom_site_occupancy
  Ba  Ba0  1  0.00000000  0.00000000  0.50000000  1.0
  Ba  Ba1  1  0.50000000  0.50000000  0.50000000  1.0
  Pb  Pb2  1  0.50000000  0.00000000  0.18149948  1.0
  Pb  Pb3  1  0.00000000  0.50000000  0.81850052  1.0
  Pb  Pb4  1  0.50000000  0.00000000  0.77258166  1.0
  Pb  Pb5  1  0.00000000  0.50000000  0.22741834  1.0
  Br  Br6  1  0.00000000  0.00000000  0.00000000  1.0
  Br  Br7  1  0.50000000  0.50000000  0.00000000  1.0
  F  F8  1  0.73458275  0.23458275  0.31443708  1.0
  F  F9  1  0.73458275  0.76541725  0.31443708  1.0
  F  F10  1  0.23458275  0.73458275  0.68556292  1.0
  F  F11  1  0.23458275  0.26541725  0.68556292  1.0
  F  F12  1  0.76541725  0.73458275  0.68556292  1.0
  F  F13  1  0.76541725  0.26541725  0.68556292  1.0
  F  F14  1  0.26541725  0.23458275  0.31443708  1.0
  F  F15  1  0.26541725  0.76541725  0.31443708  1.0
  F  F16  1  0.50000000  0.00000000  0.53830833  1.0
  F  F17  1  0.00000000  0.50000000  0.46169167  1.0
