# generated using pymatgen
data_Rb2CoS2
_symmetry_space_group_name_H-M   'P 1'
_cell_length_a   8.09691474
_cell_length_b   8.09691474
_cell_length_c   8.09691474
_cell_angle_alpha   128.60951618
_cell_angle_beta   70.59654577
_cell_angle_gamma   135.08934890
_symmetry_Int_Tables_number   1
_chemical_formula_structural   Rb2CoS2
_chemical_formula_sum   'Rb4 Co2 S4'
_cell_volume   287.00276661
_cell_formula_units_Z   2
loop_
 _symmetry_equiv_pos_site_id
 _symmetry_equiv_pos_as_xyz
  1  'x, y, z'
loop_
 _atom_site_type_symbol
 _atom_site_label
 _atom_site_symmetry_multiplicity
 _atom_site_fract_x
 _atom_site_fract_y
 _atom_site_fract_z
 _atom_site_occupancy
  Rb  Rb0  1  0.14695701  0.33240261  0.47935962  1.0
  Rb  Rb1  1  0.35304299  0.83240261  1.18544559  1.0
  Rb  Rb2  1  0.64695701  1.16759739  0.81455441  1.0
  Rb  Rb3  1  0.85304299  0.66759739  0.52064038  1.0
  Co  Co4  1  0.25000000  0.25000000  -0.00000000  1.0
  Co  Co5  1  0.75000000  0.75000000  -0.00000000  1.0
  S  S6  1  0.40545378  0.32937191  0.73482569  1.0
  S  S7  1  0.09454622  0.82937191  0.92391813  1.0
  S  S8  1  0.90545378  1.17062809  1.07608187  1.0
  S  S9  1  0.59454622  0.67062809  0.26517431  1.0
