# generated using pymatgen
data_K3TlCl6
_symmetry_space_group_name_H-M   'P 1'
_cell_length_a   12.98899658
_cell_length_b   7.80809539
_cell_length_c   12.79933108
_cell_angle_alpha   90.00000000
_cell_angle_beta   109.32391002
_cell_angle_gamma   90.00000000
_symmetry_Int_Tables_number   1
_chemical_formula_structural   K3TlCl6
_chemical_formula_sum   'K12 Tl4 Cl24'
_cell_volume   1224.96840399
_cell_formula_units_Z   4
loop_
 _symmetry_equiv_pos_site_id
 _symmetry_equiv_pos_as_xyz
  1  'x, y, z'
loop_
 _atom_site_type_symbol
 _atom_site_label
 _atom_site_symmetry_multiplicity
 _atom_site_fract_x
 _atom_site_fract_y
 _atom_site_fract_z
 _atom_site_occupancy
  K  K0  1  0.90316714  0.95910724  0.64124866  1.0
  K  K1  1  0.90316714  0.54089276  0.14124866  1.0
  K  K2  1  0.09683286  0.45910724  0.85875134  1.0
  K  K3  1  0.09683286  0.04089276  0.35875134  1.0
  K  K4  1  0.67850908  0.43086110  0.73303388  1.0
  K  K5  1  0.67850908  0.06913890  0.23303388  1.0
  K  K6  1  0.32149092  0.93086110  0.76696612  1.0
  K  K7  1  0.32149092  0.56913890  0.26696612  1.0
  K  K8  1  0.67914352  0.92501992  0.88546730  1.0
  K  K9  1  0.67914352  0.57498008  0.38546730  1.0
  K  K10  1  0.32085648  0.42501992  0.61453270  1.0
  K  K11  1  0.32085648  0.07498008  0.11453270  1.0
  Tl  Tl12  1  0.50000000  0.00000000  0.50000000  1.0
  Tl  Tl13  1  0.50000000  0.50000000  -0.00000000  1.0
  Tl  Tl14  1  0.00000000  0.00000000  0.00000000  1.0
  Tl  Tl15  1  -0.00000000  0.50000000  0.50000000  1.0
  Cl  Cl16  1  0.90070776  0.70706413  0.91044873  1.0
  Cl  Cl17  1  0.90070776  0.79293587  0.41044873  1.0
  Cl  Cl18  1  0.09929224  0.20706413  0.58955127  1.0
  Cl  Cl19  1  0.09929224  0.29293587  0.08955127  1.0
  Cl  Cl20  1  0.87809519  0.48975249  0.62549314  1.0
  Cl  Cl21  1  0.87809519  0.01024751  0.12549314  1.0
  Cl  Cl22  1  0.12190481  0.98975249  0.87450686  1.0
  Cl  Cl23  1  0.12190481  0.51024751  0.37450686  1.0
  Cl  Cl24  1  0.85921921  0.16828504  0.83798250  1.0
  Cl  Cl25  1  0.85921921  0.33171496  0.33798250  1.0
  Cl  Cl26  1  0.14078079  0.66828504  0.66201750  1.0
  Cl  Cl27  1  0.14078079  0.83171496  0.16201750  1.0
  Cl  Cl28  1  0.65436468  0.28531878  1.00152526  1.0
  Cl  Cl29  1  0.65436468  0.21468122  0.50152526  1.0
  Cl  Cl30  1  0.34563532  0.78531878  0.49847474  1.0
  Cl  Cl31  1  0.34563532  0.71468122  -0.00152526  1.0
  Cl  Cl32  1  0.65530516  0.78038175  0.60192556  1.0
  Cl  Cl33  1  0.65530516  0.71961825  0.10192556  1.0
  Cl  Cl34  1  0.34469484  0.28038175  0.89807444  1.0
  Cl  Cl35  1  0.34469484  0.21961825  0.39807444  1.0
  Cl  Cl36  1  0.50060176  0.63064675  0.80635337  1.0
  Cl  Cl37  1  0.50060176  0.86935325  0.30635337  1.0
  Cl  Cl38  1  0.49939824  0.13064675  0.69364663  1.0
  Cl  Cl39  1  0.49939824  0.36935325  0.19364663  1.0
