# generated using pymatgen
data_CoAg3(CN)6
_symmetry_space_group_name_H-M   'P 1'
_cell_length_a   7.55182913
_cell_length_b   7.55182913
_cell_length_c   6.70953831
_cell_angle_alpha   90.00000000
_cell_angle_beta   90.00000000
_cell_angle_gamma   120.00000000
_symmetry_Int_Tables_number   1
_chemical_formula_structural   CoAg3(CN)6
_chemical_formula_sum   'Co1 Ag3 C6 N6'
_cell_volume   331.38098054
_cell_formula_units_Z   1
loop_
 _symmetry_equiv_pos_site_id
 _symmetry_equiv_pos_as_xyz
  1  'x, y, z'
loop_
 _atom_site_type_symbol
 _atom_site_label
 _atom_site_symmetry_multiplicity
 _atom_site_fract_x
 _atom_site_fract_y
 _atom_site_fract_z
 _atom_site_occupancy
  Co  Co0  1  0.00000000  0.00000000  -0.00000000  1.0
  Ag  Ag1  1  0.50000000  0.50000000  0.50000000  1.0
  Ag  Ag2  1  0.50000000  -0.00000000  0.50000000  1.0
  Ag  Ag3  1  0.00000000  0.50000000  0.50000000  1.0
  C  C4  1  0.80038675  0.80038675  0.16518414  1.0
  C  C5  1  0.80038675  0.00000000  0.83481586  1.0
  C  C6  1  0.00000000  0.80038675  0.83481586  1.0
  C  C7  1  -0.00000000  0.19961325  0.16518414  1.0
  C  C8  1  0.19961325  0.19961325  0.83481586  1.0
  C  C9  1  0.19961325  -0.00000000  0.16518414  1.0
  N  N10  1  0.68098841  0.68098841  0.27545168  1.0
  N  N11  1  0.68098841  0.00000000  0.72454832  1.0
  N  N12  1  -0.00000000  0.68098841  0.72454832  1.0
  N  N13  1  0.00000000  0.31901159  0.27545168  1.0
  N  N14  1  0.31901159  0.31901159  0.72454832  1.0
  N  N15  1  0.31901159  0.00000000  0.27545168  1.0
