# generated using pymatgen
data_KP
_symmetry_space_group_name_H-M   'P 1'
_cell_length_a   6.09492245
_cell_length_b   6.61420080
_cell_length_c   11.42632052
_cell_angle_alpha   90.00000000
_cell_angle_beta   90.00000000
_cell_angle_gamma   90.00000000
_symmetry_Int_Tables_number   1
_chemical_formula_structural   KP
_chemical_formula_sum   'K8 P8'
_cell_volume   460.62972657
_cell_formula_units_Z   8
loop_
 _symmetry_equiv_pos_site_id
 _symmetry_equiv_pos_as_xyz
  1  'x, y, z'
loop_
 _atom_site_type_symbol
 _atom_site_label
 _atom_site_symmetry_multiplicity
 _atom_site_fract_x
 _atom_site_fract_y
 _atom_site_fract_z
 _atom_site_occupancy
  K  K0  1  0.39744527  0.88384626  0.91697447  1.0
  K  K1  1  0.89744527  0.61615374  0.08302553  1.0
  K  K2  1  0.60255473  0.38384626  0.58302553  1.0
  K  K3  1  0.10255473  0.11615374  0.41697447  1.0
  K  K4  1  0.83496279  0.85663136  0.71553614  1.0
  K  K5  1  0.33496279  0.64336864  0.28446386  1.0
  K  K6  1  0.16503721  0.35663136  0.78446386  1.0
  K  K7  1  0.66503721  0.14336864  0.21553614  1.0
  P  P8  1  0.33384434  0.81072558  0.60124272  1.0
  P  P9  1  0.83384434  0.68927442  0.39875728  1.0
  P  P10  1  0.66615566  0.31072558  0.89875728  1.0
  P  P11  1  0.16615566  0.18927442  0.10124272  1.0
  P  P12  1  0.09271983  0.58121577  0.52955764  1.0
  P  P13  1  0.59271983  0.91878423  0.47044236  1.0
  P  P14  1  0.90728017  0.08121577  0.97044236  1.0
  P  P15  1  0.40728017  0.41878423  0.02955764  1.0
