# generated using pymatgen
data_Nb2O3
_symmetry_space_group_name_H-M   'P 1'
_cell_length_a   6.02687889
_cell_length_b   6.02687889
_cell_length_c   7.52302481
_cell_angle_alpha   68.37408959
_cell_angle_beta   111.62591041
_cell_angle_gamma   152.53461118
_symmetry_Int_Tables_number   1
_chemical_formula_structural   Nb2O3
_chemical_formula_sum   'Nb4 O6'
_cell_volume   116.60885969
_cell_formula_units_Z   2
loop_
 _symmetry_equiv_pos_site_id
 _symmetry_equiv_pos_as_xyz
  1  'x, y, z'
loop_
 _atom_site_type_symbol
 _atom_site_label
 _atom_site_symmetry_multiplicity
 _atom_site_fract_x
 _atom_site_fract_y
 _atom_site_fract_z
 _atom_site_occupancy
  Nb  Nb0  1  0.83695211  0.16304789  0.15441090  1.0
  Nb  Nb1  1  0.16304789  -0.16304789  0.84558910  1.0
  Nb  Nb2  1  0.66024567  0.33975433  0.35848699  1.0
  Nb  Nb3  1  0.33975433  -0.33975433  0.64151301  1.0
  O  O4  1  0.86220161  0.13779839  0.44694188  1.0
  O  O5  1  0.13779839  -0.13779839  0.55305812  1.0
  O  O6  1  0.80989979  0.19010021  0.84617410  1.0
  O  O7  1  0.19010021  -0.19010021  0.15382590  1.0
  O  O8  1  0.52664326  0.47335674  0.79440898  1.0
  O  O9  1  0.47335674  -0.47335674  0.20559102  1.0
