# generated using pymatgen
data_AlPO4
_symmetry_space_group_name_H-M   'P 1'
_cell_length_a   5.18791128
_cell_length_b   5.18791128
_cell_length_c   5.18791128
_cell_angle_alpha   121.18005242
_cell_angle_beta   121.18005242
_cell_angle_gamma   87.96795941
_symmetry_Int_Tables_number   1
_chemical_formula_structural   AlPO4
_chemical_formula_sum   'Al1 P1 O4'
_cell_volume   96.90583395
_cell_formula_units_Z   1
loop_
 _symmetry_equiv_pos_site_id
 _symmetry_equiv_pos_as_xyz
  1  'x, y, z'
loop_
 _atom_site_type_symbol
 _atom_site_label
 _atom_site_symmetry_multiplicity
 _atom_site_fract_x
 _atom_site_fract_y
 _atom_site_fract_z
 _atom_site_occupancy
  Al  Al0  1  0.00000000  0.00000000  0.00000000  1.0
  P  P1  1  0.75000000  0.25000000  0.50000000  1.0
  O  O2  1  0.96122377  1.59864691  0.82448276  1.0
  O  O3  1  0.77416415  1.13674102  1.17551724  1.0
  O  O4  1  0.86325898  1.03877623  1.63742313  1.0
  O  O5  1  1.40135309  1.22583585  1.36257687  1.0
