# generated using pymatgen
data_RbSnIO6
_symmetry_space_group_name_H-M   'P 1'
_cell_length_a   5.43367472
_cell_length_b   5.43367472
_cell_length_c   12.83533956
_cell_angle_alpha   90.00000000
_cell_angle_beta   90.00000000
_cell_angle_gamma   120.00000000
_symmetry_Int_Tables_number   1
_chemical_formula_structural   RbSnIO6
_chemical_formula_sum   'Rb2 Sn2 I2 O12'
_cell_volume   328.18994227
_cell_formula_units_Z   2
loop_
 _symmetry_equiv_pos_site_id
 _symmetry_equiv_pos_as_xyz
  1  'x, y, z'
loop_
 _atom_site_type_symbol
 _atom_site_label
 _atom_site_symmetry_multiplicity
 _atom_site_fract_x
 _atom_site_fract_y
 _atom_site_fract_z
 _atom_site_occupancy
  Rb  Rb0  1  0.00000000  0.00000000  0.00000000  1.0
  Rb  Rb1  1  -0.00000000  -0.00000000  0.50000000  1.0
  Sn  Sn2  1  0.33333333  0.66666667  0.75000000  1.0
  Sn  Sn3  1  0.66666667  0.33333333  0.25000000  1.0
  I  I4  1  0.33333333  0.66666667  0.25000000  1.0
  I  I5  1  0.66666667  0.33333333  0.75000000  1.0
  O  O6  1  0.37336158  0.98050781  0.16138269  1.0
  O  O7  1  0.37336158  0.39285377  0.33861731  1.0
  O  O8  1  0.98050781  0.37336158  0.83861731  1.0
  O  O9  1  0.98050781  0.60714623  0.66138269  1.0
  O  O10  1  0.60714623  0.98050781  0.33861731  1.0
  O  O11  1  0.60714623  0.62663842  0.16138269  1.0
  O  O12  1  0.01949219  0.62663842  0.33861731  1.0
  O  O13  1  0.01949219  0.39285377  0.16138269  1.0
  O  O14  1  0.62663842  0.60714623  0.83861731  1.0
  O  O15  1  0.62663842  0.01949219  0.66138269  1.0
  O  O16  1  0.39285377  0.37336158  0.66138269  1.0
  O  O17  1  0.39285377  0.01949219  0.83861731  1.0
