# generated using pymatgen
data_Ta3RhS6
_symmetry_space_group_name_H-M   'P 1'
_cell_length_a   5.76593552
_cell_length_b   5.76593552
_cell_length_c   12.12607672
_cell_angle_alpha   90.00000000
_cell_angle_beta   90.00000000
_cell_angle_gamma   120.00000000
_symmetry_Int_Tables_number   1
_chemical_formula_structural   Ta3RhS6
_chemical_formula_sum   'Ta6 Rh2 S12'
_cell_volume   349.13268335
_cell_formula_units_Z   2
loop_
 _symmetry_equiv_pos_site_id
 _symmetry_equiv_pos_as_xyz
  1  'x, y, z'
loop_
 _atom_site_type_symbol
 _atom_site_label
 _atom_site_symmetry_multiplicity
 _atom_site_fract_x
 _atom_site_fract_y
 _atom_site_fract_z
 _atom_site_occupancy
  Ta  Ta0  1  0.00000000  0.00000000  0.00000000  1.0
  Ta  Ta1  1  0.00000000  0.00000000  0.50000000  1.0
  Ta  Ta2  1  0.33333333  0.66666667  0.50295157  1.0
  Ta  Ta3  1  0.33333333  0.66666667  0.99704843  1.0
  Ta  Ta4  1  0.66666667  0.33333333  0.49704843  1.0
  Ta  Ta5  1  0.66666667  0.33333333  0.00295157  1.0
  Rh  Rh6  1  0.33333333  0.66666667  0.25000000  1.0
  Rh  Rh7  1  0.66666667  0.33333333  0.75000000  1.0
  S  S8  1  0.67035636  0.66743848  0.12993126  1.0
  S  S9  1  0.67035636  0.00291788  0.37006874  1.0
  S  S10  1  0.66743848  0.67035636  0.87006874  1.0
  S  S11  1  0.66743848  0.99708212  0.62993126  1.0
  S  S12  1  0.99708212  0.66743848  0.37006874  1.0
  S  S13  1  0.99708212  0.32964364  0.12993126  1.0
  S  S14  1  0.33256152  0.32964364  0.37006874  1.0
  S  S15  1  0.33256152  0.00291788  0.12993126  1.0
  S  S16  1  0.32964364  0.99708212  0.87006874  1.0
  S  S17  1  0.32964364  0.33256152  0.62993126  1.0
  S  S18  1  0.00291788  0.67035636  0.62993126  1.0
  S  S19  1  0.00291788  0.33256152  0.87006874  1.0
