# generated using pymatgen
data_CoH20PtC4(NO3)4
_symmetry_space_group_name_H-M   'P 1'
_cell_length_a   9.15419038
_cell_length_b   9.15419038
_cell_length_c   9.15419038
_cell_angle_alpha   133.65557209
_cell_angle_beta   133.04297717
_cell_angle_gamma   68.10737460
_symmetry_Int_Tables_number   1
_chemical_formula_structural   CoH20PtC4(NO3)4
_chemical_formula_sum   'Co1 H20 Pt1 C4 N4 O12'
_cell_volume   398.55164684
_cell_formula_units_Z   1
loop_
 _symmetry_equiv_pos_site_id
 _symmetry_equiv_pos_as_xyz
  1  'x, y, z'
loop_
 _atom_site_type_symbol
 _atom_site_label
 _atom_site_symmetry_multiplicity
 _atom_site_fract_x
 _atom_site_fract_y
 _atom_site_fract_z
 _atom_site_occupancy
  Co  Co0  1  1.00000000  1.00000000  1.00000000  1.0
  H  H1  1  1.40930934  1.05615291  1.35735624  1.0
  H  H2  1  1.59069065  0.94804689  0.64684357  1.0
  H  H3  1  1.30120333  1.94384709  1.35315643  1.0
  H  H4  1  0.69879667  1.05195311  0.64264376  1.0
  H  H5  1  1.49020499  1.36922743  1.17145434  1.0
  H  H6  1  1.50979501  0.68124935  0.87902244  1.0
  H  H7  1  0.80222691  1.63077257  1.12097756  1.0
  H  H8  1  1.19777309  1.31875065  0.82854566  1.0
  H  H9  1  1.70897866  1.52642331  1.40664502  1.0
  H  H10  1  1.29102134  0.69766636  0.81744465  1.0
  H  H11  1  0.88022172  1.47357669  1.18255535  1.0
  H  H12  1  1.11977828  1.30233364  0.59335498  1.0
  H  H13  1  1.69236190  1.29514715  1.61635251  1.0
  H  H14  1  1.30763810  0.92399061  0.60278525  1.0
  H  H15  1  1.32120536  1.70485285  1.39721475  1.0
  H  H16  1  0.67879464  1.07600939  0.38364749  1.0
  H  H17  1  1.31646834  1.48173094  1.60410107  1.0
  H  H18  1  1.68353166  1.28763274  1.16526261  1.0
  H  H19  1  1.12237013  1.51826906  0.83473739  1.0
  H  H20  1  0.87762987  0.71236726  0.39589893  1.0
  Pt  Pt21  1  0.50000000  0.50000000  -0.00000000  1.0
  C  C22  1  1.19018439  1.29096464  1.11606006  1.0
  C  C23  1  1.80981561  0.92587567  1.10078024  1.0
  C  C24  1  0.82509542  1.70903536  0.89921976  1.0
  C  C25  1  1.17490458  1.07412433  0.88393994  1.0
  N  N26  1  1.39107084  1.59898503  1.80095172  1.0
  N  N27  1  1.60892916  1.40988088  1.20791419  1.0
  N  N28  1  1.20196669  1.40101497  0.79208581  1.0
  N  N29  1  0.79803331  0.59011912  0.19904828  1.0
  O  O30  1  1.27771525  1.44275333  1.20866001  1.0
  O  O31  1  1.72228475  0.93094475  1.16503807  1.0
  O  O32  1  0.76590668  1.55724667  0.83496193  1.0
  O  O33  1  1.23409332  1.06905525  0.79133999  1.0
  O  O34  1  1.89810582  1.70511668  1.81742621  1.0
  O  O35  1  1.10189418  0.91932038  0.80701085  1.0
  O  O36  1  1.11230953  1.29488332  1.19298915  1.0
  O  O37  1  0.88769047  1.08067962  0.18257379  1.0
  O  O38  1  0.64584360  1.14584360  0.50000000  1.0
  O  O39  1  1.35415640  0.85415640  0.50000000  1.0
  O  O40  1  1.27841162  1.00000000  1.27841162  1.0
  O  O41  1  0.72158838  1.00000000  0.72158838  1.0
