# generated using pymatgen
data_Er2Hf2O7
_symmetry_space_group_name_H-M   'P 1'
_cell_length_a   7.42650408
_cell_length_b   7.42650408
_cell_length_c   7.42650408
_cell_angle_alpha   60.00000000
_cell_angle_beta   60.00000000
_cell_angle_gamma   60.00000000
_symmetry_Int_Tables_number   1
_chemical_formula_structural   Er2Hf2O7
_chemical_formula_sum   'Er4 Hf4 O14'
_cell_volume   289.62648561
_cell_formula_units_Z   2
loop_
 _symmetry_equiv_pos_site_id
 _symmetry_equiv_pos_as_xyz
  1  'x, y, z'
loop_
 _atom_site_type_symbol
 _atom_site_label
 _atom_site_symmetry_multiplicity
 _atom_site_fract_x
 _atom_site_fract_y
 _atom_site_fract_z
 _atom_site_occupancy
  Er  Er0  1  0.62500000  1.12500000  0.12500000  1.0
  Er  Er1  1  0.12500000  1.62500000  0.12500000  1.0
  Er  Er2  1  0.12500000  0.12500000  1.62500000  1.0
  Er  Er3  1  0.12500000  0.12500000  0.12500000  1.0
  Hf  Hf4  1  1.12500000  0.62500000  0.62500000  1.0
  Hf  Hf5  1  0.62500000  1.12500000  -0.37500000  1.0
  Hf  Hf6  1  -0.37500000  0.62500000  1.12500000  1.0
  Hf  Hf7  1  -0.37500000  0.62500000  0.62500000  1.0
  O  O8  1  0.71327520  0.71327520  -0.71327520  1.0
  O  O9  1  0.28672480  1.28672480  -0.28672480  1.0
  O  O10  1  0.71327520  -0.71327520  0.71327520  1.0
  O  O11  1  0.28672480  -0.28672480  0.28672480  1.0
  O  O12  1  -0.71327520  0.71327520  0.71327520  1.0
  O  O13  1  -0.28672480  0.28672480  0.28672480  1.0
  O  O14  1  -0.46327520  0.53672480  0.96327520  1.0
  O  O15  1  0.96327520  0.96327520  -0.46327520  1.0
  O  O16  1  0.53672480  0.96327520  0.53672480  1.0
  O  O17  1  0.96327520  0.53672480  0.96327520  1.0
  O  O18  1  0.96327520  0.53672480  -0.46327520  1.0
  O  O19  1  0.53672480  0.96327520  -0.03672480  1.0
  O  O20  1  0.25000000  1.25000000  0.25000000  1.0
  O  O21  1  0.00000000  0.00000000  0.00000000  1.0
