# generated using pymatgen
data_Hg3SeO6
_symmetry_space_group_name_H-M   'P 1'
_cell_length_a   7.21499390
_cell_length_b   7.21499390
_cell_length_c   11.17083363
_cell_angle_alpha   90.00000000
_cell_angle_beta   90.00000000
_cell_angle_gamma   120.00000000
_symmetry_Int_Tables_number   1
_chemical_formula_structural   Hg3SeO6
_chemical_formula_sum   'Hg9 Se3 O18'
_cell_volume   503.60281790
_cell_formula_units_Z   3
loop_
 _symmetry_equiv_pos_site_id
 _symmetry_equiv_pos_as_xyz
  1  'x, y, z'
loop_
 _atom_site_type_symbol
 _atom_site_label
 _atom_site_symmetry_multiplicity
 _atom_site_fract_x
 _atom_site_fract_y
 _atom_site_fract_z
 _atom_site_occupancy
  Hg  Hg0  1  0.28843722  0.78757432  0.99657261  1.0
  Hg  Hg1  1  0.78757432  0.28843722  0.00342739  1.0
  Hg  Hg2  1  0.49913710  0.71156278  0.66323928  1.0
  Hg  Hg3  1  0.21242568  0.50086290  0.32990594  1.0
  Hg  Hg4  1  0.71156278  0.49913710  0.33676072  1.0
  Hg  Hg5  1  0.50086290  0.21242568  0.67009406  1.0
  Hg  Hg6  1  0.27897941  0.27897941  0.00000000  1.0
  Hg  Hg7  1  0.00000000  0.72102059  0.66666667  1.0
  Hg  Hg8  1  0.72102059  0.00000000  0.33333333  1.0
  Se  Se9  1  0.75807495  0.75807495  0.00000000  1.0
  Se  Se10  1  0.00000000  0.24192505  0.66666667  1.0
  Se  Se11  1  0.24192505  0.00000000  0.33333333  1.0
  O  O12  1  0.33019509  0.87730269  0.70126566  1.0
  O  O13  1  0.87730269  0.33019509  0.29873434  1.0
  O  O14  1  0.54710760  0.66980491  0.36793233  1.0
  O  O15  1  0.12269731  0.45289240  0.03459899  1.0
  O  O16  1  0.66980491  0.54710760  0.63206767  1.0
  O  O17  1  0.45289240  0.12269731  -0.03459899  1.0
  O  O18  1  0.97106748  0.80384593  0.91894461  1.0
  O  O19  1  0.80384593  0.97106748  0.08105539  1.0
  O  O20  1  0.83277845  0.02893252  0.58561128  1.0
  O  O21  1  0.19615407  0.16722155  0.25227795  1.0
  O  O22  1  0.02893252  0.83277845  0.41438872  1.0
  O  O23  1  0.16722155  0.19615407  0.74772205  1.0
  O  O24  1  0.69000920  0.55302558  0.09526814  1.0
  O  O25  1  0.55302558  0.69000920  0.90473186  1.0
  O  O26  1  0.86301638  0.30999080  0.76193480  1.0
  O  O27  1  0.44697442  0.13698362  0.42860147  1.0
  O  O28  1  0.30999080  0.86301638  0.23806520  1.0
  O  O29  1  0.13698362  0.44697442  0.57139853  1.0
