# generated using pymatgen
data_LiP
_symmetry_space_group_name_H-M   'P 1'
_cell_length_a   5.59155810
_cell_length_b   4.96198636
_cell_length_c   10.24815429
_cell_angle_alpha   90.00000000
_cell_angle_beta   118.15172657
_cell_angle_gamma   90.00000000
_symmetry_Int_Tables_number   1
_chemical_formula_structural   LiP
_chemical_formula_sum   'Li8 P8'
_cell_volume   250.70069226
_cell_formula_units_Z   8
loop_
 _symmetry_equiv_pos_site_id
 _symmetry_equiv_pos_as_xyz
  1  'x, y, z'
loop_
 _atom_site_type_symbol
 _atom_site_label
 _atom_site_symmetry_multiplicity
 _atom_site_fract_x
 _atom_site_fract_y
 _atom_site_fract_z
 _atom_site_occupancy
  Li  Li0  1  0.71726709  0.38899326  0.32908204  1.0
  Li  Li1  1  0.71726709  0.11100674  0.82908204  1.0
  Li  Li2  1  0.28273291  0.88899326  0.17091796  1.0
  Li  Li3  1  0.28273291  0.61100674  0.67091796  1.0
  Li  Li4  1  0.27371254  0.15893088  0.46875313  1.0
  Li  Li5  1  0.27371254  0.34106912  0.96875313  1.0
  Li  Li6  1  0.72628746  0.65893088  0.03124687  1.0
  Li  Li7  1  0.72628746  0.84106912  0.53124687  1.0
  P  P8  1  0.81602813  0.89641020  0.29329671  1.0
  P  P9  1  0.81602813  0.60358980  0.79329671  1.0
  P  P10  1  0.18397187  0.39641020  0.20670329  1.0
  P  P11  1  0.18397187  0.10358980  0.70670329  1.0
  P  P12  1  0.80261925  0.15651068  0.11118796  1.0
  P  P13  1  0.80261925  0.34348932  0.61118796  1.0
  P  P14  1  0.19738075  0.65651068  0.38881204  1.0
  P  P15  1  0.19738075  0.84348932  0.88881204  1.0
