# generated using pymatgen
data_CsCd13
_symmetry_space_group_name_H-M   'P 1'
_cell_length_a   10.00141104
_cell_length_b   10.00141104
_cell_length_c   10.00141104
_cell_angle_alpha   60.00000000
_cell_angle_beta   60.00000000
_cell_angle_gamma   60.00000000
_symmetry_Int_Tables_number   1
_chemical_formula_structural   CsCd13
_chemical_formula_sum   'Cs2 Cd26'
_cell_volume   707.40614958
_cell_formula_units_Z   2
loop_
 _symmetry_equiv_pos_site_id
 _symmetry_equiv_pos_as_xyz
  1  'x, y, z'
loop_
 _atom_site_type_symbol
 _atom_site_label
 _atom_site_symmetry_multiplicity
 _atom_site_fract_x
 _atom_site_fract_y
 _atom_site_fract_z
 _atom_site_occupancy
  Cs  Cs0  1  0.25000000  0.25000000  0.25000000  1.0
  Cs  Cs1  1  0.75000000  -0.25000000  0.75000000  1.0
  Cd  Cd2  1  1.19908974  -0.55895552  0.55895552  1.0
  Cd  Cd3  1  0.55895552  -0.19908974  1.19908974  1.0
  Cd  Cd4  1  0.69908974  0.05895552  0.94104448  1.0
  Cd  Cd5  1  0.94104448  -0.69908974  0.69908974  1.0
  Cd  Cd6  1  0.44104448  0.19908974  -0.19908974  1.0
  Cd  Cd7  1  -0.19908974  0.55895552  0.44104448  1.0
  Cd  Cd8  1  0.05895552  0.69908974  0.30091026  1.0
  Cd  Cd9  1  0.30091026  -0.05895552  0.05895552  1.0
  Cd  Cd10  1  -0.05895552  0.69908974  0.05895552  1.0
  Cd  Cd11  1  -0.69908974  1.05895552  0.69908974  1.0
  Cd  Cd12  1  0.44104448  0.55895552  0.19908974  1.0
  Cd  Cd13  1  0.80091026  0.19908974  0.55895552  1.0
  Cd  Cd14  1  -0.44104448  1.19908974  0.44104448  1.0
  Cd  Cd15  1  -0.19908974  0.44104448  0.19908974  1.0
  Cd  Cd16  1  1.05895552  -0.05895552  0.69908974  1.0
  Cd  Cd17  1  0.30091026  0.69908974  -0.05895552  1.0
  Cd  Cd18  1  -0.30091026  0.94104448  0.30091026  1.0
  Cd  Cd19  1  0.05895552  0.30091026  -0.05895552  1.0
  Cd  Cd20  1  0.19908974  0.80091026  0.44104448  1.0
  Cd  Cd21  1  0.55895552  0.44104448  0.80091026  1.0
  Cd  Cd22  1  0.19908974  0.55895552  -0.19908974  1.0
  Cd  Cd23  1  -0.55895552  0.80091026  0.55895552  1.0
  Cd  Cd24  1  0.69908974  0.30091026  1.05895552  1.0
  Cd  Cd25  1  -0.05895552  1.05895552  0.30091026  1.0
  Cd  Cd26  1  0.50000000  0.50000000  -0.50000000  1.0
  Cd  Cd27  1  0.00000000  1.00000000  -0.00000000  1.0
