# generated using pymatgen
data_LiTaGeO5
_symmetry_space_group_name_H-M   'P 1'
_cell_length_a   7.28859328
_cell_length_b   8.56517070
_cell_length_c   7.52625793
_cell_angle_alpha   90.00000000
_cell_angle_beta   115.84900257
_cell_angle_gamma   90.00000000
_symmetry_Int_Tables_number   1
_chemical_formula_structural   LiTaGeO5
_chemical_formula_sum   'Li4 Ta4 Ge4 O20'
_cell_volume   422.83934184
_cell_formula_units_Z   4
loop_
 _symmetry_equiv_pos_site_id
 _symmetry_equiv_pos_as_xyz
  1  'x, y, z'
loop_
 _atom_site_type_symbol
 _atom_site_label
 _atom_site_symmetry_multiplicity
 _atom_site_fract_x
 _atom_site_fract_y
 _atom_site_fract_z
 _atom_site_occupancy
  Li  Li0  1  0.64879575  0.45619777  0.67069901  1.0
  Li  Li1  1  0.64879575  0.04380223  0.17069901  1.0
  Li  Li2  1  0.35120425  0.95619777  0.82930099  1.0
  Li  Li3  1  0.35120425  0.54380223  0.32930099  1.0
  Ta  Ta4  1  0.74656407  0.74559238  0.99361163  1.0
  Ta  Ta5  1  0.74656407  0.75440762  0.49361163  1.0
  Ta  Ta6  1  0.25343593  0.24559238  0.50638837  1.0
  Ta  Ta7  1  0.25343593  0.25440762  0.00638837  1.0
  Ge  Ge8  1  0.25591485  0.59189281  0.73992779  1.0
  Ge  Ge9  1  0.25591485  0.90810719  0.23992779  1.0
  Ge  Ge10  1  0.74408515  0.09189281  0.76007221  1.0
  Ge  Ge11  1  0.74408515  0.40810719  0.26007221  1.0
  O  O12  1  0.96913476  0.19493219  0.90474613  1.0
  O  O13  1  0.96913476  0.30506781  0.40474613  1.0
  O  O14  1  0.03086524  0.69493219  0.59525387  1.0
  O  O15  1  0.03086524  0.80506781  0.09525387  1.0
  O  O16  1  0.77942915  0.96738757  0.58915812  1.0
  O  O17  1  0.77942915  0.53261243  0.08915812  1.0
  O  O18  1  0.22057085  0.46738757  0.91084188  1.0
  O  O19  1  0.22057085  0.03261243  0.41084188  1.0
  O  O20  1  0.73538245  0.67960988  0.74405823  1.0
  O  O21  1  0.73538245  0.82039012  0.24405823  1.0
  O  O22  1  0.26461755  0.17960988  0.75594177  1.0
  O  O23  1  0.26461755  0.32039012  0.25594177  1.0
  O  O24  1  0.66372893  0.97815441  0.91027344  1.0
  O  O25  1  0.66372893  0.52184559  0.41027344  1.0
  O  O26  1  0.33627107  0.47815441  0.58972656  1.0
  O  O27  1  0.33627107  0.02184559  0.08972656  1.0
  O  O28  1  0.43400303  0.73597207  0.87219000  1.0
  O  O29  1  0.43400303  0.76402793  0.37219000  1.0
  O  O30  1  0.56599697  0.23597207  0.62781000  1.0
  O  O31  1  0.56599697  0.26402793  0.12781000  1.0
