# generated using pymatgen
data_C3Cl2O
_symmetry_space_group_name_H-M   'P 1'
_cell_length_a   9.01021665
_cell_length_b   6.17176906
_cell_length_c   9.42052388
_cell_angle_alpha   90.00000000
_cell_angle_beta   107.37988023
_cell_angle_gamma   90.00000000
_symmetry_Int_Tables_number   1
_chemical_formula_structural   C3Cl2O
_chemical_formula_sum   'C12 Cl8 O4'
_cell_volume   499.94874790
_cell_formula_units_Z   4
loop_
 _symmetry_equiv_pos_site_id
 _symmetry_equiv_pos_as_xyz
  1  'x, y, z'
loop_
 _atom_site_type_symbol
 _atom_site_label
 _atom_site_symmetry_multiplicity
 _atom_site_fract_x
 _atom_site_fract_y
 _atom_site_fract_z
 _atom_site_occupancy
  C  C0  1  0.99663787  0.30692427  0.41008670  1.0
  C  C1  1  0.99663787  0.19307573  0.91008670  1.0
  C  C2  1  0.00336213  0.80692427  0.08991330  1.0
  C  C3  1  0.00336213  0.69307573  0.58991330  1.0
  C  C4  1  0.85342166  0.90962000  0.00361751  1.0
  C  C5  1  0.85342166  0.59038000  0.50361751  1.0
  C  C6  1  0.14657834  0.40962000  0.49638249  1.0
  C  C7  1  0.14657834  0.09038000  0.99638249  1.0
  C  C8  1  0.85025949  0.41162193  0.41899939  1.0
  C  C9  1  0.85025949  0.08837807  0.91899939  1.0
  C  C10  1  0.14974051  0.91162193  0.08100061  1.0
  C  C11  1  0.14974051  0.58837807  0.58100061  1.0
  Cl  Cl12  1  0.31099797  0.28733657  0.48146356  1.0
  Cl  Cl13  1  0.31099797  0.21266343  0.98146356  1.0
  Cl  Cl14  1  0.68900203  0.78733657  0.01853644  1.0
  Cl  Cl15  1  0.68900203  0.71266343  0.51853644  1.0
  Cl  Cl16  1  0.68146468  0.29100609  0.31758037  1.0
  Cl  Cl17  1  0.68146468  0.20899391  0.81758037  1.0
  Cl  Cl18  1  0.31853532  0.79100609  0.18241963  1.0
  Cl  Cl19  1  0.31853532  0.70899391  0.68241963  1.0
  O  O20  1  0.99393556  0.14312739  0.33639047  1.0
  O  O21  1  0.99393556  0.35687261  0.83639047  1.0
  O  O22  1  0.00606444  0.64312739  0.16360953  1.0
  O  O23  1  0.00606444  0.85687261  0.66360953  1.0
