# generated using pymatgen
data_KSbF4
_symmetry_space_group_name_H-M   'P 1'
_cell_length_a   11.89997384
_cell_length_b   16.83892212
_cell_length_c   4.65205072
_cell_angle_alpha   90.00000000
_cell_angle_beta   90.00000000
_cell_angle_gamma   90.00000000
_symmetry_Int_Tables_number   1
_chemical_formula_structural   KSbF4
_chemical_formula_sum   'K8 Sb8 F32'
_cell_volume   932.19063640
_cell_formula_units_Z   8
loop_
 _symmetry_equiv_pos_site_id
 _symmetry_equiv_pos_as_xyz
  1  'x, y, z'
loop_
 _atom_site_type_symbol
 _atom_site_label
 _atom_site_symmetry_multiplicity
 _atom_site_fract_x
 _atom_site_fract_y
 _atom_site_fract_z
 _atom_site_occupancy
  K  K0  1  0.00000000  0.61542899  0.55024986  1.0
  K  K1  1  0.00000000  0.38457101  0.55024986  1.0
  K  K2  1  0.50000000  0.11542899  0.44975014  1.0
  K  K3  1  0.50000000  0.88457101  0.44975014  1.0
  K  K4  1  0.25000000  0.25000000  0.00000000  1.0
  K  K5  1  0.25000000  0.75000000  -0.00000000  1.0
  K  K6  1  0.75000000  0.75000000  0.00000000  1.0
  K  K7  1  0.75000000  0.25000000  -0.00000000  1.0
  Sb  Sb8  1  0.25387908  0.00000000  1.00197825  1.0
  Sb  Sb9  1  0.75387908  0.50000000  -0.00197825  1.0
  Sb  Sb10  1  0.24612092  0.50000000  -0.00197825  1.0
  Sb  Sb11  1  0.74612092  -0.00000000  1.00197825  1.0
  Sb  Sb12  1  0.00000000  0.15836227  0.43296448  1.0
  Sb  Sb13  1  0.00000000  0.84163773  0.43296448  1.0
  Sb  Sb14  1  0.50000000  0.65836227  0.56703552  1.0
  Sb  Sb15  1  0.50000000  0.34163773  0.56703552  1.0
  F  F16  1  0.14907254  0.09675716  0.21667657  1.0
  F  F17  1  0.14907254  0.90324284  0.21667657  1.0
  F  F18  1  0.64907254  0.59675716  0.78332343  1.0
  F  F19  1  0.64907254  0.40324284  0.78332343  1.0
  F  F20  1  0.35092746  0.59675716  0.78332343  1.0
  F  F21  1  0.35092746  0.40324284  0.78332343  1.0
  F  F22  1  0.85092746  0.09675716  0.21667657  1.0
  F  F23  1  0.85092746  0.90324284  0.21667657  1.0
  F  F24  1  0.13159260  0.59032638  0.06132172  1.0
  F  F25  1  0.13159260  0.40967362  0.06132172  1.0
  F  F26  1  0.63159260  0.09032638  0.93867828  1.0
  F  F27  1  0.63159260  0.90967362  0.93867828  1.0
  F  F28  1  0.36840740  0.09032638  0.93867828  1.0
  F  F29  1  0.36840740  0.90967362  0.93867828  1.0
  F  F30  1  0.86840740  0.59032638  0.06132172  1.0
  F  F31  1  0.86840740  0.40967362  0.06132172  1.0
  F  F32  1  0.11764030  0.24513620  0.51193236  1.0
  F  F33  1  0.11764030  0.75486380  0.51193236  1.0
  F  F34  1  0.61764030  0.74513620  0.48806764  1.0
  F  F35  1  0.61764030  0.25486380  0.48806764  1.0
  F  F36  1  0.38235970  0.74513620  0.48806764  1.0
  F  F37  1  0.38235970  0.25486380  0.48806764  1.0
  F  F38  1  0.88235970  0.24513620  0.51193236  1.0
  F  F39  1  0.88235970  0.75486380  0.51193236  1.0
  F  F40  1  0.67428800  0.00000000  0.39074396  1.0
  F  F41  1  0.17428800  0.50000000  0.60925604  1.0
  F  F42  1  0.82571200  0.50000000  0.60925604  1.0
  F  F43  1  0.32571200  -0.00000000  0.39074396  1.0
  F  F44  1  0.00000000  0.20733181  0.04466310  1.0
  F  F45  1  0.00000000  0.79266819  0.04466310  1.0
  F  F46  1  0.50000000  0.70733181  0.95533690  1.0
  F  F47  1  0.50000000  0.29266819  0.95533690  1.0
