# generated using pymatgen
data_Ga
_symmetry_space_group_name_H-M   'P 1'
_cell_length_a   5.51954898
_cell_length_b   5.51954898
_cell_length_c   18.90460486
_cell_angle_alpha   90.00000000
_cell_angle_beta   90.00000000
_cell_angle_gamma   120.00000000
_symmetry_Int_Tables_number   1
_chemical_formula_structural   Ga
_chemical_formula_sum   Ga22
_cell_volume   498.77585109
_cell_formula_units_Z   22
loop_
 _symmetry_equiv_pos_site_id
 _symmetry_equiv_pos_as_xyz
  1  'x, y, z'
loop_
 _atom_site_type_symbol
 _atom_site_label
 _atom_site_symmetry_multiplicity
 _atom_site_fract_x
 _atom_site_fract_y
 _atom_site_fract_z
 _atom_site_occupancy
  Ga  Ga0  1  0.00000142  0.50000071  0.28593379  1.0
  Ga  Ga1  1  0.50000071  0.00000142  0.71406621  1.0
  Ga  Ga2  1  0.50000071  0.49999929  0.71406621  1.0
  Ga  Ga3  1  0.49999929  0.50000071  0.28593379  1.0
  Ga  Ga4  1  0.49999929  0.99999858  0.28593379  1.0
  Ga  Ga5  1  0.99999858  0.49999929  0.71406621  1.0
  Ga  Ga6  1  0.99999998  0.49999999  0.42895152  1.0
  Ga  Ga7  1  0.49999999  0.99999998  0.57104848  1.0
  Ga  Ga8  1  0.49999999  0.50000001  0.57104848  1.0
  Ga  Ga9  1  0.50000001  0.49999999  0.42895152  1.0
  Ga  Ga10  1  0.50000001  0.00000002  0.42895152  1.0
  Ga  Ga11  1  0.00000002  0.50000001  0.57104848  1.0
  Ga  Ga12  1  1.00000123  0.50000062  0.14428744  1.0
  Ga  Ga13  1  0.50000062  1.00000123  0.85571256  1.0
  Ga  Ga14  1  0.50000062  0.49999938  0.85571256  1.0
  Ga  Ga15  1  0.49999938  0.50000062  0.14428744  1.0
  Ga  Ga16  1  0.49999938  -0.00000123  0.14428744  1.0
  Ga  Ga17  1  -0.00000123  0.49999938  0.85571256  1.0
  Ga  Ga18  1  0.50000000  0.50000000  0.00000000  1.0
  Ga  Ga19  1  0.50000000  -0.00000000  0.00000000  1.0
  Ga  Ga20  1  -0.00000000  0.50000000  -0.00000000  1.0
  Ga  Ga21  1  0.00000000  -0.00000000  0.00000000  1.0
