# generated using pymatgen
data_VO2
_symmetry_space_group_name_H-M   'P 1'
_cell_length_a   4.58217019
_cell_length_b   4.58129653
_cell_length_c   2.83712124
_cell_angle_alpha   90.00000000
_cell_angle_beta   90.00000000
_cell_angle_gamma   90.00000000
_symmetry_Int_Tables_number   1
_chemical_formula_structural   VO2
_chemical_formula_sum   'V2 O4'
_cell_volume   59.55764465
_cell_formula_units_Z   2
loop_
 _symmetry_equiv_pos_site_id
 _symmetry_equiv_pos_as_xyz
  1  'x, y, z'
loop_
 _atom_site_type_symbol
 _atom_site_label
 _atom_site_symmetry_multiplicity
 _atom_site_fract_x
 _atom_site_fract_y
 _atom_site_fract_z
 _atom_site_occupancy
  V  V0  1  0.50000000  0.50000000  0.50000000  1.0
  V  V1  1  0.00000000  0.00000000  0.00000000  1.0
  O  O2  1  0.20015498  0.79998312  0.50000000  1.0
  O  O3  1  0.70015498  0.70001688  0.00000000  1.0
  O  O4  1  0.79984502  0.20001688  0.50000000  1.0
  O  O5  1  0.29984502  0.29998312  0.00000000  1.0
