# generated using pymatgen
data_AlTeI7
_symmetry_space_group_name_H-M   'P 1'
_cell_length_a   8.24359425
_cell_length_b   7.54287184
_cell_length_c   15.27899167
_cell_angle_alpha   90.00000000
_cell_angle_beta   103.85581652
_cell_angle_gamma   90.00000000
_symmetry_Int_Tables_number   1
_chemical_formula_structural   AlTeI7
_chemical_formula_sum   'Al2 Te2 I14'
_cell_volume   922.40824789
_cell_formula_units_Z   2
loop_
 _symmetry_equiv_pos_site_id
 _symmetry_equiv_pos_as_xyz
  1  'x, y, z'
loop_
 _atom_site_type_symbol
 _atom_site_label
 _atom_site_symmetry_multiplicity
 _atom_site_fract_x
 _atom_site_fract_y
 _atom_site_fract_z
 _atom_site_occupancy
  Al  Al0  1  0.80310110  0.99393429  0.37111303  1.0
  Al  Al1  1  0.80310110  0.00606571  0.87111303  1.0
  Te  Te2  1  0.47723361  0.60811722  0.22531426  1.0
  Te  Te3  1  0.47723361  0.39188278  0.72531426  1.0
  I  I4  1  0.03420782  0.84262902  0.49161131  1.0
  I  I5  1  0.03420782  0.15737098  -0.00838869  1.0
  I  I6  1  0.80885043  0.86095722  0.21623556  1.0
  I  I7  1  0.80885043  0.13904278  0.71623556  1.0
  I  I8  1  0.84097976  0.32870467  0.37569065  1.0
  I  I9  1  0.84097976  0.67129533  0.87569065  1.0
  I  I10  1  0.52737857  0.38472488  0.08946431  1.0
  I  I11  1  0.52737857  0.61527512  0.58946431  1.0
  I  I12  1  0.51605669  0.90679157  0.40028394  1.0
  I  I13  1  0.51605669  0.09320843  0.90028394  1.0
  I  I14  1  0.26778020  0.85358209  0.11433545  1.0
  I  I15  1  0.26778020  0.14641791  0.61433545  1.0
  I  I16  1  0.22711182  0.42619892  0.28235150  1.0
  I  I17  1  0.22711182  0.57380108  0.78235150  1.0
