# generated using pymatgen
data_TiO2
_symmetry_space_group_name_H-M   'P 1'
_cell_length_a   5.16898032
_cell_length_b   9.25484733
_cell_length_c   5.50348971
_cell_angle_alpha   90.00000000
_cell_angle_beta   90.00000000
_cell_angle_gamma   90.00000000
_symmetry_Int_Tables_number   1
_chemical_formula_structural   TiO2
_chemical_formula_sum   'Ti8 O16'
_cell_volume   263.27662162
_cell_formula_units_Z   8
loop_
 _symmetry_equiv_pos_site_id
 _symmetry_equiv_pos_as_xyz
  1  'x, y, z'
loop_
 _atom_site_type_symbol
 _atom_site_label
 _atom_site_symmetry_multiplicity
 _atom_site_fract_x
 _atom_site_fract_y
 _atom_site_fract_z
 _atom_site_occupancy
  Ti  Ti0  1  0.13816487  0.37102776  0.09183168  1.0
  Ti  Ti1  1  0.13816487  0.12897224  0.59183168  1.0
  Ti  Ti2  1  0.63816487  0.37102776  0.40816832  1.0
  Ti  Ti3  1  0.63816487  0.12897224  0.90816832  1.0
  Ti  Ti4  1  0.86183513  0.87102776  0.40816832  1.0
  Ti  Ti5  1  0.86183513  0.62897224  0.90816832  1.0
  Ti  Ti6  1  0.36183513  0.87102776  0.09183168  1.0
  Ti  Ti7  1  0.36183513  0.62897224  0.59183168  1.0
  O  O8  1  0.46424703  0.27025221  0.10815952  1.0
  O  O9  1  0.46424703  0.22974779  0.60815952  1.0
  O  O10  1  -0.03575297  0.27025221  0.39184048  1.0
  O  O11  1  -0.03575297  0.22974779  0.89184048  1.0
  O  O12  1  0.53575297  0.77025221  0.39184048  1.0
  O  O13  1  0.53575297  0.72974779  0.89184048  1.0
  O  O14  1  1.03575297  0.77025221  0.10815952  1.0
  O  O15  1  1.03575297  0.72974779  0.60815952  1.0
  O  O16  1  0.31696268  0.48985082  0.35167861  1.0
  O  O17  1  0.31696268  0.01014918  0.85167861  1.0
  O  O18  1  0.81696268  0.48985082  0.14832139  1.0
  O  O19  1  0.81696268  0.01014918  0.64832139  1.0
  O  O20  1  0.68303732  0.98985082  0.14832139  1.0
  O  O21  1  0.68303732  0.51014918  0.64832139  1.0
  O  O22  1  0.18303732  0.98985082  0.35167861  1.0
  O  O23  1  0.18303732  0.51014918  0.85167861  1.0
