# generated using pymatgen
data_Sr2IrO4
_symmetry_space_group_name_H-M   'P 1'
_cell_length_a   13.64316591
_cell_length_b   13.64316591
_cell_length_c   13.64316591
_cell_angle_alpha   156.71447491
_cell_angle_beta   156.71447491
_cell_angle_gamma   33.16563715
_symmetry_Int_Tables_number   1
_chemical_formula_structural   Sr2IrO4
_chemical_formula_sum   'Sr8 Ir4 O16'
_cell_volume   396.49427333
_cell_formula_units_Z   4
loop_
 _symmetry_equiv_pos_site_id
 _symmetry_equiv_pos_as_xyz
  1  'x, y, z'
loop_
 _atom_site_type_symbol
 _atom_site_label
 _atom_site_symmetry_multiplicity
 _atom_site_fract_x
 _atom_site_fract_y
 _atom_site_fract_z
 _atom_site_occupancy
  Sr  Sr0  1  1.32480874  1.32480874  1.00000000  1.0
  Sr  Sr1  1  0.82480874  0.82480874  -0.00000000  1.0
  Sr  Sr2  1  0.57480874  0.07480874  0.50000000  1.0
  Sr  Sr3  1  0.07480874  0.57480874  0.50000000  1.0
  Sr  Sr4  1  1.42519126  0.92519126  0.50000000  1.0
  Sr  Sr5  1  0.92519126  1.42519126  0.50000000  1.0
  Sr  Sr6  1  1.17519126  1.17519126  1.00000000  1.0
  Sr  Sr7  1  0.67519126  0.67519126  -0.00000000  1.0
  Ir  Ir8  1  0.50000000  0.50000000  1.00000000  1.0
  Ir  Ir9  1  0.00000000  0.00000000  0.00000000  1.0
  Ir  Ir10  1  0.75000000  1.25000000  0.50000000  1.0
  Ir  Ir11  1  1.25000000  0.75000000  0.50000000  1.0
  O  O12  1  1.42025864  1.42025864  1.00000000  1.0
  O  O13  1  0.92025864  0.92025864  -0.00000000  1.0
  O  O14  1  0.67025864  1.17025864  0.50000000  1.0
  O  O15  1  1.17025864  0.67025864  0.50000000  1.0
  O  O16  1  1.32974136  0.82974136  0.50000000  1.0
  O  O17  1  0.82974136  1.32974136  0.50000000  1.0
  O  O18  1  0.07974136  0.07974136  0.00000000  1.0
  O  O19  1  0.57974136  0.57974136  1.00000000  1.0
  O  O20  1  0.93970842  0.93970842  0.37941685  1.0
  O  O21  1  1.43970842  1.06029158  1.00000000  1.0
  O  O22  1  0.18970842  0.68970842  0.87941685  1.0
  O  O23  1  0.68970842  0.81029158  1.50000000  1.0
  O  O24  1  0.81029158  0.31029158  1.12058315  1.0
  O  O25  1  0.31029158  0.18970842  0.50000000  1.0
  O  O26  1  1.56029158  1.56029158  1.62058315  1.0
  O  O27  1  1.06029158  1.43970842  1.00000000  1.0
