# generated using pymatgen
data_LiCa4
_symmetry_space_group_name_H-M   'P 1'
_cell_length_a   8.34103583
_cell_length_b   8.34103583
_cell_length_c   8.34103583
_cell_angle_alpha   60.00000000
_cell_angle_beta   60.00000000
_cell_angle_gamma   60.00000000
_symmetry_Int_Tables_number   1
_chemical_formula_structural   LiCa4
_chemical_formula_sum   'Li2 Ca8'
_cell_volume   410.34104684
_cell_formula_units_Z   2
loop_
 _symmetry_equiv_pos_site_id
 _symmetry_equiv_pos_as_xyz
  1  'x, y, z'
loop_
 _atom_site_type_symbol
 _atom_site_label
 _atom_site_symmetry_multiplicity
 _atom_site_fract_x
 _atom_site_fract_y
 _atom_site_fract_z
 _atom_site_occupancy
  Li  Li0  1  0.50000000  0.50000000  -0.50000000  1.0
  Li  Li1  1  0.75000000  -0.25000000  0.75000000  1.0
  Ca  Ca2  1  -0.11013577  0.88986423  0.33040731  1.0
  Ca  Ca3  1  0.88986423  -0.66959269  0.88986423  1.0
  Ca  Ca4  1  0.36013577  0.36013577  0.36013577  1.0
  Ca  Ca5  1  -0.08040731  0.36013577  0.36013577  1.0
  Ca  Ca6  1  -0.66959269  0.88986423  0.88986423  1.0
  Ca  Ca7  1  0.88986423  -0.11013577  0.88986423  1.0
  Ca  Ca8  1  0.36013577  -0.08040731  0.36013577  1.0
  Ca  Ca9  1  0.36013577  0.36013577  -0.08040731  1.0
