# generated using pymatgen
data_NaMn3(AsO4)3
_symmetry_space_group_name_H-M   'P 1'
_cell_length_a   8.71863325
_cell_length_b   8.71863325
_cell_length_c   7.20759074
_cell_angle_alpha   72.27875376
_cell_angle_beta   107.72124624
_cell_angle_gamma   88.11820923
_symmetry_Int_Tables_number   1
_chemical_formula_structural   NaMn3(AsO4)3
_chemical_formula_sum   'Na2 Mn6 As6 O24'
_cell_volume   492.34276306
_cell_formula_units_Z   2
loop_
 _symmetry_equiv_pos_site_id
 _symmetry_equiv_pos_as_xyz
  1  'x, y, z'
loop_
 _atom_site_type_symbol
 _atom_site_label
 _atom_site_symmetry_multiplicity
 _atom_site_fract_x
 _atom_site_fract_y
 _atom_site_fract_z
 _atom_site_occupancy
  Na  Na0  1  0.99549007  -0.00450993  0.75000000  1.0
  Na  Na1  1  1.00450993  0.00450993  0.25000000  1.0
  Mn  Mn2  1  0.37652881  -0.05635773  0.62843023  1.0
  Mn  Mn3  1  1.05635773  0.62347119  0.12843023  1.0
  Mn  Mn4  1  0.94364227  -0.62347119  0.87156977  1.0
  Mn  Mn5  1  1.62347119  0.05635773  0.37156977  1.0
  Mn  Mn6  1  1.27718992  0.27718992  0.75000000  1.0
  Mn  Mn7  1  0.72281008  -0.27718992  0.25000000  1.0
  As  As8  1  1.65462967  0.11614595  0.88535932  1.0
  As  As9  1  0.88385405  -0.65462967  0.38535932  1.0
  As  As10  1  1.11614595  0.65462967  0.61464068  1.0
  As  As11  1  0.34537033  -0.11614595  0.11464068  1.0
  As  As12  1  0.70110220  -0.29889780  0.75000000  1.0
  As  As13  1  1.29889780  0.29889780  0.25000000  1.0
  O  O14  1  0.73915970  -0.17266255  0.52858186  1.0
  O  O15  1  1.17266255  0.26084030  0.02858186  1.0
  O  O16  1  0.82733745  -0.26084030  0.97141814  1.0
  O  O17  1  1.26084030  0.17266255  0.47141815  1.0
  O  O18  1  0.50025370  -0.26572608  0.73571960  1.0
  O  O19  1  1.26572608  0.49974630  0.23571960  1.0
  O  O20  1  0.73427392  -0.49974630  0.76428040  1.0
  O  O21  1  1.49974630  0.26572608  0.26428040  1.0
  O  O22  1  0.83218486  -0.84946192  0.39883600  1.0
  O  O23  1  1.84946192  0.16781514  0.89883600  1.0
  O  O24  1  0.15053808  -0.16781514  0.10116400  1.0
  O  O25  1  1.16781514  0.84946192  0.60116400  1.0
  O  O26  1  1.59173797  0.03070425  0.68732313  1.0
  O  O27  1  0.96929575  -0.59173797  0.18732313  1.0
  O  O28  1  1.03070425  0.59173797  0.81267687  1.0
  O  O29  1  0.40826203  -0.03070425  0.31267687  1.0
  O  O30  1  1.30888199  0.02870652  0.86704234  1.0
  O  O31  1  0.97129348  -0.30888199  0.36704234  1.0
  O  O32  1  1.02870652  0.30888199  0.63295766  1.0
  O  O33  1  0.69111801  -0.02870652  0.13295766  1.0
  O  O34  1  1.51107918  0.27176657  0.84832101  1.0
  O  O35  1  0.72823343  -0.51107918  0.34832101  1.0
  O  O36  1  1.27176657  0.51107918  0.65167899  1.0
  O  O37  1  0.48892082  -0.27176657  0.15167899  1.0
