# generated using pymatgen
data_GdSnGe
_symmetry_space_group_name_H-M   'P 1'
_cell_length_a   8.58980960
_cell_length_b   8.58980960
_cell_length_c   4.07740995
_cell_angle_alpha   90.00000000
_cell_angle_beta   90.00000000
_cell_angle_gamma   150.68099027
_symmetry_Int_Tables_number   1
_chemical_formula_structural   GdSnGe
_chemical_formula_sum   'Gd2 Sn2 Ge2'
_cell_volume   147.31823717
_cell_formula_units_Z   2
loop_
 _symmetry_equiv_pos_site_id
 _symmetry_equiv_pos_as_xyz
  1  'x, y, z'
loop_
 _atom_site_type_symbol
 _atom_site_label
 _atom_site_symmetry_multiplicity
 _atom_site_fract_x
 _atom_site_fract_y
 _atom_site_fract_z
 _atom_site_occupancy
  Gd  Gd0  1  -0.40553228  0.40553228  0.75000000  1.0
  Gd  Gd1  1  0.40553228  0.59446772  0.25000000  1.0
  Sn  Sn2  1  0.24289100  0.75710900  0.75000000  1.0
  Sn  Sn3  1  -0.24289100  0.24289100  0.25000000  1.0
  Ge  Ge4  1  -0.05186299  0.05186299  0.75000000  1.0
  Ge  Ge5  1  0.05186299  0.94813701  0.25000000  1.0
