# generated using pymatgen
data_LiLa(PO3)4
_symmetry_space_group_name_H-M   'P 1'
_cell_length_a   9.16337388
_cell_length_b   9.16337388
_cell_length_c   10.04848414
_cell_angle_alpha   56.78962258
_cell_angle_beta   123.21037742
_cell_angle_gamma   133.48808920
_symmetry_Int_Tables_number   1
_chemical_formula_structural   LiLa(PO3)4
_chemical_formula_sum   'Li2 La2 P8 O24'
_cell_volume   491.47939335
_cell_formula_units_Z   2
loop_
 _symmetry_equiv_pos_site_id
 _symmetry_equiv_pos_as_xyz
  1  'x, y, z'
loop_
 _atom_site_type_symbol
 _atom_site_label
 _atom_site_symmetry_multiplicity
 _atom_site_fract_x
 _atom_site_fract_y
 _atom_site_fract_z
 _atom_site_occupancy
  Li  Li0  1  0.79970889  0.79970889  0.25000000  1.0
  Li  Li1  1  0.20029111  0.20029111  0.75000000  1.0
  La  La2  1  0.30139130  0.30139130  0.25000000  1.0
  La  La3  1  0.69860870  0.69860870  0.75000000  1.0
  P  P4  1  0.80183448  0.07969417  0.33510198  1.0
  P  P5  1  0.92030583  -0.80183448  0.83510198  1.0
  P  P6  1  1.07969417  0.80183448  0.16489802  1.0
  P  P7  1  1.19816552  -0.07969417  0.66489802  1.0
  P  P8  1  0.48569880  0.18804529  0.09686974  1.0
  P  P9  1  0.81195471  -0.48569880  0.59686974  1.0
  P  P10  1  1.18804529  0.48569880  0.40313026  1.0
  P  P11  1  1.51430120  -0.18804529  0.90313026  1.0
  O  O12  1  1.92289445  0.05804889  0.29551675  1.0
  O  O13  1  0.94195111  -0.92289445  0.79551675  1.0
  O  O14  1  1.05804889  0.92289445  0.20448325  1.0
  O  O15  1  0.07710555  -0.05804889  0.70448325  1.0
  O  O16  1  1.52877100  -0.31940242  0.08201771  1.0
  O  O17  1  1.31940242  -0.52877100  0.58201771  1.0
  O  O18  1  0.68059758  0.52877100  0.41798229  1.0
  O  O19  1  0.47122900  0.31940242  0.91798229  1.0
  O  O20  1  0.66810985  -0.10411882  0.45083274  1.0
  O  O21  1  1.10411882  -0.66810985  0.95083274  1.0
  O  O22  1  0.89588118  0.66810985  0.04916726  1.0
  O  O23  1  1.33189015  0.10411882  0.54916726  1.0
  O  O24  1  1.72383904  0.04587528  0.90869806  1.0
  O  O25  1  0.95412472  0.27616096  0.40869806  1.0
  O  O26  1  1.04587528  -0.27616096  0.59130194  1.0
  O  O27  1  0.27616096  -0.04587528  0.09130194  1.0
  O  O28  1  0.66452427  0.15281603  0.15642449  1.0
  O  O29  1  0.84718397  -0.66452427  0.65642449  1.0
  O  O30  1  1.15281603  0.66452427  0.34357551  1.0
  O  O31  1  1.33547573  -0.15281603  0.84357551  1.0
  O  O32  1  0.51160555  0.25451714  0.21999244  1.0
  O  O33  1  0.74548286  -0.51160555  0.71999244  1.0
  O  O34  1  1.25451714  0.51160555  0.28000756  1.0
  O  O35  1  1.48839445  -0.25451714  0.78000756  1.0
