# generated using pymatgen
data_K4ZnO3
_symmetry_space_group_name_H-M   'P 1'
_cell_length_a   7.02330167
_cell_length_b   11.22437562
_cell_length_c   9.04427961
_cell_angle_alpha   102.27934902
_cell_angle_beta   110.74228156
_cell_angle_gamma   89.35684644
_symmetry_Int_Tables_number   1
_chemical_formula_structural   K4ZnO3
_chemical_formula_sum   'K16 Zn4 O12'
_cell_volume   649.90801825
_cell_formula_units_Z   4
loop_
 _symmetry_equiv_pos_site_id
 _symmetry_equiv_pos_as_xyz
  1  'x, y, z'
loop_
 _atom_site_type_symbol
 _atom_site_label
 _atom_site_symmetry_multiplicity
 _atom_site_fract_x
 _atom_site_fract_y
 _atom_site_fract_z
 _atom_site_occupancy
  K  K0  1  0.98358502  0.70408616  -0.54887895  1.0
  K  K1  1  0.01641498  0.29591384  -0.45112105  1.0
  K  K2  1  0.86887727  0.20462366  -0.86490252  1.0
  K  K3  1  0.13112273  0.79537634  -0.13509748  1.0
  K  K4  1  0.77478554  0.97947510  -0.65459884  1.0
  K  K5  1  0.22521446  0.02052490  -0.34540116  1.0
  K  K6  1  0.69274394  0.57650211  -0.35264673  1.0
  K  K7  1  0.30725606  0.42349789  -0.64735327  1.0
  K  K8  1  0.65452276  0.88243001  -0.09220941  1.0
  K  K9  1  0.34547724  0.11756999  -0.90779059  1.0
  K  K10  1  0.61024848  0.67317253  -0.90368634  1.0
  K  K11  1  0.38975152  0.32682747  -0.09631366  1.0
  K  K12  1  0.50047151  0.80008610  -0.52376933  1.0
  K  K13  1  0.49952849  0.19991390  -0.47623067  1.0
  K  K14  1  0.14840182  0.62422889  -0.87682647  1.0
  K  K15  1  0.85159818  0.37577111  -0.12317353  1.0
  Zn  Zn16  1  0.70669013  0.44409906  -0.72337232  1.0
  Zn  Zn17  1  0.29330987  0.55590094  -0.27662768  1.0
  Zn  Zn18  1  0.15754435  0.93739851  -0.76432506  1.0
  Zn  Zn19  1  0.84245565  0.06260149  -0.23567494  1.0
  O  O20  1  0.93954583  0.81432870  -0.81891488  1.0
  O  O21  1  0.06045417  0.18567130  -0.18108512  1.0
  O  O22  1  0.91518733  0.46174046  -0.80923532  1.0
  O  O23  1  0.08481267  0.53825954  -0.19076468  1.0
  O  O24  1  0.86859468  0.90291874  -0.35532989  1.0
  O  O25  1  0.13140532  0.09708126  -0.64467011  1.0
  O  O26  1  0.62326450  0.28835130  -0.69789679  1.0
  O  O27  1  0.37673550  0.71164870  -0.30210321  1.0
  O  O28  1  0.56661296  0.58616321  -0.67050186  1.0
  O  O29  1  0.43338704  0.41383679  -0.32949814  1.0
  O  O30  1  0.38692468  0.89553525  -0.83075109  1.0
  O  O31  1  0.61307532  0.10446475  -0.16924891  1.0
