# generated using pymatgen
data_KAsO3
_symmetry_space_group_name_H-M   'P 1'
_cell_length_a   10.59350066
_cell_length_b   7.72449228
_cell_length_c   7.72280685
_cell_angle_alpha   106.43415735
_cell_angle_beta   111.48679158
_cell_angle_gamma   84.83617162
_symmetry_Int_Tables_number   1
_chemical_formula_structural   KAsO3
_chemical_formula_sum   'K6 As6 O18'
_cell_volume   563.94379580
_cell_formula_units_Z   6
loop_
 _symmetry_equiv_pos_site_id
 _symmetry_equiv_pos_as_xyz
  1  'x, y, z'
loop_
 _atom_site_type_symbol
 _atom_site_label
 _atom_site_symmetry_multiplicity
 _atom_site_fract_x
 _atom_site_fract_y
 _atom_site_fract_z
 _atom_site_occupancy
  K  K0  1  0.66053441  0.89747059  -0.09351651  1.0
  K  K1  1  0.33946559  0.10252941  -0.90648349  1.0
  K  K2  1  0.33478345  0.44450375  -0.26811111  1.0
  K  K3  1  0.66521655  0.55549625  -0.73188889  1.0
  K  K4  1  0.99915493  0.23463538  -0.75699759  1.0
  K  K5  1  0.00084507  0.76536462  -0.24300241  1.0
  As  As6  1  0.29771277  0.97608024  -0.47319772  1.0
  As  As7  1  0.70228723  0.02391976  -0.52680228  1.0
  As  As8  1  0.02666625  0.73351826  -0.72911302  1.0
  As  As9  1  0.97333375  0.26648174  -0.27088698  1.0
  As  As10  1  0.70281778  0.36123470  -0.17316657  1.0
  As  As11  1  0.29718222  0.63876530  -0.82683343  1.0
  O  O12  1  0.60671627  -0.03640946  -0.76332164  1.0
  O  O13  1  0.39328373  1.03640946  -0.23667836  1.0
  O  O14  1  0.95839976  0.85871771  -0.88667210  1.0
  O  O15  1  0.04160024  0.14128229  -0.11332790  1.0
  O  O16  1  0.14312467  0.86796091  -0.49633498  1.0
  O  O17  1  0.85687533  0.13203909  -0.50366502  1.0
  O  O18  1  0.38214066  0.78352726  -0.58401031  1.0
  O  O19  1  0.61785934  0.21647274  -0.41598969  1.0
  O  O20  1  0.25772273  0.75187754  -0.99697952  1.0
  O  O21  1  0.74227727  0.24812246  -0.00302048  1.0
  O  O22  1  0.60323480  0.54299168  -0.14982471  1.0
  O  O23  1  0.39676520  0.45700832  -0.85017529  1.0
  O  O24  1  0.14584500  0.56715491  -0.80334358  1.0
  O  O25  1  0.85415500  0.43284509  -0.19665642  1.0
  O  O26  1  0.06777591  0.38437750  -0.33365356  1.0
  O  O27  1  0.93222409  0.61562250  -0.66634644  1.0
  O  O28  1  0.25983373  0.13443404  -0.59646983  1.0
  O  O29  1  0.74016627  0.86556596  -0.40353017  1.0
