# generated using pymatgen
data_Y2B31(CN)2
_symmetry_space_group_name_H-M   'P 1'
_cell_length_a   5.56814122
_cell_length_b   5.56814122
_cell_length_c   10.92121415
_cell_angle_alpha   90.00000000
_cell_angle_beta   90.00000000
_cell_angle_gamma   120.00000000
_symmetry_Int_Tables_number   1
_chemical_formula_structural   Y2B31(CN)2
_chemical_formula_sum   'Y2 B31 C2 N2'
_cell_volume   293.23920785
_cell_formula_units_Z   1
loop_
 _symmetry_equiv_pos_site_id
 _symmetry_equiv_pos_as_xyz
  1  'x, y, z'
loop_
 _atom_site_type_symbol
 _atom_site_label
 _atom_site_symmetry_multiplicity
 _atom_site_fract_x
 _atom_site_fract_y
 _atom_site_fract_z
 _atom_site_occupancy
  Y  Y0  1  0.33333333  0.66666667  0.43251045  1.0
  Y  Y1  1  0.66666667  0.33333333  0.56748955  1.0
  B  B2  1  0.01842520  0.50921260  0.21147923  1.0
  B  B3  1  0.50921260  0.01842520  0.78852077  1.0
  B  B4  1  0.50921260  0.49078740  0.78852077  1.0
  B  B5  1  0.49078740  0.50921260  0.21147923  1.0
  B  B6  1  0.49078740  0.98157480  0.21147923  1.0
  B  B7  1  0.98157480  0.49078740  0.78852077  1.0
  B  B8  1  0.88162319  0.44081159  0.05959777  1.0
  B  B9  1  0.44081159  0.88162319  0.94040223  1.0
  B  B10  1  0.44081159  0.55918841  0.94040223  1.0
  B  B11  1  0.55918841  0.44081159  0.05959777  1.0
  B  B12  1  0.55918841  0.11837681  0.05959777  1.0
  B  B13  1  0.11837681  0.55918841  0.94040223  1.0
  B  B14  1  0.45148368  0.22574184  0.31450225  1.0
  B  B15  1  0.22574184  0.45148368  0.68549775  1.0
  B  B16  1  0.22574184  0.77425816  0.68549775  1.0
  B  B17  1  0.77425816  0.22574184  0.31450225  1.0
  B  B18  1  0.77425816  0.54851632  0.31450225  1.0
  B  B19  1  0.54851632  0.77425816  0.68549775  1.0
  B  B20  1  0.32498240  0.16249120  0.15848236  1.0
  B  B21  1  0.16249120  0.32498240  0.84151764  1.0
  B  B22  1  0.16249120  0.83750880  0.84151764  1.0
  B  B23  1  0.83750880  0.16249120  0.15848236  1.0
  B  B24  1  0.83750880  0.67501760  0.15848236  1.0
  B  B25  1  0.67501760  0.83750880  0.84151764  1.0
  B  B26  1  0.21054913  0.10527456  0.43266157  1.0
  B  B27  1  0.10527456  0.21054913  0.56733843  1.0
  B  B28  1  0.10527456  0.89472544  0.56733843  1.0
  B  B29  1  0.89472544  0.10527456  0.43266157  1.0
  B  B30  1  0.89472544  0.78945087  0.43266157  1.0
  B  B31  1  0.78945087  0.89472544  0.56733843  1.0
  B  B32  1  0.00000000  0.00000000  0.00000000  1.0
  C  C33  1  0.00000000  0.00000000  0.13204261  1.0
  C  C34  1  0.00000000  0.00000000  0.86795739  1.0
  N  N35  1  0.33333333  0.66666667  0.22976975  1.0
  N  N36  1  0.66666667  0.33333333  0.77023025  1.0
