# generated using pymatgen
data_CaCoAsHO5
_symmetry_space_group_name_H-M   'P 1'
_cell_length_a   5.92817782
_cell_length_b   7.61932375
_cell_length_c   9.10580325
_cell_angle_alpha   90.00000000
_cell_angle_beta   90.00000000
_cell_angle_gamma   90.00000000
_symmetry_Int_Tables_number   1
_chemical_formula_structural   CaCoAsHO5
_chemical_formula_sum   'Ca4 Co4 As4 H4 O20'
_cell_volume   411.29735057
_cell_formula_units_Z   4
loop_
 _symmetry_equiv_pos_site_id
 _symmetry_equiv_pos_as_xyz
  1  'x, y, z'
loop_
 _atom_site_type_symbol
 _atom_site_label
 _atom_site_symmetry_multiplicity
 _atom_site_fract_x
 _atom_site_fract_y
 _atom_site_fract_z
 _atom_site_occupancy
  Ca  Ca0  1  0.02292026  0.87351463  0.82692805  1.0
  Ca  Ca1  1  0.52292026  0.62648537  0.17307195  1.0
  Ca  Ca2  1  0.97707974  0.37351463  0.67307195  1.0
  Ca  Ca3  1  0.47707974  0.12648537  0.32692805  1.0
  O  O4  1  0.40674669  0.79384748  0.94156945  1.0
  O  O5  1  0.90674669  0.70615252  0.05843055  1.0
  O  O6  1  0.59325331  0.29384748  0.55843055  1.0
  O  O7  1  0.09325331  0.20615252  0.44156945  1.0
  O  O8  1  0.25021583  0.60946462  0.70561057  1.0
  O  O9  1  0.75021583  0.89053538  0.29438943  1.0
  O  O10  1  0.74978417  0.10946462  0.79438943  1.0
  O  O11  1  0.24978417  0.39053538  0.20561057  1.0
  O  O12  1  0.23732645  0.84757414  0.27114664  1.0
  O  O13  1  0.73732645  0.65242586  0.72885336  1.0
  O  O14  1  0.76267355  0.34757414  0.22885336  1.0
  O  O15  1  0.26267355  0.15242586  0.77114664  1.0
  O  O16  1  0.00401872  0.89655983  0.57094183  1.0
  O  O17  1  0.50401872  0.60344017  0.42905817  1.0
  O  O18  1  0.99598128  0.39655983  0.92905817  1.0
  O  O19  1  0.49598128  0.10344017  0.07094183  1.0
  O  O20  1  0.49062924  0.94568952  0.55435803  1.0
  O  O21  1  0.99062924  0.55431048  0.44564197  1.0
  O  O22  1  0.50937076  0.44568952  0.94564197  1.0
  O  O23  1  0.00937076  0.05431048  0.05435803  1.0
  As  As24  1  0.48279291  0.62452302  0.82328670  1.0
  As  As25  1  0.98279291  0.87547698  0.17671330  1.0
  As  As26  1  0.51720709  0.12452302  0.67671330  1.0
  As  As27  1  0.01720709  0.37547698  0.32328670  1.0
  Co  Co28  1  0.24429925  0.74179597  0.49537955  1.0
  Co  Co29  1  0.74429925  0.75820403  0.50462045  1.0
  Co  Co30  1  0.75570075  0.24179597  0.00462045  1.0
  Co  Co31  1  0.25570075  0.25820403  0.99537955  1.0
  H  H32  1  0.48300514  0.98817130  0.02068761  1.0
  H  H33  1  0.98300514  0.51182870  0.97931239  1.0
  H  H34  1  0.51699486  0.48817130  0.47931239  1.0
  H  H35  1  0.01699486  0.01182870  0.52068761  1.0
