# generated using pymatgen
data_Na2Si(H5O4)2
_symmetry_space_group_name_H-M   'P 1'
_cell_length_a   6.67409028
_cell_length_b   8.63952127
_cell_length_c   7.96906538
_cell_angle_alpha   108.98015066
_cell_angle_beta   103.69805996
_cell_angle_gamma   98.97898187
_symmetry_Int_Tables_number   1
_chemical_formula_structural   Na2Si(H5O4)2
_chemical_formula_sum   'Na4 Si2 H20 O16'
_cell_volume   408.34935222
_cell_formula_units_Z   2
loop_
 _symmetry_equiv_pos_site_id
 _symmetry_equiv_pos_as_xyz
  1  'x, y, z'
loop_
 _atom_site_type_symbol
 _atom_site_label
 _atom_site_symmetry_multiplicity
 _atom_site_fract_x
 _atom_site_fract_y
 _atom_site_fract_z
 _atom_site_occupancy
  Na  Na0  1  -0.63186376  -0.66366296  -0.82112205  1.0
  Na  Na1  1  -0.36813624  -0.33633704  -0.17887795  1.0
  Na  Na2  1  -0.18820429  -0.85357357  -0.95799851  1.0
  Na  Na3  1  -0.81179571  -0.14642643  -0.04200149  1.0
  Si  Si4  1  -0.97155126  -0.76572998  -0.53277388  1.0
  Si  Si5  1  -0.02844874  -0.23427002  -0.46722612  1.0
  H  H6  1  -0.95787247  -0.74319220  -0.18135490  1.0
  H  H7  1  -0.04212753  -0.25680780  -0.81864510  1.0
  H  H8  1  -0.92838939  -0.54639009  -0.64002183  1.0
  H  H9  1  -0.07161061  -0.45360991  -0.35997817  1.0
  H  H10  1  -0.88733407  -0.90950424  -0.18787872  1.0
  H  H11  1  -0.11266593  -0.09049576  -0.81212128  1.0
  H  H12  1  -0.78187389  -0.93479243  -0.42530064  1.0
  H  H13  1  -0.21812611  -0.06520757  -0.57469936  1.0
  H  H14  1  -0.75110456  -0.34993017  -0.69503222  1.0
  H  H15  1  -0.24889544  -0.65006983  -0.30496778  1.0
  H  H16  1  -0.65930567  -0.38942867  -0.96608289  1.0
  H  H17  1  -0.34069433  -0.61057133  -0.03391711  1.0
  H  H18  1  -0.63749950  -0.90560089  -0.66747525  1.0
  H  H19  1  -0.36250050  -0.09439911  -0.33252475  1.0
  H  H20  1  -0.50461888  -0.70806659  -0.34088631  1.0
  H  H21  1  -0.49538112  -0.29193341  -0.65911369  1.0
  H  H22  1  -0.42523375  -0.91837506  -0.72572643  1.0
  H  H23  1  -0.57476625  -0.08162495  -0.27427357  1.0
  H  H24  1  -0.20546449  -0.51479367  -0.81744107  1.0
  H  H25  1  -0.79453551  -0.48520633  -0.18255893  1.0
  O  O26  1  -0.98862111  -0.35839187  -0.65217813  1.0
  O  O27  1  -0.01137889  -0.64160813  -0.34782187  1.0
  O  O28  1  -0.92105106  -0.80935672  -0.10191137  1.0
  O  O29  1  -0.07894894  -0.19064328  -0.89808863  1.0
  O  O30  1  -0.89346676  -0.65793957  -0.65696030  1.0
  O  O31  1  -0.10653324  -0.34206043  -0.34303970  1.0
  O  O32  1  -0.75772446  -0.84346212  -0.47783513  1.0
  O  O33  1  -0.24227554  -0.15653788  -0.52216487  1.0
  O  O34  1  -0.62992570  -0.37649645  -0.74399937  1.0
  O  O35  1  -0.37007430  -0.62350355  -0.25600063  1.0
  O  O36  1  -0.57951011  -0.91731744  -0.77298804  1.0
  O  O37  1  -0.42048989  -0.08268256  -0.22701196  1.0
  O  O38  1  -0.32238369  -0.61581361  -0.90799692  1.0
  O  O39  1  -0.67761631  -0.38418639  -0.09200308  1.0
  O  O40  1  -0.17331269  -0.92553959  -0.67275006  1.0
  O  O41  1  -0.82668731  -0.07446041  -0.32724994  1.0
