# generated using pymatgen
data_LaSiBO5
_symmetry_space_group_name_H-M   'P 1'
_cell_length_a   6.89346927
_cell_length_b   6.89346927
_cell_length_c   6.84794326
_cell_angle_alpha   90.00000000
_cell_angle_beta   90.00000000
_cell_angle_gamma   120.00000000
_symmetry_Int_Tables_number   1
_chemical_formula_structural   LaSiBO5
_chemical_formula_sum   'La3 Si3 B3 O15'
_cell_volume   281.81653638
_cell_formula_units_Z   3
loop_
 _symmetry_equiv_pos_site_id
 _symmetry_equiv_pos_as_xyz
  1  'x, y, z'
loop_
 _atom_site_type_symbol
 _atom_site_label
 _atom_site_symmetry_multiplicity
 _atom_site_fract_x
 _atom_site_fract_y
 _atom_site_fract_z
 _atom_site_occupancy
  La  La0  1  0.39869468  -0.00003122  0.36059393  1.0
  La  La1  1  0.60127410  0.60130532  0.02726060  1.0
  La  La2  1  0.00003122  0.39872590  0.69392727  1.0
  Si  Si3  1  0.41669898  -0.00000675  0.86057526  1.0
  Si  Si4  1  0.58329427  0.58330102  0.52724192  1.0
  Si  Si5  1  0.00000675  0.41670573  0.19390859  1.0
  B  B6  1  0.99996594  0.89193721  0.69392268  1.0
  B  B7  1  0.89197127  0.00003406  0.36058934  1.0
  B  B8  1  0.10806279  0.10802873  0.02725601  1.0
  O  O9  1  0.80911906  0.65675722  0.66637005  1.0
  O  O10  1  0.84763816  0.19088094  0.33303672  1.0
  O  O11  1  0.34324278  0.15236184  -0.00029662  1.0
  O  O12  1  0.96145801  -0.00020589  0.86069287  1.0
  O  O13  1  0.03833610  0.03854199  0.52735953  1.0
  O  O14  1  0.00020589  0.96166390  0.19402620  1.0
  O  O15  1  0.19096290  0.84778972  0.72129279  1.0
  O  O16  1  0.65682682  0.80903710  0.38795945  1.0
  O  O17  1  0.15221028  0.34317318  0.05462612  1.0
  O  O18  1  0.46735610  0.86231519  0.02489860  1.0
  O  O19  1  0.39495909  0.53264390  0.69156527  1.0
  O  O20  1  0.13768481  0.60504091  0.35823194  1.0
  O  O21  1  0.86246578  0.46768765  0.02968716  1.0
  O  O22  1  0.60522187  0.13753422  0.69635383  1.0
  O  O23  1  0.53231235  0.39477813  0.36302049  1.0
