# generated using pymatgen
data_MnNb2Zn2O8
_symmetry_space_group_name_H-M   'P 1'
_cell_length_a   10.15545336
_cell_length_b   10.15545336
_cell_length_c   5.27546717
_cell_angle_alpha   89.91429616
_cell_angle_beta   90.08570384
_cell_angle_gamma   145.91160954
_symmetry_Int_Tables_number   1
_chemical_formula_structural   MnNb2Zn2O8
_chemical_formula_sum   'Mn2 Nb4 Zn4 O16'
_cell_volume   304.93854554
_cell_formula_units_Z   2
loop_
 _symmetry_equiv_pos_site_id
 _symmetry_equiv_pos_as_xyz
  1  'x, y, z'
loop_
 _atom_site_type_symbol
 _atom_site_label
 _atom_site_symmetry_multiplicity
 _atom_site_fract_x
 _atom_site_fract_y
 _atom_site_fract_z
 _atom_site_occupancy
  Mn  Mn0  1  0.65617435  0.65617435  0.75000000  1.0
  Mn  Mn1  1  0.34382565  0.34382565  0.25000000  1.0
  Nb  Nb2  1  0.27510548  0.04385701  0.73313456  1.0
  Nb  Nb3  1  0.95614299  0.72489452  0.23313456  1.0
  Nb  Nb4  1  1.04385701  0.27510548  0.76686544  1.0
  Nb  Nb5  1  0.72489452  -0.04385701  0.26686544  1.0
  Zn  Zn6  1  0.43416177  -0.12671221  0.76606661  1.0
  Zn  Zn7  1  1.12671221  0.56583823  0.26606661  1.0
  Zn  Zn8  1  0.87328779  0.43416177  0.73393339  1.0
  Zn  Zn9  1  0.56583823  0.12671221  0.23393339  1.0
  O  O10  1  0.81591823  -0.04370692  0.93143018  1.0
  O  O11  1  1.04370692  0.18408177  0.43143018  1.0
  O  O12  1  0.95629308  0.81591823  0.56856982  1.0
  O  O13  1  0.18408177  0.04370692  0.06856982  1.0
  O  O14  1  0.71724153  0.07476108  0.56411717  1.0
  O  O15  1  0.92523892  0.28275847  0.06411717  1.0
  O  O16  1  1.07476108  0.71724153  0.93588283  1.0
  O  O17  1  0.28275847  -0.07476108  0.43588283  1.0
  O  O18  1  0.54656788  0.15985218  0.86325881  1.0
  O  O19  1  0.84014782  0.45343212  0.36325881  1.0
  O  O20  1  1.15985218  0.54656788  0.63674119  1.0
  O  O21  1  0.45343212  -0.15985218  0.13674119  1.0
  O  O22  1  1.31378234  0.43136261  0.91113755  1.0
  O  O23  1  0.56863739  -0.31378234  0.41113755  1.0
  O  O24  1  0.43136261  0.31378234  0.58886245  1.0
  O  O25  1  0.68621766  0.56863739  0.08886245  1.0
