# generated using pymatgen
data_SnWO4
_symmetry_space_group_name_H-M   'P 1'
_cell_length_a   5.70550036
_cell_length_b   11.84581298
_cell_length_c   5.08171723
_cell_angle_alpha   90.00000000
_cell_angle_beta   90.00000000
_cell_angle_gamma   90.00000000
_symmetry_Int_Tables_number   1
_chemical_formula_structural   SnWO4
_chemical_formula_sum   'Sn4 W4 O16'
_cell_volume   343.45441502
_cell_formula_units_Z   4
loop_
 _symmetry_equiv_pos_site_id
 _symmetry_equiv_pos_as_xyz
  1  'x, y, z'
loop_
 _atom_site_type_symbol
 _atom_site_label
 _atom_site_symmetry_multiplicity
 _atom_site_fract_x
 _atom_site_fract_y
 _atom_site_fract_z
 _atom_site_occupancy
  Sn  Sn0  1  0.25000000  0.00000000  0.78711957  1.0
  Sn  Sn1  1  0.25000000  0.50000000  0.71288043  1.0
  Sn  Sn2  1  0.75000000  0.00000000  0.21288043  1.0
  Sn  Sn3  1  0.75000000  0.50000000  0.28711957  1.0
  W  W4  1  0.34066175  0.75000000  0.25000000  1.0
  W  W5  1  0.84066175  0.75000000  0.75000000  1.0
  W  W6  1  0.65933825  0.25000000  0.75000000  1.0
  W  W7  1  0.15933825  0.25000000  0.25000000  1.0
  O  O8  1  0.40462033  0.89494575  0.10436670  1.0
  O  O9  1  0.40462033  0.60505425  0.39563330  1.0
  O  O10  1  0.90462033  0.89494575  0.89563330  1.0
  O  O11  1  0.90462033  0.60505425  0.60436670  1.0
  O  O12  1  0.59537967  0.39494575  0.60436670  1.0
  O  O13  1  0.59537967  0.10505425  0.89563330  1.0
  O  O14  1  0.09537967  0.39494575  0.39563330  1.0
  O  O15  1  0.09537967  0.10505425  0.10436670  1.0
  O  O16  1  0.13346451  0.70394392  0.00120762  1.0
  O  O17  1  0.13346451  0.79605608  0.49879238  1.0
  O  O18  1  0.63346451  0.70394392  0.99879238  1.0
  O  O19  1  0.63346451  0.79605608  0.50120762  1.0
  O  O20  1  0.86653549  0.20394392  0.50120762  1.0
  O  O21  1  0.86653549  0.29605608  0.99879238  1.0
  O  O22  1  0.36653549  0.20394392  0.49879238  1.0
  O  O23  1  0.36653549  0.29605608  0.00120762  1.0
