# generated using pymatgen
data_NbS3
_symmetry_space_group_name_H-M   'P 1'
_cell_length_a   10.30066648
_cell_length_b   3.36612887
_cell_length_c   15.30712033
_cell_angle_alpha   90.00000000
_cell_angle_beta   111.18255306
_cell_angle_gamma   90.00000000
_symmetry_Int_Tables_number   1
_chemical_formula_structural   NbS3
_chemical_formula_sum   'Nb6 S18'
_cell_volume   494.88877460
_cell_formula_units_Z   6
loop_
 _symmetry_equiv_pos_site_id
 _symmetry_equiv_pos_as_xyz
  1  'x, y, z'
loop_
 _atom_site_type_symbol
 _atom_site_label
 _atom_site_symmetry_multiplicity
 _atom_site_fract_x
 _atom_site_fract_y
 _atom_site_fract_z
 _atom_site_occupancy
  Nb  Nb0  1  0.37699675  0.25000000  0.70915262  1.0
  Nb  Nb1  1  0.62300325  0.75000000  0.29084738  1.0
  Nb  Nb2  1  0.35037262  0.25000000  0.03842631  1.0
  Nb  Nb3  1  0.64962738  0.75000000  0.96157369  1.0
  Nb  Nb4  1  0.02156779  0.25000000  0.38490551  1.0
  Nb  Nb5  1  0.97843221  0.75000000  0.61509449  1.0
  S  S6  1  0.93934454  0.25000000  0.72651357  1.0
  S  S7  1  0.06065546  0.75000000  0.27348643  1.0
  S  S8  1  0.81434917  0.25000000  0.93359967  1.0
  S  S9  1  0.18565083  0.75000000  0.06640033  1.0
  S  S10  1  0.81552180  0.25000000  0.06975107  1.0
  S  S11  1  0.18447820  0.75000000  0.93024893  1.0
  S  S12  1  0.77825903  0.25000000  0.25131064  1.0
  S  S13  1  0.22174097  0.75000000  0.74868936  1.0
  S  S14  1  0.78395065  0.25000000  0.59053127  1.0
  S  S15  1  0.21604935  0.75000000  0.40946873  1.0
  S  S16  1  0.60803166  0.25000000  0.40558659  1.0
  S  S17  1  0.39196834  0.75000000  0.59441341  1.0
  S  S18  1  0.45618950  0.25000000  0.90668900  1.0
  S  S19  1  0.54381050  0.75000000  0.09331100  1.0
  S  S20  1  0.42859710  0.25000000  0.21853159  1.0
  S  S21  1  0.57140290  0.75000000  0.78146841  1.0
  S  S22  1  0.12125865  0.25000000  0.56709302  1.0
  S  S23  1  0.87874135  0.75000000  0.43290698  1.0
