# generated using pymatgen
data_Y5Ga3
_symmetry_space_group_name_H-M   'P 1'
_cell_length_a   7.64321016
_cell_length_b   7.64321016
_cell_length_c   14.22618885
_cell_angle_alpha   90.00000000
_cell_angle_beta   90.00000000
_cell_angle_gamma   90.00000000
_symmetry_Int_Tables_number   1
_chemical_formula_structural   Y5Ga3
_chemical_formula_sum   'Y20 Ga12'
_cell_volume   831.07491144
_cell_formula_units_Z   4
loop_
 _symmetry_equiv_pos_site_id
 _symmetry_equiv_pos_as_xyz
  1  'x, y, z'
loop_
 _atom_site_type_symbol
 _atom_site_label
 _atom_site_symmetry_multiplicity
 _atom_site_fract_x
 _atom_site_fract_y
 _atom_site_fract_z
 _atom_site_occupancy
  Y  Y0  1  0.00000000  0.50000000  0.76750836  1.0
  Y  Y1  1  0.00000000  0.50000000  0.26750836  1.0
  Y  Y2  1  0.50000000  0.00000000  0.23249164  1.0
  Y  Y3  1  0.50000000  0.00000000  0.73249164  1.0
  Y  Y4  1  0.68031419  0.65840112  0.60339516  1.0
  Y  Y5  1  0.68031419  0.34159888  0.10339516  1.0
  Y  Y6  1  0.81968581  0.84159888  0.39660484  1.0
  Y  Y7  1  0.18031419  0.84159888  0.89660484  1.0
  Y  Y8  1  0.31968581  0.34159888  0.60339516  1.0
  Y  Y9  1  0.31968581  0.65840112  0.10339516  1.0
  Y  Y10  1  0.18031419  0.15840112  0.39660484  1.0
  Y  Y11  1  0.81968581  0.15840112  0.89660484  1.0
  Y  Y12  1  0.65840112  0.31968581  0.39660484  1.0
  Y  Y13  1  0.34159888  0.31968581  0.89660484  1.0
  Y  Y14  1  0.15840112  0.81968581  0.60339516  1.0
  Y  Y15  1  0.84159888  0.81968581  0.10339516  1.0
  Y  Y16  1  0.34159888  0.68031419  0.39660484  1.0
  Y  Y17  1  0.65840112  0.68031419  0.89660484  1.0
  Y  Y18  1  0.84159888  0.18031419  0.60339516  1.0
  Y  Y19  1  0.15840112  0.18031419  0.10339516  1.0
  Ga  Ga20  1  0.00000000  0.50000000  0.49376730  1.0
  Ga  Ga21  1  0.00000000  0.50000000  0.99376730  1.0
  Ga  Ga22  1  0.50000000  0.00000000  0.50623270  1.0
  Ga  Ga23  1  0.50000000  0.00000000  0.00623270  1.0
  Ga  Ga24  1  0.87721061  0.87721061  0.75000000  1.0
  Ga  Ga25  1  0.87721061  0.12278939  0.25000000  1.0
  Ga  Ga26  1  0.62278939  0.62278939  0.25000000  1.0
  Ga  Ga27  1  0.37721061  0.62278939  0.75000000  1.0
  Ga  Ga28  1  0.12278939  0.12278939  0.75000000  1.0
  Ga  Ga29  1  0.12278939  0.87721061  0.25000000  1.0
  Ga  Ga30  1  0.37721061  0.37721061  0.25000000  1.0
  Ga  Ga31  1  0.62278939  0.37721061  0.75000000  1.0
