# generated using pymatgen
data_BiB4(HO3)3
_symmetry_space_group_name_H-M   'P 1'
_cell_length_a   8.91871913
_cell_length_b   4.36702527
_cell_length_c   10.67398398
_cell_angle_alpha   98.81030254
_cell_angle_beta   114.25934375
_cell_angle_gamma   89.13026194
_symmetry_Int_Tables_number   1
_chemical_formula_structural   BiB4(HO3)3
_chemical_formula_sum   'Bi2 B8 H6 O18'
_cell_volume   374.02334661
_cell_formula_units_Z   2
loop_
 _symmetry_equiv_pos_site_id
 _symmetry_equiv_pos_as_xyz
  1  'x, y, z'
loop_
 _atom_site_type_symbol
 _atom_site_label
 _atom_site_symmetry_multiplicity
 _atom_site_fract_x
 _atom_site_fract_y
 _atom_site_fract_z
 _atom_site_occupancy
  Bi  Bi0  1  -0.76602542  -0.19551894  -0.16766013  1.0
  Bi  Bi1  1  -0.41502013  -0.45547690  -0.24926061  1.0
  B  B2  1  -0.44158131  -0.05584461  -0.54894527  1.0
  B  B3  1  -0.29639180  -0.19979134  -0.69443842  1.0
  B  B4  1  -0.17971504  -0.32131461  -0.44970204  1.0
  B  B5  1  -1.00156129  -0.32922016  -0.96700873  1.0
  B  B6  1  -0.88487017  -0.45105235  -0.72236273  1.0
  B  B7  1  -0.73978375  -0.59491141  -0.86794673  1.0
  B  B8  1  -0.02437570  -0.78472087  -0.34178058  1.0
  B  B9  1  -0.15693325  -0.86590831  -0.07493224  1.0
  H  H10  1  -0.74352132  -0.29502904  -0.42532450  1.0
  H  H11  1  -0.18125030  -0.25263544  -0.82109237  1.0
  H  H12  1  -0.99991985  -0.39799245  -0.59561656  1.0
  H  H13  1  -0.43773470  -0.35719398  0.00834870  1.0
  H  H14  1  -0.62976387  -0.78263242  -0.60175333  1.0
  H  H15  1  -0.55159401  -0.86816409  -0.81525667  1.0
  O  O16  1  -0.02331282  -0.01948171  -0.00216632  1.0
  O  O17  1  -0.31396072  0.01752080  -0.15844117  1.0
  O  O18  1  -0.43188625  -0.06767104  -0.67747838  1.0
  O  O19  1  -0.04207783  -0.10549961  -0.34563250  1.0
  O  O20  1  -0.29018472  -0.19600807  -0.81997742  1.0
  O  O21  1  -0.66549928  -0.22525419  -0.32712995  1.0
  O  O22  1  -0.33918421  -0.21964145  -0.45126702  1.0
  O  O23  1  -1.00349948  -0.32838412  -0.82770247  1.0
  O  O24  1  -0.17769165  -0.32210850  -0.58899186  1.0
  O  O25  1  -0.84214952  -0.43093082  -0.96555311  1.0
  O  O26  1  -0.51572810  -0.42638948  -0.08988938  1.0
  O  O27  1  -0.89108049  -0.45501794  -0.59683745  1.0
  O  O28  1  -0.13926976  -0.54507456  -0.07100094  1.0
  O  O29  1  -0.74948046  -0.58336773  -0.73942628  1.0
  O  O30  1  -0.15798769  -0.63106919  -0.41452571  1.0
  O  O31  1  -0.86729838  -0.66826259  -0.25840522  1.0
  O  O32  1  -0.62195367  -0.76316997  -0.89355917  1.0
  O  O33  1  -0.55941305  -0.88748293  -0.52338345  1.0
