# generated using pymatgen
data_KNb3O8
_symmetry_space_group_name_H-M   'P 1'
_cell_length_a   10.97861203
_cell_length_b   10.97861203
_cell_length_c   9.06287525
_cell_angle_alpha   90.00000000
_cell_angle_beta   90.00000000
_cell_angle_gamma   159.98047453
_symmetry_Int_Tables_number   1
_chemical_formula_structural   KNb3O8
_chemical_formula_sum   'K2 Nb6 O16'
_cell_volume   373.95468156
_cell_formula_units_Z   2
loop_
 _symmetry_equiv_pos_site_id
 _symmetry_equiv_pos_as_xyz
  1  'x, y, z'
loop_
 _atom_site_type_symbol
 _atom_site_label
 _atom_site_symmetry_multiplicity
 _atom_site_fract_x
 _atom_site_fract_y
 _atom_site_fract_z
 _atom_site_occupancy
  K  K0  1  -0.51740793  0.51740793  0.25000000  1.0
  K  K1  1  -0.48259207  1.48259207  0.75000000  1.0
  Nb  Nb2  1  -0.86740524  0.86740524  0.44004864  1.0
  Nb  Nb3  1  -0.86740524  0.86740524  0.05995136  1.0
  Nb  Nb4  1  -0.13259476  1.13259476  0.94004864  1.0
  Nb  Nb5  1  -0.13259476  1.13259476  0.55995136  1.0
  Nb  Nb6  1  -0.25684050  1.25684050  0.25000000  1.0
  Nb  Nb7  1  -0.74315950  0.74315950  0.75000000  1.0
  O  O8  1  -0.91225327  0.91225327  0.25000000  1.0
  O  O9  1  -0.08774673  1.08774673  0.75000000  1.0
  O  O10  1  -0.34205953  1.34205953  0.40751368  1.0
  O  O11  1  -0.34205953  1.34205953  0.09248632  1.0
  O  O12  1  -0.65794047  0.65794047  0.90751368  1.0
  O  O13  1  -0.65794047  0.65794047  0.59248632  1.0
  O  O14  1  -0.93022367  0.93022367  0.93715821  1.0
  O  O15  1  -0.93022367  0.93022367  0.56284179  1.0
  O  O16  1  -0.06977633  1.06977633  0.43715821  1.0
  O  O17  1  -0.06977633  1.06977633  0.06284179  1.0
  O  O18  1  -0.78389231  0.78389231  0.25000000  1.0
  O  O19  1  -0.21610769  1.21610769  0.75000000  1.0
  O  O20  1  -0.79659282  0.79659282  0.90502019  1.0
  O  O21  1  -0.79659282  0.79659282  0.59497981  1.0
  O  O22  1  -0.20340718  1.20340718  0.40502019  1.0
  O  O23  1  -0.20340718  1.20340718  0.09497981  1.0
