# generated using pymatgen
data_K4Ba(SiO3)3
_symmetry_space_group_name_H-M   'P 1'
_cell_length_a   7.33011072
_cell_length_b   7.33011072
_cell_length_c   11.26398415
_cell_angle_alpha   90.00000000
_cell_angle_beta   90.00000000
_cell_angle_gamma   111.78732160
_symmetry_Int_Tables_number   1
_chemical_formula_structural   K4Ba(SiO3)3
_chemical_formula_sum   'K8 Ba2 Si6 O18'
_cell_volume   561.98769195
_cell_formula_units_Z   2
loop_
 _symmetry_equiv_pos_site_id
 _symmetry_equiv_pos_as_xyz
  1  'x, y, z'
loop_
 _atom_site_type_symbol
 _atom_site_label
 _atom_site_symmetry_multiplicity
 _atom_site_fract_x
 _atom_site_fract_y
 _atom_site_fract_z
 _atom_site_occupancy
  K  K0  1  -0.24640454  1.24640454  0.50000000  1.0
  K  K1  1  -0.24640454  1.24640454  0.00000000  1.0
  K  K2  1  0.49155922  0.98625275  0.25000000  1.0
  K  K3  1  0.01374725  0.50844078  0.75000000  1.0
  K  K4  1  0.02010844  0.08515824  0.25000000  1.0
  K  K5  1  0.91484176  0.97989156  0.75000000  1.0
  K  K6  1  0.28887293  0.71112707  0.50000000  1.0
  K  K7  1  0.28887293  0.71112707  0.00000000  1.0
  Ba  Ba8  1  -0.48874105  1.49180392  0.25000000  1.0
  Ba  Ba9  1  -0.49180392  1.48874105  0.75000000  1.0
  Si  Si10  1  -0.16556097  1.77487363  0.47223841  1.0
  Si  Si11  1  -0.77487363  1.16556097  0.97223841  1.0
  Si  Si12  1  -0.77487363  1.16556097  0.52776159  1.0
  Si  Si13  1  -0.16556097  1.77487363  0.02776159  1.0
  Si  Si14  1  -0.01450073  1.56558575  0.25000000  1.0
  Si  Si15  1  -0.56558575  1.01450073  0.75000000  1.0
  O  O16  1  -0.64271470  1.19626817  0.40886806  1.0
  O  O17  1  -0.19626817  1.64271470  0.90886806  1.0
  O  O18  1  -0.19626817  1.64271470  0.59113194  1.0
  O  O19  1  -0.64271470  1.19626817  0.09113194  1.0
  O  O20  1  -0.05414674  1.68582203  0.36855838  1.0
  O  O21  1  -0.68582203  1.05414674  0.86855838  1.0
  O  O22  1  -0.68582203  1.05414674  0.63144162  1.0
  O  O23  1  -0.05414674  1.68582203  0.13144162  1.0
  O  O24  1  0.19958104  0.35448188  0.91139223  1.0
  O  O25  1  0.64551812  0.80041896  0.41139223  1.0
  O  O26  1  0.64551812  0.80041896  0.08860777  1.0
  O  O27  1  0.19958104  0.35448188  0.58860777  1.0
  O  O28  1  0.21419750  0.59465531  0.25000000  1.0
  O  O29  1  0.40534469  0.78580250  0.75000000  1.0
  O  O30  1  -0.17701264  1.34294927  0.25000000  1.0
  O  O31  1  -0.34294927  1.17701264  0.75000000  1.0
  O  O32  1  -0.00418405  0.00418405  0.50000000  1.0
  O  O33  1  -0.00418405  0.00418405  0.00000000  1.0
