# generated using pymatgen
data_AgBiSe2
_symmetry_space_group_name_H-M   'P 1'
_cell_length_a   4.19631847
_cell_length_b   4.19631847
_cell_length_c   19.85342089
_cell_angle_alpha   90.00000000
_cell_angle_beta   90.00000000
_cell_angle_gamma   120.00000000
_symmetry_Int_Tables_number   1
_chemical_formula_structural   AgBiSe2
_chemical_formula_sum   'Ag3 Bi3 Se6'
_cell_volume   302.76304397
_cell_formula_units_Z   3
loop_
 _symmetry_equiv_pos_site_id
 _symmetry_equiv_pos_as_xyz
  1  'x, y, z'
loop_
 _atom_site_type_symbol
 _atom_site_label
 _atom_site_symmetry_multiplicity
 _atom_site_fract_x
 _atom_site_fract_y
 _atom_site_fract_z
 _atom_site_occupancy
  Ag  Ag0  1  0.33333333  0.66666667  0.83332788  1.0
  Ag  Ag1  1  0.66666667  0.33333333  0.16667212  1.0
  Ag  Ag2  1  0.00000000  0.00000000  0.50000000  1.0
  Bi  Bi3  1  0.33333333  0.66666667  0.33334455  1.0
  Bi  Bi4  1  0.66666667  0.33333333  0.66665545  1.0
  Bi  Bi5  1  0.00000000  0.00000000  0.00000000  1.0
  Se  Se6  1  0.33333333  0.66666667  0.08767938  1.0
  Se  Se7  1  0.66666667  0.33333333  0.91232062  1.0
  Se  Se8  1  0.33333333  0.66666667  0.57898459  1.0
  Se  Se9  1  0.66666667  0.33333333  0.42101541  1.0
  Se  Se10  1  0.00000000  0.00000000  0.24565342  1.0
  Se  Se11  1  0.00000000  0.00000000  0.75434658  1.0
