# generated using pymatgen
data_SbH3NF6
_symmetry_space_group_name_H-M   'P 1'
_cell_length_a   7.23920153
_cell_length_b   7.23920153
_cell_length_c   11.29062916
_cell_angle_alpha   87.13161848
_cell_angle_beta   92.86838152
_cell_angle_gamma   65.26300100
_symmetry_Int_Tables_number   1
_chemical_formula_structural   SbH3NF6
_chemical_formula_sum   'Sb4 H12 N4 F24'
_cell_volume   535.08282854
_cell_formula_units_Z   4
loop_
 _symmetry_equiv_pos_site_id
 _symmetry_equiv_pos_as_xyz
  1  'x, y, z'
loop_
 _atom_site_type_symbol
 _atom_site_label
 _atom_site_symmetry_multiplicity
 _atom_site_fract_x
 _atom_site_fract_y
 _atom_site_fract_z
 _atom_site_occupancy
  Sb  Sb0  1  0.64680295  -0.35319705  0.25000000  1.0
  Sb  Sb1  1  1.35319705  0.35319705  0.75000000  1.0
  Sb  Sb2  1  -0.00000000  0.00000000  0.50000000  1.0
  Sb  Sb3  1  0.00000000  0.00000000  0.00000000  1.0
  H  H4  1  1.47867958  0.29497747  0.16409555  1.0
  H  H5  1  0.70502253  -0.47867958  0.66409555  1.0
  H  H6  1  1.29497747  0.47867958  0.33590445  1.0
  H  H7  1  0.52132042  -0.29497747  0.83590445  1.0
  H  H8  1  1.47325097  0.23311308  0.35346002  1.0
  H  H9  1  0.76688692  -0.47325097  0.85346002  1.0
  H  H10  1  1.23311308  0.47325097  0.14653998  1.0
  H  H11  1  0.52674903  -0.23311308  0.64653998  1.0
  H  H12  1  1.21947162  0.28103189  0.34376085  1.0
  H  H13  1  0.71896811  -0.21947162  0.84376085  1.0
  H  H14  1  1.28103189  0.21947162  0.15623915  1.0
  H  H15  1  0.78052838  -0.28103189  0.65623915  1.0
  N  N16  1  1.32826711  0.33029396  0.31428159  1.0
  N  N17  1  0.66970604  -0.32826711  0.81428159  1.0
  N  N18  1  1.33029396  0.32826711  0.18571841  1.0
  N  N19  1  0.67173289  -0.33029396  0.68571841  1.0
  F  F20  1  0.84841220  -0.07758060  0.87993371  1.0
  F  F21  1  1.07758060  0.15158780  0.37993371  1.0
  F  F22  1  0.92241940  -0.15158780  0.62006629  1.0
  F  F23  1  1.15158780  0.07758060  0.12006629  1.0
  F  F24  1  0.57910229  -0.28142806  0.08231086  1.0
  F  F25  1  1.28142806  0.42089771  0.58231086  1.0
  F  F26  1  0.71857194  -0.42089771  0.41768914  1.0
  F  F27  1  1.42089771  0.28142806  0.91768914  1.0
  F  F28  1  1.79671439  0.02331469  0.10624481  1.0
  F  F29  1  0.97668531  -0.79671439  0.60624481  1.0
  F  F30  1  1.02331469  0.79671439  0.39375519  1.0
  F  F31  1  0.20328561  -0.02331469  0.89375519  1.0
  F  F32  1  0.37059765  -0.31286292  0.27774562  1.0
  F  F33  1  1.31286292  0.62940235  0.77774562  1.0
  F  F34  1  0.68713708  -0.62940235  0.22225438  1.0
  F  F35  1  1.62940235  0.31286292  0.72225438  1.0
  F  F36  1  0.57349246  -0.07090583  0.27512727  1.0
  F  F37  1  1.07090583  0.42650754  0.77512727  1.0
  F  F38  1  0.92909417  -0.42650754  0.22487273  1.0
  F  F39  1  1.42650754  0.07090583  0.72487273  1.0
  F  F40  1  1.71271503  0.14738249  0.44798088  1.0
  F  F41  1  0.85261751  -0.71271503  0.94798088  1.0
  F  F42  1  1.14738249  0.71271503  0.05201912  1.0
  F  F43  1  0.28728497  -0.14738249  0.55201912  1.0
