# generated using pymatgen
data_Re4Ni5Mo6
_symmetry_space_group_name_H-M   'P 1'
_cell_length_a   9.18371502
_cell_length_b   9.18371502
_cell_length_c   4.91957119
_cell_angle_alpha   90.00000000
_cell_angle_beta   90.00000000
_cell_angle_gamma   90.00000000
_symmetry_Int_Tables_number   1
_chemical_formula_structural   Re4Ni5Mo6
_chemical_formula_sum   'Re8 Ni10 Mo12'
_cell_volume   414.91969275
_cell_formula_units_Z   2
loop_
 _symmetry_equiv_pos_site_id
 _symmetry_equiv_pos_as_xyz
  1  'x, y, z'
loop_
 _atom_site_type_symbol
 _atom_site_label
 _atom_site_symmetry_multiplicity
 _atom_site_fract_x
 _atom_site_fract_y
 _atom_site_fract_z
 _atom_site_occupancy
  Re  Re0  1  0.31717689  0.68282311  0.25201943  1.0
  Re  Re1  1  0.68282311  0.31717689  0.25201943  1.0
  Re  Re2  1  0.18282311  0.18282311  0.75201943  1.0
  Re  Re3  1  0.81717689  0.81717689  0.75201943  1.0
  Re  Re4  1  0.68282311  0.31717689  0.74798057  1.0
  Re  Re5  1  0.31717689  0.68282311  0.74798057  1.0
  Re  Re6  1  0.81717689  0.81717689  0.24798057  1.0
  Re  Re7  1  0.18282311  0.18282311  0.24798057  1.0
  Ni  Ni8  1  0.50000000  0.50000000  0.50000000  1.0
  Ni  Ni9  1  0.00000000  0.00000000  0.00000000  1.0
  Ni  Ni10  1  0.43383267  0.24308433  0.50000000  1.0
  Ni  Ni11  1  0.56616733  0.75691567  0.50000000  1.0
  Ni  Ni12  1  0.06616733  0.74308433  0.00000000  1.0
  Ni  Ni13  1  0.93383267  0.25691567  0.00000000  1.0
  Ni  Ni14  1  0.24308433  0.43383267  0.50000000  1.0
  Ni  Ni15  1  0.75691567  0.56616733  0.50000000  1.0
  Ni  Ni16  1  0.74308433  0.06616733  0.00000000  1.0
  Ni  Ni17  1  0.25691567  0.93383267  0.00000000  1.0
  Mo  Mo18  1  0.09829889  0.90170111  0.50000000  1.0
  Mo  Mo19  1  0.90170111  0.09829889  0.50000000  1.0
  Mo  Mo20  1  0.40170111  0.40170111  0.00000000  1.0
  Mo  Mo21  1  0.59829889  0.59829889  0.00000000  1.0
  Mo  Mo22  1  0.36995812  0.96264097  0.50000000  1.0
  Mo  Mo23  1  0.63004188  0.03735903  0.50000000  1.0
  Mo  Mo24  1  0.13004188  0.46264097  0.00000000  1.0
  Mo  Mo25  1  0.86995812  0.53735903  0.00000000  1.0
  Mo  Mo26  1  0.96264097  0.36995812  0.50000000  1.0
  Mo  Mo27  1  0.03735903  0.63004188  0.50000000  1.0
  Mo  Mo28  1  0.46264097  0.13004188  0.00000000  1.0
  Mo  Mo29  1  0.53735903  0.86995812  0.00000000  1.0
