# generated using pymatgen
data_VS2N3Cl2
_symmetry_space_group_name_H-M   'P 1'
_cell_length_a   7.87694673
_cell_length_b   8.15211800
_cell_length_c   5.77595150
_cell_angle_alpha   98.53322520
_cell_angle_beta   105.28511637
_cell_angle_gamma   89.03701390
_symmetry_Int_Tables_number   1
_chemical_formula_structural   VS2N3Cl2
_chemical_formula_sum   'V2 S4 N6 Cl4'
_cell_volume   353.71833580
_cell_formula_units_Z   2
loop_
 _symmetry_equiv_pos_site_id
 _symmetry_equiv_pos_as_xyz
  1  'x, y, z'
loop_
 _atom_site_type_symbol
 _atom_site_label
 _atom_site_symmetry_multiplicity
 _atom_site_fract_x
 _atom_site_fract_y
 _atom_site_fract_z
 _atom_site_occupancy
  V  V0  1  -0.99620344  -0.63623396  -0.74674417  1.0
  V  V1  1  -0.00379656  -0.36376604  -0.25325583  1.0
  S  S2  1  -0.71732421  -0.90935655  -0.73569186  1.0
  S  S3  1  -0.28267579  -0.09064345  -0.26430814  1.0
  S  S4  1  -0.70162022  -0.69044571  -0.28877822  1.0
  S  S5  1  -0.29837978  -0.30955429  -0.71122178  1.0
  N  N6  1  -0.88160412  -0.80192191  -0.84593605  1.0
  N  N7  1  -0.11839588  -0.19807809  -0.15406395  1.0
  N  N8  1  -0.63608122  -0.83960229  -0.45231114  1.0
  N  N9  1  -0.36391878  -0.16039771  -0.54768886  1.0
  N  N10  1  -0.87172464  -0.60234848  -0.43194570  1.0
  N  N11  1  -0.12827536  -0.39765152  -0.56805430  1.0
  Cl  Cl12  1  -0.81775756  -0.43298744  -0.85234227  1.0
  Cl  Cl13  1  -0.18224244  -0.56701256  -0.14765773  1.0
  Cl  Cl14  1  -0.24080067  -0.77371266  -0.74255597  1.0
  Cl  Cl15  1  -0.75919933  -0.22628734  -0.25744403  1.0
