# generated using pymatgen
data_Bi4Au
_symmetry_space_group_name_H-M   'P 1'
_cell_length_a   7.81709838
_cell_length_b   7.81709838
_cell_length_c   7.81709838
_cell_angle_alpha   60.00000000
_cell_angle_beta   60.00000000
_cell_angle_gamma   60.00000000
_symmetry_Int_Tables_number   1
_chemical_formula_structural   Bi4Au
_chemical_formula_sum   'Bi8 Au2'
_cell_volume   337.77051470
_cell_formula_units_Z   2
loop_
 _symmetry_equiv_pos_site_id
 _symmetry_equiv_pos_as_xyz
  1  'x, y, z'
loop_
 _atom_site_type_symbol
 _atom_site_label
 _atom_site_symmetry_multiplicity
 _atom_site_fract_x
 _atom_site_fract_y
 _atom_site_fract_z
 _atom_site_occupancy
  Bi  Bi0  1  -0.10183054  0.89816946  0.30549161  1.0
  Bi  Bi1  1  0.89816946  -0.69450839  0.89816946  1.0
  Bi  Bi2  1  0.35183054  0.35183054  0.35183054  1.0
  Bi  Bi3  1  -0.05549161  0.35183054  0.35183054  1.0
  Bi  Bi4  1  -0.69450839  0.89816946  0.89816946  1.0
  Bi  Bi5  1  0.89816946  -0.10183054  0.89816946  1.0
  Bi  Bi6  1  0.35183054  -0.05549161  0.35183054  1.0
  Bi  Bi7  1  0.35183054  0.35183054  -0.05549161  1.0
  Au  Au8  1  0.50000000  0.50000000  -0.50000000  1.0
  Au  Au9  1  0.75000000  -0.25000000  0.75000000  1.0
