# generated using pymatgen
data_Ba3MnSe3F2
_symmetry_space_group_name_H-M   'P 1'
_cell_length_a   15.49276053
_cell_length_b   4.33869363
_cell_length_c   14.09194833
_cell_angle_alpha   90.00000000
_cell_angle_beta   90.00000000
_cell_angle_gamma   90.00000000
_symmetry_Int_Tables_number   1
_chemical_formula_structural   Ba3MnSe3F2
_chemical_formula_sum   'Ba12 Mn4 Se12 F8'
_cell_volume   947.23739318
_cell_formula_units_Z   4
loop_
 _symmetry_equiv_pos_site_id
 _symmetry_equiv_pos_as_xyz
  1  'x, y, z'
loop_
 _atom_site_type_symbol
 _atom_site_label
 _atom_site_symmetry_multiplicity
 _atom_site_fract_x
 _atom_site_fract_y
 _atom_site_fract_z
 _atom_site_occupancy
  Ba  Ba0  1  0.07798891  0.75000000  0.89531778  1.0
  Ba  Ba1  1  0.57798891  0.75000000  0.60468222  1.0
  Ba  Ba2  1  0.92201109  0.25000000  0.10468222  1.0
  Ba  Ba3  1  0.42201109  0.25000000  0.39531778  1.0
  Ba  Ba4  1  0.29654369  0.75000000  0.62099175  1.0
  Ba  Ba5  1  0.79654369  0.75000000  0.87900825  1.0
  Ba  Ba6  1  0.70345631  0.25000000  0.37900825  1.0
  Ba  Ba7  1  0.20345631  0.25000000  0.12099175  1.0
  Ba  Ba8  1  0.36824492  0.75000000  0.89925638  1.0
  Ba  Ba9  1  0.86824492  0.75000000  0.60074362  1.0
  Ba  Ba10  1  0.63175508  0.25000000  0.10074362  1.0
  Ba  Ba11  1  0.13175508  0.25000000  0.39925638  1.0
  Mn  Mn12  1  0.41372204  0.75000000  0.17560417  1.0
  Mn  Mn13  1  0.91372204  0.75000000  0.32439583  1.0
  Mn  Mn14  1  0.58627796  0.25000000  0.82439583  1.0
  Mn  Mn15  1  0.08627796  0.25000000  0.67560417  1.0
  Se  Se16  1  0.05193504  0.75000000  0.23334275  1.0
  Se  Se17  1  0.55193504  0.75000000  0.26665725  1.0
  Se  Se18  1  0.94806496  0.25000000  0.76665725  1.0
  Se  Se19  1  0.44806496  0.25000000  0.73334275  1.0
  Se  Se20  1  0.08838451  0.75000000  0.57430132  1.0
  Se  Se21  1  0.58838451  0.75000000  0.92569868  1.0
  Se  Se22  1  0.91161549  0.25000000  0.42569868  1.0
  Se  Se23  1  0.41161549  0.25000000  0.07430132  1.0
  Se  Se24  1  0.28551245  0.75000000  0.28657421  1.0
  Se  Se25  1  0.78551245  0.75000000  0.21342579  1.0
  Se  Se26  1  0.71448755  0.25000000  0.71342579  1.0
  Se  Se27  1  0.21448755  0.25000000  0.78657421  1.0
  F  F28  1  0.22138313  0.75000000  0.00957985  1.0
  F  F29  1  0.72138313  0.75000000  0.49042015  1.0
  F  F30  1  0.77861687  0.25000000  0.99042015  1.0
  F  F31  1  0.27861687  0.25000000  0.50957985  1.0
  F  F32  1  0.42929952  0.75000000  0.50642930  1.0
  F  F33  1  0.92929952  0.75000000  0.99357070  1.0
  F  F34  1  0.57070048  0.25000000  0.49357070  1.0
  F  F35  1  0.07070048  0.25000000  0.00642930  1.0
