# generated using pymatgen
data_C2SCl(OF2)2
_symmetry_space_group_name_H-M   'P 1'
_cell_length_a   5.80319064
_cell_length_b   20.16139290
_cell_length_c   6.89143184
_cell_angle_alpha   90.00000000
_cell_angle_beta   115.26597398
_cell_angle_gamma   90.00000000
_symmetry_Int_Tables_number   1
_chemical_formula_structural   C2SCl(OF2)2
_chemical_formula_sum   'C8 S4 Cl4 O8 F16'
_cell_volume   729.16656055
_cell_formula_units_Z   4
loop_
 _symmetry_equiv_pos_site_id
 _symmetry_equiv_pos_as_xyz
  1  'x, y, z'
loop_
 _atom_site_type_symbol
 _atom_site_label
 _atom_site_symmetry_multiplicity
 _atom_site_fract_x
 _atom_site_fract_y
 _atom_site_fract_z
 _atom_site_occupancy
  C  C0  1  0.33856084  0.91892496  0.31868914  1.0
  C  C1  1  0.66143916  0.41892496  0.18131086  1.0
  C  C2  1  0.66143916  0.08107504  0.68131086  1.0
  C  C3  1  0.33856084  0.58107504  0.81868914  1.0
  C  C4  1  0.54957736  0.97055878  0.45207895  1.0
  C  C5  1  0.45042264  0.47055878  0.04792105  1.0
  C  C6  1  0.45042264  0.02944122  0.54792105  1.0
  C  C7  1  0.54957736  0.52944122  0.95207895  1.0
  S  S8  1  0.47559926  0.84792210  0.21075732  1.0
  S  S9  1  0.52440074  0.34792210  0.28924268  1.0
  S  S10  1  0.52440074  0.15207790  0.78924268  1.0
  S  S11  1  0.47559926  0.65207790  0.71075732  1.0
  Cl  Cl12  1  0.14000405  0.79837688  0.04394526  1.0
  Cl  Cl13  1  0.85999595  0.29837688  0.45605474  1.0
  Cl  Cl14  1  0.85999595  0.20162312  0.95605474  1.0
  Cl  Cl15  1  0.14000405  0.70162312  0.54394526  1.0
  O  O16  1  0.56044817  0.87578626  0.06005817  1.0
  O  O17  1  0.43955183  0.37578626  0.43994183  1.0
  O  O18  1  0.43955183  0.12421374  0.93994183  1.0
  O  O19  1  0.56044817  0.62421374  0.56005817  1.0
  O  O20  1  0.63672772  0.80752113  0.38987154  1.0
  O  O21  1  0.36327228  0.30752113  0.11012846  1.0
  O  O22  1  0.36327228  0.19247887  0.61012846  1.0
  O  O23  1  0.63672772  0.69247887  0.88987154  1.0
  F  F24  1  0.15436568  0.94853599  0.14677740  1.0
  F  F25  1  0.84563432  0.44853599  0.35322260  1.0
  F  F26  1  0.84563432  0.05146401  0.85322260  1.0
  F  F27  1  0.15436568  0.55146401  0.64677740  1.0
  F  F28  1  0.23634878  0.89066622  0.44158405  1.0
  F  F29  1  0.76365122  0.39066622  0.05841595  1.0
  F  F30  1  0.76365122  0.10933378  0.55841595  1.0
  F  F31  1  0.23634878  0.60933378  0.94158405  1.0
  F  F32  1  0.73678655  0.93768466  0.61675579  1.0
  F  F33  1  0.26321345  0.43768466  0.88324421  1.0
  F  F34  1  0.26321345  0.06231534  0.38324421  1.0
  F  F35  1  0.73678655  0.56231534  0.11675579  1.0
  F  F36  1  0.64800567  0.99653251  0.32114969  1.0
  F  F37  1  0.35199433  0.49653251  0.17885031  1.0
  F  F38  1  0.35199433  0.00346749  0.67885031  1.0
  F  F39  1  0.64800567  0.50346749  0.82114969  1.0
