# generated using pymatgen
data_Sr2LiSi2
_symmetry_space_group_name_H-M   'P 1'
_cell_length_a   12.68982143
_cell_length_b   12.01364885
_cell_length_c   10.53919927
_cell_angle_alpha   68.11956020
_cell_angle_beta   61.46402385
_cell_angle_gamma   50.41641595
_symmetry_Int_Tables_number   1
_chemical_formula_structural   Sr2LiSi2
_chemical_formula_sum   'Sr16 Li8 Si16'
_cell_volume   1082.31136119
_cell_formula_units_Z   8
loop_
 _symmetry_equiv_pos_site_id
 _symmetry_equiv_pos_as_xyz
  1  'x, y, z'
loop_
 _atom_site_type_symbol
 _atom_site_label
 _atom_site_symmetry_multiplicity
 _atom_site_fract_x
 _atom_site_fract_y
 _atom_site_fract_z
 _atom_site_occupancy
  Sr  Sr0  1  1.04145394  0.03007578  0.71967816  1.0
  Sr  Sr1  1  1.20879213  0.71967816  0.03007578  1.0
  Sr  Sr2  1  1.21992422  0.20854606  0.04120787  1.0
  Sr  Sr3  1  1.53032184  0.04120787  0.20854606  1.0
  Sr  Sr4  1  1.71967816  0.20879213  0.04145394  1.0
  Sr  Sr5  1  1.03007578  0.04145394  0.20879213  1.0
  Sr  Sr6  1  1.04120787  0.53032184  0.21992422  1.0
  Sr  Sr7  1  1.20854606  0.21992422  0.53032184  1.0
  Sr  Sr8  1  0.52012307  0.52967997  1.22033372  1.0
  Sr  Sr9  1  0.72986323  1.22033372  0.52967997  1.0
  Sr  Sr10  1  0.72032003  0.72987693  0.52013677  1.0
  Sr  Sr11  1  1.02966628  0.52013677  0.72987693  1.0
  Sr  Sr12  1  1.22033372  0.72986323  0.52012307  1.0
  Sr  Sr13  1  0.52967997  0.52012307  0.72986323  1.0
  Sr  Sr14  1  0.52013677  1.02966628  0.72032003  1.0
  Sr  Sr15  1  0.72987693  0.72032003  1.02966628  1.0
  Li  Li16  1  0.78777591  0.46332127  0.32031444  1.0
  Li  Li17  1  1.42858838  0.32031444  0.46332127  1.0
  Li  Li18  1  0.78667873  0.46222409  0.82141162  1.0
  Li  Li19  1  0.92968556  0.82141162  0.46222409  1.0
  Li  Li20  1  1.32031444  0.42858838  -0.21222409  1.0
  Li  Li21  1  1.46332127  -0.21222409  0.42858838  1.0
  Li  Li22  1  0.82141162  0.92968556  0.78667873  1.0
  Li  Li23  1  0.46222409  0.78667873  0.92968556  1.0
  Si  Si24  1  1.38452037  -0.13847156  0.68739546  1.0
  Si  Si25  1  1.06655573  0.68739546  -0.13847156  1.0
  Si  Si26  1  0.38847156  0.86547963  1.18344427  1.0
  Si  Si27  1  0.56260454  1.18344427  0.86547963  1.0
  Si  Si28  1  1.68739546  0.06655573  0.38452037  1.0
  Si  Si29  1  0.86152844  0.38452037  0.06655573  1.0
  Si  Si30  1  1.18344427  0.56260454  0.38847156  1.0
  Si  Si31  1  0.86547963  0.38847156  0.56260454  1.0
  Si  Si32  1  1.01443787  0.23881234  0.37493967  1.0
  Si  Si33  1  1.37181012  0.37493967  0.23881234  1.0
  Si  Si34  1  1.01118766  0.23556213  0.87818988  1.0
  Si  Si35  1  0.87506033  0.87818988  0.23556213  1.0
  Si  Si36  1  1.37493967  0.37181012  0.01443787  1.0
  Si  Si37  1  1.23881234  0.01443787  0.37181012  1.0
  Si  Si38  1  0.87818988  0.87506033  1.01118766  1.0
  Si  Si39  1  0.23556213  1.01118766  0.87506033  1.0
