# generated using pymatgen
data_LiH2ClO5
_symmetry_space_group_name_H-M   'P 1'
_cell_length_a   7.81900946
_cell_length_b   7.81900946
_cell_length_c   10.50031868
_cell_angle_alpha   69.59843154
_cell_angle_beta   110.40156846
_cell_angle_gamma   139.50053158
_symmetry_Int_Tables_number   1
_chemical_formula_structural   LiH2ClO5
_chemical_formula_sum   'Li4 H8 Cl4 O20'
_cell_volume   387.06546553
_cell_formula_units_Z   4
loop_
 _symmetry_equiv_pos_site_id
 _symmetry_equiv_pos_as_xyz
  1  'x, y, z'
loop_
 _atom_site_type_symbol
 _atom_site_label
 _atom_site_symmetry_multiplicity
 _atom_site_fract_x
 _atom_site_fract_y
 _atom_site_fract_z
 _atom_site_occupancy
  Li  Li0  1  1.00000000  0.50000000  0.50000000  1.0
  Li  Li1  1  0.50000000  -0.00000000  -0.00000000  1.0
  Li  Li2  1  0.59193453  0.59193453  0.25000000  1.0
  Li  Li3  1  0.40806547  0.40806547  0.75000000  1.0
  H  H4  1  0.65229011  0.45139548  0.51392714  1.0
  H  H5  1  0.45139548  -0.34770989  0.98607286  1.0
  H  H6  1  1.34770989  0.54860452  0.48607286  1.0
  H  H7  1  0.54860452  0.34770989  0.01392714  1.0
  H  H8  1  0.50581708  0.22628839  0.43177116  1.0
  H  H9  1  1.22628839  0.50581708  0.06822884  1.0
  H  H10  1  0.49418292  -0.22628839  0.56822884  1.0
  H  H11  1  0.77371161  0.49418292  0.93177116  1.0
  Cl  Cl12  1  0.19024570  -0.06785917  0.20717783  1.0
  Cl  Cl13  1  0.93214083  0.19024570  0.29282217  1.0
  Cl  Cl14  1  0.80975430  0.06785917  0.79282217  1.0
  Cl  Cl15  1  1.06785917  0.80975430  0.70717783  1.0
  O  O16  1  0.26301196  -0.15285188  0.15419184  1.0
  O  O17  1  0.84714812  0.26301196  0.34580816  1.0
  O  O18  1  0.73698804  0.15285188  0.84580816  1.0
  O  O19  1  1.15285188  0.73698804  0.65419184  1.0
  O  O20  1  0.36024076  0.21766407  0.16064882  1.0
  O  O21  1  1.21766407  0.36024076  0.33935118  1.0
  O  O22  1  0.63975924  -0.21766407  0.83935118  1.0
  O  O23  1  0.78233593  0.63975924  0.66064882  1.0
  O  O24  1  0.23021623  -0.11085733  0.35843539  1.0
  O  O25  1  0.88914267  0.23021623  0.14156461  1.0
  O  O26  1  0.76978377  0.11085733  0.64156461  1.0
  O  O27  1  1.11085733  0.76978377  0.85843539  1.0
  O  O28  1  0.91131415  0.78000140  0.15736546  1.0
  O  O29  1  0.78000140  -0.08868585  0.34263454  1.0
  O  O30  1  1.08868585  0.21999860  0.84263454  1.0
  O  O31  1  0.21999860  0.08868585  0.65736546  1.0
  O  O32  1  0.66164543  0.41798534  0.43597302  1.0
  O  O33  1  0.41798534  -0.33835457  0.06402698  1.0
  O  O34  1  1.33835457  0.58201466  0.56402698  1.0
  O  O35  1  0.58201466  0.33835457  0.93597302  1.0
