# generated using pymatgen
data_PbICl
_symmetry_space_group_name_H-M   'P 1'
_cell_length_a   8.70054995
_cell_length_b   4.41997237
_cell_length_c   10.82860989
_cell_angle_alpha   90.00000000
_cell_angle_beta   90.00000000
_cell_angle_gamma   90.00000000
_symmetry_Int_Tables_number   1
_chemical_formula_structural   PbICl
_chemical_formula_sum   'Pb4 I4 Cl4'
_cell_volume   416.42708304
_cell_formula_units_Z   4
loop_
 _symmetry_equiv_pos_site_id
 _symmetry_equiv_pos_as_xyz
  1  'x, y, z'
loop_
 _atom_site_type_symbol
 _atom_site_label
 _atom_site_symmetry_multiplicity
 _atom_site_fract_x
 _atom_site_fract_y
 _atom_site_fract_z
 _atom_site_occupancy
  Pb  Pb0  1  0.85592057  0.75000000  0.14549425  1.0
  Pb  Pb1  1  0.35592057  0.75000000  0.35450575  1.0
  Pb  Pb2  1  0.14407943  0.25000000  0.85450575  1.0
  Pb  Pb3  1  0.64407943  0.25000000  0.64549425  1.0
  I  I4  1  -0.00824679  0.75000000  0.67747771  1.0
  I  I5  1  0.49175321  0.75000000  0.82252229  1.0
  I  I6  1  1.00824679  0.25000000  0.32252229  1.0
  I  I7  1  0.50824679  0.25000000  0.17747771  1.0
  Cl  Cl8  1  0.65251765  0.75000000  0.45664423  1.0
  Cl  Cl9  1  0.15251765  0.75000000  0.04335577  1.0
  Cl  Cl10  1  0.34748235  0.25000000  0.54335577  1.0
  Cl  Cl11  1  0.84748235  0.25000000  0.95664423  1.0
