# generated using pymatgen
data_IrC4
_symmetry_space_group_name_H-M   'P 1'
_cell_length_a   4.86625253
_cell_length_b   4.86625253
_cell_length_c   3.91586488
_cell_angle_alpha   90.00000000
_cell_angle_beta   90.00000000
_cell_angle_gamma   90.00000000
_symmetry_Int_Tables_number   1
_chemical_formula_structural   IrC4
_chemical_formula_sum   'Ir2 C8'
_cell_volume   92.72930022
_cell_formula_units_Z   2
loop_
 _symmetry_equiv_pos_site_id
 _symmetry_equiv_pos_as_xyz
  1  'x, y, z'
loop_
 _atom_site_type_symbol
 _atom_site_label
 _atom_site_symmetry_multiplicity
 _atom_site_fract_x
 _atom_site_fract_y
 _atom_site_fract_z
 _atom_site_occupancy
  Ir  Ir0  1  0.50000000  0.50000000  0.00000000  1.0
  Ir  Ir1  1  0.00000000  0.00000000  0.00000000  1.0
  C  C2  1  0.25000470  0.75000464  0.32605578  1.0
  C  C3  1  0.74999530  0.24999536  0.32605578  1.0
  C  C4  1  0.75000464  0.25000470  0.67394422  1.0
  C  C5  1  0.24999536  0.74999530  0.67394422  1.0
  C  C6  1  0.25000470  0.24999536  0.67394422  1.0
  C  C7  1  0.74999530  0.75000464  0.67394422  1.0
  C  C8  1  0.75000464  0.74999530  0.32605578  1.0
  C  C9  1  0.24999536  0.25000470  0.32605578  1.0
