# generated using pymatgen
data_Co3B7BrO13
_symmetry_space_group_name_H-M   'P 1'
_cell_length_a   8.59515616
_cell_length_b   8.59515616
_cell_length_c   8.59515616
_cell_angle_alpha   60.00000000
_cell_angle_beta   60.00000000
_cell_angle_gamma   60.00000000
_symmetry_Int_Tables_number   1
_chemical_formula_structural   Co3B7BrO13
_chemical_formula_sum   'Co6 B14 Br2 O26'
_cell_volume   448.99997469
_cell_formula_units_Z   2
loop_
 _symmetry_equiv_pos_site_id
 _symmetry_equiv_pos_as_xyz
  1  'x, y, z'
loop_
 _atom_site_type_symbol
 _atom_site_label
 _atom_site_symmetry_multiplicity
 _atom_site_fract_x
 _atom_site_fract_y
 _atom_site_fract_z
 _atom_site_occupancy
  Co  Co0  1  0.50000000  -0.00000000  0.00000000  1.0
  Co  Co1  1  1.00000000  0.50000000  -0.50000000  1.0
  Co  Co2  1  -0.50000000  0.50000000  1.00000000  1.0
  Co  Co3  1  -0.00000000  0.50000000  0.00000000  1.0
  Co  Co4  1  -0.00000000  0.00000000  0.50000000  1.0
  Co  Co5  1  0.50000000  1.00000000  -0.50000000  1.0
  B  B6  1  0.91942188  0.91942188  -0.08057812  1.0
  B  B7  1  0.41942188  1.41942188  0.41942188  1.0
  B  B8  1  0.24173437  0.91942188  -0.08057812  1.0
  B  B9  1  -0.25826563  0.41942188  0.41942188  1.0
  B  B10  1  0.91942188  0.91942188  -0.75826563  1.0
  B  B11  1  0.41942188  1.41942188  -0.25826563  1.0
  B  B12  1  0.91942188  0.24173437  -0.08057812  1.0
  B  B13  1  0.41942188  -0.25826563  0.41942188  1.0
  B  B14  1  -0.75000000  0.75000000  0.75000000  1.0
  B  B15  1  -0.25000000  0.25000000  0.25000000  1.0
  B  B16  1  0.25000000  1.25000000  -0.25000000  1.0
  B  B17  1  -0.25000000  0.25000000  0.75000000  1.0
  B  B18  1  -0.25000000  0.75000000  0.25000000  1.0
  B  B19  1  0.25000000  -0.25000000  0.25000000  1.0
  Br  Br20  1  0.75000000  0.75000000  -0.25000000  1.0
  Br  Br21  1  0.25000000  0.25000000  0.25000000  1.0
  O  O22  1  0.74186154  1.06329891  -0.10297126  1.0
  O  O23  1  0.24186154  1.39702874  0.56329891  1.0
  O  O24  1  -0.70218920  0.89702874  1.06329891  1.0
  O  O25  1  -0.20218920  0.56329891  0.39702874  1.0
  O  O26  1  0.39702874  1.56329891  0.24186154  1.0
  O  O27  1  -0.10297126  0.74186154  1.06329891  1.0
  O  O28  1  -0.20218920  0.24186154  0.56329891  1.0
  O  O29  1  0.29781080  1.06329891  -0.25813846  1.0
  O  O30  1  1.06329891  0.89702874  -0.25813846  1.0
  O  O31  1  0.56329891  1.24186154  0.39702874  1.0
  O  O32  1  -0.70218920  0.74186154  0.89702874  1.0
  O  O33  1  -0.20218920  0.39702874  0.24186154  1.0
  O  O34  1  1.06329891  0.74186154  -0.70218920  1.0
  O  O35  1  0.39702874  1.24186154  -0.20218920  1.0
  O  O36  1  -0.10297126  0.29781080  0.74186154  1.0
  O  O37  1  0.56329891  -0.20218920  0.24186154  1.0
  O  O38  1  0.56329891  1.39702874  -0.20218920  1.0
  O  O39  1  -0.25813846  0.89702874  0.29781080  1.0
  O  O40  1  0.24186154  -0.20218920  0.39702874  1.0
  O  O41  1  1.06329891  0.29781080  -0.10297126  1.0
  O  O42  1  0.89702874  1.06329891  -0.70218920  1.0
  O  O43  1  0.24186154  1.56329891  -0.20218920  1.0
  O  O44  1  -0.25813846  0.29781080  1.06329891  1.0
  O  O45  1  0.39702874  -0.20218920  0.56329891  1.0
  O  O46  1  0.00000000  0.00000000  0.00000000  1.0
  O  O47  1  -0.50000000  0.50000000  0.50000000  1.0
