# generated using pymatgen
data_Lu2Pt
_symmetry_space_group_name_H-M   'P 1'
_cell_length_a   7.00757316
_cell_length_b   4.67904111
_cell_length_c   8.60604637
_cell_angle_alpha   90.00000000
_cell_angle_beta   90.00000000
_cell_angle_gamma   90.00000000
_symmetry_Int_Tables_number   1
_chemical_formula_structural   Lu2Pt
_chemical_formula_sum   'Lu8 Pt4'
_cell_volume   282.18126947
_cell_formula_units_Z   4
loop_
 _symmetry_equiv_pos_site_id
 _symmetry_equiv_pos_as_xyz
  1  'x, y, z'
loop_
 _atom_site_type_symbol
 _atom_site_label
 _atom_site_symmetry_multiplicity
 _atom_site_fract_x
 _atom_site_fract_y
 _atom_site_fract_z
 _atom_site_occupancy
  Lu  Lu0  1  0.98706951  0.75000000  0.66911562  1.0
  Lu  Lu1  1  0.48706951  0.75000000  0.83088438  1.0
  Lu  Lu2  1  0.01293049  0.25000000  0.33088438  1.0
  Lu  Lu3  1  0.51293049  0.25000000  0.16911562  1.0
  Lu  Lu4  1  0.85523120  0.75000000  0.07676271  1.0
  Lu  Lu5  1  0.35523120  0.75000000  0.42323729  1.0
  Lu  Lu6  1  0.14476880  0.25000000  0.92323729  1.0
  Lu  Lu7  1  0.64476880  0.25000000  0.57676271  1.0
  Pt  Pt8  1  0.75862969  0.75000000  0.40190414  1.0
  Pt  Pt9  1  0.25862969  0.75000000  0.09809586  1.0
  Pt  Pt10  1  0.24137031  0.25000000  0.59809586  1.0
  Pt  Pt11  1  0.74137031  0.25000000  0.90190414  1.0
