# generated using pymatgen
data_SrCoAsHO5
_symmetry_space_group_name_H-M   'P 1'
_cell_length_a   6.05249045
_cell_length_b   7.76457262
_cell_length_c   9.34491344
_cell_angle_alpha   90.00000000
_cell_angle_beta   90.00000000
_cell_angle_gamma   90.00000000
_symmetry_Int_Tables_number   1
_chemical_formula_structural   SrCoAsHO5
_chemical_formula_sum   'Sr4 Co4 As4 H4 O20'
_cell_volume   439.16422255
_cell_formula_units_Z   4
loop_
 _symmetry_equiv_pos_site_id
 _symmetry_equiv_pos_as_xyz
  1  'x, y, z'
loop_
 _atom_site_type_symbol
 _atom_site_label
 _atom_site_symmetry_multiplicity
 _atom_site_fract_x
 _atom_site_fract_y
 _atom_site_fract_z
 _atom_site_occupancy
  Sr  Sr0  1  0.02563345  0.37032322  0.83032120  1.0
  Sr  Sr1  1  0.52563345  0.12967678  0.16967880  1.0
  Sr  Sr2  1  0.97436655  0.87032322  0.66967880  1.0
  Sr  Sr3  1  0.47436655  0.62967678  0.33032120  1.0
  O  O4  1  0.93048633  0.20751548  0.06799356  1.0
  O  O5  1  0.43048633  0.29248452  0.93200644  1.0
  O  O6  1  0.06951367  0.70751548  0.43200644  1.0
  O  O7  1  0.56951367  0.79248452  0.56799356  1.0
  O  O8  1  0.26559137  0.64696222  0.77741248  1.0
  O  O9  1  0.76559137  0.85303778  0.22258752  1.0
  O  O10  1  0.73440863  0.14696222  0.72258752  1.0
  O  O11  1  0.23440863  0.35303778  0.27741248  1.0
  O  O12  1  0.74509846  0.61340420  0.79579592  1.0
  O  O13  1  0.24509846  0.88659580  0.20420408  1.0
  O  O14  1  0.25490154  0.11340420  0.70420408  1.0
  O  O15  1  0.75490154  0.38659580  0.29579592  1.0
  O  O16  1  0.99811459  0.89297759  0.93837110  1.0
  O  O17  1  0.49811459  0.60702241  0.06162890  1.0
  O  O18  1  0.00188541  0.39297759  0.56162890  1.0
  O  O19  1  0.50188541  0.10702241  0.43837110  1.0
  O  O20  1  0.00746093  0.55722618  0.06757514  1.0
  O  O21  1  0.50746093  0.94277382  0.93242486  1.0
  O  O22  1  0.99253907  0.05722618  0.43242486  1.0
  O  O23  1  0.49253907  0.44277382  0.56757514  1.0
  As  As24  1  0.98617339  0.37778501  0.18347917  1.0
  As  As25  1  0.48617339  0.12221499  0.81652083  1.0
  As  As26  1  0.01382661  0.87778501  0.31652083  1.0
  As  As27  1  0.51382661  0.62221499  0.68347917  1.0
  H  H28  1  0.99010788  1.00404405  0.99017389  1.0
  H  H29  1  0.49010788  0.49595595  0.00982611  1.0
  H  H30  1  0.00989212  0.50404405  0.50982611  1.0
  H  H31  1  0.50989212  -0.00404405  0.49017389  1.0
  Co  Co32  1  0.25824413  0.75880355  0.99417714  1.0
  Co  Co33  1  0.75824413  0.74119645  0.00582286  1.0
  Co  Co34  1  0.74175587  0.25880355  0.50582286  1.0
  Co  Co35  1  0.24175587  0.24119645  0.49417714  1.0
