# generated using pymatgen
data_CsCdCl3
_symmetry_space_group_name_H-M   'P 1'
_cell_length_a   7.56010650
_cell_length_b   7.56010650
_cell_length_c   18.81646048
_cell_angle_alpha   90.00000000
_cell_angle_beta   90.00000000
_cell_angle_gamma   120.00000000
_symmetry_Int_Tables_number   1
_chemical_formula_structural   CsCdCl3
_chemical_formula_sum   'Cs6 Cd6 Cl18'
_cell_volume   931.37460363
_cell_formula_units_Z   6
loop_
 _symmetry_equiv_pos_site_id
 _symmetry_equiv_pos_as_xyz
  1  'x, y, z'
loop_
 _atom_site_type_symbol
 _atom_site_label
 _atom_site_symmetry_multiplicity
 _atom_site_fract_x
 _atom_site_fract_y
 _atom_site_fract_z
 _atom_site_occupancy
  Cs  Cs0  1  0.33333333  0.66666667  0.41436299  1.0
  Cs  Cs1  1  0.33333333  0.66666667  0.08563701  1.0
  Cs  Cs2  1  0.66666667  0.33333333  0.91436299  1.0
  Cs  Cs3  1  0.66666667  0.33333333  0.58563701  1.0
  Cs  Cs4  1  0.00000000  0.00000000  0.25000000  1.0
  Cs  Cs5  1  0.00000000  0.00000000  0.75000000  1.0
  Cd  Cd6  1  0.33333333  0.66666667  0.83977448  1.0
  Cd  Cd7  1  0.33333333  0.66666667  0.66022552  1.0
  Cd  Cd8  1  0.66666667  0.33333333  0.33977448  1.0
  Cd  Cd9  1  0.66666667  0.33333333  0.16022552  1.0
  Cd  Cd10  1  0.00000000  0.00000000  0.50000000  1.0
  Cd  Cd11  1  0.00000000  0.00000000  0.00000000  1.0
  Cl  Cl12  1  0.16571183  0.83428817  0.91850801  1.0
  Cl  Cl13  1  0.16571183  0.83428817  0.58149199  1.0
  Cl  Cl14  1  0.16571183  0.33142365  0.91850801  1.0
  Cl  Cl15  1  0.16571183  0.33142365  0.58149199  1.0
  Cl  Cl16  1  0.83428817  0.16571183  0.41850801  1.0
  Cl  Cl17  1  0.83428817  0.16571183  0.08149199  1.0
  Cl  Cl18  1  0.83428817  0.66857635  0.41850801  1.0
  Cl  Cl19  1  0.83428817  0.66857635  0.08149199  1.0
  Cl  Cl20  1  0.66857635  0.83428817  0.91850801  1.0
  Cl  Cl21  1  0.66857635  0.83428817  0.58149199  1.0
  Cl  Cl22  1  0.33142365  0.16571183  0.41850801  1.0
  Cl  Cl23  1  0.33142365  0.16571183  0.08149199  1.0
  Cl  Cl24  1  0.50823319  0.49176681  0.25000000  1.0
  Cl  Cl25  1  0.50823319  0.01646637  0.25000000  1.0
  Cl  Cl26  1  0.49176681  0.50823319  0.75000000  1.0
  Cl  Cl27  1  0.49176681  0.98353363  0.75000000  1.0
  Cl  Cl28  1  0.98353363  0.49176681  0.25000000  1.0
  Cl  Cl29  1  0.01646637  0.50823319  0.75000000  1.0
