# generated using pymatgen
data_EuLuCuS3
_symmetry_space_group_name_H-M   'P 1'
_cell_length_a   6.66924779
_cell_length_b   6.66924779
_cell_length_c   10.02631706
_cell_angle_alpha   90.00000000
_cell_angle_beta   90.00000000
_cell_angle_gamma   146.32934839
_symmetry_Int_Tables_number   1
_chemical_formula_structural   EuLuCuS3
_chemical_formula_sum   'Eu2 Lu2 Cu2 S6'
_cell_volume   247.24790713
_cell_formula_units_Z   2
loop_
 _symmetry_equiv_pos_site_id
 _symmetry_equiv_pos_as_xyz
  1  'x, y, z'
loop_
 _atom_site_type_symbol
 _atom_site_label
 _atom_site_symmetry_multiplicity
 _atom_site_fract_x
 _atom_site_fract_y
 _atom_site_fract_z
 _atom_site_occupancy
  Eu  Eu0  1  -0.24767654  0.24767654  0.75000000  1.0
  Eu  Eu1  1  0.24767654  0.75232346  0.25000000  1.0
  Lu  Lu2  1  0.00000000  0.00000000  0.00000000  1.0
  Lu  Lu3  1  -0.00000000  -0.00000000  0.50000000  1.0
  Cu  Cu4  1  0.47477507  0.52522493  0.75000000  1.0
  Cu  Cu5  1  -0.47477507  0.47477507  0.25000000  1.0
  S  S6  1  0.36199019  0.63800981  0.93240042  1.0
  S  S7  1  0.36199019  0.63800981  0.56759958  1.0
  S  S8  1  -0.36199019  0.36199019  0.43240042  1.0
  S  S9  1  -0.36199019  0.36199019  0.06759958  1.0
  S  S10  1  0.08069176  0.91930824  0.75000000  1.0
  S  S11  1  -0.08069176  0.08069176  0.25000000  1.0
