# generated using pymatgen
data_K2InP2S7
_symmetry_space_group_name_H-M   'P 1'
_cell_length_a   9.15663533
_cell_length_b   9.15663533
_cell_length_c   8.82938753
_cell_angle_alpha   74.97360393
_cell_angle_beta   105.02639607
_cell_angle_gamma   108.18586711
_symmetry_Int_Tables_number   1
_chemical_formula_structural   K2InP2S7
_chemical_formula_sum   'K4 In2 P4 S14'
_cell_volume   666.30911742
_cell_formula_units_Z   2
loop_
 _symmetry_equiv_pos_site_id
 _symmetry_equiv_pos_as_xyz
  1  'x, y, z'
loop_
 _atom_site_type_symbol
 _atom_site_label
 _atom_site_symmetry_multiplicity
 _atom_site_fract_x
 _atom_site_fract_y
 _atom_site_fract_z
 _atom_site_occupancy
  K  K0  1  1.44524357  0.11051243  0.66116853  1.0
  K  K1  1  0.88948757  -0.44524357  0.66116853  1.0
  K  K2  1  1.11051243  0.44524357  0.33883147  1.0
  K  K3  1  0.55475643  -0.11051243  0.33883147  1.0
  In  In4  1  0.81202696  -0.18797304  -0.00000000  1.0
  In  In5  1  1.18797304  0.18797304  -0.00000000  1.0
  P  P6  1  0.88991003  -0.88991003  0.68968064  1.0
  P  P7  1  0.11008997  -0.11008997  0.31031936  1.0
  P  P8  1  0.55931014  -0.55931014  0.94024573  1.0
  P  P9  1  0.44068986  -0.44068986  0.05975427  1.0
  S  S10  1  0.80541338  -0.12898865  0.69426737  1.0
  S  S11  1  1.12898865  0.19458662  0.69426737  1.0
  S  S12  1  0.87101135  -0.19458662  0.30573263  1.0
  S  S13  1  1.19458662  0.12898865  0.30573263  1.0
  S  S14  1  0.51642044  -0.20410524  0.96753748  1.0
  S  S15  1  1.20410524  0.48357956  0.96753748  1.0
  S  S16  1  0.79589476  -0.48357956  0.03246252  1.0
  S  S17  1  1.48357956  0.20410524  0.03246252  1.0
  S  S18  1  0.86526772  -0.86526772  0.91352057  1.0
  S  S19  1  0.13473228  -0.13473228  0.08647943  1.0
  S  S20  1  0.76952998  -0.76952998  0.50162461  1.0
  S  S21  1  0.23047002  -0.23047002  0.49837539  1.0
  S  S22  1  0.50671478  -0.50671478  0.70215015  1.0
  S  S23  1  0.49328522  -0.49328522  0.29784985  1.0
