# generated using pymatgen
data_Na5Lu(MoO4)4
_symmetry_space_group_name_H-M   'P 1'
_cell_length_a   9.96602888
_cell_length_b   9.96602888
_cell_length_c   9.96602888
_cell_angle_alpha   109.59455666
_cell_angle_beta   109.59455666
_cell_angle_gamma   109.22482918
_symmetry_Int_Tables_number   1
_chemical_formula_structural   Na5Lu(MoO4)4
_chemical_formula_sum   'Na10 Lu2 Mo8 O32'
_cell_volume   761.97112384
_cell_formula_units_Z   2
loop_
 _symmetry_equiv_pos_site_id
 _symmetry_equiv_pos_as_xyz
  1  'x, y, z'
loop_
 _atom_site_type_symbol
 _atom_site_label
 _atom_site_symmetry_multiplicity
 _atom_site_fract_x
 _atom_site_fract_y
 _atom_site_fract_z
 _atom_site_occupancy
  Na  Na0  1  0.50000000  0.50000000  -0.00000000  1.0
  Na  Na1  1  0.25000000  0.75000000  0.50000000  1.0
  Na  Na2  1  0.33913363  1.01546184  0.91722176  1.0
  Na  Na3  1  1.09824008  0.42191187  1.08277824  1.0
  Na  Na4  1  0.76546184  1.34824008  1.17632821  1.0
  Na  Na5  1  1.17191187  1.58913363  0.82367179  1.0
  Na  Na6  1  1.41086637  1.23453816  1.58277824  1.0
  Na  Na7  1  0.65175992  0.82808813  0.41722176  1.0
  Na  Na8  1  0.98453816  0.90175992  1.32367179  1.0
  Na  Na9  1  1.57808813  1.66086637  1.67632821  1.0
  Lu  Lu10  1  1.00000000  1.00000000  1.00000000  1.0
  Lu  Lu11  1  0.75000000  0.25000000  0.50000000  1.0
  Mo  Mo12  1  0.44362255  0.35539114  0.27413575  1.0
  Mo  Mo13  1  1.08125539  1.16948680  1.72586425  1.0
  Mo  Mo14  1  1.10539114  1.33125539  1.41176859  1.0
  Mo  Mo15  1  0.91948680  0.69362255  1.58823141  1.0
  Mo  Mo16  1  1.30637745  0.89460886  1.22586425  1.0
  Mo  Mo17  1  0.66874461  1.08051320  0.77413575  1.0
  Mo  Mo18  1  0.64460886  0.91874461  1.08823141  1.0
  Mo  Mo19  1  0.83051320  1.55637745  0.91176859  1.0
  O  O20  1  0.52811810  0.56854364  0.39204754  1.0
  O  O21  1  1.17649609  1.13607056  1.60795246  1.0
  O  O22  1  1.31854364  1.42649609  1.54042554  1.0
  O  O23  1  0.88607056  0.77811810  1.45957446  1.0
  O  O24  1  1.22188190  0.68145636  1.10795246  1.0
  O  O25  1  0.57350391  1.11392944  0.89204754  1.0
  O  O26  1  0.43145636  0.82350391  0.95957446  1.0
  O  O27  1  0.86392944  1.47188190  1.04042554  1.0
  O  O28  1  0.49947242  1.32146063  1.11911765  1.0
  O  O29  1  1.20234298  0.38035477  0.88088235  1.0
  O  O30  1  1.07146063  0.45234298  1.32198821  1.0
  O  O31  1  0.13035477  0.74947242  0.67801179  1.0
  O  O32  1  1.25052758  0.92853937  1.38088235  1.0
  O  O33  1  0.54765702  0.86964523  0.61911765  1.0
  O  O34  1  0.67853937  0.79765702  0.17801179  1.0
  O  O35  1  1.61964523  1.50052758  1.82198821  1.0
  O  O36  1  1.22497419  1.27006982  1.17029063  1.0
  O  O37  1  1.09977919  1.05468356  1.82970937  1.0
  O  O38  1  1.02006982  1.34977919  0.54509563  1.0
  O  O39  1  0.80468356  0.47497419  0.45490437  1.0
  O  O40  1  0.52502581  0.97993018  1.32970937  1.0
  O  O41  1  0.65022081  1.19531644  0.67029063  1.0
  O  O42  1  1.72993018  0.90022081  0.95490437  1.0
  O  O43  1  0.94531644  0.77502581  1.04509563  1.0
  O  O44  1  1.51255715  1.27342381  1.40394123  1.0
  O  O45  1  0.86948258  1.10861592  0.59605877  1.0
  O  O46  1  1.02342381  1.11948258  1.26086666  1.0
  O  O47  1  1.85861592  1.76255715  1.73913334  1.0
  O  O48  1  0.23744285  0.97657619  1.09605877  1.0
  O  O49  1  0.88051742  0.14138408  0.90394123  1.0
  O  O50  1  0.72657619  1.13051742  1.23913334  1.0
  O  O51  1  0.89138408  1.48744285  0.76086666  1.0
