# generated using pymatgen
data_NaGdGeO4
_symmetry_space_group_name_H-M   'P 1'
_cell_length_a   11.64868561
_cell_length_b   6.61250098
_cell_length_c   5.36630294
_cell_angle_alpha   90.00000000
_cell_angle_beta   90.00000000
_cell_angle_gamma   90.00000000
_symmetry_Int_Tables_number   1
_chemical_formula_structural   NaGdGeO4
_chemical_formula_sum   'Na4 Gd4 Ge4 O16'
_cell_volume   413.34992179
_cell_formula_units_Z   4
loop_
 _symmetry_equiv_pos_site_id
 _symmetry_equiv_pos_as_xyz
  1  'x, y, z'
loop_
 _atom_site_type_symbol
 _atom_site_label
 _atom_site_symmetry_multiplicity
 _atom_site_fract_x
 _atom_site_fract_y
 _atom_site_fract_z
 _atom_site_occupancy
  Na  Na0  1  0.00000000  0.50000000  0.00000000  1.0
  Na  Na1  1  0.00000000  -0.00000000  -0.00000000  1.0
  Na  Na2  1  0.50000000  0.50000000  0.50000000  1.0
  Na  Na3  1  0.50000000  0.00000000  0.50000000  1.0
  Gd  Gd4  1  0.77842459  0.25000000  0.49753377  1.0
  Gd  Gd5  1  0.27842459  0.25000000  0.00246623  1.0
  Gd  Gd6  1  0.22157541  0.75000000  0.50246623  1.0
  Gd  Gd7  1  0.72157541  0.75000000  0.99753377  1.0
  Ge  Ge8  1  0.59674652  0.25000000  0.05655286  1.0
  Ge  Ge9  1  0.09674652  0.25000000  0.44344714  1.0
  Ge  Ge10  1  0.40325348  0.75000000  0.94344714  1.0
  Ge  Ge11  1  0.90325348  0.75000000  0.55655286  1.0
  O  O12  1  0.67243552  0.45549080  0.20759108  1.0
  O  O13  1  0.67243552  0.04450920  0.20759108  1.0
  O  O14  1  0.17243552  0.45549080  0.29240892  1.0
  O  O15  1  0.17243552  0.04450920  0.29240892  1.0
  O  O16  1  0.32756448  0.95549080  0.79240892  1.0
  O  O17  1  0.32756448  0.54450920  0.79240892  1.0
  O  O18  1  0.82756448  0.95549080  0.70759108  1.0
  O  O19  1  0.82756448  0.54450920  0.70759108  1.0
  O  O20  1  0.95568826  0.25000000  0.32244422  1.0
  O  O21  1  0.45568826  0.25000000  0.17755578  1.0
  O  O22  1  0.04431174  0.75000000  0.67755578  1.0
  O  O23  1  0.54431174  0.75000000  0.82244422  1.0
  O  O24  1  0.60960549  0.25000000  0.73139870  1.0
  O  O25  1  0.10960549  0.25000000  0.76860130  1.0
  O  O26  1  0.39039451  0.75000000  0.26860130  1.0
  O  O27  1  0.89039451  0.75000000  0.23139870  1.0
