# generated using pymatgen
data_Sc11Ga10
_symmetry_space_group_name_H-M   'P 1'
_cell_length_a   10.65535386
_cell_length_b   10.65535386
_cell_length_c   10.65535386
_cell_angle_alpha   121.35508026
_cell_angle_beta   121.35508026
_cell_angle_gamma   87.66853106
_symmetry_Int_Tables_number   1
_chemical_formula_structural   Sc11Ga10
_chemical_formula_sum   'Sc22 Ga20'
_cell_volume   837.16409639
_cell_formula_units_Z   2
loop_
 _symmetry_equiv_pos_site_id
 _symmetry_equiv_pos_as_xyz
  1  'x, y, z'
loop_
 _atom_site_type_symbol
 _atom_site_label
 _atom_site_symmetry_multiplicity
 _atom_site_fract_x
 _atom_site_fract_y
 _atom_site_fract_z
 _atom_site_occupancy
  Sc  Sc0  1  0.43944239  0.68499776  0.75444463  1.0
  Sc  Sc1  1  1.06944687  0.31500224  0.75444463  1.0
  Sc  Sc2  1  0.93055313  0.68499776  1.24555537  1.0
  Sc  Sc3  1  0.56055761  0.31500224  0.24555537  1.0
  Sc  Sc4  1  0.68499776  0.43944239  0.75444463  1.0
  Sc  Sc5  1  0.31500224  1.06944687  0.75444463  1.0
  Sc  Sc6  1  0.68499776  0.93055313  1.24555537  1.0
  Sc  Sc7  1  0.31500224  0.56055761  0.24555537  1.0
  Sc  Sc8  1  0.56766029  0.89525099  0.67240930  1.0
  Sc  Sc9  1  0.77715831  0.10474901  0.67240930  1.0
  Sc  Sc10  1  1.22284169  0.89525099  1.32759070  1.0
  Sc  Sc11  1  0.43233971  0.10474901  0.32759070  1.0
  Sc  Sc12  1  0.89525099  0.56766029  0.67240930  1.0
  Sc  Sc13  1  0.10474901  0.77715831  0.67240930  1.0
  Sc  Sc14  1  0.89525099  1.22284169  1.32759070  1.0
  Sc  Sc15  1  0.10474901  0.43233971  0.32759070  1.0
  Sc  Sc16  1  0.67787083  0.67787083  1.35574165  1.0
  Sc  Sc17  1  0.32212917  0.67787083  1.00000000  1.0
  Sc  Sc18  1  0.67787083  0.32212917  1.00000000  1.0
  Sc  Sc19  1  0.32212917  0.32212917  0.64425835  1.0
  Sc  Sc20  1  0.83300825  0.83300825  1.00000000  1.0
  Sc  Sc21  1  0.16699175  0.16699175  0.00000000  1.0
  Ga  Ga22  1  0.25000000  0.75000000  0.50000000  1.0
  Ga  Ga23  1  0.75000000  0.25000000  0.50000000  1.0
  Ga  Ga24  1  0.61697605  0.61697605  0.58727902  1.0
  Ga  Ga25  1  0.97030297  0.97030297  1.58727902  1.0
  Ga  Ga26  1  1.02969703  0.61697605  1.00000000  1.0
  Ga  Ga27  1  0.38302395  0.97030297  1.00000000  1.0
  Ga  Ga28  1  0.61697605  1.02969703  1.00000000  1.0
  Ga  Ga29  1  0.97030297  0.38302395  1.00000000  1.0
  Ga  Ga30  1  1.02969703  1.02969703  1.41272098  1.0
  Ga  Ga31  1  0.38302395  0.38302395  0.41272098  1.0
  Ga  Ga32  1  0.60254645  0.60254645  1.00000000  1.0
  Ga  Ga33  1  0.39745355  0.39745355  0.00000000  1.0
  Ga  Ga34  1  0.50000000  0.86744318  1.36744318  1.0
  Ga  Ga35  1  0.86744318  0.50000000  1.36744318  1.0
  Ga  Ga36  1  0.13255682  0.50000000  0.63255682  1.0
  Ga  Ga37  1  0.50000000  0.13255682  0.63255682  1.0
  Ga  Ga38  1  0.87437875  0.87437875  1.74875749  1.0
  Ga  Ga39  1  0.12562125  0.87437875  1.00000000  1.0
  Ga  Ga40  1  0.87437875  0.12562125  1.00000000  1.0
  Ga  Ga41  1  0.12562125  0.12562125  0.25124251  1.0
