# generated using pymatgen
data_Mg5(Si8Pt5)2
_symmetry_space_group_name_H-M   'P 1'
_cell_length_a   8.96937504
_cell_length_b   8.96937504
_cell_length_c   8.96937504
_cell_angle_alpha   60.00000000
_cell_angle_beta   60.00000000
_cell_angle_gamma   60.00000000
_symmetry_Int_Tables_number   1
_chemical_formula_structural   Mg5(Si8Pt5)2
_chemical_formula_sum   'Mg5 Si16 Pt10'
_cell_volume   510.23653498
_cell_formula_units_Z   1
loop_
 _symmetry_equiv_pos_site_id
 _symmetry_equiv_pos_as_xyz
  1  'x, y, z'
loop_
 _atom_site_type_symbol
 _atom_site_label
 _atom_site_symmetry_multiplicity
 _atom_site_fract_x
 _atom_site_fract_y
 _atom_site_fract_z
 _atom_site_occupancy
  Mg  Mg0  1  -0.34404528  0.65595472  0.65595472  1.0
  Mg  Mg1  1  1.03213584  0.65595472  -0.34404528  1.0
  Mg  Mg2  1  -0.34404528  0.65595472  1.03213584  1.0
  Mg  Mg3  1  0.65595472  1.03213584  -0.34404528  1.0
  Mg  Mg4  1  0.00000000  0.00000000  0.00000000  1.0
  Si  Si5  1  0.04424291  0.58858176  0.04424291  1.0
  Si  Si6  1  0.04424291  0.04424291  0.58858176  1.0
  Si  Si7  1  0.32293242  0.04424291  0.58858176  1.0
  Si  Si8  1  0.32293242  0.58858176  0.04424291  1.0
  Si  Si9  1  0.58858176  0.04424291  0.04424291  1.0
  Si  Si10  1  0.32293242  0.04424291  0.04424291  1.0
  Si  Si11  1  0.58858176  0.04424291  0.32293242  1.0
  Si  Si12  1  0.04424291  0.04424291  0.32293242  1.0
  Si  Si13  1  0.04424291  0.32293242  0.04424291  1.0
  Si  Si14  1  0.58858176  0.32293242  0.04424291  1.0
  Si  Si15  1  0.04424291  0.58858176  0.32293242  1.0
  Si  Si16  1  0.04424291  0.32293242  0.58858176  1.0
  Si  Si17  1  0.42731179  1.42731179  0.42731179  1.0
  Si  Si18  1  -0.28193538  0.42731179  0.42731179  1.0
  Si  Si19  1  0.42731179  1.42731179  -0.28193538  1.0
  Si  Si20  1  0.42731179  -0.28193538  0.42731179  1.0
  Pt  Pt21  1  -0.73222508  0.73222508  0.73222508  1.0
  Pt  Pt22  1  -0.26777492  0.73222508  0.26777492  1.0
  Pt  Pt23  1  -0.26777492  0.26777492  0.73222508  1.0
  Pt  Pt24  1  0.26777492  1.26777492  -0.26777492  1.0
  Pt  Pt25  1  0.26777492  -0.26777492  0.26777492  1.0
  Pt  Pt26  1  -0.26777492  0.26777492  0.26777492  1.0
  Pt  Pt27  1  0.87338905  0.87338905  -0.12661095  1.0
  Pt  Pt28  1  0.37983285  0.87338905  -0.12661095  1.0
  Pt  Pt29  1  0.87338905  0.87338905  -0.62016715  1.0
  Pt  Pt30  1  0.87338905  0.37983285  -0.12661095  1.0
