# generated using pymatgen
data_Tl2S5
_symmetry_space_group_name_H-M   'P 1'
_cell_length_a   6.89912802
_cell_length_b   7.20626731
_cell_length_c   16.80669949
_cell_angle_alpha   90.00000000
_cell_angle_beta   90.00000000
_cell_angle_gamma   90.00000000
_symmetry_Int_Tables_number   1
_chemical_formula_structural   Tl2S5
_chemical_formula_sum   'Tl8 S20'
_cell_volume   835.57801870
_cell_formula_units_Z   4
loop_
 _symmetry_equiv_pos_site_id
 _symmetry_equiv_pos_as_xyz
  1  'x, y, z'
loop_
 _atom_site_type_symbol
 _atom_site_label
 _atom_site_symmetry_multiplicity
 _atom_site_fract_x
 _atom_site_fract_y
 _atom_site_fract_z
 _atom_site_occupancy
  Tl  Tl0  1  0.28710527  0.38250315  0.53722988  1.0
  Tl  Tl1  1  0.78710527  0.11749685  0.46277012  1.0
  Tl  Tl2  1  0.71289473  0.88250315  0.96277012  1.0
  Tl  Tl3  1  0.21289473  0.61749685  0.03722988  1.0
  Tl  Tl4  1  0.05747823  0.82454291  0.64103555  1.0
  Tl  Tl5  1  0.55747823  0.67545709  0.35896445  1.0
  Tl  Tl6  1  0.94252177  0.32454291  0.85896445  1.0
  Tl  Tl7  1  0.44252177  0.17545709  0.14103555  1.0
  S  S8  1  0.43290789  0.62820883  0.80227958  1.0
  S  S9  1  0.93290789  0.87179117  0.19772042  1.0
  S  S10  1  0.56709211  0.12820883  0.69772042  1.0
  S  S11  1  0.06709211  0.37179117  0.30227958  1.0
  S  S12  1  0.43208127  0.38731896  0.87284446  1.0
  S  S13  1  0.93208127  0.11268104  0.12715554  1.0
  S  S14  1  0.56791873  0.88731896  0.62715554  1.0
  S  S15  1  0.06791873  0.61268104  0.37284446  1.0
  S  S16  1  0.41597651  0.93914896  0.52386707  1.0
  S  S17  1  0.91597651  0.56085104  0.47613293  1.0
  S  S18  1  0.58402349  0.43914896  0.97613293  1.0
  S  S19  1  0.08402349  0.06085104  0.02386707  1.0
  S  S20  1  0.24558121  0.81830694  0.85374005  1.0
  S  S21  1  0.74558121  0.68169306  0.14625995  1.0
  S  S22  1  0.75441879  0.31830694  0.64625995  1.0
  S  S23  1  0.25441879  0.18169306  0.35374005  1.0
  S  S24  1  0.96312821  0.74599760  0.82620001  1.0
  S  S25  1  0.46312821  0.75400240  0.17379999  1.0
  S  S26  1  0.03687179  0.24599760  0.67379999  1.0
  S  S27  1  0.53687179  0.25400240  0.32620001  1.0
