# generated using pymatgen
data_Ca3GeO
_symmetry_space_group_name_H-M   'P 1'
_cell_length_a   6.69755435
_cell_length_b   6.69755435
_cell_length_c   6.69755435
_cell_angle_alpha   90.10510306
_cell_angle_beta   120.07211353
_cell_angle_gamma   119.80673802
_symmetry_Int_Tables_number   1
_chemical_formula_structural   Ca3GeO
_chemical_formula_sum   'Ca6 Ge2 O2'
_cell_volume   212.63144730
_cell_formula_units_Z   2
loop_
 _symmetry_equiv_pos_site_id
 _symmetry_equiv_pos_as_xyz
  1  'x, y, z'
loop_
 _atom_site_type_symbol
 _atom_site_label
 _atom_site_symmetry_multiplicity
 _atom_site_fract_x
 _atom_site_fract_y
 _atom_site_fract_z
 _atom_site_occupancy
  Ca  Ca0  1  0.00000000  0.72871003  0.72871003  1.0
  Ca  Ca1  1  0.50000000  0.72871003  1.22871003  1.0
  Ca  Ca2  1  0.50000000  0.27128997  0.77128997  1.0
  Ca  Ca3  1  1.00000000  1.27128997  1.27128997  1.0
  Ca  Ca4  1  1.04175425  0.79175425  0.25000000  1.0
  Ca  Ca5  1  0.95824575  0.20824575  0.75000000  1.0
  Ge  Ge6  1  1.50118454  1.25118454  1.25000000  1.0
  Ge  Ge7  1  0.49881546  0.74881546  0.75000000  1.0
  O  O8  1  1.00000000  1.00000000  0.50000000  1.0
  O  O9  1  1.00000000  1.50000000  1.00000000  1.0
