# generated using pymatgen
data_Nb3As
_symmetry_space_group_name_H-M   'P 1'
_cell_length_a   10.49463616
_cell_length_b   10.49463616
_cell_length_c   5.28130185
_cell_angle_alpha   90.00000000
_cell_angle_beta   90.00000000
_cell_angle_gamma   90.00000000
_symmetry_Int_Tables_number   1
_chemical_formula_structural   Nb3As
_chemical_formula_sum   'Nb24 As8'
_cell_volume   581.66879241
_cell_formula_units_Z   8
loop_
 _symmetry_equiv_pos_site_id
 _symmetry_equiv_pos_as_xyz
  1  'x, y, z'
loop_
 _atom_site_type_symbol
 _atom_site_label
 _atom_site_symmetry_multiplicity
 _atom_site_fract_x
 _atom_site_fract_y
 _atom_site_fract_z
 _atom_site_occupancy
  Nb  Nb0  1  0.40246412  0.33424155  1.15816858  1.0
  Nb  Nb1  1  0.90246412  0.83424155  0.34183142  1.0
  Nb  Nb2  1  0.33424155  0.59753588  -0.15816858  1.0
  Nb  Nb3  1  0.83424155  0.09753588  0.65816858  1.0
  Nb  Nb4  1  0.59753588  0.66575845  1.15816858  1.0
  Nb  Nb5  1  0.09753588  0.16575845  0.34183142  1.0
  Nb  Nb6  1  0.66575845  0.40246412  -0.15816858  1.0
  Nb  Nb7  1  0.16575845  0.90246412  0.65816858  1.0
  Nb  Nb8  1  0.35866261  0.78371768  0.40081878  1.0
  Nb  Nb9  1  0.85866261  0.28371768  0.09918122  1.0
  Nb  Nb10  1  0.78371768  0.64133739  0.59918122  1.0
  Nb  Nb11  1  0.28371768  0.14133739  0.90081878  1.0
  Nb  Nb12  1  0.64133739  0.21628232  0.40081878  1.0
  Nb  Nb13  1  0.14133739  0.71628232  0.09918122  1.0
  Nb  Nb14  1  0.21628232  0.35866261  0.59918122  1.0
  Nb  Nb15  1  0.71628232  0.85866261  0.90081878  1.0
  Nb  Nb16  1  1.10925320  0.42396830  0.08432237  1.0
  Nb  Nb17  1  0.60925320  0.92396830  0.41567763  1.0
  Nb  Nb18  1  0.42396830  -0.10925320  0.91567763  1.0
  Nb  Nb19  1  0.92396830  0.39074680  0.58432237  1.0
  Nb  Nb20  1  -0.10925320  0.57603170  0.08432237  1.0
  Nb  Nb21  1  0.39074680  0.07603170  0.41567763  1.0
  Nb  Nb22  1  0.57603170  1.10925320  0.91567763  1.0
  Nb  Nb23  1  0.07603170  0.60925320  0.58432237  1.0
  As  As24  1  0.45067856  0.29757953  0.67193868  1.0
  As  As25  1  0.95067856  0.79757953  -0.17193868  1.0
  As  As26  1  0.29757953  0.54932144  0.32806132  1.0
  As  As27  1  0.79757953  0.04932144  1.17193868  1.0
  As  As28  1  0.54932144  0.70242047  0.67193868  1.0
  As  As29  1  0.04932144  0.20242047  -0.17193868  1.0
  As  As30  1  0.70242047  0.45067856  0.32806132  1.0
  As  As31  1  0.20242047  0.95067856  1.17193868  1.0
