# generated using pymatgen
data_Lu3Fe2Si3
_symmetry_space_group_name_H-M   'P 1'
_cell_length_a   5.50465653
_cell_length_b   5.50465653
_cell_length_c   13.30778741
_cell_angle_alpha   90.00000000
_cell_angle_beta   90.00000000
_cell_angle_gamma   137.02936424
_symmetry_Int_Tables_number   1
_chemical_formula_structural   Lu3Fe2Si3
_chemical_formula_sum   'Lu6 Fe4 Si6'
_cell_volume   274.85954912
_cell_formula_units_Z   2
loop_
 _symmetry_equiv_pos_site_id
 _symmetry_equiv_pos_as_xyz
  1  'x, y, z'
loop_
 _atom_site_type_symbol
 _atom_site_label
 _atom_site_symmetry_multiplicity
 _atom_site_fract_x
 _atom_site_fract_y
 _atom_site_fract_z
 _atom_site_occupancy
  Lu  Lu0  1  0.08004077  0.91995923  0.88751026  1.0
  Lu  Lu1  1  0.08004077  0.91995923  0.61248974  1.0
  Lu  Lu2  1  -0.08004077  0.08004077  0.38751026  1.0
  Lu  Lu3  1  -0.08004077  0.08004077  0.11248974  1.0
  Lu  Lu4  1  0.36379781  0.63620219  0.75000000  1.0
  Lu  Lu5  1  -0.36379781  0.36379781  0.25000000  1.0
  Fe  Fe6  1  0.21390339  0.78609661  0.41871033  1.0
  Fe  Fe7  1  0.21390339  0.78609661  0.08128967  1.0
  Fe  Fe8  1  -0.21390339  0.21390339  0.91871033  1.0
  Fe  Fe9  1  -0.21390339  0.21390339  0.58128967  1.0
  Si  Si10  1  0.37875358  0.62124642  0.96042961  1.0
  Si  Si11  1  0.37875358  0.62124642  0.53957039  1.0
  Si  Si12  1  -0.37875358  0.37875358  0.46042961  1.0
  Si  Si13  1  -0.37875358  0.37875358  0.03957039  1.0
  Si  Si14  1  -0.32666037  0.32666037  0.75000000  1.0
  Si  Si15  1  0.32666037  0.67333963  0.25000000  1.0
