# generated using pymatgen
data_RbCdH2I3O
_symmetry_space_group_name_H-M   'P 1'
_cell_length_a   7.85633436
_cell_length_b   7.85633436
_cell_length_c   8.72190320
_cell_angle_alpha   89.98769582
_cell_angle_beta   90.01230418
_cell_angle_gamma   92.76132755
_symmetry_Int_Tables_number   1
_chemical_formula_structural   RbCdH2I3O
_chemical_formula_sum   'Rb2 Cd2 H4 I6 O2'
_cell_volume   537.70812592
_cell_formula_units_Z   2
loop_
 _symmetry_equiv_pos_site_id
 _symmetry_equiv_pos_as_xyz
  1  'x, y, z'
loop_
 _atom_site_type_symbol
 _atom_site_label
 _atom_site_symmetry_multiplicity
 _atom_site_fract_x
 _atom_site_fract_y
 _atom_site_fract_z
 _atom_site_occupancy
  Rb  Rb0  1  0.42202756  -0.13926650  0.16609512  1.0
  Rb  Rb1  1  1.13926650  0.57797244  0.66609512  1.0
  Cd  Cd2  1  1.63487516  0.29425611  0.52249482  1.0
  Cd  Cd3  1  0.70574389  -0.63487516  1.02249482  1.0
  H  H4  1  1.06176156  0.63037707  0.26689988  1.0
  H  H5  1  0.36962293  -0.06176156  0.76689988  1.0
  H  H6  1  1.21084348  0.51133308  0.27818577  1.0
  H  H7  1  0.48866692  -0.21084348  0.77818577  1.0
  I  I8  1  0.65496960  -0.35008956  0.52551955  1.0
  I  I9  1  1.35008956  0.34503040  0.02551955  1.0
  I  I10  1  1.82524622  0.16213409  0.27129120  1.0
  I  I11  1  0.83786591  -0.82524622  0.77129120  1.0
  I  I12  1  1.30850654  0.14001934  0.52339922  1.0
  I  I13  1  0.85998066  -0.30850654  1.02339922  1.0
  O  O14  1  1.16631751  0.61318400  0.32561445  1.0
  O  O15  1  0.38681600  -0.16631751  0.82561445  1.0
