# generated using pymatgen
data_KXeO3F
_symmetry_space_group_name_H-M   'P 1'
_cell_length_a   7.52385577
_cell_length_b   8.40852810
_cell_length_c   7.05973862
_cell_angle_alpha   90.00000000
_cell_angle_beta   90.00000000
_cell_angle_gamma   90.00000000
_symmetry_Int_Tables_number   1
_chemical_formula_structural   KXeO3F
_chemical_formula_sum   'K4 Xe4 O12 F4'
_cell_volume   446.63120609
_cell_formula_units_Z   4
loop_
 _symmetry_equiv_pos_site_id
 _symmetry_equiv_pos_as_xyz
  1  'x, y, z'
loop_
 _atom_site_type_symbol
 _atom_site_label
 _atom_site_symmetry_multiplicity
 _atom_site_fract_x
 _atom_site_fract_y
 _atom_site_fract_z
 _atom_site_occupancy
  K  K0  1  0.12498294  0.65123614  0.97552064  1.0
  K  K1  1  0.62498294  0.84876386  0.97552064  1.0
  K  K2  1  0.87501706  0.34876386  0.47552064  1.0
  K  K3  1  0.37501706  0.15123614  0.47552064  1.0
  Xe  Xe4  1  0.40100613  0.63765514  0.49895595  1.0
  Xe  Xe5  1  0.90100613  0.86234486  0.49895595  1.0
  Xe  Xe6  1  0.59899387  0.36234486  -0.00104405  1.0
  Xe  Xe7  1  0.09899387  0.13765514  -0.00104405  1.0
  O  O8  1  0.39646073  0.71329150  0.25386905  1.0
  O  O9  1  0.89646073  0.78670850  0.25386905  1.0
  O  O10  1  0.60353927  0.28670850  0.75386905  1.0
  O  O11  1  0.10353927  0.21329150  0.75386905  1.0
  O  O12  1  0.30218372  0.81547329  0.61475370  1.0
  O  O13  1  0.80218372  0.68452671  0.61475370  1.0
  O  O14  1  0.69781628  0.18452671  0.11475370  1.0
  O  O15  1  0.19781628  0.31547329  0.11475370  1.0
  O  O16  1  0.20907230  0.50296170  0.51455418  1.0
  O  O17  1  0.70907230  0.99703830  0.51455418  1.0
  O  O18  1  0.79092770  0.49703830  0.01455418  1.0
  O  O19  1  0.29092770  0.00296170  0.01455418  1.0
  F  F20  1  0.45248985  0.57837699  0.85454647  1.0
  F  F21  1  0.95248985  0.92162301  0.85454647  1.0
  F  F22  1  0.54751015  0.42162301  0.35454647  1.0
  F  F23  1  0.04751015  0.07837699  0.35454647  1.0
