# generated using pymatgen
data_XeF3
_symmetry_space_group_name_H-M   'P 1'
_cell_length_a   7.16544384
_cell_length_b   7.71086730
_cell_length_c   6.65557703
_cell_angle_alpha   90.00000000
_cell_angle_beta   93.17374227
_cell_angle_gamma   90.00000000
_symmetry_Int_Tables_number   1
_chemical_formula_structural   XeF3
_chemical_formula_sum   'Xe4 F12'
_cell_volume   367.16850869
_cell_formula_units_Z   4
loop_
 _symmetry_equiv_pos_site_id
 _symmetry_equiv_pos_as_xyz
  1  'x, y, z'
loop_
 _atom_site_type_symbol
 _atom_site_label
 _atom_site_symmetry_multiplicity
 _atom_site_fract_x
 _atom_site_fract_y
 _atom_site_fract_z
 _atom_site_occupancy
  Xe  Xe0  1  0.50000000  0.00000000  0.50000000  1.0
  Xe  Xe1  1  0.50000000  0.50000000  0.00000000  1.0
  Xe  Xe2  1  0.00000000  0.00000000  0.00000000  1.0
  Xe  Xe3  1  0.00000000  0.50000000  0.50000000  1.0
  F  F4  1  0.83189812  0.83076900  0.83547194  1.0
  F  F5  1  0.83189812  0.66923100  0.33547194  1.0
  F  F6  1  0.16810188  0.33076900  0.66452806  1.0
  F  F7  1  0.16810188  0.16923100  0.16452806  1.0
  F  F8  1  0.75071331  0.38776858  0.97460728  1.0
  F  F9  1  0.75071331  0.11223142  0.47460728  1.0
  F  F10  1  0.24928669  0.88776858  0.52539272  1.0
  F  F11  1  0.24928669  0.61223142  0.02539272  1.0
  F  F12  1  0.50754488  0.59005898  0.71716502  1.0
  F  F13  1  0.50754488  0.90994102  0.21716503  1.0
  F  F14  1  0.49245512  0.09005898  0.78283497  1.0
  F  F15  1  0.49245512  0.40994102  0.28283498  1.0
