# generated using pymatgen
data_La2SiS5
_symmetry_space_group_name_H-M   'P 1'
_cell_length_a   8.88585372
_cell_length_b   8.76117448
_cell_length_c   12.09491936
_cell_angle_alpha   90.00000000
_cell_angle_beta   92.41037983
_cell_angle_gamma   90.00000000
_symmetry_Int_Tables_number   1
_chemical_formula_structural   La2SiS5
_chemical_formula_sum   'La8 Si4 S20'
_cell_volume   940.76260132
_cell_formula_units_Z   4
loop_
 _symmetry_equiv_pos_site_id
 _symmetry_equiv_pos_as_xyz
  1  'x, y, z'
loop_
 _atom_site_type_symbol
 _atom_site_label
 _atom_site_symmetry_multiplicity
 _atom_site_fract_x
 _atom_site_fract_y
 _atom_site_fract_z
 _atom_site_occupancy
  La  La0  1  0.50654449  1.09395908  0.83846922  1.0
  La  La1  1  0.49345551  0.59395908  0.66153078  1.0
  La  La2  1  0.49345551  -0.09395908  0.16153078  1.0
  La  La3  1  0.50654449  0.40604092  0.33846922  1.0
  La  La4  1  0.25923877  0.07094765  0.49593370  1.0
  La  La5  1  0.74076123  0.57094765  0.00406630  1.0
  La  La6  1  0.74076123  0.92905235  0.50406630  1.0
  La  La7  1  0.25923877  0.42905235  0.99593370  1.0
  Si  Si8  1  0.97426988  0.30157813  0.29853197  1.0
  Si  Si9  1  0.02573012  -0.19842187  0.20146803  1.0
  Si  Si10  1  0.02573012  0.69842187  0.70146803  1.0
  Si  Si11  1  0.97426988  1.19842187  0.79853197  1.0
  S  S12  1  0.47537360  0.91900604  0.63686749  1.0
  S  S13  1  0.52462640  0.41900604  0.86313251  1.0
  S  S14  1  0.52462640  0.08099396  0.36313251  1.0
  S  S15  1  0.47537360  0.58099396  0.13686749  1.0
  S  S16  1  0.04913216  0.70235806  0.04900541  1.0
  S  S17  1  0.95086784  0.20235806  0.45099459  1.0
  S  S18  1  0.95086784  0.29764194  0.95099459  1.0
  S  S19  1  0.04913216  0.79764194  0.54900541  1.0
  S  S20  1  0.21625800  0.85995028  0.29338840  1.0
  S  S21  1  0.78374200  0.35995028  0.20661160  1.0
  S  S22  1  0.78374200  0.14004972  0.70661160  1.0
  S  S23  1  0.21625800  0.64004972  0.79338840  1.0
  S  S24  1  0.35934863  0.36518355  0.53698864  1.0
  S  S25  1  0.64065137  0.86518355  -0.03698864  1.0
  S  S26  1  0.64065137  0.63481645  0.46301136  1.0
  S  S27  1  0.35934863  0.13481645  1.03698864  1.0
  S  S28  1  0.18312251  0.15332731  0.74238192  1.0
  S  S29  1  0.81687749  0.65332731  0.75761808  1.0
  S  S30  1  0.81687749  0.84667269  0.25761808  1.0
  S  S31  1  0.18312251  0.34667269  0.24238192  1.0
