# generated using pymatgen
data_ZnGeO3
_symmetry_space_group_name_H-M   'P 1'
_cell_length_a   5.13098098
_cell_length_b   7.43840576
_cell_length_c   5.07294561
_cell_angle_alpha   90.00000000
_cell_angle_beta   90.00000000
_cell_angle_gamma   90.00000000
_symmetry_Int_Tables_number   1
_chemical_formula_structural   ZnGeO3
_chemical_formula_sum   'Zn4 Ge4 O12'
_cell_volume   193.61565773
_cell_formula_units_Z   4
loop_
 _symmetry_equiv_pos_site_id
 _symmetry_equiv_pos_as_xyz
  1  'x, y, z'
loop_
 _atom_site_type_symbol
 _atom_site_label
 _atom_site_symmetry_multiplicity
 _atom_site_fract_x
 _atom_site_fract_y
 _atom_site_fract_z
 _atom_site_occupancy
  Zn  Zn0  1  0.03712196  0.75000000  0.50318238  1.0
  Zn  Zn1  1  0.53712196  0.75000000  0.99681762  1.0
  Zn  Zn2  1  0.96287804  0.25000000  0.49681762  1.0
  Zn  Zn3  1  0.46287804  0.25000000  0.00318238  1.0
  Ge  Ge4  1  0.50000000  0.00000000  0.50000000  1.0
  Ge  Ge5  1  0.50000000  0.50000000  0.50000000  1.0
  Ge  Ge6  1  0.00000000  0.00000000  0.00000000  1.0
  Ge  Ge7  1  0.00000000  0.50000000  0.00000000  1.0
  O  O8  1  0.93823201  0.75000000  0.11404866  1.0
  O  O9  1  0.43823201  0.75000000  0.38595134  1.0
  O  O10  1  0.06176799  0.25000000  0.88595134  1.0
  O  O11  1  0.56176799  0.25000000  0.61404866  1.0
  O  O12  1  0.30954614  0.93874552  0.81621296  1.0
  O  O13  1  0.30954614  0.56125448  0.81621296  1.0
  O  O14  1  0.80954614  0.93874552  0.68378704  1.0
  O  O15  1  0.80954614  0.56125448  0.68378704  1.0
  O  O16  1  0.69045386  0.43874552  0.18378704  1.0
  O  O17  1  0.69045386  0.06125448  0.18378704  1.0
  O  O18  1  0.19045386  0.43874552  0.31621296  1.0
  O  O19  1  0.19045386  0.06125448  0.31621296  1.0
