# generated using pymatgen
data_KBe2B3O7
_symmetry_space_group_name_H-M   'P 1'
_cell_length_a   6.91473363
_cell_length_b   6.91473363
_cell_length_c   6.77115237
_cell_angle_alpha   71.43932097
_cell_angle_beta   108.56067903
_cell_angle_gamma   98.85539248
_symmetry_Int_Tables_number   1
_chemical_formula_structural   KBe2B3O7
_chemical_formula_sum   'K2 Be4 B6 O14'
_cell_volume   290.45079431
_cell_formula_units_Z   2
loop_
 _symmetry_equiv_pos_site_id
 _symmetry_equiv_pos_as_xyz
  1  'x, y, z'
loop_
 _atom_site_type_symbol
 _atom_site_label
 _atom_site_symmetry_multiplicity
 _atom_site_fract_x
 _atom_site_fract_y
 _atom_site_fract_z
 _atom_site_occupancy
  K  K0  1  0.32539275  0.32539275  0.25000000  1.0
  K  K1  1  0.67460725  0.67460725  0.75000000  1.0
  Be  Be2  1  1.55444545  -0.13436976  0.15631375  1.0
  Be  Be3  1  1.13436976  -0.55444545  0.65631375  1.0
  Be  Be4  1  0.86563024  0.55444545  0.34368625  1.0
  Be  Be5  1  0.44555455  0.13436976  0.84368625  1.0
  B  B6  1  0.73178228  0.23371884  0.18058487  1.0
  B  B7  1  0.76628116  0.26821772  0.68058487  1.0
  B  B8  1  1.23371884  -0.26821772  0.31941513  1.0
  B  B9  1  1.26821772  -0.23371884  0.81941513  1.0
  B  B10  1  0.95001315  0.95001315  0.25000000  1.0
  B  B11  1  0.04998685  0.04998685  0.75000000  1.0
  O  O12  1  1.42067274  -0.27495324  0.30326351  1.0
  O  O13  1  1.27495324  -0.42067274  0.80326351  1.0
  O  O14  1  0.72504676  0.42067274  0.19673649  1.0
  O  O15  1  0.57932726  0.27495324  0.69673649  1.0
  O  O16  1  0.55689285  0.11705665  0.10952831  1.0
  O  O17  1  0.88294335  0.44310715  0.60952831  1.0
  O  O18  1  1.11705665  -0.44310715  0.39047169  1.0
  O  O19  1  1.44310715  -0.11705665  0.89047169  1.0
  O  O20  1  1.14860996  -0.07870039  0.26529651  1.0
  O  O21  1  1.07870039  -0.14860996  0.76529651  1.0
  O  O22  1  0.92129961  0.14860996  0.23470349  1.0
  O  O23  1  0.85139004  0.07870039  0.73470349  1.0
  O  O24  1  0.79731230  0.79731230  0.25000000  1.0
  O  O25  1  0.20268770  0.20268770  0.75000000  1.0
