# generated using pymatgen
data_LiGdF2
_symmetry_space_group_name_H-M   'P 1'
_cell_length_a   8.04470708
_cell_length_b   8.04470708
_cell_length_c   8.04470708
_cell_angle_alpha   128.12096253
_cell_angle_beta   128.12096253
_cell_angle_gamma   76.42915545
_symmetry_Int_Tables_number   1
_chemical_formula_structural   LiGdF2
_chemical_formula_sum   'Li4 Gd4 F8'
_cell_volume   313.07522933
_cell_formula_units_Z   4
loop_
 _symmetry_equiv_pos_site_id
 _symmetry_equiv_pos_as_xyz
  1  'x, y, z'
loop_
 _atom_site_type_symbol
 _atom_site_label
 _atom_site_symmetry_multiplicity
 _atom_site_fract_x
 _atom_site_fract_y
 _atom_site_fract_z
 _atom_site_occupancy
  Li  Li0  1  0.87500000  0.12500000  0.75000000  1.0
  Li  Li1  1  0.37500000  0.12500000  0.25000000  1.0
  Li  Li2  1  0.87500000  0.62500000  0.75000000  1.0
  Li  Li3  1  0.87500000  1.12500000  1.25000000  1.0
  Gd  Gd4  1  0.37500000  0.62500000  0.75000000  1.0
  Gd  Gd5  1  0.87500000  0.62500000  1.25000000  1.0
  Gd  Gd6  1  0.37500000  1.12500000  0.75000000  1.0
  Gd  Gd7  1  0.37500000  0.62500000  0.25000000  1.0
  F  F8  1  1.18426917  0.89389165  1.70961736  1.0
  F  F9  1  0.56572571  0.77534819  1.20961736  1.0
  F  F10  1  1.10610835  0.81572571  1.29037752  1.0
  F  F11  1  1.22465181  1.43426917  1.79037752  1.0
  F  F12  1  0.18427429  0.47465181  0.29038264  1.0
  F  F13  1  0.56573083  0.35610835  0.79038264  1.0
  F  F14  1  0.52534819  0.81573083  0.70962248  1.0
  F  F15  1  0.64389165  0.43427429  0.20962248  1.0
