# generated using pymatgen
data_Sr8Tl3Cr(CuO5)4
_symmetry_space_group_name_H-M   'P 1'
_cell_length_a   11.76012595
_cell_length_b   11.76012595
_cell_length_c   3.69063239
_cell_angle_alpha   90.00000000
_cell_angle_beta   90.00000000
_cell_angle_gamma   99.26248357
_symmetry_Int_Tables_number   1
_chemical_formula_structural   Sr8Tl3Cr(CuO5)4
_chemical_formula_sum   'Sr8 Tl3 Cr1 Cu4 O20'
_cell_volume   503.76137684
_cell_formula_units_Z   1
loop_
 _symmetry_equiv_pos_site_id
 _symmetry_equiv_pos_as_xyz
  1  'x, y, z'
loop_
 _atom_site_type_symbol
 _atom_site_label
 _atom_site_symmetry_multiplicity
 _atom_site_fract_x
 _atom_site_fract_y
 _atom_site_fract_z
 _atom_site_occupancy
  Sr  Sr0  1  0.27470322  0.97365687  0.50000000  1.0
  Sr  Sr1  1  0.02634313  0.72529678  0.50000000  1.0
  Sr  Sr2  1  0.48618316  0.76720655  0.50000000  1.0
  Sr  Sr3  1  0.23279345  0.51381684  0.50000000  1.0
  Sr  Sr4  1  -0.48617204  1.23282592  0.50000000  1.0
  Sr  Sr5  1  -0.23282592  1.48617204  0.50000000  1.0
  Sr  Sr6  1  -0.27472122  1.02632714  0.50000000  1.0
  Sr  Sr7  1  -0.02632714  1.27472122  0.50000000  1.0
  O  O8  1  0.12659526  0.12658225  0.50000000  1.0
  O  O9  1  0.87341775  0.87340474  0.50000000  1.0
  O  O10  1  -0.49995733  0.99991653  0.50000000  1.0
  O  O11  1  0.00008347  0.49995733  0.50000000  1.0
  O  O12  1  0.41670127  0.41670255  0.50000000  1.0
  O  O13  1  0.58329745  0.58329873  0.50000000  1.0
  O  O14  1  0.37895005  0.86985867  0.00000000  1.0
  O  O15  1  0.13014133  0.62104995  0.00000000  1.0
  O  O16  1  -0.63536284  1.13598467  0.00000000  1.0
  O  O17  1  -0.13598467  1.63536284  0.00000000  1.0
  O  O18  1  0.63538694  0.86399946  0.00000000  1.0
  O  O19  1  0.13600054  0.36461306  0.00000000  1.0
  O  O20  1  -0.37899507  1.13018327  0.00000000  1.0
  O  O21  1  -0.13018327  1.37899507  0.00000000  1.0
  O  O22  1  0.26303736  0.73696264  0.50000000  1.0
  O  O23  1  -0.26302678  1.26302678  0.50000000  1.0
  O  O24  1  0.11636097  0.88363903  0.00000000  1.0
  O  O25  1  -0.11636740  1.11636740  0.00000000  1.0
  O  O26  1  -0.40407038  1.40407038  0.00000000  1.0
  O  O27  1  0.40406626  0.59593374  0.00000000  1.0
  Cu  Cu28  1  -0.50002505  1.00004270  0.00000000  1.0
  Cu  Cu29  1  -0.00004270  0.50002505  0.00000000  1.0
  Cu  Cu30  1  0.25141526  0.74858474  0.00000000  1.0
  Cu  Cu31  1  -0.25141958  1.25141958  0.00000000  1.0
  Tl  Tl32  1  0.22887561  0.22886207  0.00000000  1.0
  Tl  Tl33  1  0.77113793  0.77112439  0.00000000  1.0
  Tl  Tl34  1  -0.00000398  0.00000398  0.00000000  1.0
  Cr  Cr35  1  0.49999495  0.50000505  0.00000000  1.0
