# generated using pymatgen
data_Ni10(WC)3
_symmetry_space_group_name_H-M   'P 1'
_cell_length_a   7.35863847
_cell_length_b   7.35863847
_cell_length_c   7.83699873
_cell_angle_alpha   90.00000000
_cell_angle_beta   90.00000000
_cell_angle_gamma   120.00000000
_symmetry_Int_Tables_number   1
_chemical_formula_structural   Ni10(WC)3
_chemical_formula_sum   'Ni20 W6 C6'
_cell_volume   367.51523017
_cell_formula_units_Z   2
loop_
 _symmetry_equiv_pos_site_id
 _symmetry_equiv_pos_as_xyz
  1  'x, y, z'
loop_
 _atom_site_type_symbol
 _atom_site_label
 _atom_site_symmetry_multiplicity
 _atom_site_fract_x
 _atom_site_fract_y
 _atom_site_fract_z
 _atom_site_occupancy
  C  C0  1  0.50000000  0.50000000  0.50000000  1.0
  C  C1  1  0.50000000  0.00000000  0.50000000  1.0
  C  C2  1  -0.00000000  0.50000000  0.50000000  1.0
  C  C3  1  0.50000000  0.50000000  0.00000000  1.0
  C  C4  1  0.50000000  -0.00000000  -0.00000000  1.0
  C  C5  1  -0.00000000  0.50000000  0.00000000  1.0
  W  W6  1  0.45503551  0.54496449  0.25000000  1.0
  W  W7  1  0.45503551  0.91007102  0.25000000  1.0
  W  W8  1  0.08992898  0.54496449  0.25000000  1.0
  W  W9  1  0.54496449  0.45503551  0.75000000  1.0
  W  W10  1  0.54496449  0.08992898  0.75000000  1.0
  W  W11  1  0.91007102  0.45503551  0.75000000  1.0
  Ni  Ni12  1  0.20158044  0.79841956  0.95127341  1.0
  Ni  Ni13  1  0.20158044  0.40316089  0.95127341  1.0
  Ni  Ni14  1  0.59683911  0.79841956  0.95127341  1.0
  Ni  Ni15  1  0.79841956  0.20158044  0.04872659  1.0
  Ni  Ni16  1  0.79841956  0.59683911  0.04872659  1.0
  Ni  Ni17  1  0.40316089  0.20158044  0.04872659  1.0
  Ni  Ni18  1  0.79841956  0.20158044  0.45127341  1.0
  Ni  Ni19  1  0.79841956  0.59683911  0.45127341  1.0
  Ni  Ni20  1  0.40316089  0.20158044  0.45127341  1.0
  Ni  Ni21  1  0.20158044  0.79841956  0.54872659  1.0
  Ni  Ni22  1  0.20158044  0.40316089  0.54872659  1.0
  Ni  Ni23  1  0.59683911  0.79841956  0.54872659  1.0
  Ni  Ni24  1  -0.00000000  -0.00000000  0.50000000  1.0
  Ni  Ni25  1  0.00000000  0.00000000  -0.00000000  1.0
  Ni  Ni26  1  0.10943278  0.89056722  0.25000000  1.0
  Ni  Ni27  1  0.10943278  0.21886556  0.25000000  1.0
  Ni  Ni28  1  0.78113444  0.89056722  0.25000000  1.0
  Ni  Ni29  1  0.89056722  0.10943278  0.75000000  1.0
  Ni  Ni30  1  0.89056722  0.78113444  0.75000000  1.0
  Ni  Ni31  1  0.21886556  0.10943278  0.75000000  1.0
