# generated using pymatgen
data_Ba6YIn(BO3)6
_symmetry_space_group_name_H-M   'P 1'
_cell_length_a   8.15487790
_cell_length_b   8.15487790
_cell_length_c   8.15487790
_cell_angle_alpha   105.82448175
_cell_angle_beta   105.82448175
_cell_angle_gamma   105.82448175
_symmetry_Int_Tables_number   1
_chemical_formula_structural   Ba6YIn(BO3)6
_chemical_formula_sum   'Ba6 Y1 In1 B6 O18'
_cell_volume   465.37007277
_cell_formula_units_Z   1
loop_
 _symmetry_equiv_pos_site_id
 _symmetry_equiv_pos_as_xyz
  1  'x, y, z'
loop_
 _atom_site_type_symbol
 _atom_site_label
 _atom_site_symmetry_multiplicity
 _atom_site_fract_x
 _atom_site_fract_y
 _atom_site_fract_z
 _atom_site_occupancy
  Ba  Ba0  1  0.76663138  0.66449643  0.15429329  1.0
  Ba  Ba1  1  1.33550357  -0.15429329  0.23336862  1.0
  Ba  Ba2  1  0.84570671  0.23336862  0.33550357  1.0
  Ba  Ba3  1  1.23336862  0.33550357  -0.15429329  1.0
  Ba  Ba4  1  0.66449643  1.15429329  -0.23336862  1.0
  Ba  Ba5  1  1.15429329  0.76663138  -0.33550357  1.0
  Y  Y6  1  0.50000000  0.50000000  0.50000000  1.0
  In  In7  1  0.00000000  0.00000000  0.00000000  1.0
  B  B8  1  1.54854271  0.79273896  -0.12621131  1.0
  B  B9  1  1.20726104  0.12621131  -0.54854271  1.0
  B  B10  1  1.12621131  -0.54854271  0.20726104  1.0
  B  B11  1  0.45145729  0.20726104  0.12621131  1.0
  B  B12  1  0.79273896  0.87378869  0.54854271  1.0
  B  B13  1  0.87378869  1.54854271  -0.20726104  1.0
  O  O14  1  0.71949599  0.92858353  -0.00245400  1.0
  O  O15  1  1.07141647  0.00245400  -0.71949599  1.0
  O  O16  1  1.00245400  -0.71949599  0.07141647  1.0
  O  O17  1  0.28050401  0.07141647  0.00245400  1.0
  O  O18  1  0.92858353  0.99754600  -0.28050401  1.0
  O  O19  1  0.99754600  0.71949599  -0.07141647  1.0
  O  O20  1  1.49262537  0.76429531  -0.31276713  1.0
  O  O21  1  1.23570469  0.31276713  -0.49262537  1.0
  O  O22  1  1.31276713  -0.49262537  0.23570469  1.0
  O  O23  1  0.50737463  0.23570469  0.31276713  1.0
  O  O24  1  0.76429531  0.68723287  0.49262537  1.0
  O  O25  1  0.68723287  1.49262537  -0.23570469  1.0
  O  O26  1  0.56658082  0.30150716  0.05855096  1.0
  O  O27  1  0.69849284  0.94144904  0.43341918  1.0
  O  O28  1  0.94144904  1.43341918  -0.30150716  1.0
  O  O29  1  1.43341918  0.69849284  -0.05855096  1.0
  O  O30  1  1.30150716  0.05855096  -0.43341918  1.0
  O  O31  1  1.05855096  -0.43341918  0.30150716  1.0
