# generated using pymatgen
data_Ba2ZnF6
_symmetry_space_group_name_H-M   'P 1'
_cell_length_a   5.89665755
_cell_length_b   5.89665755
_cell_length_c   4.54005468
_cell_angle_alpha   90.00000000
_cell_angle_beta   90.00000000
_cell_angle_gamma   120.00000000
_symmetry_Int_Tables_number   1
_chemical_formula_structural   Ba2ZnF6
_chemical_formula_sum   'Ba2 Zn1 F6'
_cell_volume   136.71102151
_cell_formula_units_Z   1
loop_
 _symmetry_equiv_pos_site_id
 _symmetry_equiv_pos_as_xyz
  1  'x, y, z'
loop_
 _atom_site_type_symbol
 _atom_site_label
 _atom_site_symmetry_multiplicity
 _atom_site_fract_x
 _atom_site_fract_y
 _atom_site_fract_z
 _atom_site_occupancy
  Ba  Ba0  1  0.33333333  0.66666667  0.26715664  1.0
  Ba  Ba1  1  0.66666667  0.33333333  0.73284336  1.0
  Zn  Zn2  1  0.00000000  0.00000000  0.00000000  1.0
  F  F3  1  0.34686724  0.17343362  0.23336695  1.0
  F  F4  1  0.17343362  0.34686724  0.76663305  1.0
  F  F5  1  0.17343362  0.82656638  0.76663305  1.0
  F  F6  1  0.82656638  0.17343362  0.23336695  1.0
  F  F7  1  0.82656638  0.65313276  0.23336695  1.0
  F  F8  1  0.65313276  0.82656638  0.76663305  1.0
