# generated using pymatgen
data_RbEuSiS4
_symmetry_space_group_name_H-M   'P 1'
_cell_length_a   6.61125746
_cell_length_b   6.76168998
_cell_length_c   17.38966828
_cell_angle_alpha   90.00000000
_cell_angle_beta   90.00000000
_cell_angle_gamma   90.00000000
_symmetry_Int_Tables_number   1
_chemical_formula_structural   RbEuSiS4
_chemical_formula_sum   'Rb4 Eu4 Si4 S16'
_cell_volume   777.37509357
_cell_formula_units_Z   4
loop_
 _symmetry_equiv_pos_site_id
 _symmetry_equiv_pos_as_xyz
  1  'x, y, z'
loop_
 _atom_site_type_symbol
 _atom_site_label
 _atom_site_symmetry_multiplicity
 _atom_site_fract_x
 _atom_site_fract_y
 _atom_site_fract_z
 _atom_site_occupancy
  S  S0  1  0.45788184  0.49057340  0.91079179  1.0
  S  S1  1  0.95788184  0.00942660  0.08920821  1.0
  S  S2  1  0.54211816  0.99057340  0.58920821  1.0
  S  S3  1  0.04211816  0.50942660  0.41079179  1.0
  S  S4  1  0.39182633  0.93354599  0.77850142  1.0
  S  S5  1  0.89182633  0.56645401  0.22149858  1.0
  S  S6  1  0.60817367  0.43354599  0.72149858  1.0
  S  S7  1  0.10817367  0.06645401  0.27850142  1.0
  S  S8  1  0.38623951  0.74716816  0.15206852  1.0
  S  S9  1  0.88623951  0.75283184  0.84793148  1.0
  S  S10  1  0.61376049  0.24716816  0.34793148  1.0
  S  S11  1  0.11376049  0.25283184  0.65206852  1.0
  S  S12  1  0.07258341  0.76026924  0.64126281  1.0
  S  S13  1  0.57258341  0.73973076  0.35873719  1.0
  S  S14  1  0.92741659  0.26026924  0.85873719  1.0
  S  S15  1  0.42741659  0.23973076  0.14126281  1.0
  Rb  Rb16  1  0.46550939  0.49862302  0.53389058  1.0
  Rb  Rb17  1  0.96550939  0.00137698  0.46610942  1.0
  Rb  Rb18  1  0.53449061  0.99862302  0.96610942  1.0
  Rb  Rb19  1  0.03449061  0.50137698  0.03389058  1.0
  Eu  Eu20  1  0.21036554  0.53463706  0.77592506  1.0
  Eu  Eu21  1  0.71036554  0.96536294  0.22407494  1.0
  Eu  Eu22  1  0.78963446  0.03463706  0.72407494  1.0
  Eu  Eu23  1  0.28963446  0.46536294  0.27592506  1.0
  Si  Si24  1  0.28922509  0.98804963  0.66386354  1.0
  Si  Si25  1  0.78922509  0.51195037  0.33613646  1.0
  Si  Si26  1  0.71077491  0.48804963  0.83613646  1.0
  Si  Si27  1  0.21077491  0.01195037  0.16386354  1.0
