# generated using pymatgen
data_Rb2GaAs2
_symmetry_space_group_name_H-M   'P 1'
_cell_length_a   9.22651262
_cell_length_b   14.90111080
_cell_length_c   11.87738325
_cell_angle_alpha   90.00000000
_cell_angle_beta   118.22502944
_cell_angle_gamma   90.00000000
_symmetry_Int_Tables_number   1
_chemical_formula_structural   Rb2GaAs2
_chemical_formula_sum   'Rb16 Ga8 As16'
_cell_volume   1438.80084839
_cell_formula_units_Z   8
loop_
 _symmetry_equiv_pos_site_id
 _symmetry_equiv_pos_as_xyz
  1  'x, y, z'
loop_
 _atom_site_type_symbol
 _atom_site_label
 _atom_site_symmetry_multiplicity
 _atom_site_fract_x
 _atom_site_fract_y
 _atom_site_fract_z
 _atom_site_occupancy
  Rb  Rb0  1  0.48747382  0.12903149  0.46471759  1.0
  Rb  Rb1  1  0.48747382  0.37096851  0.96471759  1.0
  Rb  Rb2  1  0.51252618  0.62903149  0.03528241  1.0
  Rb  Rb3  1  0.51252618  0.87096851  0.53528241  1.0
  Rb  Rb4  1  0.90933433  0.13066108  0.09259442  1.0
  Rb  Rb5  1  0.90933433  0.36933892  0.59259442  1.0
  Rb  Rb6  1  0.09066567  0.63066108  0.40740558  1.0
  Rb  Rb7  1  0.09066567  0.86933892  0.90740558  1.0
  Rb  Rb8  1  -0.00833227  0.88273960  0.43123549  1.0
  Rb  Rb9  1  -0.00833227  0.61726040  0.93123549  1.0
  Rb  Rb10  1  1.00833227  0.38273960  0.06876451  1.0
  Rb  Rb11  1  1.00833227  0.11726040  0.56876451  1.0
  Rb  Rb12  1  0.29505475  0.38609414  0.47701537  1.0
  Rb  Rb13  1  0.29505475  0.11390586  0.97701537  1.0
  Rb  Rb14  1  0.70494525  0.88609414  0.02298463  1.0
  Rb  Rb15  1  0.70494525  0.61390586  0.52298463  1.0
  Ga  Ga16  1  0.64390762  0.21639070  0.25708391  1.0
  Ga  Ga17  1  0.64390762  0.28360930  0.75708391  1.0
  Ga  Ga18  1  0.35609238  0.71639070  0.24291609  1.0
  Ga  Ga19  1  0.35609238  0.78360930  0.74291609  1.0
  Ga  Ga20  1  0.49870986  0.44179208  0.25685594  1.0
  Ga  Ga21  1  0.49870986  0.05820792  0.75685594  1.0
  Ga  Ga22  1  0.50129014  0.94179208  0.24314406  1.0
  Ga  Ga23  1  0.50129014  0.55820792  0.74314406  1.0
  As  As24  1  0.70339742  0.05486347  0.25969666  1.0
  As  As25  1  0.70339742  0.44513653  0.75969666  1.0
  As  As26  1  0.29660258  0.55486347  0.24030334  1.0
  As  As27  1  0.29660258  0.94513653  0.74030334  1.0
  As  As28  1  0.76987972  0.46533956  0.27875867  1.0
  As  As29  1  0.76987972  0.03466044  0.77875867  1.0
  As  As30  1  0.23012028  0.96533956  0.22124133  1.0
  As  As31  1  0.23012028  0.53466044  0.72124133  1.0
  As  As32  1  0.87231310  0.31009888  0.28643714  1.0
  As  As33  1  0.87231310  0.18990112  0.78643714  1.0
  As  As34  1  0.12768690  0.81009888  0.21356286  1.0
  As  As35  1  0.12768690  0.68990112  0.71356286  1.0
  As  As36  1  0.39383703  0.28846325  0.22863154  1.0
  As  As37  1  0.39383703  0.21153675  0.72863154  1.0
  As  As38  1  0.60616297  0.78846325  0.27136846  1.0
  As  As39  1  0.60616297  0.71153675  0.77136846  1.0
