# generated using pymatgen
data_Na2P2PbO7
_symmetry_space_group_name_H-M   'P 1'
_cell_length_a   5.62633592
_cell_length_b   9.67301247
_cell_length_c   7.08970967
_cell_angle_alpha   106.66316690
_cell_angle_beta   110.42006373
_cell_angle_gamma   94.90166105
_symmetry_Int_Tables_number   1
_chemical_formula_structural   Na2P2PbO7
_chemical_formula_sum   'Na4 P4 Pb2 O14'
_cell_volume   338.94211104
_cell_formula_units_Z   2
loop_
 _symmetry_equiv_pos_site_id
 _symmetry_equiv_pos_as_xyz
  1  'x, y, z'
loop_
 _atom_site_type_symbol
 _atom_site_label
 _atom_site_symmetry_multiplicity
 _atom_site_fract_x
 _atom_site_fract_y
 _atom_site_fract_z
 _atom_site_occupancy
  Na  Na0  1  -0.65335498  -0.23378095  -0.87730147  1.0
  Na  Na1  1  -0.34664502  -0.76621905  -0.12269853  1.0
  Na  Na2  1  -0.07326595  -1.00616498  -0.78193238  1.0
  Na  Na3  1  -0.92673405  0.00616498  -0.21806762  1.0
  P  P4  1  -0.73399706  -0.63727504  -0.86335823  1.0
  P  P5  1  -0.26600294  -0.36272496  -0.13664177  1.0
  P  P6  1  -0.51756154  -0.84821912  -0.65066785  1.0
  P  P7  1  -0.48243846  -0.15178088  -0.34933215  1.0
  Pb  Pb8  1  -0.86506509  -0.63344816  -0.38539212  1.0
  Pb  Pb9  1  -0.13493491  -0.36655184  -0.61460788  1.0
  O  O10  1  -0.96762139  -0.66351492  -0.80401069  1.0
  O  O11  1  -0.03237861  -0.33648508  -0.19598931  1.0
  O  O12  1  -0.78766527  -0.73473206  -0.09699355  1.0
  O  O13  1  -0.21233473  -0.26526794  -0.90300645  1.0
  O  O14  1  -0.65304881  -0.82283797  -0.48994395  1.0
  O  O15  1  -0.34695119  -0.17716203  -0.51005605  1.0
  O  O16  1  -0.67769191  -0.97960227  -0.85292251  1.0
  O  O17  1  -0.32230809  -0.02039773  -0.14707749  1.0
  O  O18  1  -0.62109058  -0.47517129  -0.81350046  1.0
  O  O19  1  -0.37890942  -0.52482871  -0.18649954  1.0
  O  O20  1  -0.49689930  -0.69646753  -0.71340713  1.0
  O  O21  1  -0.50310070  -0.30353247  -0.28659287  1.0
  O  O22  1  -0.23061673  -0.85442319  -0.54541850  1.0
  O  O23  1  -0.76938327  -0.14557681  -0.45458150  1.0
