# generated using pymatgen
data_RbB(CN)2
_symmetry_space_group_name_H-M   'P 1'
_cell_length_a   9.15116069
_cell_length_b   9.15116069
_cell_length_c   9.15116069
_cell_angle_alpha   126.42594894
_cell_angle_beta   126.42594894
_cell_angle_gamma   79.18918558
_symmetry_Int_Tables_number   1
_chemical_formula_structural   RbB(CN)2
_chemical_formula_sum   'Rb4 B4 C8 N8'
_cell_volume   479.76687914
_cell_formula_units_Z   4
loop_
 _symmetry_equiv_pos_site_id
 _symmetry_equiv_pos_as_xyz
  1  'x, y, z'
loop_
 _atom_site_type_symbol
 _atom_site_label
 _atom_site_symmetry_multiplicity
 _atom_site_fract_x
 _atom_site_fract_y
 _atom_site_fract_z
 _atom_site_occupancy
  Rb  Rb0  1  0.37500000  0.62500000  0.75000000  1.0
  Rb  Rb1  1  0.87500000  0.62500000  1.25000000  1.0
  Rb  Rb2  1  0.37500000  1.12500000  0.75000000  1.0
  Rb  Rb3  1  0.37500000  0.62500000  0.25000000  1.0
  B  B4  1  0.87500000  0.12500000  0.75000000  1.0
  B  B5  1  0.37500000  0.12500000  0.25000000  1.0
  B  B6  1  0.87500000  0.62500000  0.75000000  1.0
  B  B7  1  0.87500000  1.12500000  1.25000000  1.0
  C  C8  1  1.01216386  1.02038565  1.74674726  1.0
  C  C9  1  0.47636161  0.98458340  1.24674726  1.0
  C  C10  1  0.97961435  0.72636161  0.99177821  1.0
  C  C11  1  1.01541660  1.26216386  1.49177821  1.0
  C  C12  1  0.27363839  0.26541660  0.25325274  1.0
  C  C13  1  0.73783614  0.22961435  0.75325274  1.0
  C  C14  1  0.73458340  0.98783614  1.00822179  1.0
  C  C15  1  0.77038565  0.52363839  0.50822179  1.0
  N  N16  1  1.13120764  0.93716156  1.75332755  1.0
  N  N17  1  0.56616600  0.87211992  1.25332755  1.0
  N  N18  1  1.06283844  0.81616600  1.19404608  1.0
  N  N19  1  1.12788008  1.38120764  1.69404608  1.0
  N  N20  1  0.18383400  0.37788008  0.24667245  1.0
  N  N21  1  0.61879236  0.31283844  0.74667245  1.0
  N  N22  1  0.62211992  0.86879236  0.80595392  1.0
  N  N23  1  0.68716156  0.43383400  0.30595392  1.0
