# generated using pymatgen
data_Li3As
_symmetry_space_group_name_H-M   'P 1'
_cell_length_a   7.54441195
_cell_length_b   7.54441195
_cell_length_c   7.55455335
_cell_angle_alpha   90.00000000
_cell_angle_beta   90.00000000
_cell_angle_gamma   120.00000000
_symmetry_Int_Tables_number   1
_chemical_formula_structural   Li3As
_chemical_formula_sum   'Li18 As6'
_cell_volume   372.38331388
_cell_formula_units_Z   6
loop_
 _symmetry_equiv_pos_site_id
 _symmetry_equiv_pos_as_xyz
  1  'x, y, z'
loop_
 _atom_site_type_symbol
 _atom_site_label
 _atom_site_symmetry_multiplicity
 _atom_site_fract_x
 _atom_site_fract_y
 _atom_site_fract_z
 _atom_site_occupancy
  Li  Li0  1  0.00000000  0.00000000  0.50000000  1.0
  Li  Li1  1  -0.00000000  0.00000000  -0.00000000  1.0
  Li  Li2  1  0.66666667  0.33333333  0.26761137  1.0
  Li  Li3  1  0.66666667  0.33333333  0.76761137  1.0
  Li  Li4  1  0.33333333  0.66666667  0.73238863  1.0
  Li  Li5  1  0.33333333  0.66666667  0.23238863  1.0
  Li  Li6  1  0.65247853  0.98841160  0.41197025  1.0
  Li  Li7  1  0.33593307  0.34752147  0.41197025  1.0
  Li  Li8  1  0.01158840  0.66406693  0.41197025  1.0
  Li  Li9  1  0.65247853  0.66406693  0.91197025  1.0
  Li  Li10  1  0.01158840  0.34752147  0.91197025  1.0
  Li  Li11  1  0.33593307  0.98841160  0.91197025  1.0
  Li  Li12  1  0.34752147  0.01158840  0.58802975  1.0
  Li  Li13  1  0.66406693  0.65247853  0.58802975  1.0
  Li  Li14  1  0.98841160  0.33593307  0.58802975  1.0
  Li  Li15  1  0.34752147  0.33593307  0.08802975  1.0
  Li  Li16  1  0.98841160  0.65247853  0.08802975  1.0
  Li  Li17  1  0.66406693  0.01158840  0.08802975  1.0
  As  As18  1  0.32127822  -0.00000000  0.25000000  1.0
  As  As19  1  0.67872178  0.67872178  0.25000000  1.0
  As  As20  1  0.00000000  0.32127822  0.25000000  1.0
  As  As21  1  0.32127822  0.32127822  0.75000000  1.0
  As  As22  1  -0.00000000  0.67872178  0.75000000  1.0
  As  As23  1  0.67872178  0.00000000  0.75000000  1.0
