# generated using pymatgen
data_Hf3Al2
_symmetry_space_group_name_H-M   'P 1'
_cell_length_a   7.57066135
_cell_length_b   7.57066135
_cell_length_c   6.89158743
_cell_angle_alpha   90.00000000
_cell_angle_beta   90.00000000
_cell_angle_gamma   90.00000000
_symmetry_Int_Tables_number   1
_chemical_formula_structural   Hf3Al2
_chemical_formula_sum   'Hf12 Al8'
_cell_volume   394.99073551
_cell_formula_units_Z   4
loop_
 _symmetry_equiv_pos_site_id
 _symmetry_equiv_pos_as_xyz
  1  'x, y, z'
loop_
 _atom_site_type_symbol
 _atom_site_label
 _atom_site_symmetry_multiplicity
 _atom_site_fract_x
 _atom_site_fract_y
 _atom_site_fract_z
 _atom_site_occupancy
  Hf  Hf0  1  0.20384263  0.20384263  0.50000000  1.0
  Hf  Hf1  1  0.70384263  0.29615737  0.00000000  1.0
  Hf  Hf2  1  0.79615737  0.79615737  0.50000000  1.0
  Hf  Hf3  1  0.29615737  0.70384263  0.00000000  1.0
  Hf  Hf4  1  0.34601155  0.65398845  0.50000000  1.0
  Hf  Hf5  1  0.84601155  0.84601155  0.00000000  1.0
  Hf  Hf6  1  0.65398845  0.34601155  0.50000000  1.0
  Hf  Hf7  1  0.15398845  0.15398845  0.00000000  1.0
  Hf  Hf8  1  0.50000000  0.00000000  0.25000000  1.0
  Hf  Hf9  1  0.50000000  0.00000000  0.75000000  1.0
  Hf  Hf10  1  0.00000000  0.50000000  0.75000000  1.0
  Hf  Hf11  1  0.00000000  0.50000000  0.25000000  1.0
  Al  Al12  1  0.12114465  0.87885535  0.29147287  1.0
  Al  Al13  1  0.12114465  0.87885535  0.70852713  1.0
  Al  Al14  1  0.62114465  0.62114465  0.79147287  1.0
  Al  Al15  1  0.62114465  0.62114465  0.20852713  1.0
  Al  Al16  1  0.87885535  0.12114465  0.29147287  1.0
  Al  Al17  1  0.87885535  0.12114465  0.70852713  1.0
  Al  Al18  1  0.37885535  0.37885535  0.79147287  1.0
  Al  Al19  1  0.37885535  0.37885535  0.20852713  1.0
