# generated using pymatgen
data_Zn(ClO3)2
_symmetry_space_group_name_H-M   'P 1'
_cell_length_a   8.13724287
_cell_length_b   6.50576018
_cell_length_c   9.44617924
_cell_angle_alpha   90.00000000
_cell_angle_beta   147.81451772
_cell_angle_gamma   90.00000000
_symmetry_Int_Tables_number   1
_chemical_formula_structural   Zn(ClO3)2
_chemical_formula_sum   'Zn2 Cl4 O12'
_cell_volume   266.36864553
_cell_formula_units_Z   2
loop_
 _symmetry_equiv_pos_site_id
 _symmetry_equiv_pos_as_xyz
  1  'x, y, z'
loop_
 _atom_site_type_symbol
 _atom_site_label
 _atom_site_symmetry_multiplicity
 _atom_site_fract_x
 _atom_site_fract_y
 _atom_site_fract_z
 _atom_site_occupancy
  Zn  Zn0  1  -0.00000000  0.50000000  0.50000000  1.0
  Zn  Zn1  1  0.00000000  0.00000000  0.00000000  1.0
  Cl  Cl2  1  0.72501896  0.07325160  0.47987316  1.0
  Cl  Cl3  1  0.72501896  0.42674840  0.97987316  1.0
  Cl  Cl4  1  0.27498104  0.57325160  0.02012684  1.0
  Cl  Cl5  1  0.27498104  0.92674840  0.52012684  1.0
  O  O6  1  1.02607200  0.88244235  0.22946265  1.0
  O  O7  1  1.02607200  0.61755765  0.72946265  1.0
  O  O8  1  -0.02607200  0.38244235  0.27053735  1.0
  O  O9  1  -0.02607200  0.11755765  0.77053735  1.0
  O  O10  1  0.42420259  0.15415936  0.32460311  1.0
  O  O11  1  0.42420259  0.34584064  0.82460311  1.0
  O  O12  1  0.57579741  0.65415936  0.17539689  1.0
  O  O13  1  0.57579741  0.84584064  0.67539689  1.0
  O  O14  1  0.79719512  0.20549993  0.40612142  1.0
  O  O15  1  0.79719512  0.29450007  0.90612142  1.0
  O  O16  1  0.20280488  0.70549993  0.09387858  1.0
  O  O17  1  0.20280488  0.79450007  0.59387858  1.0
