# generated using pymatgen
data_LiPH4NO3F
_symmetry_space_group_name_H-M   'P 1'
_cell_length_a   5.51683406
_cell_length_b   5.05780620
_cell_length_c   14.61727640
_cell_angle_alpha   90.00000000
_cell_angle_beta   90.92757344
_cell_angle_gamma   90.00000000
_symmetry_Int_Tables_number   1
_chemical_formula_structural   LiPH4NO3F
_chemical_formula_sum   'Li4 P4 H16 N4 O12 F4'
_cell_volume   407.81354901
_cell_formula_units_Z   4
loop_
 _symmetry_equiv_pos_site_id
 _symmetry_equiv_pos_as_xyz
  1  'x, y, z'
loop_
 _atom_site_type_symbol
 _atom_site_label
 _atom_site_symmetry_multiplicity
 _atom_site_fract_x
 _atom_site_fract_y
 _atom_site_fract_z
 _atom_site_occupancy
  Li  Li0  1  0.31613994  0.93637709  0.25412499  1.0
  Li  Li1  1  0.31613994  0.56362291  0.75412499  1.0
  Li  Li2  1  0.68386006  0.43637709  0.24587501  1.0
  Li  Li3  1  0.68386006  0.06362291  0.74587501  1.0
  P  P4  1  0.20146996  0.43311295  0.35563845  1.0
  P  P5  1  0.20146996  0.06688705  0.85563845  1.0
  P  P6  1  0.79853004  0.93311295  0.14436155  1.0
  P  P7  1  0.79853004  0.56688705  0.64436155  1.0
  H  H8  1  0.14788110  0.59704544  0.09819388  1.0
  H  H9  1  0.14788110  0.90295456  0.59819388  1.0
  H  H10  1  0.85211890  0.09704544  0.40180612  1.0
  H  H11  1  0.85211890  0.40295456  0.90180612  1.0
  H  H12  1  0.20250714  0.26872160  0.10760346  1.0
  H  H13  1  0.20250714  0.23127840  0.60760346  1.0
  H  H14  1  0.79749286  0.76872160  0.39239654  1.0
  H  H15  1  0.79749286  0.73127840  0.89239654  1.0
  H  H16  1  0.25098765  0.42682277  0.00645100  1.0
  H  H17  1  0.25098765  1.07317723  0.50645100  1.0
  H  H18  1  0.74901235  -0.07317723  0.49354900  1.0
  H  H19  1  0.74901235  0.57317723  0.99354900  1.0
  H  H20  1  0.43546729  0.49558736  0.09770429  1.0
  H  H21  1  0.43546729  1.00441264  0.59770429  1.0
  H  H22  1  0.56453271  -0.00441264  0.40229571  1.0
  H  H23  1  0.56453271  0.50441264  0.90229571  1.0
  N  N24  1  0.25954501  0.44565787  0.07717907  1.0
  N  N25  1  0.25954501  0.05434213  0.57717907  1.0
  N  N26  1  0.74045499  0.94565787  0.42282093  1.0
  N  N27  1  0.74045499  0.55434213  0.92282093  1.0
  O  O28  1  0.06970770  0.98318998  0.15973029  1.0
  O  O29  1  0.06970770  0.51681002  0.65973029  1.0
  O  O30  1  0.93029230  0.48318998  0.34026971  1.0
  O  O31  1  0.93029230  0.01681002  0.84026971  1.0
  O  O32  1  0.36945322  0.56913627  0.28837953  1.0
  O  O33  1  0.36945322  0.93086373  0.78837953  1.0
  O  O34  1  0.63054678  0.06913627  0.21162047  1.0
  O  O35  1  0.63054678  0.43086373  0.71162047  1.0
  O  O36  1  0.73778220  0.64008316  0.12637997  1.0
  O  O37  1  0.73778220  0.85991684  0.62637997  1.0
  O  O38  1  0.26221780  0.14008316  0.37362003  1.0
  O  O39  1  0.26221780  0.35991684  0.87362003  1.0
  F  F40  1  0.26009300  0.57503372  0.45347817  1.0
  F  F41  1  0.26009300  0.92496628  0.95347817  1.0
  F  F42  1  0.73990700  0.07503372  0.04652183  1.0
  F  F43  1  0.73990700  0.42496628  0.54652183  1.0
