# generated using pymatgen
data_LiGd(PO3)4
_symmetry_space_group_name_H-M   'P 1'
_cell_length_a   9.03412893
_cell_length_b   9.03412893
_cell_length_c   9.80499691
_cell_angle_alpha   57.11210983
_cell_angle_beta   122.88789017
_cell_angle_gamma   133.26615165
_symmetry_Int_Tables_number   1
_chemical_formula_structural   LiGd(PO3)4
_chemical_formula_sum   'Li2 Gd2 P8 O24'
_cell_volume   469.84291089
_cell_formula_units_Z   2
loop_
 _symmetry_equiv_pos_site_id
 _symmetry_equiv_pos_as_xyz
  1  'x, y, z'
loop_
 _atom_site_type_symbol
 _atom_site_label
 _atom_site_symmetry_multiplicity
 _atom_site_fract_x
 _atom_site_fract_y
 _atom_site_fract_z
 _atom_site_occupancy
  Li  Li0  1  0.79448305  0.79448305  0.25000000  1.0
  Li  Li1  1  0.20551695  0.20551695  0.75000000  1.0
  Gd  Gd2  1  0.29721954  0.29721954  0.25000000  1.0
  Gd  Gd3  1  0.70278046  0.70278046  0.75000000  1.0
  P  P4  1  0.80846124  0.08359444  0.33995530  1.0
  P  P5  1  0.91640556  -0.80846124  0.83995530  1.0
  P  P6  1  1.08359444  0.80846124  0.16004470  1.0
  P  P7  1  1.19153876  -0.08359444  0.66004470  1.0
  P  P8  1  0.49244030  0.19981501  0.09696766  1.0
  P  P9  1  0.80018499  -0.49244030  0.59696766  1.0
  P  P10  1  1.19981501  0.49244030  0.40303234  1.0
  P  P11  1  1.50755970  -0.19981501  0.90303234  1.0
  O  O12  1  1.92695938  0.05969318  0.29591011  1.0
  O  O13  1  0.94030682  -0.92695938  0.79591011  1.0
  O  O14  1  1.05969318  0.92695938  0.20408989  1.0
  O  O15  1  0.07304062  -0.05969318  0.70408989  1.0
  O  O16  1  1.51684112  -0.33811265  0.08343140  1.0
  O  O17  1  1.33811265  -0.51684112  0.58343140  1.0
  O  O18  1  0.66188735  0.51684112  0.41656860  1.0
  O  O19  1  0.48315888  0.33811265  0.91656860  1.0
  O  O20  1  0.67274229  -0.10220553  0.45782528  1.0
  O  O21  1  1.10220553  -0.67274229  0.95782528  1.0
  O  O22  1  0.89779447  0.67274229  0.04217472  1.0
  O  O23  1  1.32725771  0.10220553  0.54217472  1.0
  O  O24  1  1.71966126  0.03399131  0.91801322  1.0
  O  O25  1  0.96600869  0.28033874  0.41801322  1.0
  O  O26  1  1.03399131  -0.28033874  0.58198678  1.0
  O  O27  1  0.28033874  -0.03399131  0.08198678  1.0
  O  O28  1  0.67258725  0.16259801  0.15943464  1.0
  O  O29  1  0.83740199  -0.67258725  0.65943464  1.0
  O  O30  1  1.16259801  0.67258725  0.34056536  1.0
  O  O31  1  1.32741275  -0.16259801  0.84056536  1.0
  O  O32  1  0.50970716  0.25727538  0.22529340  1.0
  O  O33  1  0.74272462  -0.50970716  0.72529340  1.0
  O  O34  1  1.25727538  0.50970716  0.27470660  1.0
  O  O35  1  1.49029284  -0.25727538  0.77470660  1.0
