# generated using pymatgen
data_AsCl3
_symmetry_space_group_name_H-M   'P 1'
_cell_length_a   4.51875493
_cell_length_b   10.71398749
_cell_length_c   12.60300639
_cell_angle_alpha   90.00000000
_cell_angle_beta   90.00000000
_cell_angle_gamma   90.00000000
_symmetry_Int_Tables_number   1
_chemical_formula_structural   AsCl3
_chemical_formula_sum   'As4 Cl12'
_cell_volume   610.16048630
_cell_formula_units_Z   4
loop_
 _symmetry_equiv_pos_site_id
 _symmetry_equiv_pos_as_xyz
  1  'x, y, z'
loop_
 _atom_site_type_symbol
 _atom_site_label
 _atom_site_symmetry_multiplicity
 _atom_site_fract_x
 _atom_site_fract_y
 _atom_site_fract_z
 _atom_site_occupancy
  As  As0  1  1.02781162  0.80301776  0.71186398  1.0
  As  As1  1  0.52781162  0.69698224  0.28813602  1.0
  As  As2  1  -0.02781162  0.30301776  0.78813602  1.0
  As  As3  1  0.47218838  0.19698224  0.21186398  1.0
  Cl  Cl4  1  0.27001214  0.65081327  0.62998746  1.0
  Cl  Cl5  1  0.77001214  0.84918673  0.37001254  1.0
  Cl  Cl6  1  0.72998786  0.15081327  0.87001254  1.0
  Cl  Cl7  1  0.22998786  0.34918673  0.12998746  1.0
  Cl  Cl8  1  0.26933985  0.80210362  0.86495190  1.0
  Cl  Cl9  1  0.76933985  0.69789638  0.13504810  1.0
  Cl  Cl10  1  0.73066015  0.30210362  0.63504810  1.0
  Cl  Cl11  1  0.23066015  0.19789638  0.36495190  1.0
  Cl  Cl12  1  0.24824772  0.96452450  0.63559158  1.0
  Cl  Cl13  1  0.74824772  0.53547550  0.36440842  1.0
  Cl  Cl14  1  0.75175228  0.46452450  0.86440842  1.0
  Cl  Cl15  1  0.25175228  0.03547550  0.13559158  1.0
