# generated using pymatgen
data_YGe2
_symmetry_space_group_name_H-M   'P 1'
_cell_length_a   10.81701949
_cell_length_b   10.81701949
_cell_length_c   10.81701949
_cell_angle_alpha   146.21792074
_cell_angle_beta   146.21792074
_cell_angle_gamma   48.52319085
_symmetry_Int_Tables_number   1
_chemical_formula_structural   YGe2
_chemical_formula_sum   'Y4 Ge8'
_cell_volume   389.64950967
_cell_formula_units_Z   4
loop_
 _symmetry_equiv_pos_site_id
 _symmetry_equiv_pos_as_xyz
  1  'x, y, z'
loop_
 _atom_site_type_symbol
 _atom_site_label
 _atom_site_symmetry_multiplicity
 _atom_site_fract_x
 _atom_site_fract_y
 _atom_site_fract_z
 _atom_site_occupancy
  Y  Y0  1  0.37500000  0.12500000  0.25000000  1.0
  Y  Y1  1  0.87500000  0.12500000  0.75000000  1.0
  Y  Y2  1  0.87500000  1.12500000  1.25000000  1.0
  Y  Y3  1  0.87500000  0.62500000  0.75000000  1.0
  Ge  Ge4  1  1.05346528  0.27804182  0.77542346  1.0
  Ge  Ge5  1  1.24738164  0.97195818  1.27542346  1.0
  Ge  Ge6  1  0.50261836  0.27804182  0.22457654  1.0
  Ge  Ge7  1  0.69653472  0.97195818  0.72457654  1.0
  Ge  Ge8  1  0.72195818  0.49738164  0.77542346  1.0
  Ge  Ge9  1  0.02804182  0.30346528  0.27542346  1.0
  Ge  Ge10  1  0.72195818  0.94653472  1.22457654  1.0
  Ge  Ge11  1  0.02804182  0.75261836  0.72457654  1.0
