# generated using pymatgen
data_SrCuP2O7
_symmetry_space_group_name_H-M   'P 1'
_cell_length_a   5.51826755
_cell_length_b   8.21172049
_cell_length_c   13.66386329
_cell_angle_alpha   90.00000000
_cell_angle_beta   112.71355633
_cell_angle_gamma   90.00000000
_symmetry_Int_Tables_number   1
_chemical_formula_structural   SrCuP2O7
_chemical_formula_sum   'Sr4 Cu4 P8 O28'
_cell_volume   571.15203431
_cell_formula_units_Z   4
loop_
 _symmetry_equiv_pos_site_id
 _symmetry_equiv_pos_as_xyz
  1  'x, y, z'
loop_
 _atom_site_type_symbol
 _atom_site_label
 _atom_site_symmetry_multiplicity
 _atom_site_fract_x
 _atom_site_fract_y
 _atom_site_fract_z
 _atom_site_occupancy
  Sr  Sr0  1  0.99193465  0.15710767  0.28137537  1.0
  Sr  Sr1  1  0.99193465  0.34289233  0.78137537  1.0
  Sr  Sr2  1  0.00806535  0.65710767  0.21862463  1.0
  Sr  Sr3  1  0.00806535  0.84289233  0.71862463  1.0
  Cu  Cu4  1  0.67218349  0.85456751  0.38716890  1.0
  Cu  Cu5  1  0.67218349  0.64543249  0.88716890  1.0
  Cu  Cu6  1  0.32781651  0.35456751  0.11283110  1.0
  Cu  Cu7  1  0.32781651  0.14543249  0.61283110  1.0
  P  P8  1  0.67002158  0.19376852  0.48807818  1.0
  P  P9  1  0.67002158  0.30623148  0.98807818  1.0
  P  P10  1  0.32997842  0.69376852  0.01192182  1.0
  P  P11  1  0.32997842  0.80623148  0.51192182  1.0
  P  P12  1  0.59430958  0.46338947  0.33834798  1.0
  P  P13  1  0.59430958  0.03661053  0.83834798  1.0
  P  P14  1  0.40569042  0.96338947  0.16165202  1.0
  P  P15  1  0.40569042  0.53661053  0.66165202  1.0
  O  O16  1  0.87817666  0.32244300  0.09954482  1.0
  O  O17  1  0.87817666  0.17755700  0.59954482  1.0
  O  O18  1  0.12182334  0.82244300  0.40045518  1.0
  O  O19  1  0.12182334  0.67755700  0.90045518  1.0
  O  O20  1  0.82074230  0.44280237  0.30165124  1.0
  O  O21  1  0.82074230  0.05719763  0.80165124  1.0
  O  O22  1  0.17925770  0.94280237  0.19834876  1.0
  O  O23  1  0.17925770  0.55719763  0.69834876  1.0
  O  O24  1  0.72863677  0.09354221  0.40276376  1.0
  O  O25  1  0.72863677  0.40645779  0.90276376  1.0
  O  O26  1  0.27136323  0.59354221  0.09723624  1.0
  O  O27  1  0.27136323  0.90645779  0.59723624  1.0
  O  O28  1  0.68376087  0.38413250  0.45544932  1.0
  O  O29  1  0.68376087  0.11586750  0.95544932  1.0
  O  O30  1  0.31623913  0.88413250  0.04455068  1.0
  O  O31  1  0.31623913  0.61586750  0.54455068  1.0
  O  O32  1  0.48351370  0.14041041  0.15162166  1.0
  O  O33  1  0.48351370  0.35958959  0.65162166  1.0
  O  O34  1  0.51648630  0.64041041  0.34837834  1.0
  O  O35  1  0.51648630  0.85958959  0.84837834  1.0
  O  O36  1  0.38112014  0.16389975  0.47647407  1.0
  O  O37  1  0.38112014  0.33610025  0.97647407  1.0
  O  O38  1  0.61887986  0.66389975  0.02352593  1.0
  O  O39  1  0.61887986  0.83610025  0.52352593  1.0
  O  O40  1  0.33774911  0.37561223  0.26492567  1.0
  O  O41  1  0.33774911  0.12438777  0.76492567  1.0
  O  O42  1  0.66225089  0.87561223  0.23507433  1.0
  O  O43  1  0.66225089  0.62438777  0.73507433  1.0
