# generated using pymatgen
data_Sr3MgGeN4
_symmetry_space_group_name_H-M   'P 1'
_cell_length_a   5.97839681
_cell_length_b   10.40573968
_cell_length_c   9.67934773
_cell_angle_alpha   90.00000000
_cell_angle_beta   90.00000000
_cell_angle_gamma   90.00000000
_symmetry_Int_Tables_number   1
_chemical_formula_structural   Sr3MgGeN4
_chemical_formula_sum   'Sr12 Mg4 Ge4 N16'
_cell_volume   602.14874609
_cell_formula_units_Z   4
loop_
 _symmetry_equiv_pos_site_id
 _symmetry_equiv_pos_as_xyz
  1  'x, y, z'
loop_
 _atom_site_type_symbol
 _atom_site_label
 _atom_site_symmetry_multiplicity
 _atom_site_fract_x
 _atom_site_fract_y
 _atom_site_fract_z
 _atom_site_occupancy
  Sr  Sr0  1  0.38813211  0.34748508  0.59143253  1.0
  Sr  Sr1  1  0.38813211  0.15251492  0.90856747  1.0
  Sr  Sr2  1  0.88813211  0.34748508  0.40856747  1.0
  Sr  Sr3  1  0.88813211  0.15251492  0.09143253  1.0
  Sr  Sr4  1  0.61186789  0.84748508  0.09143253  1.0
  Sr  Sr5  1  0.61186789  0.65251492  0.40856747  1.0
  Sr  Sr6  1  0.11186789  0.84748508  0.90856747  1.0
  Sr  Sr7  1  0.11186789  0.65251492  0.59143253  1.0
  Sr  Sr8  1  0.75000000  0.50000000  0.09085312  1.0
  Sr  Sr9  1  0.75000000  0.00000000  0.40914688  1.0
  Sr  Sr10  1  0.25000000  0.50000000  0.90914688  1.0
  Sr  Sr11  1  0.25000000  0.00000000  0.59085312  1.0
  Mg  Mg12  1  0.84268586  0.25000000  0.75000000  1.0
  Mg  Mg13  1  0.34268586  0.25000000  0.25000000  1.0
  Mg  Mg14  1  0.15731414  0.75000000  0.25000000  1.0
  Mg  Mg15  1  0.65731414  0.75000000  0.75000000  1.0
  Ge  Ge16  1  0.75000000  0.50000000  0.76732726  1.0
  Ge  Ge17  1  0.75000000  0.00000000  0.73267274  1.0
  Ge  Ge18  1  0.25000000  0.50000000  0.23267274  1.0
  Ge  Ge19  1  0.25000000  0.00000000  0.26732726  1.0
  N  N20  1  0.98587588  0.41552801  0.66277217  1.0
  N  N21  1  0.98587588  0.08447199  0.83722783  1.0
  N  N22  1  0.48587588  0.41552801  0.33722783  1.0
  N  N23  1  0.48587588  0.08447199  0.16277217  1.0
  N  N24  1  0.01412412  0.91552801  0.16277217  1.0
  N  N25  1  0.01412412  0.58447199  0.33722783  1.0
  N  N26  1  0.51412412  0.91552801  0.83722783  1.0
  N  N27  1  0.51412412  0.58447199  0.66277217  1.0
  N  N28  1  0.61504177  0.13600377  0.62892214  1.0
  N  N29  1  0.61504177  0.36399623  0.87107786  1.0
  N  N30  1  0.11504177  0.13600377  0.37107786  1.0
  N  N31  1  0.11504177  0.36399623  0.12892214  1.0
  N  N32  1  0.38495823  0.63600377  0.12892214  1.0
  N  N33  1  0.38495823  0.86399623  0.37107786  1.0
  N  N34  1  0.88495823  0.63600377  0.87107786  1.0
  N  N35  1  0.88495823  0.86399623  0.62892214  1.0
