# generated using pymatgen
data_Ge7O23
_symmetry_space_group_name_H-M   'P 1'
_cell_length_a   7.76609911
_cell_length_b   7.76609911
_cell_length_c   7.76609911
_cell_angle_alpha   90.00000000
_cell_angle_beta   90.00000000
_cell_angle_gamma   90.00000000
_symmetry_Int_Tables_number   1
_chemical_formula_structural   Ge7O23
_chemical_formula_sum   'Ge7 O23'
_cell_volume   468.39126341
_cell_formula_units_Z   1
loop_
 _symmetry_equiv_pos_site_id
 _symmetry_equiv_pos_as_xyz
  1  'x, y, z'
loop_
 _atom_site_type_symbol
 _atom_site_label
 _atom_site_symmetry_multiplicity
 _atom_site_fract_x
 _atom_site_fract_y
 _atom_site_fract_z
 _atom_site_occupancy
  O  O0  1  0.72353430  0.72353430  0.27646570  1.0
  O  O1  1  0.72353430  0.27646570  0.72353430  1.0
  O  O2  1  0.27646570  0.72353430  0.72353430  1.0
  O  O3  1  0.27646570  0.27646570  0.27646570  1.0
  O  O4  1  0.00000000  0.50000000  0.50000000  1.0
  O  O5  1  0.50000000  0.00000000  0.50000000  1.0
  O  O6  1  0.50000000  0.50000000  0.00000000  1.0
  O  O7  1  0.88507725  0.88507725  0.11492275  1.0
  O  O8  1  0.88507725  0.11492275  0.88507725  1.0
  O  O9  1  0.11492275  0.88507725  0.88507725  1.0
  O  O10  1  0.11492275  0.11492275  0.11492275  1.0
  O  O11  1  0.86408876  0.86408876  0.62075796  1.0
  O  O12  1  0.86408876  0.37924204  0.13591124  1.0
  O  O13  1  0.86408876  0.13591124  0.37924204  1.0
  O  O14  1  0.86408876  0.62075796  0.86408876  1.0
  O  O15  1  0.37924204  0.86408876  0.13591124  1.0
  O  O16  1  0.37924204  0.13591124  0.86408876  1.0
  O  O17  1  0.13591124  0.86408876  0.37924204  1.0
  O  O18  1  0.13591124  0.37924204  0.86408876  1.0
  O  O19  1  0.13591124  0.13591124  0.62075796  1.0
  O  O20  1  0.13591124  0.62075796  0.13591124  1.0
  O  O21  1  0.62075796  0.86408876  0.86408876  1.0
  O  O22  1  0.62075796  0.13591124  0.13591124  1.0
  Ge  Ge23  1  0.14502609  0.14502609  0.85497391  1.0
  Ge  Ge24  1  0.14502609  0.85497391  0.14502609  1.0
  Ge  Ge25  1  0.85497391  0.14502609  0.14502609  1.0
  Ge  Ge26  1  0.85497391  0.85497391  0.85497391  1.0
  Ge  Ge27  1  0.50000000  0.00000000  0.00000000  1.0
  Ge  Ge28  1  0.00000000  0.50000000  0.00000000  1.0
  Ge  Ge29  1  0.00000000  0.00000000  0.50000000  1.0
