# generated using pymatgen
data_NaCrF6
_symmetry_space_group_name_H-M   'P 1'
_cell_length_a   5.80543382
_cell_length_b   5.80543382
_cell_length_c   5.80543382
_cell_angle_alpha   59.43113790
_cell_angle_beta   59.43113790
_cell_angle_gamma   59.43113790
_symmetry_Int_Tables_number   1
_chemical_formula_structural   NaCrF6
_chemical_formula_sum   'Na1 Cr1 F6'
_cell_volume   136.56246300
_cell_formula_units_Z   1
loop_
 _symmetry_equiv_pos_site_id
 _symmetry_equiv_pos_as_xyz
  1  'x, y, z'
loop_
 _atom_site_type_symbol
 _atom_site_label
 _atom_site_symmetry_multiplicity
 _atom_site_fract_x
 _atom_site_fract_y
 _atom_site_fract_z
 _atom_site_occupancy
  Na  Na0  1  0.50000000  0.50000000  -0.50000000  1.0
  Cr  Cr1  1  0.00000000  -0.00000000  0.00000000  1.0
  F  F2  1  0.16630454  0.78534470  -0.73488726  1.0
  F  F3  1  0.73488726  -0.16630454  0.21465530  1.0
  F  F4  1  1.21465530  -0.26511274  -0.16630454  1.0
  F  F5  1  0.83369546  0.21465530  -0.26511274  1.0
  F  F6  1  0.26511274  0.16630454  -0.21465530  1.0
  F  F7  1  0.78534470  0.26511274  -0.83369546  1.0
