# generated using pymatgen
data_LaNi5H12
_symmetry_space_group_name_H-M   'P 1'
_cell_length_a   5.95423665
_cell_length_b   5.95423665
_cell_length_c   4.30840897
_cell_angle_alpha   90.00000000
_cell_angle_beta   90.00000000
_cell_angle_gamma   120.00000000
_symmetry_Int_Tables_number   1
_chemical_formula_structural   LaNi5H12
_chemical_formula_sum   'La1 Ni5 H12'
_cell_volume   132.28169043
_cell_formula_units_Z   1
loop_
 _symmetry_equiv_pos_site_id
 _symmetry_equiv_pos_as_xyz
  1  'x, y, z'
loop_
 _atom_site_type_symbol
 _atom_site_label
 _atom_site_symmetry_multiplicity
 _atom_site_fract_x
 _atom_site_fract_y
 _atom_site_fract_z
 _atom_site_occupancy
  La  La0  1  0.00000000  0.00000000  0.00000000  1.0
  Ni  Ni1  1  0.50000000  0.50000000  0.50000000  1.0
  Ni  Ni2  1  0.50000000  0.00000000  0.50000000  1.0
  Ni  Ni3  1  0.00000000  0.50000000  0.50000000  1.0
  Ni  Ni4  1  0.33333333  0.66666667  0.00000000  1.0
  Ni  Ni5  1  0.66666667  0.33333333  -0.00000000  1.0
  H  H6  1  0.64474990  0.64474990  0.79243990  1.0
  H  H7  1  0.64474990  0.64474990  0.20756010  1.0
  H  H8  1  0.64474990  0.00000000  0.79243990  1.0
  H  H9  1  0.64474990  -0.00000000  0.20756010  1.0
  H  H10  1  0.00000000  0.64474990  0.79243990  1.0
  H  H11  1  0.00000000  0.64474990  0.20756010  1.0
  H  H12  1  -0.00000000  0.35525010  0.79243990  1.0
  H  H13  1  -0.00000000  0.35525010  0.20756010  1.0
  H  H14  1  0.35525010  0.35525010  0.79243990  1.0
  H  H15  1  0.35525010  0.35525010  0.20756010  1.0
  H  H16  1  0.35525010  -0.00000000  0.79243990  1.0
  H  H17  1  0.35525010  -0.00000000  0.20756010  1.0
