# generated using pymatgen
data_GdCrSb3
_symmetry_space_group_name_H-M   'P 1'
_cell_length_a   12.85203900
_cell_length_b   6.23149449
_cell_length_c   6.10505223
_cell_angle_alpha   90.00000000
_cell_angle_beta   90.00000000
_cell_angle_gamma   90.00000000
_symmetry_Int_Tables_number   1
_chemical_formula_structural   GdCrSb3
_chemical_formula_sum   'Gd4 Cr4 Sb12'
_cell_volume   488.93782290
_cell_formula_units_Z   4
loop_
 _symmetry_equiv_pos_site_id
 _symmetry_equiv_pos_as_xyz
  1  'x, y, z'
loop_
 _atom_site_type_symbol
 _atom_site_label
 _atom_site_symmetry_multiplicity
 _atom_site_fract_x
 _atom_site_fract_y
 _atom_site_fract_z
 _atom_site_occupancy
  Gd  Gd0  1  0.69037330  0.49303232  0.75000000  1.0
  Gd  Gd1  1  0.69037330  0.00696768  0.25000000  1.0
  Gd  Gd2  1  0.30962670  0.99303232  0.75000000  1.0
  Gd  Gd3  1  0.30962670  0.50696768  0.25000000  1.0
  Cr  Cr4  1  0.09630814  0.25000000  0.00000000  1.0
  Cr  Cr5  1  0.09630814  0.25000000  0.50000000  1.0
  Cr  Cr6  1  0.90369186  0.75000000  0.00000000  1.0
  Cr  Cr7  1  0.90369186  0.75000000  0.50000000  1.0
  Sb  Sb8  1  0.49752087  0.25000000  0.00000000  1.0
  Sb  Sb9  1  0.49752087  0.25000000  0.50000000  1.0
  Sb  Sb10  1  0.50247913  0.75000000  0.00000000  1.0
  Sb  Sb11  1  0.50247913  0.75000000  0.50000000  1.0
  Sb  Sb12  1  0.93632165  0.39732966  0.75000000  1.0
  Sb  Sb13  1  0.93632165  0.10267034  0.25000000  1.0
  Sb  Sb14  1  0.06367835  0.89732966  0.75000000  1.0
  Sb  Sb15  1  0.06367835  0.60267034  0.25000000  1.0
  Sb  Sb16  1  0.77320607  -0.00109909  0.75000000  1.0
  Sb  Sb17  1  0.77320607  0.50109909  0.25000000  1.0
  Sb  Sb18  1  0.22679393  0.49890091  0.75000000  1.0
  Sb  Sb19  1  0.22679393  1.00109909  0.25000000  1.0
