# generated using pymatgen
data_NaYbSiO4
_symmetry_space_group_name_H-M   'P 1'
_cell_length_a   11.16158849
_cell_length_b   6.44945424
_cell_length_c   5.17634538
_cell_angle_alpha   90.00000000
_cell_angle_beta   90.00000000
_cell_angle_gamma   90.00000000
_symmetry_Int_Tables_number   1
_chemical_formula_structural   NaYbSiO4
_chemical_formula_sum   'Na4 Yb4 Si4 O16'
_cell_volume   372.62519717
_cell_formula_units_Z   4
loop_
 _symmetry_equiv_pos_site_id
 _symmetry_equiv_pos_as_xyz
  1  'x, y, z'
loop_
 _atom_site_type_symbol
 _atom_site_label
 _atom_site_symmetry_multiplicity
 _atom_site_fract_x
 _atom_site_fract_y
 _atom_site_fract_z
 _atom_site_occupancy
  Na  Na0  1  0.00000000  0.50000000  0.00000000  1.0
  Na  Na1  1  0.50000000  0.00000000  0.50000000  1.0
  Na  Na2  1  0.00000000  0.00000000  0.00000000  1.0
  Na  Na3  1  0.50000000  0.50000000  0.50000000  1.0
  Yb  Yb4  1  0.22062565  0.75000000  0.49832993  1.0
  Yb  Yb5  1  0.72062565  0.75000000  0.00167007  1.0
  Yb  Yb6  1  0.77937435  0.25000000  0.50167007  1.0
  Yb  Yb7  1  0.27937435  0.25000000  0.99832993  1.0
  Si  Si8  1  0.39989672  0.75000000  0.94070782  1.0
  Si  Si9  1  0.89989672  0.75000000  0.55929218  1.0
  Si  Si10  1  0.60010328  0.25000000  0.05929218  1.0
  Si  Si11  1  0.10010328  0.25000000  0.44070782  1.0
  O  O12  1  0.32788847  0.55194366  0.79961082  1.0
  O  O13  1  0.82788847  0.94805634  0.70038918  1.0
  O  O14  1  0.67211153  0.05194366  0.20038918  1.0
  O  O15  1  0.17211153  0.44805634  0.29961082  1.0
  O  O16  1  0.67211153  0.44805634  0.20038918  1.0
  O  O17  1  0.17211153  0.05194366  0.29961082  1.0
  O  O18  1  0.32788847  0.94805634  0.79961082  1.0
  O  O19  1  0.82788847  0.55194366  0.70038918  1.0
  O  O20  1  0.03851322  0.75000000  0.66500700  1.0
  O  O21  1  0.53851322  0.75000000  0.83499300  1.0
  O  O22  1  0.96148678  0.25000000  0.33499300  1.0
  O  O23  1  0.46148678  0.25000000  0.16500700  1.0
  O  O24  1  0.38785024  0.75000000  0.25406535  1.0
  O  O25  1  0.88785024  0.75000000  0.24593465  1.0
  O  O26  1  0.61214976  0.25000000  0.74593465  1.0
  O  O27  1  0.11214976  0.25000000  0.75406535  1.0
