# generated using pymatgen
data_NaH2SeO4
_symmetry_space_group_name_H-M   'P 1'
_cell_length_a   6.67742815
_cell_length_b   6.67742815
_cell_length_c   9.73787694
_cell_angle_alpha   90.00000000
_cell_angle_beta   90.00000000
_cell_angle_gamma   116.07248078
_symmetry_Int_Tables_number   1
_chemical_formula_structural   NaH2SeO4
_chemical_formula_sum   'Na4 H8 Se4 O16'
_cell_volume   390.00890940
_cell_formula_units_Z   4
loop_
 _symmetry_equiv_pos_site_id
 _symmetry_equiv_pos_as_xyz
  1  'x, y, z'
loop_
 _atom_site_type_symbol
 _atom_site_label
 _atom_site_symmetry_multiplicity
 _atom_site_fract_x
 _atom_site_fract_y
 _atom_site_fract_z
 _atom_site_occupancy
  Na  Na0  1  -0.06277625  1.59255188  0.38560009  1.0
  Na  Na1  1  0.59255188  0.93722375  0.88560009  1.0
  Na  Na2  1  -0.59255188  1.06277625  0.38560009  1.0
  Na  Na3  1  0.06277625  0.40744812  0.88560009  1.0
  H  H4  1  0.18839572  0.34940074  0.36948933  1.0
  H  H5  1  -0.65059926  1.18839572  0.86948933  1.0
  H  H6  1  0.65059926  0.81160428  0.36948933  1.0
  H  H7  1  -0.18839572  1.65059926  0.86948933  1.0
  H  H8  1  0.17025275  0.82974725  0.62996973  1.0
  H  H9  1  -0.17025275  1.17025275  0.12996973  1.0
  H  H10  1  0.30518925  0.69481075  0.61331870  1.0
  H  H11  1  -0.30518925  1.30518925  0.11331870  1.0
  Se  Se12  1  0.09545422  0.90454578  0.05991694  1.0
  Se  Se13  1  -0.09545422  1.09545422  0.55991694  1.0
  Se  Se14  1  0.44280127  0.55719873  0.19590384  1.0
  Se  Se15  1  -0.44280127  1.44280127  0.69590384  1.0
  O  O16  1  0.18104394  0.43552033  0.28350752  1.0
  O  O17  1  -0.56447967  1.18104394  0.78350752  1.0
  O  O18  1  0.56447967  0.81895606  0.28350752  1.0
  O  O19  1  -0.18104394  1.56447967  0.78350752  1.0
  O  O20  1  -0.17175368  1.78411674  0.00589047  1.0
  O  O21  1  0.78411674  0.82824632  0.50589047  1.0
  O  O22  1  -0.78411674  1.17175368  0.00589047  1.0
  O  O23  1  0.17175368  0.21588326  0.50589047  1.0
  O  O24  1  0.10158601  0.89841399  0.22948336  1.0
  O  O25  1  -0.10158601  1.10158601  0.72948336  1.0
  O  O26  1  0.22992578  0.77007422  -0.00937212  1.0
  O  O27  1  -0.22992578  1.22992578  0.49062788  1.0
  O  O28  1  0.23143264  0.76856736  0.55967448  1.0
  O  O29  1  -0.23143264  1.23143264  0.05967448  1.0
  O  O30  1  -0.42091793  1.42091793  0.26243026  1.0
  O  O31  1  0.42091793  0.57908207  0.76243026  1.0
