# generated using pymatgen
data_MoCl5
_symmetry_space_group_name_H-M   'P 1'
_cell_length_a   6.72729596
_cell_length_b   9.88902110
_cell_length_c   7.20793477
_cell_angle_alpha   66.63503070
_cell_angle_beta   63.54696408
_cell_angle_gamma   70.50460040
_symmetry_Int_Tables_number   1
_chemical_formula_structural   MoCl5
_chemical_formula_sum   'Mo2 Cl10'
_cell_volume   386.84380736
_cell_formula_units_Z   2
loop_
 _symmetry_equiv_pos_site_id
 _symmetry_equiv_pos_as_xyz
  1  'x, y, z'
loop_
 _atom_site_type_symbol
 _atom_site_label
 _atom_site_symmetry_multiplicity
 _atom_site_fract_x
 _atom_site_fract_y
 _atom_site_fract_z
 _atom_site_occupancy
  Mo  Mo0  1  -0.59664512  0.71020717  -0.00486861  1.0
  Mo  Mo1  1  -0.40335488  0.28979283  0.00486861  1.0
  Cl  Cl2  1  -0.90277702  0.83015500  -0.78364686  1.0
  Cl  Cl3  1  -0.09722298  0.16984500  0.78364686  1.0
  Cl  Cl4  1  -0.78065345  0.72877668  -0.21684275  1.0
  Cl  Cl5  1  -0.21934655  0.27122332  0.21684275  1.0
  Cl  Cl6  1  -0.72239485  0.46026191  0.21605021  1.0
  Cl  Cl7  1  -0.27760515  0.53973809  -0.21605021  1.0
  Cl  Cl8  1  -0.43943585  0.91435464  -0.23404367  1.0
  Cl  Cl9  1  -0.56056415  0.08564536  0.23404367  1.0
  Cl  Cl10  1  -0.38655729  0.64177548  0.20502751  1.0
  Cl  Cl11  1  -0.61344271  0.35822452  -0.20502751  1.0
