# generated using pymatgen
data_K3GdF6
_symmetry_space_group_name_H-M   'P 1'
_cell_length_a   6.90088660
_cell_length_b   6.90088660
_cell_length_c   6.90088660
_cell_angle_alpha   116.78490046
_cell_angle_beta   116.78490046
_cell_angle_gamma   95.66520278
_symmetry_Int_Tables_number   1
_chemical_formula_structural   K3GdF6
_chemical_formula_sum   'K3 Gd1 F6'
_cell_volume   242.39064976
_cell_formula_units_Z   1
loop_
 _symmetry_equiv_pos_site_id
 _symmetry_equiv_pos_as_xyz
  1  'x, y, z'
loop_
 _atom_site_type_symbol
 _atom_site_label
 _atom_site_symmetry_multiplicity
 _atom_site_fract_x
 _atom_site_fract_y
 _atom_site_fract_z
 _atom_site_occupancy
  K  K0  1  0.25000000  0.75000000  0.50000000  1.0
  K  K1  1  0.75000000  0.25000000  0.50000000  1.0
  K  K2  1  0.50000000  0.50000000  1.00000000  1.0
  Gd  Gd3  1  0.00000000  0.00000000  0.00000000  1.0
  F  F4  1  1.00000000  0.69204560  0.69204560  1.0
  F  F5  1  0.69204560  -0.00000000  0.69204560  1.0
  F  F6  1  0.30795440  -0.00000000  0.30795440  1.0
  F  F7  1  1.00000000  1.30795440  1.30795440  1.0
  F  F8  1  0.75828692  0.75828692  1.00000000  1.0
  F  F9  1  1.24171308  1.24171308  1.00000000  1.0
