# generated using pymatgen
data_NiO2
_symmetry_space_group_name_H-M   'P 1'
_cell_length_a   2.82307163
_cell_length_b   2.82307163
_cell_length_c   5.36005391
_cell_angle_alpha   75.08737290
_cell_angle_beta   104.91262710
_cell_angle_gamma   119.99923787
_symmetry_Int_Tables_number   1
_chemical_formula_structural   NiO2
_chemical_formula_sum   'Ni1 O2'
_cell_volume   35.32418495
_cell_formula_units_Z   1
loop_
 _symmetry_equiv_pos_site_id
 _symmetry_equiv_pos_as_xyz
  1  'x, y, z'
loop_
 _atom_site_type_symbol
 _atom_site_label
 _atom_site_symmetry_multiplicity
 _atom_site_fract_x
 _atom_site_fract_y
 _atom_site_fract_z
 _atom_site_occupancy
  Ni  Ni0  1  0.00000000  0.00000000  0.00000000  1.0
  O  O1  1  0.27337198  -0.27337198  0.81591100  1.0
  O  O2  1  0.72662802  0.27337198  0.18408900  1.0
