# generated using pymatgen
data_Cs2PAuS4
_symmetry_space_group_name_H-M   'P 1'
_cell_length_a   7.18091549
_cell_length_b   20.51945271
_cell_length_c   7.24859355
_cell_angle_alpha   90.00000000
_cell_angle_beta   90.00000000
_cell_angle_gamma   90.00000000
_symmetry_Int_Tables_number   1
_chemical_formula_structural   Cs2PAuS4
_chemical_formula_sum   'Cs8 P4 Au4 S16'
_cell_volume   1068.06906667
_cell_formula_units_Z   4
loop_
 _symmetry_equiv_pos_site_id
 _symmetry_equiv_pos_as_xyz
  1  'x, y, z'
loop_
 _atom_site_type_symbol
 _atom_site_label
 _atom_site_symmetry_multiplicity
 _atom_site_fract_x
 _atom_site_fract_y
 _atom_site_fract_z
 _atom_site_occupancy
  Cs  Cs0  1  0.92213254  0.16732992  0.25000000  1.0
  Cs  Cs1  1  0.92213254  0.33267008  0.75000000  1.0
  Cs  Cs2  1  0.07786746  0.66732992  0.25000000  1.0
  Cs  Cs3  1  0.07786746  0.83267008  0.75000000  1.0
  Cs  Cs4  1  0.70635126  0.48476399  0.25000000  1.0
  Cs  Cs5  1  0.70635126  0.01523601  0.75000000  1.0
  Cs  Cs6  1  0.29364874  0.98476399  0.25000000  1.0
  Cs  Cs7  1  0.29364874  0.51523601  0.75000000  1.0
  P  P8  1  0.78243517  0.88634551  0.25000000  1.0
  P  P9  1  0.78243517  0.61365449  0.75000000  1.0
  P  P10  1  0.21756483  0.38634551  0.25000000  1.0
  P  P11  1  0.21756483  0.11365449  0.75000000  1.0
  Au  Au12  1  0.37441265  0.25000000  0.50000000  1.0
  Au  Au13  1  0.37441265  0.25000000  -0.00000000  1.0
  Au  Au14  1  0.62558735  0.75000000  0.50000000  1.0
  Au  Au15  1  0.62558735  0.75000000  0.00000000  1.0
  S  S16  1  0.37284745  0.13763112  0.51144776  1.0
  S  S17  1  0.37284745  0.13763112  0.98855224  1.0
  S  S18  1  0.37284745  0.36236888  0.01144776  1.0
  S  S19  1  0.37284745  0.36236888  0.48855224  1.0
  S  S20  1  0.62715255  0.63763112  0.51144776  1.0
  S  S21  1  0.62715255  0.63763112  0.98855224  1.0
  S  S22  1  0.62715255  0.86236888  0.01144776  1.0
  S  S23  1  0.62715255  0.86236888  0.48855224  1.0
  S  S24  1  0.96586297  0.34146227  0.25000000  1.0
  S  S25  1  0.96586297  0.15853773  0.75000000  1.0
  S  S26  1  0.03413703  0.84146227  0.25000000  1.0
  S  S27  1  0.03413703  0.65853773  0.75000000  1.0
  S  S28  1  0.79269354  0.98538866  0.25000000  1.0
  S  S29  1  0.79269354  0.51461134  0.75000000  1.0
  S  S30  1  0.20730646  0.48538866  0.25000000  1.0
  S  S31  1  0.20730646  0.01461134  0.75000000  1.0
