# generated using pymatgen
data_KReO4
_symmetry_space_group_name_H-M   'P 1'
_cell_length_a   7.64569615
_cell_length_b   7.64569615
_cell_length_c   7.64569615
_cell_angle_alpha   135.36591641
_cell_angle_beta   135.36591641
_cell_angle_gamma   64.96217678
_symmetry_Int_Tables_number   1
_chemical_formula_structural   KReO4
_chemical_formula_sum   'K2 Re2 O8'
_cell_volume   217.46253388
_cell_formula_units_Z   2
loop_
 _symmetry_equiv_pos_site_id
 _symmetry_equiv_pos_as_xyz
  1  'x, y, z'
loop_
 _atom_site_type_symbol
 _atom_site_label
 _atom_site_symmetry_multiplicity
 _atom_site_fract_x
 _atom_site_fract_y
 _atom_site_fract_z
 _atom_site_occupancy
  K  K0  1  0.25000000  0.75000000  0.50000000  1.0
  K  K1  1  0.50000000  0.50000000  0.00000000  1.0
  Re  Re2  1  0.75000000  0.25000000  0.50000000  1.0
  Re  Re3  1  1.00000000  1.00000000  1.00000000  1.0
  O  O4  1  0.78995653  0.39078327  0.83488258  1.0
  O  O5  1  0.55590070  0.95507395  1.16511742  1.0
  O  O6  1  0.70507395  1.03995653  0.89917325  1.0
  O  O7  1  1.14078327  0.80590070  1.10082675  1.0
  O  O8  1  0.96004347  0.85921673  0.66511742  1.0
  O  O9  1  1.19409930  1.29492605  1.33488258  1.0
  O  O10  1  1.04492605  1.21004347  1.60082675  1.0
  O  O11  1  0.60921673  0.44409930  0.39917325  1.0
