# generated using pymatgen
data_NbCl4F
_symmetry_space_group_name_H-M   'P 1'
_cell_length_a   10.44941678
_cell_length_b   9.95397249
_cell_length_c   8.64200448
_cell_angle_alpha   68.37110025
_cell_angle_beta   66.50876459
_cell_angle_gamma   77.18011297
_symmetry_Int_Tables_number   1
_chemical_formula_structural   NbCl4F
_chemical_formula_sum   'Nb4 Cl16 F4'
_cell_volume   763.37171435
_cell_formula_units_Z   4
loop_
 _symmetry_equiv_pos_site_id
 _symmetry_equiv_pos_as_xyz
  1  'x, y, z'
loop_
 _atom_site_type_symbol
 _atom_site_label
 _atom_site_symmetry_multiplicity
 _atom_site_fract_x
 _atom_site_fract_y
 _atom_site_fract_z
 _atom_site_occupancy
  Nb  Nb0  1  -0.82979860  -0.74842637  -0.72895224  1.0
  Nb  Nb1  1  -0.17020140  -0.25157363  -0.27104776  1.0
  Nb  Nb2  1  -0.26146335  -0.80460748  -0.49896303  1.0
  Nb  Nb3  1  -0.73853665  -0.19539252  -0.50103697  1.0
  Cl  Cl4  1  -0.83925638  -0.81821267  -0.95223087  1.0
  Cl  Cl5  1  -0.16074362  -0.18178733  -0.04776913  1.0
  Cl  Cl6  1  -0.89446636  -0.50971543  -0.84348885  1.0
  Cl  Cl7  1  -0.10553364  -0.49028457  -0.15651115  1.0
  Cl  Cl8  1  -0.59367218  -0.73529209  -0.84471939  1.0
  Cl  Cl9  1  -0.40632782  -0.26470791  -0.15528061  1.0
  Cl  Cl10  1  -0.22302025  -0.86603839  -0.74926618  1.0
  Cl  Cl11  1  -0.77697975  -0.13396161  -0.25073382  1.0
  Cl  Cl12  1  -0.75692991  -0.21555085  -0.75034028  1.0
  Cl  Cl13  1  -0.24307009  -0.78444915  -0.24965972  1.0
  Cl  Cl14  1  -0.29544002  -0.56125539  -0.62938245  1.0
  Cl  Cl15  1  -0.70455998  -0.43874461  -0.37061755  1.0
  Cl  Cl16  1  -0.85728572  -0.73447003  -0.45516512  1.0
  Cl  Cl17  1  -0.14271428  -0.26552997  -0.54483488  1.0
  Cl  Cl18  1  -0.49026506  -0.85277252  -0.36680451  1.0
  Cl  Cl19  1  -0.50973494  -0.14722748  -0.63319549  1.0
  F  F20  1  -0.80056008  -0.97429307  -0.60566436  1.0
  F  F21  1  -0.19943992  -0.02570693  -0.39433564  1.0
  F  F22  1  -0.95756627  -0.20774081  -0.39458842  1.0
  F  F23  1  -0.04243373  -0.79225919  -0.60541158  1.0
