# generated using pymatgen
data_Cs4Si3O8
_symmetry_space_group_name_H-M   'P 1'
_cell_length_a   9.51378288
_cell_length_b   13.67182046
_cell_length_c   11.42828719
_cell_angle_alpha   69.43114646
_cell_angle_beta   64.58768116
_cell_angle_gamma   79.33828179
_symmetry_Int_Tables_number   1
_chemical_formula_structural   Cs4Si3O8
_chemical_formula_sum   'Cs16 Si12 O32'
_cell_volume   1256.03331808
_cell_formula_units_Z   4
loop_
 _symmetry_equiv_pos_site_id
 _symmetry_equiv_pos_as_xyz
  1  'x, y, z'
loop_
 _atom_site_type_symbol
 _atom_site_label
 _atom_site_symmetry_multiplicity
 _atom_site_fract_x
 _atom_site_fract_y
 _atom_site_fract_z
 _atom_site_occupancy
  Cs  Cs0  1  0.23263340  -0.24374178  0.72765892  1.0
  Cs  Cs1  1  -0.23263340  -0.75625822  0.27234108  1.0
  Cs  Cs2  1  0.03226160  -0.82916142  0.90203686  1.0
  Cs  Cs3  1  -0.03226160  -0.17083858  0.09796314  1.0
  Cs  Cs4  1  0.37812392  -0.63960893  0.54527727  1.0
  Cs  Cs5  1  -0.37812392  -0.36039107  0.45472273  1.0
  Cs  Cs6  1  -0.31463558  -0.59102438  0.92470921  1.0
  Cs  Cs7  1  0.31463558  -0.40897562  0.07529079  1.0
  Cs  Cs8  1  0.33625312  -0.75051506  0.26837487  1.0
  Cs  Cs9  1  -0.33625312  -0.24948494  0.73162513  1.0
  Cs  Cs10  1  -0.12520081  -0.65811869  0.55868976  1.0
  Cs  Cs11  1  0.12520081  -0.34188131  0.44131024  1.0
  Cs  Cs12  1  -0.51806362  -0.82907027  0.89952718  1.0
  Cs  Cs13  1  0.51806362  -0.17092973  0.10047282  1.0
  Cs  Cs14  1  0.11478669  -0.99300444  0.25851892  1.0
  Cs  Cs15  1  -0.11478669  -0.00699556  0.74148108  1.0
  Si  Si16  1  0.27627713  -0.92660524  0.59920204  1.0
  Si  Si17  1  -0.27627713  -0.07339476  0.40079796  1.0
  Si  Si18  1  0.07086243  -0.51511455  0.79430847  1.0
  Si  Si19  1  -0.07086243  -0.48488545  0.20569153  1.0
  Si  Si20  1  -0.13325123  -0.35708579  0.95229811  1.0
  Si  Si21  1  0.13325123  -0.64291421  0.04770189  1.0
  Si  Si22  1  0.66579789  -0.94204880  0.14039610  1.0
  Si  Si23  1  -0.66579789  -0.05795120  0.85960390  1.0
  Si  Si24  1  -0.40057371  -0.93547930  0.59883892  1.0
  Si  Si25  1  0.40057371  -0.06452070  0.40116108  1.0
  Si  Si26  1  -0.59857739  -0.52162045  0.79015137  1.0
  Si  Si27  1  0.59857739  -0.47837955  0.20984863  1.0
  O  O28  1  0.45713283  -0.88754822  0.54219725  1.0
  O  O29  1  -0.45713283  -0.11245178  0.45780275  1.0
  O  O30  1  0.23826091  -0.01422785  0.75236376  1.0
  O  O31  1  -0.23826091  -0.98577215  0.24763624  1.0
  O  O32  1  0.25540908  -0.48370101  0.73172276  1.0
  O  O33  1  -0.25540908  -0.51629899  0.26827724  1.0
  O  O34  1  0.03478602  -0.60506605  0.94700843  1.0
  O  O35  1  -0.03478602  -0.39493395  0.05299157  1.0
  O  O36  1  -0.03905596  -0.40862630  0.82416637  1.0
  O  O37  1  0.03905596  -0.59137370  0.17583363  1.0
  O  O38  1  0.27914602  -0.99152064  0.49823586  1.0
  O  O39  1  -0.27914602  -0.00847936  0.50176414  1.0
  O  O40  1  0.74083674  -1.00000676  0.02495998  1.0
  O  O41  1  -0.74083674  0.00000676  0.97504002  1.0
  O  O42  1  0.66247923  -0.81609054  0.08735762  1.0
  O  O43  1  -0.66247923  -0.18390946  0.91264238  1.0
  O  O44  1  0.53046337  -0.58138360  0.21849736  1.0
  O  O45  1  -0.53046337  -0.41861640  0.78150264  1.0
  O  O46  1  -0.14482473  -0.23302520  0.89328258  1.0
  O  O47  1  0.14482473  -0.76697480  0.10671742  1.0
  O  O48  1  0.15283924  -0.83030682  0.59902580  1.0
  O  O49  1  -0.15283924  -0.16969318  0.40097420  1.0
  O  O50  1  0.03232609  -0.55468682  0.69624908  1.0
  O  O51  1  -0.03232609  -0.44531318  0.30375092  1.0
  O  O52  1  0.48052925  -0.98182629  0.24526553  1.0
  O  O53  1  -0.48052925  -0.01817371  0.75473447  1.0
  O  O54  1  -0.31080756  -0.84546483  0.59303979  1.0
  O  O55  1  0.31080756  -0.15453517  0.40696021  1.0
  O  O56  1  -0.69495221  -0.58801879  0.95873300  1.0
  O  O57  1  0.69495221  -0.41198121  0.04126700  1.0
  O  O58  1  -0.47543821  -0.59989491  0.71397554  1.0
  O  O59  1  0.47543821  -0.40010509  0.28602446  1.0
