# generated using pymatgen
data_Be4Si2O9
_symmetry_space_group_name_H-M   'P 1'
_cell_length_a   9.02239820
_cell_length_b   9.02239820
_cell_length_c   4.68277632
_cell_angle_alpha   90.00000000
_cell_angle_beta   90.00000000
_cell_angle_gamma   122.15162746
_symmetry_Int_Tables_number   1
_chemical_formula_structural   Be4Si2O9
_chemical_formula_sum   'Be8 Si4 O18'
_cell_volume   322.73613130
_cell_formula_units_Z   2
loop_
 _symmetry_equiv_pos_site_id
 _symmetry_equiv_pos_as_xyz
  1  'x, y, z'
loop_
 _atom_site_type_symbol
 _atom_site_label
 _atom_site_symmetry_multiplicity
 _atom_site_fract_x
 _atom_site_fract_y
 _atom_site_fract_z
 _atom_site_occupancy
  Si  Si0  1  0.20275045  0.43564270  0.55127458  1.0
  Si  Si1  1  0.43564270  1.20275045  0.05127458  1.0
  Si  Si2  1  0.56435730  0.79724955  0.55127458  1.0
  Si  Si3  1  -0.20275045  0.56435730  0.05127458  1.0
  O  O4  1  -0.18111657  0.73797127  0.89531042  1.0
  O  O5  1  0.73797127  0.81888343  0.39531042  1.0
  O  O6  1  0.26202873  1.18111657  0.89531042  1.0
  O  O7  1  0.18111657  0.26202873  0.39531042  1.0
  O  O8  1  0.14874220  0.40057676  0.89010584  1.0
  O  O9  1  0.40057676  1.14874220  0.39010584  1.0
  O  O10  1  0.59942324  0.85125780  0.89010584  1.0
  O  O11  1  -0.14874220  0.59942324  0.39010584  1.0
  O  O12  1  -0.07256487  0.51288197  0.89197802  1.0
  O  O13  1  0.51288197  0.92743513  0.39197802  1.0
  O  O14  1  0.48711803  1.07256487  0.89197802  1.0
  O  O15  1  0.07256487  0.48711803  0.39197802  1.0
  O  O16  1  0.40552879  0.59447121  0.51059951  1.0
  O  O17  1  -0.40552879  0.40552879  0.01059951  1.0
  O  O18  1  0.07431387  0.92568613  0.55565313  1.0
  O  O19  1  -0.07431387  0.07431387  0.05565313  1.0
  O  O20  1  0.26077966  0.73922034  0.03984246  1.0
  O  O21  1  -0.26077966  0.26077966  0.53984246  1.0
  Be  Be22  1  -0.12659693  0.77240759  0.55536935  1.0
  Be  Be23  1  0.77240759  0.87340307  0.05536935  1.0
  Be  Be24  1  0.22759241  1.12659693  0.55536935  1.0
  Be  Be25  1  0.12659693  0.22759241  0.05536935  1.0
  Be  Be26  1  -0.10228585  0.46393145  0.55041424  1.0
  Be  Be27  1  0.46393145  0.89771415  0.05041424  1.0
  Be  Be28  1  0.53606855  1.10228585  0.55041424  1.0
  Be  Be29  1  0.10228585  0.53606855  0.05041424  1.0
