# generated using pymatgen
data_Cu2SiSe3
_symmetry_space_group_name_H-M   'P 1'
_cell_length_a   6.81025461
_cell_length_b   6.81025461
_cell_length_c   6.76243285
_cell_angle_alpha   80.91670140
_cell_angle_beta   99.08329860
_cell_angle_gamma   59.35209925
_symmetry_Int_Tables_number   1
_chemical_formula_structural   Cu2SiSe3
_chemical_formula_sum   'Cu4 Si2 Se6'
_cell_volume   255.74315210
_cell_formula_units_Z   2
loop_
 _symmetry_equiv_pos_site_id
 _symmetry_equiv_pos_as_xyz
  1  'x, y, z'
loop_
 _atom_site_type_symbol
 _atom_site_label
 _atom_site_symmetry_multiplicity
 _atom_site_fract_x
 _atom_site_fract_y
 _atom_site_fract_z
 _atom_site_occupancy
  Cu  Cu0  1  0.97866549  -0.80618176  0.64913839  1.0
  Cu  Cu1  1  0.80618176  0.02133451  0.14913839  1.0
  Cu  Cu2  1  1.13585431  -0.62585623  0.14706525  1.0
  Cu  Cu3  1  0.62585623  -0.13585431  0.64706525  1.0
  Si  Si4  1  1.27976088  -0.44932259  0.62550113  1.0
  Si  Si5  1  0.44932259  -0.27976088  0.12550113  1.0
  Se  Se6  1  0.26004945  0.25491327  0.52211377  1.0
  Se  Se7  1  0.74508673  -0.26004945  0.02211377  1.0
  Se  Se8  1  0.92128074  -0.09163516  0.52605753  1.0
  Se  Se9  1  0.09163516  0.07871926  0.02605753  1.0
  Se  Se10  1  0.58301289  -0.42469377  0.50562393  1.0
  Se  Se11  1  0.42469377  0.41698711  0.00562393  1.0
