# generated using pymatgen
data_HfMn2
_symmetry_space_group_name_H-M   'P 1'
_cell_length_a   4.89517086
_cell_length_b   4.89517086
_cell_length_c   8.15937181
_cell_angle_alpha   90.00000000
_cell_angle_beta   90.00000000
_cell_angle_gamma   120.00000000
_symmetry_Int_Tables_number   1
_chemical_formula_structural   HfMn2
_chemical_formula_sum   'Hf4 Mn8'
_cell_volume   169.32577219
_cell_formula_units_Z   4
loop_
 _symmetry_equiv_pos_site_id
 _symmetry_equiv_pos_as_xyz
  1  'x, y, z'
loop_
 _atom_site_type_symbol
 _atom_site_label
 _atom_site_symmetry_multiplicity
 _atom_site_fract_x
 _atom_site_fract_y
 _atom_site_fract_z
 _atom_site_occupancy
  Hf  Hf0  1  0.33333333  0.66666667  0.93620535  1.0
  Hf  Hf1  1  0.33333333  0.66666667  0.56379465  1.0
  Hf  Hf2  1  0.66666667  0.33333333  0.43620535  1.0
  Hf  Hf3  1  0.66666667  0.33333333  0.06379465  1.0
  Mn  Mn4  1  0.17066070  0.82933930  0.25000000  1.0
  Mn  Mn5  1  0.17066070  0.34132140  0.25000000  1.0
  Mn  Mn6  1  0.82933930  0.17066070  0.75000000  1.0
  Mn  Mn7  1  0.82933930  0.65867860  0.75000000  1.0
  Mn  Mn8  1  0.65867860  0.82933930  0.25000000  1.0
  Mn  Mn9  1  0.34132140  0.17066070  0.75000000  1.0
  Mn  Mn10  1  0.00000000  0.00000000  0.50000000  1.0
  Mn  Mn11  1  0.00000000  -0.00000000  0.00000000  1.0
