# generated using pymatgen
data_BaYb2CuO5
_symmetry_space_group_name_H-M   'P 1'
_cell_length_a   12.15056103
_cell_length_b   5.64392027
_cell_length_c   7.25297555
_cell_angle_alpha   90.00000000
_cell_angle_beta   90.00000000
_cell_angle_gamma   90.00000000
_symmetry_Int_Tables_number   1
_chemical_formula_structural   BaYb2CuO5
_chemical_formula_sum   'Ba4 Yb8 Cu4 O20'
_cell_volume   497.38583745
_cell_formula_units_Z   4
loop_
 _symmetry_equiv_pos_site_id
 _symmetry_equiv_pos_as_xyz
  1  'x, y, z'
loop_
 _atom_site_type_symbol
 _atom_site_label
 _atom_site_symmetry_multiplicity
 _atom_site_fract_x
 _atom_site_fract_y
 _atom_site_fract_z
 _atom_site_occupancy
  Ba  Ba0  1  0.09690138  0.75000000  0.56444564  1.0
  Ba  Ba1  1  0.59690138  0.75000000  0.93555436  1.0
  Ba  Ba2  1  0.90309862  0.25000000  0.43555436  1.0
  Ba  Ba3  1  0.40309862  0.25000000  0.06444564  1.0
  Yb  Yb4  1  0.21431141  0.75000000  0.10983712  1.0
  Yb  Yb5  1  0.71431141  0.75000000  0.39016288  1.0
  Yb  Yb6  1  0.78568859  0.25000000  0.89016288  1.0
  Yb  Yb7  1  0.28568859  0.25000000  0.60983712  1.0
  Yb  Yb8  1  0.92700955  0.75000000  0.10860389  1.0
  Yb  Yb9  1  0.42700955  0.75000000  0.39139611  1.0
  Yb  Yb10  1  0.07299045  0.25000000  0.89139611  1.0
  Yb  Yb11  1  0.57299045  0.25000000  0.60860389  1.0
  Cu  Cu12  1  0.33848084  0.75000000  0.77509633  1.0
  Cu  Cu13  1  0.83848084  0.75000000  0.72490367  1.0
  Cu  Cu14  1  0.66151916  0.25000000  0.22490367  1.0
  Cu  Cu15  1  0.16151916  0.25000000  0.27509633  1.0
  O  O16  1  0.43072496  0.99093649  0.66070141  1.0
  O  O17  1  0.43072496  0.50906351  0.66070141  1.0
  O  O18  1  0.93072496  0.99093649  0.83929859  1.0
  O  O19  1  0.93072496  0.50906351  0.83929859  1.0
  O  O20  1  0.56927504  0.49093649  0.33929859  1.0
  O  O21  1  0.56927504  0.00906351  0.33929859  1.0
  O  O22  1  0.06927504  0.49093649  0.16070141  1.0
  O  O23  1  0.06927504  0.00906351  0.16070141  1.0
  O  O24  1  0.23059067  0.99392952  0.85138444  1.0
  O  O25  1  0.23059067  0.50607048  0.85138444  1.0
  O  O26  1  0.73059067  0.99392952  0.64861556  1.0
  O  O27  1  0.73059067  0.50607048  0.64861556  1.0
  O  O28  1  0.76940933  0.49392952  0.14861556  1.0
  O  O29  1  0.76940933  0.00607048  0.14861556  1.0
  O  O30  1  0.26940933  0.49392952  0.35138444  1.0
  O  O31  1  0.26940933  0.00607048  0.35138444  1.0
  O  O32  1  0.40196548  0.75000000  0.08212878  1.0
  O  O33  1  0.90196548  0.75000000  0.41787122  1.0
  O  O34  1  0.59803452  0.25000000  0.91787122  1.0
  O  O35  1  0.09803452  0.25000000  0.58212878  1.0
