# generated using pymatgen
data_Ni3S4
_symmetry_space_group_name_H-M   'P 1'
_cell_length_a   6.68894076
_cell_length_b   6.68894076
_cell_length_c   6.68894076
_cell_angle_alpha   60.00000000
_cell_angle_beta   60.00000000
_cell_angle_gamma   60.00000000
_symmetry_Int_Tables_number   1
_chemical_formula_structural   Ni3S4
_chemical_formula_sum   'Ni6 S8'
_cell_volume   211.62016611
_cell_formula_units_Z   2
loop_
 _symmetry_equiv_pos_site_id
 _symmetry_equiv_pos_as_xyz
  1  'x, y, z'
loop_
 _atom_site_type_symbol
 _atom_site_label
 _atom_site_symmetry_multiplicity
 _atom_site_fract_x
 _atom_site_fract_y
 _atom_site_fract_z
 _atom_site_occupancy
  Ni  Ni0  1  1.12500000  0.62500000  0.62500000  1.0
  Ni  Ni1  1  0.62500000  1.12500000  -0.37500000  1.0
  Ni  Ni2  1  -0.37500000  0.62500000  1.12500000  1.0
  Ni  Ni3  1  -0.37500000  0.62500000  0.62500000  1.0
  Ni  Ni4  1  0.25000000  1.25000000  0.25000000  1.0
  Ni  Ni5  1  0.00000000  0.00000000  0.00000000  1.0
  S  S6  1  -0.15091328  0.38363776  0.38363776  1.0
  S  S7  1  0.38363776  -0.15091328  0.38363776  1.0
  S  S8  1  0.38363776  1.38363776  -0.15091328  1.0
  S  S9  1  0.38363776  1.38363776  0.38363776  1.0
  S  S10  1  0.40091328  0.86636224  -0.13363776  1.0
  S  S11  1  0.86636224  0.40091328  0.86636224  1.0
  S  S12  1  0.86636224  0.86636224  -0.59908672  1.0
  S  S13  1  0.86636224  0.86636224  0.86636224  1.0
