# generated using pymatgen
data_Gd3(GeRh)2
_symmetry_space_group_name_H-M   'P 1'
_cell_length_a   5.61894341
_cell_length_b   7.92452310
_cell_length_c   13.37393841
_cell_angle_alpha   90.00000000
_cell_angle_beta   90.00000000
_cell_angle_gamma   90.00000000
_symmetry_Int_Tables_number   1
_chemical_formula_structural   Gd3(GeRh)2
_chemical_formula_sum   'Gd12 Ge8 Rh8'
_cell_volume   595.50733191
_cell_formula_units_Z   4
loop_
 _symmetry_equiv_pos_site_id
 _symmetry_equiv_pos_as_xyz
  1  'x, y, z'
loop_
 _atom_site_type_symbol
 _atom_site_label
 _atom_site_symmetry_multiplicity
 _atom_site_fract_x
 _atom_site_fract_y
 _atom_site_fract_z
 _atom_site_occupancy
  Gd  Gd0  1  0.85439816  0.60392651  0.89965080  1.0
  Gd  Gd1  1  0.85439816  0.60392651  0.60034920  1.0
  Gd  Gd2  1  0.85439816  0.89607349  0.39965080  1.0
  Gd  Gd3  1  0.85439816  0.89607349  0.10034920  1.0
  Gd  Gd4  1  0.14560184  0.10392651  0.89965080  1.0
  Gd  Gd5  1  0.14560184  0.10392651  0.60034920  1.0
  Gd  Gd6  1  0.14560184  0.39607349  0.39965080  1.0
  Gd  Gd7  1  0.14560184  0.39607349  0.10034920  1.0
  Gd  Gd8  1  0.36753424  0.74116354  0.75000000  1.0
  Gd  Gd9  1  0.36753424  0.75883646  0.25000000  1.0
  Gd  Gd10  1  0.63246576  0.24116354  0.75000000  1.0
  Gd  Gd11  1  0.63246576  0.25883646  0.25000000  1.0
  Ge  Ge12  1  0.86510158  0.88956559  0.75000000  1.0
  Ge  Ge13  1  0.86510158  0.61043441  0.25000000  1.0
  Ge  Ge14  1  0.13489842  0.38956559  0.75000000  1.0
  Ge  Ge15  1  0.13489842  0.11043441  0.25000000  1.0
  Ge  Ge16  1  0.34787630  0.75000000  0.00000000  1.0
  Ge  Ge17  1  0.34787630  0.75000000  0.50000000  1.0
  Ge  Ge18  1  0.65212370  0.25000000  0.00000000  1.0
  Ge  Ge19  1  0.65212370  0.25000000  0.50000000  1.0
  Rh  Rh20  1  0.62751600  0.96114307  0.90859526  1.0
  Rh  Rh21  1  0.62751600  0.96114307  0.59140474  1.0
  Rh  Rh22  1  0.62751600  0.53885693  0.40859526  1.0
  Rh  Rh23  1  0.62751600  0.53885693  0.09140474  1.0
  Rh  Rh24  1  0.37248400  0.46114307  0.90859526  1.0
  Rh  Rh25  1  0.37248400  0.46114307  0.59140474  1.0
  Rh  Rh26  1  0.37248400  0.03885693  0.40859526  1.0
  Rh  Rh27  1  0.37248400  0.03885693  0.09140474  1.0
