# generated using pymatgen
data_Ba3SiS5
_symmetry_space_group_name_H-M   'P 1'
_cell_length_a   12.09971212
_cell_length_b   9.53247263
_cell_length_c   8.67814237
_cell_angle_alpha   90.00000000
_cell_angle_beta   90.00000000
_cell_angle_gamma   90.00000000
_symmetry_Int_Tables_number   1
_chemical_formula_structural   Ba3SiS5
_chemical_formula_sum   'Ba12 Si4 S20'
_cell_volume   1000.93845618
_cell_formula_units_Z   4
loop_
 _symmetry_equiv_pos_site_id
 _symmetry_equiv_pos_as_xyz
  1  'x, y, z'
loop_
 _atom_site_type_symbol
 _atom_site_label
 _atom_site_symmetry_multiplicity
 _atom_site_fract_x
 _atom_site_fract_y
 _atom_site_fract_z
 _atom_site_occupancy
  Ba  Ba0  1  0.68308480  0.48045137  0.07682966  1.0
  Ba  Ba1  1  0.68308480  0.01954863  0.07682966  1.0
  Ba  Ba2  1  0.18308480  0.48045137  0.42317034  1.0
  Ba  Ba3  1  0.18308480  0.01954863  0.42317034  1.0
  Ba  Ba4  1  0.31691520  0.98045137  0.92317034  1.0
  Ba  Ba5  1  0.31691520  0.51954863  0.92317034  1.0
  Ba  Ba6  1  0.81691520  0.98045137  0.57682966  1.0
  Ba  Ba7  1  0.81691520  0.51954863  0.57682966  1.0
  Ba  Ba8  1  0.51978064  0.25000000  0.61477383  1.0
  Ba  Ba9  1  0.01978064  0.25000000  0.88522617  1.0
  Ba  Ba10  1  0.48021936  0.75000000  0.38522617  1.0
  Ba  Ba11  1  0.98021936  0.75000000  0.11477383  1.0
  Si  Si12  1  0.90318689  0.25000000  0.30521631  1.0
  Si  Si13  1  0.40318689  0.25000000  0.19478369  1.0
  Si  Si14  1  0.09681311  0.75000000  0.69478369  1.0
  Si  Si15  1  0.59681311  0.75000000  0.80521631  1.0
  S  S16  1  0.94506416  0.43456796  0.18243578  1.0
  S  S17  1  0.94506416  0.06543204  0.18243578  1.0
  S  S18  1  0.44506416  0.43456796  0.31756422  1.0
  S  S19  1  0.44506416  0.06543204  0.31756422  1.0
  S  S20  1  0.05493584  0.93456796  0.81756422  1.0
  S  S21  1  0.05493584  0.56543204  0.81756422  1.0
  S  S22  1  0.55493584  0.93456796  0.68243578  1.0
  S  S23  1  0.55493584  0.56543204  0.68243578  1.0
  S  S24  1  0.99529825  0.25000000  0.51333570  1.0
  S  S25  1  0.49529825  0.25000000  0.98666430  1.0
  S  S26  1  0.00470175  0.75000000  0.48666430  1.0
  S  S27  1  0.50470175  0.75000000  0.01333570  1.0
  S  S28  1  0.76597473  0.25000000  0.81692672  1.0
  S  S29  1  0.26597473  0.25000000  0.68307328  1.0
  S  S30  1  0.23402527  0.75000000  0.18307328  1.0
  S  S31  1  0.73402527  0.75000000  0.31692672  1.0
  S  S32  1  0.72869350  0.25000000  0.34925809  1.0
  S  S33  1  0.22869350  0.25000000  0.15074191  1.0
  S  S34  1  0.27130650  0.75000000  0.65074191  1.0
  S  S35  1  0.77130650  0.75000000  0.84925809  1.0
