# generated using pymatgen
data_Lu(InPt)4
_symmetry_space_group_name_H-M   'P 1'
_cell_length_a   4.59785553
_cell_length_b   4.59785553
_cell_length_c   20.06833494
_cell_angle_alpha   90.00000000
_cell_angle_beta   90.00000000
_cell_angle_gamma   120.00000000
_symmetry_Int_Tables_number   1
_chemical_formula_structural   Lu(InPt)4
_chemical_formula_sum   'Lu2 In8 Pt8'
_cell_volume   367.41138941
_cell_formula_units_Z   2
loop_
 _symmetry_equiv_pos_site_id
 _symmetry_equiv_pos_as_xyz
  1  'x, y, z'
loop_
 _atom_site_type_symbol
 _atom_site_label
 _atom_site_symmetry_multiplicity
 _atom_site_fract_x
 _atom_site_fract_y
 _atom_site_fract_z
 _atom_site_occupancy
  Lu  Lu0  1  0.33333333  0.66666667  0.25000000  1.0
  Lu  Lu1  1  0.66666667  0.33333333  0.75000000  1.0
  In  In2  1  0.33333333  0.66666667  0.95850068  1.0
  In  In3  1  0.33333333  0.66666667  0.54149932  1.0
  In  In4  1  0.66666667  0.33333333  0.45850068  1.0
  In  In5  1  0.66666667  0.33333333  0.04149932  1.0
  In  In6  1  0.00000000  0.00000000  0.35632348  1.0
  In  In7  1  0.00000000  0.00000000  0.14367652  1.0
  In  In8  1  0.00000000  0.00000000  0.85632348  1.0
  In  In9  1  0.00000000  0.00000000  0.64367652  1.0
  Pt  Pt10  1  0.33333333  0.66666667  0.40343426  1.0
  Pt  Pt11  1  0.33333333  0.66666667  0.09656574  1.0
  Pt  Pt12  1  0.66666667  0.33333333  0.90343426  1.0
  Pt  Pt13  1  0.66666667  0.33333333  0.59656574  1.0
  Pt  Pt14  1  0.33333333  0.66666667  0.81883237  1.0
  Pt  Pt15  1  0.33333333  0.66666667  0.68116763  1.0
  Pt  Pt16  1  0.66666667  0.33333333  0.31883237  1.0
  Pt  Pt17  1  0.66666667  0.33333333  0.18116763  1.0
