# generated using pymatgen
data_La15Ge9C
_symmetry_space_group_name_H-M   'P 1'
_cell_length_a   15.49475754
_cell_length_b   15.49475754
_cell_length_c   7.10183456
_cell_angle_alpha   90.00000000
_cell_angle_beta   90.00000000
_cell_angle_gamma   120.00000000
_symmetry_Int_Tables_number   1
_chemical_formula_structural   La15Ge9C
_chemical_formula_sum   'La30 Ge18 C2'
_cell_volume   1476.62682237
_cell_formula_units_Z   2
loop_
 _symmetry_equiv_pos_site_id
 _symmetry_equiv_pos_as_xyz
  1  'x, y, z'
loop_
 _atom_site_type_symbol
 _atom_site_label
 _atom_site_symmetry_multiplicity
 _atom_site_fract_x
 _atom_site_fract_y
 _atom_site_fract_z
 _atom_site_occupancy
  La  La0  1  0.67799842  0.65441314  0.01379089  1.0
  La  La1  1  0.67799842  0.02358528  0.01379089  1.0
  La  La2  1  0.65441314  0.67799842  0.51379089  1.0
  La  La3  1  0.65441314  0.97641472  0.51379089  1.0
  La  La4  1  0.97641472  0.65441314  0.01379089  1.0
  La  La5  1  0.97641472  0.32200158  0.01379089  1.0
  La  La6  1  0.34558686  0.32200158  0.01379089  1.0
  La  La7  1  0.34558686  0.02358528  0.01379089  1.0
  La  La8  1  0.32200158  0.97641472  0.51379089  1.0
  La  La9  1  0.32200158  0.34558686  0.51379089  1.0
  La  La10  1  0.02358528  0.67799842  0.51379089  1.0
  La  La11  1  0.02358528  0.34558686  0.51379089  1.0
  La  La12  1  0.49006340  0.74503170  0.22198757  1.0
  La  La13  1  0.74503170  0.49006340  0.72198757  1.0
  La  La14  1  0.74503170  0.25496830  0.72198757  1.0
  La  La15  1  0.25496830  0.74503170  0.22198757  1.0
  La  La16  1  0.25496830  0.50993660  0.22198757  1.0
  La  La17  1  0.50993660  0.25496830  0.72198757  1.0
  La  La18  1  0.82389943  0.41194971  0.28579060  1.0
  La  La19  1  0.41194971  0.82389943  0.78579060  1.0
  La  La20  1  0.41194971  0.58805029  0.78579060  1.0
  La  La21  1  0.58805029  0.41194971  0.28579060  1.0
  La  La22  1  0.58805029  0.17610057  0.28579060  1.0
  La  La23  1  0.17610057  0.58805029  0.78579060  1.0
  La  La24  1  0.16226027  0.08113013  0.29771652  1.0
  La  La25  1  0.08113013  0.16226027  0.79771652  1.0
  La  La26  1  0.08113013  0.91886987  0.79771652  1.0
  La  La27  1  0.91886987  0.08113013  0.29771652  1.0
  La  La28  1  0.91886987  0.83773973  0.29771652  1.0
  La  La29  1  0.83773973  0.91886987  0.79771652  1.0
  Ge  Ge30  1  0.73480128  0.86740064  0.23150597  1.0
  Ge  Ge31  1  0.86740064  0.73480128  0.73150597  1.0
  Ge  Ge32  1  0.86740064  0.13259936  0.73150597  1.0
  Ge  Ge33  1  0.13259936  0.86740064  0.23150597  1.0
  Ge  Ge34  1  0.13259936  0.26519872  0.23150597  1.0
  Ge  Ge35  1  0.26519872  0.13259936  0.73150597  1.0
  Ge  Ge36  1  0.06311823  0.53155912  0.24475569  1.0
  Ge  Ge37  1  0.53155912  0.06311823  0.74475569  1.0
  Ge  Ge38  1  0.53155912  0.46844088  0.74475569  1.0
  Ge  Ge39  1  0.46844088  0.53155912  0.24475569  1.0
  Ge  Ge40  1  0.46844088  0.93688177  0.24475569  1.0
  Ge  Ge41  1  0.93688177  0.46844088  0.74475569  1.0
  Ge  Ge42  1  0.39498602  0.19749301  0.31232394  1.0
  Ge  Ge43  1  0.19749301  0.39498602  0.81232394  1.0
  Ge  Ge44  1  0.19749301  0.80250699  0.81232394  1.0
  Ge  Ge45  1  0.80250699  0.19749301  0.31232394  1.0
  Ge  Ge46  1  0.80250699  0.60501398  0.31232394  1.0
  Ge  Ge47  1  0.60501398  0.80250699  0.81232394  1.0
  C  C48  1  0.33333333  0.66666667  0.00941380  1.0
  C  C49  1  0.66666667  0.33333333  0.50941380  1.0
