# generated using pymatgen
data_CuH10Se2(NO5)2
_symmetry_space_group_name_H-M   'P 1'
_cell_length_a   5.16725002
_cell_length_b   7.51728576
_cell_length_c   8.37264379
_cell_angle_alpha   102.26756948
_cell_angle_beta   110.67046766
_cell_angle_gamma   86.68059307
_symmetry_Int_Tables_number   1
_chemical_formula_structural   CuH10Se2(NO5)2
_chemical_formula_sum   'Cu1 H10 Se2 N2 O10'
_cell_volume   297.28831645
_cell_formula_units_Z   1
loop_
 _symmetry_equiv_pos_site_id
 _symmetry_equiv_pos_as_xyz
  1  'x, y, z'
loop_
 _atom_site_type_symbol
 _atom_site_label
 _atom_site_symmetry_multiplicity
 _atom_site_fract_x
 _atom_site_fract_y
 _atom_site_fract_z
 _atom_site_occupancy
  O  O0  1  -0.99242590  -0.14585352  -0.85942330  1.0
  O  O1  1  -0.00757410  -0.85414648  -0.14057670  1.0
  O  O2  1  -0.70178246  -0.22473617  -0.53879367  1.0
  O  O3  1  -0.29821754  -0.77526383  -0.46120633  1.0
  O  O4  1  0.00159890  -0.49480600  -0.81574398  1.0
  O  O5  1  -1.00159890  -0.50519400  -0.18425602  1.0
  O  O6  1  -0.50711637  -0.34144704  -0.79261174  1.0
  O  O7  1  -0.49288363  -0.65855296  -0.20738826  1.0
  O  O8  1  -0.52850330  -0.69507652  -0.91429021  1.0
  O  O9  1  -0.47149670  -0.30492348  -0.08570979  1.0
  Cu  Cu10  1  -0.50000000  -0.50000000  0.00000000  1.0
  Se  Se11  1  -0.81468004  -0.30236952  -0.75272665  1.0
  Se  Se12  1  -0.18531996  -0.69763048  -0.24727335  1.0
  N  N13  1  -0.90182616  -0.79062214  -0.64440994  1.0
  N  N14  1  -0.09817384  -0.20937786  -0.35559006  1.0
  H  H15  1  -0.69480786  -0.78457244  -0.56479428  1.0
  H  H16  1  -0.30519214  -0.21542756  -0.43520572  1.0
  H  H17  1  -0.94183681  -0.91567135  -0.73251009  1.0
  H  H18  1  -0.05816319  -0.08432865  -0.26748991  1.0
  H  H19  1  -1.03013741  -0.77986260  -0.57130634  1.0
  H  H20  1  0.03013741  -0.22013740  -0.42869366  1.0
  H  H21  1  -0.93954455  -0.68339584  -0.71044078  1.0
  H  H22  1  -0.06045545  -0.31660416  -0.28955922  1.0
  H  H23  1  -0.69807070  -0.76581091  -0.00196116  1.0
  H  H24  1  -0.30192930  -0.23418909  -0.99803884  1.0
