# generated using pymatgen
data_Zr6Zn23Si
_symmetry_space_group_name_H-M   'P 1'
_cell_length_a   8.76963979
_cell_length_b   8.76963979
_cell_length_c   8.76963979
_cell_angle_alpha   60.00000000
_cell_angle_beta   60.00000000
_cell_angle_gamma   60.00000000
_symmetry_Int_Tables_number   1
_chemical_formula_structural   Zr6Zn23Si
_chemical_formula_sum   'Zr6 Zn23 Si1'
_cell_volume   476.90323364
_cell_formula_units_Z   1
loop_
 _symmetry_equiv_pos_site_id
 _symmetry_equiv_pos_as_xyz
  1  'x, y, z'
loop_
 _atom_site_type_symbol
 _atom_site_label
 _atom_site_symmetry_multiplicity
 _atom_site_fract_x
 _atom_site_fract_y
 _atom_site_fract_z
 _atom_site_occupancy
  Zr  Zr0  1  -0.71134449  0.71134449  0.71134449  1.0
  Zr  Zr1  1  -0.28865551  0.28865551  0.71134449  1.0
  Zr  Zr2  1  0.71134449  0.71134449  -0.71134449  1.0
  Zr  Zr3  1  0.28865551  1.28865551  -0.28865551  1.0
  Zr  Zr4  1  0.28865551  -0.28865551  1.28865551  1.0
  Zr  Zr5  1  -0.28865551  0.28865551  0.28865551  1.0
  Zn  Zn6  1  0.87617975  0.87617975  -0.12382025  1.0
  Zn  Zn7  1  1.12382025  0.12382025  0.62853924  1.0
  Zn  Zn8  1  1.12382025  0.62853924  0.12382025  1.0
  Zn  Zn9  1  0.37146076  0.87617975  -0.12382025  1.0
  Zn  Zn10  1  1.62853924  0.12382025  0.12382025  1.0
  Zn  Zn11  1  0.87617975  0.37146076  -0.12382025  1.0
  Zn  Zn12  1  0.87617975  0.87617975  -0.62853924  1.0
  Zn  Zn13  1  1.12382025  0.12382025  0.12382025  1.0
  Zn  Zn14  1  0.66365904  0.66365904  -0.33634096  1.0
  Zn  Zn15  1  0.33634096  1.33634096  -0.00902287  1.0
  Zn  Zn16  1  1.33634096  -0.00902287  0.33634096  1.0
  Zn  Zn17  1  1.00902287  0.66365904  0.66365904  1.0
  Zn  Zn18  1  -0.00902287  1.33634096  0.33634096  1.0
  Zn  Zn19  1  0.66365904  1.00902287  -0.33634096  1.0
  Zn  Zn20  1  0.66365904  0.66365904  1.00902287  1.0
  Zn  Zn21  1  1.33634096  0.33634096  0.33634096  1.0
  Zn  Zn22  1  1.50000000  0.00000000  -0.00000000  1.0
  Zn  Zn23  1  1.00000000  0.50000000  -0.50000000  1.0
  Zn  Zn24  1  0.00000000  1.50000000  -0.00000000  1.0
  Zn  Zn25  1  0.50000000  1.00000000  -0.50000000  1.0
  Zn  Zn26  1  -0.00000000  -0.00000000  0.50000000  1.0
  Zn  Zn27  1  0.50000000  -0.50000000  1.00000000  1.0
  Zn  Zn28  1  0.00000000  0.00000000  0.00000000  1.0
  Si  Si29  1  -0.50000000  0.50000000  0.50000000  1.0
