# generated using pymatgen
data_Li5OsO6
_symmetry_space_group_name_H-M   'P 1'
_cell_length_a   5.07487159
_cell_length_b   5.07487159
_cell_length_c   5.05079404
_cell_angle_alpha   80.02069544
_cell_angle_beta   99.97930456
_cell_angle_gamma   60.17255688
_symmetry_Int_Tables_number   1
_chemical_formula_structural   Li5OsO6
_chemical_formula_sum   'Li5 Os1 O6'
_cell_volume   105.89081771
_cell_formula_units_Z   1
loop_
 _symmetry_equiv_pos_site_id
 _symmetry_equiv_pos_as_xyz
  1  'x, y, z'
loop_
 _atom_site_type_symbol
 _atom_site_label
 _atom_site_symmetry_multiplicity
 _atom_site_fract_x
 _atom_site_fract_y
 _atom_site_fract_z
 _atom_site_occupancy
  Li  Li0  1  0.67779629  -0.32220371  0.50000000  1.0
  Li  Li1  1  1.32220371  0.32220371  0.50000000  1.0
  Li  Li2  1  0.83232470  -0.16767530  -0.00000000  1.0
  Li  Li3  1  1.16767530  0.16767530  -0.00000000  1.0
  Li  Li4  1  -0.00000000  0.00000000  0.50000000  1.0
  Os  Os5  1  0.50000000  -0.50000000  -0.00000000  1.0
  O  O6  1  0.72757744  -0.72757744  0.77392165  1.0
  O  O7  1  0.27242256  -0.27242256  0.22607835  1.0
  O  O8  1  0.42204396  -0.11435884  0.76412731  1.0
  O  O9  1  1.11435884  0.57795604  0.76412731  1.0
  O  O10  1  0.88564116  -0.57795604  0.23587269  1.0
  O  O11  1  1.57795604  0.11435884  0.23587269  1.0
