# generated using pymatgen
data_K2Ag4Se3
_symmetry_space_group_name_H-M   'P 1'
_cell_length_a   9.41646076
_cell_length_b   9.41646076
_cell_length_c   12.02489862
_cell_angle_alpha   72.23581343
_cell_angle_beta   107.76418657
_cell_angle_gamma   152.56960976
_symmetry_Int_Tables_number   1
_chemical_formula_structural   K2Ag4Se3
_chemical_formula_sum   'K4 Ag8 Se6'
_cell_volume   466.33581226
_cell_formula_units_Z   2
loop_
 _symmetry_equiv_pos_site_id
 _symmetry_equiv_pos_as_xyz
  1  'x, y, z'
loop_
 _atom_site_type_symbol
 _atom_site_label
 _atom_site_symmetry_multiplicity
 _atom_site_fract_x
 _atom_site_fract_y
 _atom_site_fract_z
 _atom_site_occupancy
  K  K0  1  0.66365939  0.33634061  0.33835273  1.0
  K  K1  1  0.33634061  -0.33634061  0.66164727  1.0
  K  K2  1  0.18459737  -0.18459737  0.84237471  1.0
  K  K3  1  0.81540263  0.18459737  0.15762529  1.0
  Ag  Ag4  1  0.98952756  0.01047244  0.62212536  1.0
  Ag  Ag5  1  0.01047244  -0.01047244  0.37787464  1.0
  Ag  Ag6  1  0.98073362  0.01926638  0.86991966  1.0
  Ag  Ag7  1  0.01926638  -0.01926638  0.13008034  1.0
  Ag  Ag8  1  0.58469164  0.41530836  0.58186277  1.0
  Ag  Ag9  1  0.41530836  -0.41530836  0.41813723  1.0
  Ag  Ag10  1  0.41129911  -0.41129911  0.98499387  1.0
  Ag  Ag11  1  0.58870089  0.41129911  0.01500613  1.0
  Se  Se12  1  0.85437788  0.14562212  0.45788488  1.0
  Se  Se13  1  0.14562212  -0.14562212  0.54211512  1.0
  Se  Se14  1  0.83868188  0.16131812  0.88546505  1.0
  Se  Se15  1  0.16131812  -0.16131812  0.11453495  1.0
  Se  Se16  1  0.53290601  0.46709399  0.77595919  1.0
  Se  Se17  1  0.46709399  -0.46709399  0.22404081  1.0
