# generated using pymatgen
data_Co3B7O13F
_symmetry_space_group_name_H-M   'P 1'
_cell_length_a   8.62822150
_cell_length_b   8.62822150
_cell_length_c   8.62822150
_cell_angle_alpha   59.39982888
_cell_angle_beta   59.39982888
_cell_angle_gamma   59.39982888
_symmetry_Int_Tables_number   1
_chemical_formula_structural   Co3B7O13F
_chemical_formula_sum   'Co6 B14 O26 F2'
_cell_volume   447.99842580
_cell_formula_units_Z   2
loop_
 _symmetry_equiv_pos_site_id
 _symmetry_equiv_pos_as_xyz
  1  'x, y, z'
loop_
 _atom_site_type_symbol
 _atom_site_label
 _atom_site_symmetry_multiplicity
 _atom_site_fract_x
 _atom_site_fract_y
 _atom_site_fract_z
 _atom_site_occupancy
  Co  Co0  1  0.97514501  -0.44601368  -0.02249983  1.0
  Co  Co1  1  0.47514501  0.47750017  -0.94601368  1.0
  Co  Co2  1  0.47750017  0.05398632  -0.52485499  1.0
  Co  Co3  1  0.97750017  -0.02485499  -0.44601368  1.0
  Co  Co4  1  0.05398632  0.47514501  -0.52249983  1.0
  Co  Co5  1  0.55398632  -0.02249983  -0.02485499  1.0
  B  B6  1  1.08456542  -0.22331414  0.08490078  1.0
  B  B7  1  0.58456542  0.58490078  -0.72331414  1.0
  B  B8  1  0.58490078  0.27668586  -0.41543458  1.0
  B  B9  1  1.08490078  0.08456542  -0.22331414  1.0
  B  B10  1  0.27668586  0.58456542  -0.41509922  1.0
  B  B11  1  0.77668586  0.08490078  0.08456542  1.0
  B  B12  1  0.75839892  0.75747152  -0.73473218  1.0
  B  B13  1  0.25839892  0.76526782  -0.74252848  1.0
  B  B14  1  0.76526782  0.25747152  -0.74160108  1.0
  B  B15  1  0.26526782  0.75839892  -0.24252848  1.0
  B  B16  1  0.25747152  0.25839892  -0.23473218  1.0
  B  B17  1  0.75747152  0.26526782  -0.24160108  1.0
  B  B18  1  0.61452551  0.61452551  -0.38547449  1.0
  B  B19  1  0.11452551  0.11452551  0.11452551  1.0
  O  O20  1  0.70814168  -0.05258552  0.26597046  1.0
  O  O21  1  0.20814168  0.76597046  -0.55258552  1.0
  O  O22  1  0.76597046  0.44741448  -0.79185832  1.0
  O  O23  1  1.26597046  -0.29185832  -0.05258552  1.0
  O  O24  1  0.44741448  0.20814168  -0.23402954  1.0
  O  O25  1  0.94741448  0.26597046  -0.29185832  1.0
  O  O26  1  0.61139448  0.76090901  -0.77589864  1.0
  O  O27  1  0.11139448  0.72410136  -0.73909099  1.0
  O  O28  1  0.72410136  0.26090901  -0.88860552  1.0
  O  O29  1  0.22410136  0.61139448  -0.23909099  1.0
  O  O30  1  0.26090901  0.11139448  -0.27589864  1.0
  O  O31  1  0.76090901  0.22410136  -0.38860552  1.0
  O  O32  1  0.94702073  -0.30093272  0.12366541  1.0
  O  O33  1  0.44702073  0.62366541  -0.80093272  1.0
  O  O34  1  0.62366541  0.19906728  -0.55297927  1.0
  O  O35  1  1.12366541  -0.05297927  -0.30093272  1.0
  O  O36  1  0.19906728  0.44702073  -0.37633459  1.0
  O  O37  1  0.69906728  0.12366541  -0.05297927  1.0
  O  O38  1  0.61562345  0.45647094  -0.22192142  1.0
  O  O39  1  1.11562345  -0.72192142  -0.04352906  1.0
  O  O40  1  0.27807858  -0.04352906  0.11562345  1.0
  O  O41  1  0.77807858  0.61562345  -0.54352906  1.0
  O  O42  1  0.95647094  0.11562345  -0.72192142  1.0
  O  O43  1  0.45647094  0.77807858  -0.38437655  1.0
  O  O44  1  -0.00110337  -0.00110337  -0.00110337  1.0
  O  O45  1  0.49889663  0.49889663  -0.50110337  1.0
  F  F46  1  0.80919817  -0.19080183  -0.19080183  1.0
  F  F47  1  0.30919817  0.30919817  0.30919817  1.0
