# generated using pymatgen
data_SrCdGe
_symmetry_space_group_name_H-M   'P 1'
_cell_length_a   7.87053920
_cell_length_b   4.67432837
_cell_length_c   8.55918029
_cell_angle_alpha   90.00000000
_cell_angle_beta   90.00000000
_cell_angle_gamma   90.00000000
_symmetry_Int_Tables_number   1
_chemical_formula_structural   SrCdGe
_chemical_formula_sum   'Sr4 Cd4 Ge4'
_cell_volume   314.88783239
_cell_formula_units_Z   4
loop_
 _symmetry_equiv_pos_site_id
 _symmetry_equiv_pos_as_xyz
  1  'x, y, z'
loop_
 _atom_site_type_symbol
 _atom_site_label
 _atom_site_symmetry_multiplicity
 _atom_site_fract_x
 _atom_site_fract_y
 _atom_site_fract_z
 _atom_site_occupancy
  Sr  Sr0  1  0.98763076  0.75000000  0.69071511  1.0
  Sr  Sr1  1  0.48763076  0.75000000  0.80928489  1.0
  Sr  Sr2  1  0.01236924  0.25000000  0.30928489  1.0
  Sr  Sr3  1  0.51236924  0.25000000  0.19071511  1.0
  Cd  Cd4  1  0.84279318  0.75000000  0.06962278  1.0
  Cd  Cd5  1  0.34279318  0.75000000  0.43037722  1.0
  Cd  Cd6  1  0.15720682  0.25000000  0.93037722  1.0
  Cd  Cd7  1  0.65720682  0.25000000  0.56962278  1.0
  Ge  Ge8  1  0.72173496  0.75000000  0.39299664  1.0
  Ge  Ge9  1  0.22173496  0.75000000  0.10700336  1.0
  Ge  Ge10  1  0.27826504  0.25000000  0.60700336  1.0
  Ge  Ge11  1  0.77826504  0.25000000  0.89299664  1.0
