# generated using pymatgen
data_Ba3Yb4O9
_symmetry_space_group_name_H-M   'P 1'
_cell_length_a   9.18149785
_cell_length_b   9.18149785
_cell_length_c   9.18149785
_cell_angle_alpha   38.69745083
_cell_angle_beta   38.69745083
_cell_angle_gamma   38.69745084
_symmetry_Int_Tables_number   1
_chemical_formula_structural   Ba3Yb4O9
_chemical_formula_sum   'Ba3 Yb4 O9'
_cell_volume   271.92897649
_cell_formula_units_Z   1
loop_
 _symmetry_equiv_pos_site_id
 _symmetry_equiv_pos_as_xyz
  1  'x, y, z'
loop_
 _atom_site_type_symbol
 _atom_site_label
 _atom_site_symmetry_multiplicity
 _atom_site_fract_x
 _atom_site_fract_y
 _atom_site_fract_z
 _atom_site_occupancy
  Ba  Ba0  1  -0.00000000  0.00000000  0.00000000  1.0
  Ba  Ba1  1  1.58364938  0.58364938  0.58364938  1.0
  Ba  Ba2  1  1.41635062  0.41635062  0.41635062  1.0
  Yb  Yb3  1  0.71908320  0.71908320  0.71908320  1.0
  Yb  Yb4  1  1.28091680  1.28091680  0.28091680  1.0
  Yb  Yb5  1  0.84209877  0.84209877  0.84209877  1.0
  Yb  Yb6  1  1.15790123  1.15790123  0.15790123  1.0
  O  O7  1  0.50000000  0.00000000  -0.50000000  1.0
  O  O8  1  0.50000000  -0.50000000  0.00000000  1.0
  O  O9  1  0.00000000  0.50000000  -0.50000000  1.0
  O  O10  1  1.06276671  1.06276671  0.54602363  1.0
  O  O11  1  1.06276671  1.54602363  0.06276671  1.0
  O  O12  1  1.45397637  0.93723329  -0.06276671  1.0
  O  O13  1  0.93723329  1.45397637  -0.06276671  1.0
  O  O14  1  0.93723329  0.93723329  0.45397637  1.0
  O  O15  1  1.54602363  1.06276671  0.06276671  1.0
