# generated using pymatgen
data_Ca4Al6CrO16
_symmetry_space_group_name_H-M   'P 1'
_cell_length_a   8.17008178
_cell_length_b   8.17008178
_cell_length_c   8.17008178
_cell_angle_alpha   109.47122063
_cell_angle_beta   109.47122063
_cell_angle_gamma   109.47122063
_symmetry_Int_Tables_number   1
_chemical_formula_structural   Ca4Al6CrO16
_chemical_formula_sum   'Ca4 Al6 Cr1 O16'
_cell_volume   419.81438998
_cell_formula_units_Z   1
loop_
 _symmetry_equiv_pos_site_id
 _symmetry_equiv_pos_as_xyz
  1  'x, y, z'
loop_
 _atom_site_type_symbol
 _atom_site_label
 _atom_site_symmetry_multiplicity
 _atom_site_fract_x
 _atom_site_fract_y
 _atom_site_fract_z
 _atom_site_occupancy
  Ca  Ca0  1  0.51300113  0.51300113  0.51300113  1.0
  Ca  Ca1  1  1.00000000  1.00000000  0.48699887  1.0
  Ca  Ca2  1  1.00000000  0.48699887  1.00000000  1.0
  Ca  Ca3  1  0.48699887  1.00000000  1.00000000  1.0
  Al  Al4  1  0.25000000  0.75000000  0.50000000  1.0
  Al  Al5  1  0.75000000  0.25000000  0.50000000  1.0
  Al  Al6  1  0.25000000  0.50000000  0.75000000  1.0
  Al  Al7  1  0.50000000  0.25000000  0.75000000  1.0
  Al  Al8  1  0.75000000  0.50000000  0.25000000  1.0
  Al  Al9  1  0.50000000  0.75000000  0.25000000  1.0
  Cr  Cr10  1  0.00000000  0.00000000  0.00000000  1.0
  O  O11  1  0.30941418  0.61131087  0.61131087  1.0
  O  O12  1  0.61131087  0.30941418  0.61131087  1.0
  O  O13  1  1.00000000  0.69810331  1.38868913  1.0
  O  O14  1  0.69810331  1.00000000  1.38868913  1.0
  O  O15  1  0.61131087  0.61131087  0.30941418  1.0
  O  O16  1  1.30189669  1.30189669  0.69058582  1.0
  O  O17  1  1.00000000  1.38868913  0.69810331  1.0
  O  O18  1  1.30189669  0.69058582  1.30189669  1.0
  O  O19  1  0.69058582  1.30189669  1.30189669  1.0
  O  O20  1  1.38868913  1.00000000  0.69810331  1.0
  O  O21  1  0.69810331  1.38868913  1.00000000  1.0
  O  O22  1  1.38868913  0.69810331  1.00000000  1.0
  O  O23  1  0.79742300  0.79742300  0.79742300  1.0
  O  O24  1  1.00000000  1.00000000  0.20257700  1.0
  O  O25  1  1.00000000  0.20257700  1.00000000  1.0
  O  O26  1  0.20257700  1.00000000  1.00000000  1.0
