# generated using pymatgen
data_Rb3Co(CN)6
_symmetry_space_group_name_H-M   'P 1'
_cell_length_a   7.37642086
_cell_length_b   10.74535868
_cell_length_c   8.75945406
_cell_angle_alpha   90.00000000
_cell_angle_beta   107.82043963
_cell_angle_gamma   90.00000000
_symmetry_Int_Tables_number   1
_chemical_formula_structural   Rb3Co(CN)6
_chemical_formula_sum   'Rb6 Co2 C12 N12'
_cell_volume   660.98231928
_cell_formula_units_Z   2
loop_
 _symmetry_equiv_pos_site_id
 _symmetry_equiv_pos_as_xyz
  1  'x, y, z'
loop_
 _atom_site_type_symbol
 _atom_site_label
 _atom_site_symmetry_multiplicity
 _atom_site_fract_x
 _atom_site_fract_y
 _atom_site_fract_z
 _atom_site_occupancy
  Rb  Rb0  1  0.50054382  0.27750710  0.37363920  1.0
  Rb  Rb1  1  0.50054382  0.22249290  0.87363920  1.0
  Rb  Rb2  1  0.49945618  0.77750710  0.12636080  1.0
  Rb  Rb3  1  0.49945618  0.72249290  0.62636080  1.0
  Rb  Rb4  1  -0.00000000  0.50000000  0.50000000  1.0
  Rb  Rb5  1  0.00000000  0.00000000  0.00000000  1.0
  Co  Co6  1  0.00000000  0.50000000  0.00000000  1.0
  Co  Co7  1  -0.00000000  0.00000000  0.50000000  1.0
  C  C8  1  0.88377889  0.84295484  0.47789302  1.0
  C  C9  1  0.88377889  0.65704516  0.97789302  1.0
  C  C10  1  0.11622111  0.34295484  0.02210698  1.0
  C  C11  1  0.11622111  0.15704516  0.52210698  1.0
  C  C12  1  0.82244282  0.04617864  0.30373047  1.0
  C  C13  1  0.82244282  0.45382136  0.80373047  1.0
  C  C14  1  0.17755718  0.54617864  0.19626953  1.0
  C  C15  1  0.17755718  0.95382136  0.69626953  1.0
  C  C16  1  0.83039676  0.44343614  0.10770067  1.0
  C  C17  1  0.83039676  0.05656386  0.60770067  1.0
  C  C18  1  0.16960324  0.94343614  0.39229933  1.0
  C  C19  1  0.16960324  0.55656386  0.89229933  1.0
  N  N20  1  0.80533529  0.74653206  0.46030276  1.0
  N  N21  1  0.80533529  0.75346794  0.96030276  1.0
  N  N22  1  0.19466471  0.24653206  0.03969724  1.0
  N  N23  1  0.19466471  0.25346794  0.53969724  1.0
  N  N24  1  0.72549055  0.40875561  0.17588988  1.0
  N  N25  1  0.72549055  0.09124439  0.67588988  1.0
  N  N26  1  0.27450945  0.90875561  0.32411012  1.0
  N  N27  1  0.27450945  0.59124439  0.82411012  1.0
  N  N28  1  0.71135809  0.07251839  0.18025586  1.0
  N  N29  1  0.71135809  0.42748161  0.68025586  1.0
  N  N30  1  0.28864191  0.57251839  0.31974414  1.0
  N  N31  1  0.28864191  0.92748161  0.81974414  1.0
