# generated using pymatgen
data_XeF2
_symmetry_space_group_name_H-M   'P 1'
_cell_length_a   4.77001263
_cell_length_b   6.75153525
_cell_length_c   5.55452767
_cell_angle_alpha   90.00000000
_cell_angle_beta   90.00000000
_cell_angle_gamma   90.00000000
_symmetry_Int_Tables_number   1
_chemical_formula_structural   XeF2
_chemical_formula_sum   'Xe2 F4'
_cell_volume   178.88305495
_cell_formula_units_Z   2
loop_
 _symmetry_equiv_pos_site_id
 _symmetry_equiv_pos_as_xyz
  1  'x, y, z'
loop_
 _atom_site_type_symbol
 _atom_site_label
 _atom_site_symmetry_multiplicity
 _atom_site_fract_x
 _atom_site_fract_y
 _atom_site_fract_z
 _atom_site_occupancy
  Xe  Xe0  1  0.50000000  0.50000000  0.50000000  1.0
  Xe  Xe1  1  0.00000000  0.00000000  0.00000000  1.0
  F  F2  1  0.68475028  0.79328108  0.00000000  1.0
  F  F3  1  0.31524972  0.20671892  0.00000000  1.0
  F  F4  1  0.18475028  0.70671892  0.50000000  1.0
  F  F5  1  0.81524972  0.29328108  0.50000000  1.0
