# generated using pymatgen
data_Cs2PtC2(OF)4
_symmetry_space_group_name_H-M   'P 1'
_cell_length_a   8.30508971
_cell_length_b   8.30508971
_cell_length_c   9.87555720
_cell_angle_alpha   90.56082421
_cell_angle_beta   89.43917579
_cell_angle_gamma   134.28979949
_symmetry_Int_Tables_number   1
_chemical_formula_structural   Cs2PtC2(OF)4
_chemical_formula_sum   'Cs4 Pt2 C4 O8 F8'
_cell_volume   487.55970911
_cell_formula_units_Z   2
loop_
 _symmetry_equiv_pos_site_id
 _symmetry_equiv_pos_as_xyz
  1  'x, y, z'
loop_
 _atom_site_type_symbol
 _atom_site_label
 _atom_site_symmetry_multiplicity
 _atom_site_fract_x
 _atom_site_fract_y
 _atom_site_fract_z
 _atom_site_occupancy
  Cs  Cs0  1  0.27263684  -0.27263684  0.16921828  1.0
  Cs  Cs1  1  0.72736316  0.27263684  0.83078172  1.0
  Cs  Cs2  1  0.95490271  0.04509729  0.21104593  1.0
  Cs  Cs3  1  0.04509729  -0.04509729  0.78895407  1.0
  Pt  Pt4  1  0.61876431  0.38123569  0.19391698  1.0
  Pt  Pt5  1  0.38123569  -0.38123569  0.80608302  1.0
  C  C6  1  0.75784052  0.48330228  0.46262717  1.0
  C  C7  1  0.51669772  0.24215948  0.46262717  1.0
  C  C8  1  1.24215948  0.51669772  0.53737283  1.0
  C  C9  1  0.48330228  -0.24215948  0.53737283  1.0
  O  O10  1  0.83720232  0.58089011  0.34285879  1.0
  O  O11  1  0.41910989  0.16279768  0.34285879  1.0
  O  O12  1  1.16279768  0.41910989  0.65714121  1.0
  O  O13  1  0.58089011  -0.16279768  0.65714121  1.0
  O  O14  1  0.86336358  0.57503508  0.56762068  1.0
  O  O15  1  0.42496492  0.13663642  0.56762068  1.0
  O  O16  1  1.13663642  0.42496492  0.43237932  1.0
  O  O17  1  0.57503508  -0.13663642  0.43237932  1.0
  F  F18  1  0.49151627  -0.49151627  0.22044878  1.0
  F  F19  1  0.50848373  0.49151627  0.77955122  1.0
  F  F20  1  0.74739480  0.25260520  0.16601380  1.0
  F  F21  1  0.25260520  -0.25260520  0.83398620  1.0
  F  F22  1  0.83142147  0.60952114  0.05272478  1.0
  F  F23  1  0.39047886  0.16857853  0.05272478  1.0
  F  F24  1  1.16857853  0.39047886  0.94727522  1.0
  F  F25  1  0.60952114  -0.16857853  0.94727522  1.0
