# generated using pymatgen
data_K2TiF5
_symmetry_space_group_name_H-M   'P 1'
_cell_length_a   6.09613481
_cell_length_b   7.65916269
_cell_length_c   11.02884797
_cell_angle_alpha   90.00000000
_cell_angle_beta   90.00000000
_cell_angle_gamma   90.00000000
_symmetry_Int_Tables_number   1
_chemical_formula_structural   K2TiF5
_chemical_formula_sum   'K8 Ti4 F20'
_cell_volume   514.95112023
_cell_formula_units_Z   4
loop_
 _symmetry_equiv_pos_site_id
 _symmetry_equiv_pos_as_xyz
  1  'x, y, z'
loop_
 _atom_site_type_symbol
 _atom_site_label
 _atom_site_symmetry_multiplicity
 _atom_site_fract_x
 _atom_site_fract_y
 _atom_site_fract_z
 _atom_site_occupancy
  K  K0  1  0.01759338  0.25000000  0.14348915  1.0
  K  K1  1  0.51759338  0.25000000  0.35651085  1.0
  K  K2  1  0.98240662  0.75000000  0.85651085  1.0
  K  K3  1  0.48240662  0.75000000  0.64348915  1.0
  K  K4  1  0.07867549  0.75000000  0.19614794  1.0
  K  K5  1  0.57867549  0.75000000  0.30385206  1.0
  K  K6  1  0.92132451  0.25000000  0.80385206  1.0
  K  K7  1  0.42132451  0.25000000  0.69614794  1.0
  Ti  Ti8  1  0.50000000  0.50000000  0.00000000  1.0
  Ti  Ti9  1  0.00000000  0.00000000  0.50000000  1.0
  Ti  Ti10  1  0.50000000  0.00000000  0.00000000  1.0
  Ti  Ti11  1  0.00000000  0.50000000  0.50000000  1.0
  F  F12  1  0.77942069  0.56364092  0.06727441  1.0
  F  F13  1  0.27942069  0.93635908  0.43272559  1.0
  F  F14  1  0.22057931  0.06364092  0.93272559  1.0
  F  F15  1  0.72057931  0.43635908  0.56727441  1.0
  F  F16  1  0.22057931  0.43635908  0.93272559  1.0
  F  F17  1  0.72057931  0.06364092  0.56727441  1.0
  F  F18  1  0.77942069  0.93635908  0.06727441  1.0
  F  F19  1  0.27942069  0.56364092  0.43272559  1.0
  F  F20  1  0.62200788  0.52413699  0.83080293  1.0
  F  F21  1  0.12200788  0.97586301  0.66919707  1.0
  F  F22  1  0.37799212  0.02413699  0.16919707  1.0
  F  F23  1  0.87799212  0.47586301  0.33080293  1.0
  F  F24  1  0.37799212  0.47586301  0.16919707  1.0
  F  F25  1  0.87799212  0.02413699  0.33080293  1.0
  F  F26  1  0.62200788  0.97586301  0.83080293  1.0
  F  F27  1  0.12200788  0.52413699  0.66919707  1.0
  F  F28  1  0.61983898  0.25000000  0.99316770  1.0
  F  F29  1  0.11983898  0.25000000  0.50683230  1.0
  F  F30  1  0.38016102  0.75000000  0.00683230  1.0
  F  F31  1  0.88016102  0.75000000  0.49316770  1.0
