# generated using pymatgen
data_Cs4(BS)9
_symmetry_space_group_name_H-M   'P 1'
_cell_length_a   11.16422022
_cell_length_b   10.58094668
_cell_length_c   10.55075757
_cell_angle_alpha   110.34940222
_cell_angle_beta   103.99991346
_cell_angle_gamma   92.11601016
_symmetry_Int_Tables_number   1
_chemical_formula_structural   Cs4(BS)9
_chemical_formula_sum   'Cs8 B18 S18'
_cell_volume   1123.76258246
_cell_formula_units_Z   2
loop_
 _symmetry_equiv_pos_site_id
 _symmetry_equiv_pos_as_xyz
  1  'x, y, z'
loop_
 _atom_site_type_symbol
 _atom_site_label
 _atom_site_symmetry_multiplicity
 _atom_site_fract_x
 _atom_site_fract_y
 _atom_site_fract_z
 _atom_site_occupancy
  Cs  Cs0  1  0.73395581  0.11619383  0.19016731  1.0
  Cs  Cs1  1  0.26604419  0.88380617  0.80983269  1.0
  Cs  Cs2  1  0.02856436  0.87453387  0.24751373  1.0
  Cs  Cs3  1  0.97143564  0.12546613  0.75248627  1.0
  Cs  Cs4  1  0.12484064  0.48609846  0.34814792  1.0
  Cs  Cs5  1  0.87515936  0.51390154  0.65185208  1.0
  Cs  Cs6  1  0.37065074  0.12704694  0.38334498  1.0
  Cs  Cs7  1  0.62934926  0.87295306  0.61665502  1.0
  B  B8  1  0.35675775  0.45792067  0.00859946  1.0
  B  B9  1  0.64324225  0.54207933  0.99140054  1.0
  B  B10  1  0.47876733  0.36159541  0.04403848  1.0
  B  B11  1  0.52123267  0.63840459  0.95596152  1.0
  B  B12  1  0.41950820  0.63153659  0.06269555  1.0
  B  B13  1  0.58049180  0.36846341  0.93730445  1.0
  B  B14  1  0.25546215  0.24085540  0.06562563  1.0
  B  B15  1  0.74453785  0.75914460  0.93437437  1.0
  B  B16  1  0.62201045  0.47690268  0.12073203  1.0
  B  B17  1  0.37798955  0.52309732  0.87926797  1.0
  B  B18  1  0.58420711  0.64070558  0.12985315  1.0
  B  B19  1  0.41579289  0.35929442  0.87014685  1.0
  B  B20  1  0.48161015  0.53152761  0.16178829  1.0
  B  B21  1  0.51838985  0.46847239  0.83821171  1.0
  B  B22  1  0.35868971  0.72797631  0.32256519  1.0
  B  B23  1  0.64131029  0.27202369  0.67743481  1.0
  B  B24  1  0.19944032  0.32298930  0.64699122  1.0
  B  B25  1  0.80055968  0.67701070  0.35300878  1.0
  S  S26  1  0.20654153  0.38998220  0.02357392  1.0
  S  S27  1  0.79345847  0.61001780  0.97642608  1.0
  S  S28  1  0.42241767  0.21487595  0.08438079  1.0
  S  S29  1  0.57758233  0.78512405  0.91561921  1.0
  S  S30  1  0.14712324  0.12609565  0.08316213  1.0
  S  S31  1  0.85287676  0.87390435  0.91683787  1.0
  S  S32  1  0.33546018  0.76560627  0.15964370  1.0
  S  S33  1  0.66453982  0.23439373  0.84035630  1.0
  S  S34  1  0.44554571  0.58570834  0.33516449  1.0
  S  S35  1  0.55445429  0.41429166  0.66483551  1.0
  S  S36  1  0.06796007  0.24599675  0.49971697  1.0
  S  S37  1  0.93203993  0.75400325  0.50028303  1.0
  S  S38  1  0.70010844  0.17253670  0.53736679  1.0
  S  S39  1  0.29989156  0.82746330  0.46263321  1.0
  S  S40  1  0.30581041  0.21991163  0.71986352  1.0
  S  S41  1  0.69418959  0.78008837  0.28013648  1.0
  S  S42  1  0.23719417  0.51127847  0.73404164  1.0
  S  S43  1  0.76280583  0.48872153  0.26595836  1.0
