# generated using pymatgen
data_Tl3SbS4
_symmetry_space_group_name_H-M   'P 1'
_cell_length_a   12.14253097
_cell_length_b   6.76711613
_cell_length_c   6.43674608
_cell_angle_alpha   105.99143451
_cell_angle_beta   98.69829666
_cell_angle_gamma   94.97541736
_symmetry_Int_Tables_number   1
_chemical_formula_structural   Tl3SbS4
_chemical_formula_sum   'Tl6 Sb2 S8'
_cell_volume   497.98310665
_cell_formula_units_Z   2
loop_
 _symmetry_equiv_pos_site_id
 _symmetry_equiv_pos_as_xyz
  1  'x, y, z'
loop_
 _atom_site_type_symbol
 _atom_site_label
 _atom_site_symmetry_multiplicity
 _atom_site_fract_x
 _atom_site_fract_y
 _atom_site_fract_z
 _atom_site_occupancy
  Tl  Tl0  1  -0.30420274  -0.10218941  -0.14179924  1.0
  Tl  Tl1  1  -0.75504106  -0.09296357  -0.16977236  1.0
  Tl  Tl2  1  -0.48510423  -0.77650284  -0.40796280  1.0
  Tl  Tl3  1  -0.07063837  -0.91239156  -0.47735495  1.0
  Tl  Tl4  1  -0.80062489  -0.59640473  -0.71592197  1.0
  Tl  Tl5  1  -0.25135362  -0.58647034  -0.74347365  1.0
  Sb  Sb6  1  -0.02879418  -0.35149027  -0.02477161  1.0
  Sb  Sb7  1  -0.52681884  -0.33739427  -0.86057388  1.0
  S  S8  1  -0.00757858  -0.36475736  -0.65621034  1.0
  S  S9  1  -0.01239945  -0.00014639  -0.02047021  1.0
  S  S10  1  -0.88879622  -0.53161220  -0.18486463  1.0
  S  S11  1  -0.21205305  -0.52221113  -0.21352867  1.0
  S  S12  1  -0.54795969  -0.32406047  -0.22911281  1.0
  S  S13  1  -0.34358102  -0.16655477  -0.67179401  1.0
  S  S14  1  -0.66687093  -0.15739861  -0.70056366  1.0
  S  S15  1  -0.54318314  -0.68875208  -0.86492523  1.0
