# generated using pymatgen
data_TeO12
_symmetry_space_group_name_H-M   'P 1'
_cell_length_a   9.92821186
_cell_length_b   9.92821186
_cell_length_c   9.92821186
_cell_angle_alpha   60.00000000
_cell_angle_beta   60.00000000
_cell_angle_gamma   60.00000000
_symmetry_Int_Tables_number   1
_chemical_formula_structural   TeO12
_chemical_formula_sum   'Te4 O48'
_cell_volume   691.98727883
_cell_formula_units_Z   4
loop_
 _symmetry_equiv_pos_site_id
 _symmetry_equiv_pos_as_xyz
  1  'x, y, z'
loop_
 _atom_site_type_symbol
 _atom_site_label
 _atom_site_symmetry_multiplicity
 _atom_site_fract_x
 _atom_site_fract_y
 _atom_site_fract_z
 _atom_site_occupancy
  Te  Te0  1  0.50000000  0.50000000  -0.50000000  1.0
  Te  Te1  1  -0.00000000  1.00000000  0.00000000  1.0
  Te  Te2  1  0.25000000  0.25000000  0.25000000  1.0
  Te  Te3  1  0.75000000  -0.25000000  0.75000000  1.0
  O  O4  1  0.68046179  -0.19878530  1.05723204  1.0
  O  O5  1  -0.03890853  0.30121470  1.55723204  1.0
  O  O6  1  -0.53890853  1.05723204  0.80121470  1.0
  O  O7  1  0.18046179  0.55723204  0.30121470  1.0
  O  O8  1  -0.05121470  1.06953821  0.28890853  1.0
  O  O9  1  0.44878530  -0.21109147  1.56953821  1.0
  O  O10  1  0.69276796  -0.71109147  1.06953821  1.0
  O  O11  1  0.19276796  0.56953821  -0.21109147  1.0
  O  O12  1  0.30121470  0.18046179  1.55723204  1.0
  O  O13  1  -0.53890853  0.68046179  1.05723204  1.0
  O  O14  1  -0.03890853  0.55723204  0.18046179  1.0
  O  O15  1  0.80121470  0.05723204  0.68046179  1.0
  O  O16  1  0.56953821  0.44878530  0.78890853  1.0
  O  O17  1  1.06953821  -0.71109147  0.94878530  1.0
  O  O18  1  0.19276796  -0.21109147  0.44878530  1.0
  O  O19  1  -0.30723204  0.94878530  0.28890853  1.0
  O  O20  1  0.80121470  -0.53890853  1.05723204  1.0
  O  O21  1  0.18046179  -0.03890853  1.55723204  1.0
  O  O22  1  -0.31953821  1.05723204  0.46109147  1.0
  O  O23  1  0.30121470  0.55723204  -0.03890853  1.0
  O  O24  1  -0.71109147  0.94878530  1.06953821  1.0
  O  O25  1  -0.21109147  0.56953821  0.44878530  1.0
  O  O26  1  0.69276796  0.06953821  0.94878530  1.0
  O  O27  1  0.19276796  0.44878530  1.56953821  1.0
  O  O28  1  1.05723204  -0.53890853  0.68046179  1.0
  O  O29  1  0.55723204  0.18046179  0.96109147  1.0
  O  O30  1  -0.19878530  0.68046179  0.46109147  1.0
  O  O31  1  0.30121470  -0.03890853  0.18046179  1.0
  O  O32  1  -0.71109147  0.69276796  0.94878530  1.0
  O  O33  1  0.56953821  0.19276796  1.44878530  1.0
  O  O34  1  1.06953821  -0.05121470  0.69276796  1.0
  O  O35  1  -0.21109147  0.44878530  0.19276796  1.0
  O  O36  1  0.55723204  -0.03890853  1.30121470  1.0
  O  O37  1  0.05723204  0.80121470  0.46109147  1.0
  O  O38  1  0.18046179  0.30121470  -0.03890853  1.0
  O  O39  1  0.68046179  -0.53890853  0.80121470  1.0
  O  O40  1  -0.21109147  0.19276796  1.56953821  1.0
  O  O41  1  0.94878530  -0.30723204  1.06953821  1.0
  O  O42  1  0.44878530  0.56953821  0.19276796  1.0
  O  O43  1  -0.71109147  1.06953821  0.69276796  1.0
  O  O44  1  1.05723204  -0.31953821  0.80121470  1.0
  O  O45  1  0.55723204  0.30121470  1.18046179  1.0
  O  O46  1  -0.53890853  0.80121470  0.68046179  1.0
  O  O47  1  -0.03890853  0.18046179  0.30121470  1.0
  O  O48  1  0.06953821  0.69276796  0.28890853  1.0
  O  O49  1  0.44878530  0.19276796  -0.21109147  1.0
  O  O50  1  0.94878530  -0.71109147  0.69276796  1.0
  O  O51  1  0.56953821  -0.21109147  1.19276796  1.0
