# generated using pymatgen
data_SiAg2
_symmetry_space_group_name_H-M   'P 1'
_cell_length_a   5.85005337
_cell_length_b   5.85005337
_cell_length_c   9.34611671
_cell_angle_alpha   90.00000000
_cell_angle_beta   90.00000000
_cell_angle_gamma   126.71148685
_symmetry_Int_Tables_number   1
_chemical_formula_structural   SiAg2
_chemical_formula_sum   'Si4 Ag8'
_cell_volume   256.41227009
_cell_formula_units_Z   4
loop_
 _symmetry_equiv_pos_site_id
 _symmetry_equiv_pos_as_xyz
  1  'x, y, z'
loop_
 _atom_site_type_symbol
 _atom_site_label
 _atom_site_symmetry_multiplicity
 _atom_site_fract_x
 _atom_site_fract_y
 _atom_site_fract_z
 _atom_site_occupancy
  Si  Si0  1  0.24665401  0.75334599  1.01181084  1.0
  Si  Si1  1  0.24665401  0.75334599  0.48818916  1.0
  Si  Si2  1  -0.24665401  1.24665401  0.51181084  1.0
  Si  Si3  1  -0.24665401  1.24665401  -0.01181084  1.0
  Ag  Ag4  1  0.11591118  0.38109894  0.25000000  1.0
  Ag  Ag5  1  -0.61890106  1.11591118  0.75000000  1.0
  Ag  Ag6  1  0.61890106  0.88408882  0.25000000  1.0
  Ag  Ag7  1  -0.11591118  1.61890106  0.75000000  1.0
  Ag  Ag8  1  0.12550156  0.87449844  0.25000000  1.0
  Ag  Ag9  1  -0.12550156  1.12550156  0.75000000  1.0
  Ag  Ag10  1  0.00000000  0.00000000  0.50000000  1.0
  Ag  Ag11  1  0.00000000  0.00000000  0.00000000  1.0
