# generated using pymatgen
data_Gd2MgCu2
_symmetry_space_group_name_H-M   'P 1'
_cell_length_a   7.69303800
_cell_length_b   7.69303800
_cell_length_c   3.76438752
_cell_angle_alpha   90.00000000
_cell_angle_beta   90.00000000
_cell_angle_gamma   90.00000000
_symmetry_Int_Tables_number   1
_chemical_formula_structural   Gd2MgCu2
_chemical_formula_sum   'Gd4 Mg2 Cu4'
_cell_volume   222.78712052
_cell_formula_units_Z   2
loop_
 _symmetry_equiv_pos_site_id
 _symmetry_equiv_pos_as_xyz
  1  'x, y, z'
loop_
 _atom_site_type_symbol
 _atom_site_label
 _atom_site_symmetry_multiplicity
 _atom_site_fract_x
 _atom_site_fract_y
 _atom_site_fract_z
 _atom_site_occupancy
  Gd  Gd0  1  0.32901028  0.17098972  0.50000000  1.0
  Gd  Gd1  1  0.82901028  0.32901028  0.50000000  1.0
  Gd  Gd2  1  0.67098972  0.82901028  0.50000000  1.0
  Gd  Gd3  1  0.17098972  0.67098972  0.50000000  1.0
  Mg  Mg4  1  0.50000000  0.50000000  0.00000000  1.0
  Mg  Mg5  1  0.00000000  0.00000000  0.00000000  1.0
  Cu  Cu6  1  0.87816949  0.62183051  0.00000000  1.0
  Cu  Cu7  1  0.37816949  0.87816949  0.00000000  1.0
  Cu  Cu8  1  0.12183051  0.37816949  0.00000000  1.0
  Cu  Cu9  1  0.62183051  0.12183051  0.00000000  1.0
