# generated using pymatgen
data_Sr6In3N2
_symmetry_space_group_name_H-M   'P 1'
_cell_length_a   5.33516444
_cell_length_b   4.23779133
_cell_length_c   32.62110389
_cell_angle_alpha   90.00000000
_cell_angle_beta   90.00000000
_cell_angle_gamma   90.00000000
_symmetry_Int_Tables_number   1
_chemical_formula_structural   Sr6In3N2
_chemical_formula_sum   'Sr12 In6 N4'
_cell_volume   737.54076821
_cell_formula_units_Z   2
loop_
 _symmetry_equiv_pos_site_id
 _symmetry_equiv_pos_as_xyz
  1  'x, y, z'
loop_
 _atom_site_type_symbol
 _atom_site_label
 _atom_site_symmetry_multiplicity
 _atom_site_fract_x
 _atom_site_fract_y
 _atom_site_fract_z
 _atom_site_occupancy
  Sr  Sr0  1  0.75000000  0.00000000  0.16892195  1.0
  Sr  Sr1  1  0.25000000  0.00000000  0.83107805  1.0
  Sr  Sr2  1  0.75000000  0.00000000  0.62749631  1.0
  Sr  Sr3  1  0.25000000  0.00000000  0.37250369  1.0
  Sr  Sr4  1  0.75000000  0.50000000  0.86938866  1.0
  Sr  Sr5  1  0.25000000  0.50000000  0.13061134  1.0
  Sr  Sr6  1  0.75000000  0.00000000  0.29845263  1.0
  Sr  Sr7  1  0.25000000  0.00000000  0.70154737  1.0
  Sr  Sr8  1  0.75000000  0.00000000  0.44215781  1.0
  Sr  Sr9  1  0.25000000  0.00000000  0.55784219  1.0
  Sr  Sr10  1  0.75000000  0.50000000  0.05656879  1.0
  Sr  Sr11  1  0.25000000  0.50000000  0.94343121  1.0
  In  In12  1  0.75000000  0.00000000  0.76491528  1.0
  In  In13  1  0.25000000  0.00000000  0.23508472  1.0
  In  In14  1  0.75000000  0.00000000  0.96995856  1.0
  In  In15  1  0.25000000  0.00000000  0.03004144  1.0
  In  In16  1  0.75000000  0.50000000  0.52872398  1.0
  In  In17  1  0.25000000  0.50000000  0.47127602  1.0
  N  N18  1  0.75000000  0.00000000  0.36880697  1.0
  N  N19  1  0.25000000  0.00000000  0.63119303  1.0
  N  N20  1  0.75000000  0.50000000  0.13025952  1.0
  N  N21  1  0.25000000  0.50000000  0.86974048  1.0
