# generated using pymatgen
data_CdAg4Ge2S7
_symmetry_space_group_name_H-M   'P 1'
_cell_length_a   9.54271670
_cell_length_b   9.54271670
_cell_length_c   10.62848242
_cell_angle_alpha   87.00692306
_cell_angle_beta   92.99307694
_cell_angle_gamma   137.45614880
_symmetry_Int_Tables_number   1
_chemical_formula_structural   CdAg4Ge2S7
_chemical_formula_sum   'Cd2 Ag8 Ge4 S14'
_cell_volume   653.39871862
_cell_formula_units_Z   2
loop_
 _symmetry_equiv_pos_site_id
 _symmetry_equiv_pos_as_xyz
  1  'x, y, z'
loop_
 _atom_site_type_symbol
 _atom_site_label
 _atom_site_symmetry_multiplicity
 _atom_site_fract_x
 _atom_site_fract_y
 _atom_site_fract_z
 _atom_site_occupancy
  Cd  Cd0  1  0.67593422  -0.02387496  0.79137819  1.0
  Cd  Cd1  1  1.02387496  0.32406578  0.29137819  1.0
  Ag  Ag2  1  0.82640162  0.82789845  0.50276469  1.0
  Ag  Ag3  1  0.17210155  0.17359838  0.00276469  1.0
  Ag  Ag4  1  0.73756063  0.61312627  0.87948863  1.0
  Ag  Ag5  1  0.38687373  0.26243937  0.37948863  1.0
  Ag  Ag6  1  0.89929565  0.47907415  0.59975283  1.0
  Ag  Ag7  1  0.52092585  0.10070435  0.09975283  1.0
  Ag  Ag8  1  1.15057837  0.59644633  0.95108570  1.0
  Ag  Ag9  1  0.40355367  -0.15057837  0.45108570  1.0
  Ge  Ge10  1  1.25496358  0.39952631  0.66923826  1.0
  Ge  Ge11  1  0.60047369  -0.25496358  0.16923826  1.0
  Ge  Ge12  1  0.31369191  0.03703243  0.74408589  1.0
  Ge  Ge13  1  0.96296757  0.68630809  0.24408589  1.0
  S  S14  1  0.86021509  0.79585731  0.09465267  1.0
  S  S15  1  0.20414269  0.13978491  0.59465267  1.0
  S  S16  1  1.03710626  0.70216796  0.78751940  1.0
  S  S17  1  0.29783204  -0.03710626  0.28751940  1.0
  S  S18  1  0.55346566  0.09036170  0.64247011  1.0
  S  S19  1  0.90963830  0.44653434  0.14247011  1.0
  S  S20  1  1.13664451  0.46687543  0.51725135  1.0
  S  S21  1  0.53312457  -0.13664451  0.01725135  1.0
  S  S22  1  1.06799287  0.29326566  0.84225340  1.0
  S  S23  1  0.70673434  -0.06799287  0.34225340  1.0
  S  S24  1  1.32005416  0.40180335  0.20213864  1.0
  S  S25  1  0.59819665  -0.32005416  0.70213864  1.0
  S  S26  1  0.44654263  0.22188677  0.91672024  1.0
  S  S27  1  0.77811323  0.55345737  0.41672024  1.0
