# generated using pymatgen
data_BaCaCrF7
_symmetry_space_group_name_H-M   'P 1'
_cell_length_a   5.49288400
_cell_length_b   5.53413093
_cell_length_c   19.85935050
_cell_angle_alpha   90.00000000
_cell_angle_beta   103.96320277
_cell_angle_gamma   90.00000000
_symmetry_Int_Tables_number   1
_chemical_formula_structural   BaCaCrF7
_chemical_formula_sum   'Ba4 Ca4 Cr4 F28'
_cell_volume   585.85273760
_cell_formula_units_Z   4
loop_
 _symmetry_equiv_pos_site_id
 _symmetry_equiv_pos_as_xyz
  1  'x, y, z'
loop_
 _atom_site_type_symbol
 _atom_site_label
 _atom_site_symmetry_multiplicity
 _atom_site_fract_x
 _atom_site_fract_y
 _atom_site_fract_z
 _atom_site_occupancy
  Ba  Ba0  1  0.81473761  0.25286338  0.06873311  1.0
  Ba  Ba1  1  0.81473761  0.74713662  0.56873311  1.0
  Ba  Ba2  1  0.18526239  0.25286338  0.43126689  1.0
  Ba  Ba3  1  0.18526239  0.74713662  0.93126689  1.0
  Ca  Ca4  1  0.50000000  0.29217475  0.25000000  1.0
  Ca  Ca5  1  0.50000000  0.70782525  0.75000000  1.0
  Ca  Ca6  1  0.00000000  0.82727957  0.25000000  1.0
  Ca  Ca7  1  -0.00000000  0.17272043  0.75000000  1.0
  Cr  Cr8  1  0.68257768  0.72312715  0.38065518  1.0
  Cr  Cr9  1  0.68257768  0.27687285  0.88065518  1.0
  Cr  Cr10  1  0.31742232  0.72312715  0.11934482  1.0
  Cr  Cr11  1  0.31742232  0.27687285  0.61934482  1.0
  F  F12  1  1.00074935  0.78625726  0.05556711  1.0
  F  F13  1  1.00074935  0.21374274  0.55556711  1.0
  F  F14  1  -0.00074935  0.78625726  0.44443289  1.0
  F  F15  1  -0.00074935  0.21374274  0.94443289  1.0
  F  F16  1  0.85115975  0.52346343  0.32393952  1.0
  F  F17  1  0.85115975  0.47653657  0.82393952  1.0
  F  F18  1  0.14884025  0.52346343  0.17606048  1.0
  F  F19  1  0.14884025  0.47653657  0.67606048  1.0
  F  F20  1  0.76593112  0.86897464  0.69169782  1.0
  F  F21  1  0.76593112  0.13102536  0.19169782  1.0
  F  F22  1  0.23406888  0.86897464  0.80830218  1.0
  F  F23  1  0.23406888  0.13102536  0.30830218  1.0
  F  F24  1  0.74988034  0.99337460  0.32518858  1.0
  F  F25  1  0.74988034  0.00662540  0.82518858  1.0
  F  F26  1  0.25011966  0.99337460  0.17481142  1.0
  F  F27  1  0.25011966  0.00662540  0.67481142  1.0
  F  F28  1  0.65154973  0.44862033  0.43682998  1.0
  F  F29  1  0.65154973  0.55137967  0.93682998  1.0
  F  F30  1  0.34845027  0.44862033  0.06317002  1.0
  F  F31  1  0.34845027  0.55137967  0.56317002  1.0
  F  F32  1  0.62514258  0.63160438  0.18516681  1.0
  F  F33  1  0.62514258  0.36839562  0.68516681  1.0
  F  F34  1  0.37485742  0.63160438  0.31483319  1.0
  F  F35  1  0.37485742  0.36839562  0.81483319  1.0
  F  F36  1  0.52906494  0.90852562  0.43850336  1.0
  F  F37  1  0.52906494  0.09147438  0.93850336  1.0
  F  F38  1  0.47093506  0.90852562  0.06149664  1.0
  F  F39  1  0.47093506  0.09147438  0.56149664  1.0
