# generated using pymatgen
data_Y2P4O13
_symmetry_space_group_name_H-M   'P 1'
_cell_length_a   9.46272567
_cell_length_b   9.46272567
_cell_length_c   8.67101444
_cell_angle_alpha   90.00000000
_cell_angle_beta   90.00000000
_cell_angle_gamma   135.69636582
_symmetry_Int_Tables_number   1
_chemical_formula_structural   Y2P4O13
_chemical_formula_sum   'Y4 P8 O26'
_cell_volume   542.30595203
_cell_formula_units_Z   2
loop_
 _symmetry_equiv_pos_site_id
 _symmetry_equiv_pos_as_xyz
  1  'x, y, z'
loop_
 _atom_site_type_symbol
 _atom_site_label
 _atom_site_symmetry_multiplicity
 _atom_site_fract_x
 _atom_site_fract_y
 _atom_site_fract_z
 _atom_site_occupancy
  Y  Y0  1  0.10408790  1.39631105  0.35321241  1.0
  Y  Y1  1  -0.60368895  1.10408790  0.64678759  1.0
  Y  Y2  1  -0.39631105  0.89591210  0.14678759  1.0
  Y  Y3  1  -0.10408790  1.60368895  0.85321241  1.0
  P  P4  1  -0.14929713  1.72303217  0.22611950  1.0
  P  P5  1  -0.27696783  0.85070287  0.77388050  1.0
  P  P6  1  -0.72303217  1.14929713  0.27388050  1.0
  P  P7  1  0.14929713  1.27696783  0.72611950  1.0
  P  P8  1  0.09867393  1.41888229  0.00035393  1.0
  P  P9  1  -0.58111771  1.09867393  0.99964607  1.0
  P  P10  1  -0.41888229  0.90132607  0.49964607  1.0
  P  P11  1  -0.09867393  1.58111771  0.50035393  1.0
  O  O12  1  0.26390223  1.57823089  0.11826163  1.0
  O  O13  1  -0.42176911  1.26390223  0.88173837  1.0
  O  O14  1  -0.57823089  0.73609777  0.38173837  1.0
  O  O15  1  -0.26390223  1.42176911  0.61826163  1.0
  O  O16  1  0.21338580  1.25484588  0.29642949  1.0
  O  O17  1  -0.74515412  1.21338580  0.70357051  1.0
  O  O18  1  -0.25484588  0.78661420  0.20357051  1.0
  O  O19  1  -0.21338580  1.74515412  0.79642949  1.0
  O  O20  1  -0.02637880  1.51496152  0.39593046  1.0
  O  O21  1  -0.48503848  0.97362120  0.60406954  1.0
  O  O22  1  -0.51496152  1.02637880  0.10406954  1.0
  O  O23  1  0.02637880  1.48503848  0.89593046  1.0
  O  O24  1  -0.17319213  1.59615894  0.10153396  1.0
  O  O25  1  -0.40384106  0.82680787  0.89846604  1.0
  O  O26  1  -0.59615894  1.17319213  0.39846604  1.0
  O  O27  1  0.17319213  1.40384106  0.60153396  1.0
  O  O28  1  -0.21107061  1.61935161  0.39311159  1.0
  O  O29  1  -0.38064839  0.78892939  0.60688841  1.0
  O  O30  1  -0.61935161  1.21107061  0.10688841  1.0
  O  O31  1  0.21107061  1.38064839  0.89311159  1.0
  O  O32  1  -0.06933132  1.22795338  0.09884912  1.0
  O  O33  1  -0.77204662  0.93066868  0.90115088  1.0
  O  O34  1  -0.22795338  1.06933132  0.40115088  1.0
  O  O35  1  0.06933132  1.77204662  0.59884912  1.0
  O  O36  1  -0.91099374  0.91099374  0.25000000  1.0
  O  O37  1  -0.08900626  1.08900626  0.75000000  1.0
