# generated using pymatgen
data_InHO2
_symmetry_space_group_name_H-M   'P 1'
_cell_length_a   5.40534894
_cell_length_b   5.40534894
_cell_length_c   5.40534894
_cell_angle_alpha   90.00000000
_cell_angle_beta   90.00000000
_cell_angle_gamma   90.00000000
_symmetry_Int_Tables_number   1
_chemical_formula_structural   InHO2
_chemical_formula_sum   'In4 H4 O8'
_cell_volume   157.93238868
_cell_formula_units_Z   4
loop_
 _symmetry_equiv_pos_site_id
 _symmetry_equiv_pos_as_xyz
  1  'x, y, z'
loop_
 _atom_site_type_symbol
 _atom_site_label
 _atom_site_symmetry_multiplicity
 _atom_site_fract_x
 _atom_site_fract_y
 _atom_site_fract_z
 _atom_site_occupancy
  In  In0  1  0.48985850  0.98985850  0.51014150  1.0
  In  In1  1  0.98985850  0.51014150  0.48985850  1.0
  In  In2  1  0.51014150  0.48985850  0.98985850  1.0
  In  In3  1  0.01014150  0.01014150  0.01014150  1.0
  H  H4  1  0.02280831  0.52280831  0.97719169  1.0
  H  H5  1  0.52280831  0.97719169  0.02280831  1.0
  H  H6  1  0.97719169  0.02280831  0.52280831  1.0
  H  H7  1  0.47719169  0.47719169  0.47719169  1.0
  O  O8  1  0.13554210  0.63554210  0.86445790  1.0
  O  O9  1  0.63554210  0.86445790  0.13554210  1.0
  O  O10  1  0.86445790  0.13554210  0.63554210  1.0
  O  O11  1  0.36445790  0.36445790  0.36445790  1.0
  O  O12  1  0.86681442  0.36681442  0.13318558  1.0
  O  O13  1  0.36681442  0.13318558  0.86681442  1.0
  O  O14  1  0.13318558  0.86681442  0.36681442  1.0
  O  O15  1  0.63318558  0.63318558  0.63318558  1.0
