# generated using pymatgen
data_BaRuO3
_symmetry_space_group_name_H-M   'P 1'
_cell_length_a   5.79372326
_cell_length_b   5.79372326
_cell_length_c   14.25930194
_cell_angle_alpha   90.00000000
_cell_angle_beta   90.00000000
_cell_angle_gamma   120.00000000
_symmetry_Int_Tables_number   1
_chemical_formula_structural   BaRuO3
_chemical_formula_sum   'Ba6 Ru6 O18'
_cell_volume   414.51895090
_cell_formula_units_Z   6
loop_
 _symmetry_equiv_pos_site_id
 _symmetry_equiv_pos_as_xyz
  1  'x, y, z'
loop_
 _atom_site_type_symbol
 _atom_site_label
 _atom_site_symmetry_multiplicity
 _atom_site_fract_x
 _atom_site_fract_y
 _atom_site_fract_z
 _atom_site_occupancy
  O  O0  1  0.51511698  0.48488302  0.25000000  1.0
  O  O1  1  0.51511698  0.03023397  0.25000000  1.0
  O  O2  1  0.48488302  0.51511698  0.75000000  1.0
  O  O3  1  0.48488302  0.96976603  0.75000000  1.0
  O  O4  1  0.96976603  0.48488302  0.25000000  1.0
  O  O5  1  0.03023397  0.51511698  0.75000000  1.0
  O  O6  1  0.16420402  0.83579598  0.91968318  1.0
  O  O7  1  0.16420402  0.83579598  0.58031682  1.0
  O  O8  1  0.16420402  0.32840804  0.91968318  1.0
  O  O9  1  0.16420402  0.32840804  0.58031682  1.0
  O  O10  1  0.83579598  0.16420402  0.41968318  1.0
  O  O11  1  0.83579598  0.16420402  0.08031682  1.0
  O  O12  1  0.83579598  0.67159196  0.41968318  1.0
  O  O13  1  0.83579598  0.67159196  0.08031682  1.0
  O  O14  1  0.67159196  0.83579598  0.91968318  1.0
  O  O15  1  0.67159196  0.83579598  0.58031682  1.0
  O  O16  1  0.32840804  0.16420402  0.41968318  1.0
  O  O17  1  0.32840804  0.16420402  0.08031682  1.0
  Ba  Ba18  1  0.33333333  0.66666667  0.41039106  1.0
  Ba  Ba19  1  0.33333333  0.66666667  0.08960894  1.0
  Ba  Ba20  1  0.66666667  0.33333333  0.91039106  1.0
  Ba  Ba21  1  0.66666667  0.33333333  0.58960894  1.0
  Ba  Ba22  1  0.00000000  0.00000000  0.25000000  1.0
  Ba  Ba23  1  0.00000000  0.00000000  0.75000000  1.0
  Ru  Ru24  1  0.00000000  0.00000000  0.50000000  1.0
  Ru  Ru25  1  0.00000000  0.00000000  0.00000000  1.0
  Ru  Ru26  1  0.33333333  0.66666667  0.84355607  1.0
  Ru  Ru27  1  0.33333333  0.66666667  0.65644393  1.0
  Ru  Ru28  1  0.66666667  0.33333333  0.34355607  1.0
  Ru  Ru29  1  0.66666667  0.33333333  0.15644393  1.0
