# generated using pymatgen
data_HfAg2S3
_symmetry_space_group_name_H-M   'P 1'
_cell_length_a   6.68051411
_cell_length_b   6.68051411
_cell_length_c   12.75729953
_cell_angle_alpha   90.00000000
_cell_angle_beta   90.00000000
_cell_angle_gamma   60.10555394
_symmetry_Int_Tables_number   1
_chemical_formula_structural   HfAg2S3
_chemical_formula_sum   'Hf4 Ag8 S12'
_cell_volume   493.59426210
_cell_formula_units_Z   4
loop_
 _symmetry_equiv_pos_site_id
 _symmetry_equiv_pos_as_xyz
  1  'x, y, z'
loop_
 _atom_site_type_symbol
 _atom_site_label
 _atom_site_symmetry_multiplicity
 _atom_site_fract_x
 _atom_site_fract_y
 _atom_site_fract_z
 _atom_site_occupancy
  Hf  Hf0  1  0.33756718  1.33756718  0.50000000  1.0
  Hf  Hf1  1  -0.16243282  0.83756718  0.00000000  1.0
  Hf  Hf2  1  -0.33756718  0.66243282  0.50000000  1.0
  Hf  Hf3  1  0.16243282  1.16243282  0.00000000  1.0
  Ag  Ag4  1  -0.35233630  0.85233630  0.25000000  1.0
  Ag  Ag5  1  0.14766370  1.35233630  0.25000000  1.0
  Ag  Ag6  1  -0.14766370  0.64766370  0.75000000  1.0
  Ag  Ag7  1  0.35233630  1.14766370  0.75000000  1.0
  Ag  Ag8  1  -0.02441142  1.02441142  0.31784685  1.0
  Ag  Ag9  1  0.47558858  0.52441142  0.18215315  1.0
  Ag  Ag10  1  0.02441142  0.97558858  0.68215315  1.0
  Ag  Ag11  1  -0.47558858  1.47558858  0.81784685  1.0
  S  S12  1  0.34577364  1.00212815  0.39663748  1.0
  S  S13  1  -0.15422636  0.50212815  0.10336252  1.0
  S  S14  1  0.00212815  1.34577364  0.60336252  1.0
  S  S15  1  -0.49787185  0.84577364  0.89663748  1.0
  S  S16  1  -0.00212815  0.65422636  0.39663748  1.0
  S  S17  1  0.49787185  1.15422636  0.10336252  1.0
  S  S18  1  -0.34577364  0.99787185  0.60336252  1.0
  S  S19  1  0.15422636  1.49787185  0.89663748  1.0
  S  S20  1  -0.38744772  1.38744772  0.37662119  1.0
  S  S21  1  0.11255228  0.88744772  0.12337881  1.0
  S  S22  1  0.38744772  0.61255228  0.62337881  1.0
  S  S23  1  -0.11255228  1.11255228  0.87662119  1.0
