# generated using pymatgen
data_Sr2In3Rh2
_symmetry_space_group_name_H-M   'P 1'
_cell_length_a   5.94830621
_cell_length_b   5.94830621
_cell_length_c   8.00308537
_cell_angle_alpha   66.80569326
_cell_angle_beta   113.19430674
_cell_angle_gamma   137.35031692
_symmetry_Int_Tables_number   1
_chemical_formula_structural   Sr2In3Rh2
_chemical_formula_sum   'Sr2 In3 Rh2'
_cell_volume   173.85928800
_cell_formula_units_Z   1
loop_
 _symmetry_equiv_pos_site_id
 _symmetry_equiv_pos_as_xyz
  1  'x, y, z'
loop_
 _atom_site_type_symbol
 _atom_site_label
 _atom_site_symmetry_multiplicity
 _atom_site_fract_x
 _atom_site_fract_y
 _atom_site_fract_z
 _atom_site_occupancy
  Sr  Sr0  1  0.64408952  0.35591048  0.77631841  1.0
  Sr  Sr1  1  1.35591048  -0.35591048  0.22368159  1.0
  In  In2  1  0.85925564  -0.85925564  0.55680596  1.0
  In  In3  1  0.14074436  -0.14074436  0.44319404  1.0
  In  In4  1  0.00000000  0.00000000  0.00000000  1.0
  Rh  Rh5  1  0.37228942  -0.37228942  0.79327062  1.0
  Rh  Rh6  1  0.62771058  -0.62771058  0.20672938  1.0
