# generated using pymatgen
data_Ba5Al5Sn
_symmetry_space_group_name_H-M   'P 1'
_cell_length_a   6.11132686
_cell_length_b   6.11132686
_cell_length_c   11.14260053
_cell_angle_alpha   90.00000000
_cell_angle_beta   90.00000000
_cell_angle_gamma   120.00000000
_symmetry_Int_Tables_number   1
_chemical_formula_structural   Ba5Al5Sn
_chemical_formula_sum   'Ba5 Al5 Sn1'
_cell_volume   360.40285014
_cell_formula_units_Z   1
loop_
 _symmetry_equiv_pos_site_id
 _symmetry_equiv_pos_as_xyz
  1  'x, y, z'
loop_
 _atom_site_type_symbol
 _atom_site_label
 _atom_site_symmetry_multiplicity
 _atom_site_fract_x
 _atom_site_fract_y
 _atom_site_fract_z
 _atom_site_occupancy
  Ba  Ba0  1  0.66666667  0.33333333  0.79918995  1.0
  Ba  Ba1  1  0.66666667  0.33333333  0.20081005  1.0
  Ba  Ba2  1  0.00000000  0.00000000  0.67084584  1.0
  Ba  Ba3  1  0.00000000  0.00000000  0.32915416  1.0
  Ba  Ba4  1  0.33333333  0.66666667  0.00000000  1.0
  Al  Al5  1  0.97258056  0.48629028  0.50000000  1.0
  Al  Al6  1  0.51370972  0.48629028  0.50000000  1.0
  Al  Al7  1  0.51370972  0.02741944  0.50000000  1.0
  Al  Al8  1  0.33333333  0.66666667  0.67459811  1.0
  Al  Al9  1  0.33333333  0.66666667  0.32540189  1.0
  Sn  Sn10  1  0.00000000  0.00000000  0.00000000  1.0
