# generated using pymatgen
data_Zr2Sb
_symmetry_space_group_name_H-M   'P 1'
_cell_length_a   8.49506121
_cell_length_b   8.49506121
_cell_length_c   8.49506121
_cell_angle_alpha   151.81090712
_cell_angle_beta   151.81090712
_cell_angle_gamma   40.28950538
_symmetry_Int_Tables_number   1
_chemical_formula_structural   Zr2Sb
_chemical_formula_sum   'Zr4 Sb2'
_cell_volume   136.52849717
_cell_formula_units_Z   2
loop_
 _symmetry_equiv_pos_site_id
 _symmetry_equiv_pos_as_xyz
  1  'x, y, z'
loop_
 _atom_site_type_symbol
 _atom_site_label
 _atom_site_symmetry_multiplicity
 _atom_site_fract_x
 _atom_site_fract_y
 _atom_site_fract_z
 _atom_site_occupancy
  Zr  Zr0  1  0.67689969  0.67689969  1.00000000  1.0
  Zr  Zr1  1  0.32310031  0.32310031  0.00000000  1.0
  Zr  Zr2  1  0.50000000  0.00000000  0.50000000  1.0
  Zr  Zr3  1  -0.00000000  0.50000000  0.50000000  1.0
  Sb  Sb4  1  0.86137851  0.86137851  1.00000000  1.0
  Sb  Sb5  1  0.13862149  0.13862149  0.00000000  1.0
