# generated using pymatgen
data_KAlSi2
_symmetry_space_group_name_H-M   'P 1'
_cell_length_a   9.71549142
_cell_length_b   9.71549142
_cell_length_c   9.71549142
_cell_angle_alpha   109.56372151
_cell_angle_beta   109.56372151
_cell_angle_gamma   109.28637686
_symmetry_Int_Tables_number   1
_chemical_formula_structural   KAlSi2
_chemical_formula_sum   'K8 Al8 Si16'
_cell_volume   705.94202720
_cell_formula_units_Z   8
loop_
 _symmetry_equiv_pos_site_id
 _symmetry_equiv_pos_as_xyz
  1  'x, y, z'
loop_
 _atom_site_type_symbol
 _atom_site_label
 _atom_site_symmetry_multiplicity
 _atom_site_fract_x
 _atom_site_fract_y
 _atom_site_fract_z
 _atom_site_occupancy
  K  K0  1  1.62664218  1.62672146  1.75328065  1.0
  K  K1  1  0.87344081  0.87336154  1.24671935  1.0
  K  K2  1  0.87655919  1.37663846  1.25328065  1.0
  K  K3  1  1.12335782  1.62327854  0.74671935  1.0
  K  K4  1  1.12663846  1.37335782  1.00007927  1.0
  K  K5  1  0.37327854  1.12655919  0.99992073  1.0
  K  K6  1  1.37672146  1.12344081  1.50007927  1.0
  K  K7  1  0.62336154  0.87664218  1.49992073  1.0
  Al  Al8  1  1.41657140  1.41661485  1.33326220  1.0
  Al  Al9  1  1.08335265  1.08330920  1.66673780  1.0
  Al  Al10  1  0.66664735  0.16669080  0.83326220  1.0
  Al  Al11  1  0.33342860  0.83338515  1.16673780  1.0
  Al  Al12  1  0.91669080  0.58342860  1.00004346  1.0
  Al  Al13  1  1.58338515  0.91664735  0.99995654  1.0
  Al  Al14  1  1.16661485  1.33335265  1.50004346  1.0
  Al  Al15  1  0.83330920  0.66657140  1.49995654  1.0
  Si  Si16  1  1.66929167  1.37231227  1.46394015  1.0
  Si  Si17  1  0.90837212  1.20535152  1.53605985  1.0
  Si  Si18  1  0.84162788  1.04464848  0.96394015  1.0
  Si  Si19  1  1.08070833  0.87768773  1.03605985  1.0
  Si  Si20  1  0.79464848  0.33070833  0.70302060  1.0
  Si  Si21  1  1.62768773  1.09162788  1.29697940  1.0
  Si  Si22  1  1.12231227  1.15837212  1.20302060  1.0
  Si  Si23  1  0.95535152  0.91929167  0.79697940  1.0
  Si  Si24  1  1.16942322  0.70531193  1.29697368  1.0
  Si  Si25  1  1.40833825  0.87244954  0.70302632  1.0
  Si  Si26  1  1.34166175  1.37755046  1.79697368  1.0
  Si  Si27  1  0.58057678  0.54468807  0.20302632  1.0
  Si  Si28  1  1.12755046  0.83057678  1.53588871  1.0
  Si  Si29  1  1.29468807  1.59166175  1.46411129  1.0
  Si  Si30  1  1.45531193  0.65833825  1.03588871  1.0
  Si  Si31  1  0.62244954  1.41942322  0.96411129  1.0
