# generated using pymatgen
data_TaS3
_symmetry_space_group_name_H-M   'P 1'
_cell_length_a   10.18548592
_cell_length_b   3.36439105
_cell_length_c   15.21036007
_cell_angle_alpha   90.00000000
_cell_angle_beta   110.65029104
_cell_angle_gamma   90.00000000
_symmetry_Int_Tables_number   1
_chemical_formula_structural   TaS3
_chemical_formula_sum   'Ta6 S18'
_cell_volume   487.73925940
_cell_formula_units_Z   6
loop_
 _symmetry_equiv_pos_site_id
 _symmetry_equiv_pos_as_xyz
  1  'x, y, z'
loop_
 _atom_site_type_symbol
 _atom_site_label
 _atom_site_symmetry_multiplicity
 _atom_site_fract_x
 _atom_site_fract_y
 _atom_site_fract_z
 _atom_site_occupancy
  Ta  Ta0  1  0.47768408  0.75000000  0.11545383  1.0
  Ta  Ta1  1  0.52231592  0.25000000  0.88454617  1.0
  Ta  Ta2  1  0.87853825  0.25000000  0.20685363  1.0
  Ta  Ta3  1  0.12146175  0.75000000  0.79314637  1.0
  Ta  Ta4  1  0.15000165  0.75000000  0.46028338  1.0
  Ta  Ta5  1  0.84999835  0.25000000  0.53971662  1.0
  S  S6  1  0.28150238  0.25000000  0.08906381  1.0
  S  S7  1  0.71849762  0.75000000  0.91093619  1.0
  S  S8  1  0.44025763  0.25000000  0.22774163  1.0
  S  S9  1  0.55974237  0.75000000  0.77225837  1.0
  S  S10  1  0.31647642  0.25000000  0.43213520  1.0
  S  S11  1  0.68352358  0.75000000  0.56786480  1.0
  S  S12  1  0.31477743  0.25000000  0.56935268  1.0
  S  S13  1  0.68522257  0.75000000  0.43064732  1.0
  S  S14  1  0.62102523  0.25000000  0.06654166  1.0
  S  S15  1  0.37897477  0.75000000  0.93345834  1.0
  S  S16  1  0.89403893  0.75000000  0.09109358  1.0
  S  S17  1  0.10596107  0.25000000  0.90890642  1.0
  S  S18  1  0.07281159  0.75000000  0.28003977  1.0
  S  S19  1  0.92718841  0.25000000  0.71996023  1.0
  S  S20  1  0.72309452  0.75000000  0.24770067  1.0
  S  S21  1  0.27690548  0.25000000  0.75229933  1.0
  S  S22  1  0.95646117  0.25000000  0.40715874  1.0
  S  S23  1  0.04353883  0.75000000  0.59284126  1.0
