# generated using pymatgen
data_Li2Ti4O9
_symmetry_space_group_name_H-M   'P 1'
_cell_length_a   9.10603902
_cell_length_b   9.10603902
_cell_length_c   12.44913392
_cell_angle_alpha   68.29981735
_cell_angle_beta   111.70018265
_cell_angle_gamma   156.63238164
_symmetry_Int_Tables_number   1
_chemical_formula_structural   Li2Ti4O9
_chemical_formula_sum   'Li4 Ti8 O18'
_cell_volume   379.12663564
_cell_formula_units_Z   2
loop_
 _symmetry_equiv_pos_site_id
 _symmetry_equiv_pos_as_xyz
  1  'x, y, z'
loop_
 _atom_site_type_symbol
 _atom_site_label
 _atom_site_symmetry_multiplicity
 _atom_site_fract_x
 _atom_site_fract_y
 _atom_site_fract_z
 _atom_site_occupancy
  Li  Li0  1  0.45781932  0.54218068  0.83576397  1.0
  Li  Li1  1  0.54218068  -0.54218068  0.16423603  1.0
  Li  Li2  1  0.54424949  0.45575051  0.66343276  1.0
  Li  Li3  1  0.45575051  -0.45575051  0.33656724  1.0
  Ti  Ti4  1  0.84582151  0.15417849  0.89150925  1.0
  Ti  Ti5  1  0.15417849  -0.15417849  0.10849075  1.0
  Ti  Ti6  1  0.88219037  0.11780963  0.64178154  1.0
  Ti  Ti7  1  0.11780963  -0.11780963  0.35821846  1.0
  Ti  Ti8  1  0.19484218  -0.19484218  0.89075291  1.0
  Ti  Ti9  1  0.80515782  0.19484218  0.10924709  1.0
  Ti  Ti10  1  0.76253815  0.23746185  0.33020266  1.0
  Ti  Ti11  1  0.23746185  -0.23746185  0.66979734  1.0
  O  O12  1  0.92958333  0.07041667  0.84728685  1.0
  O  O13  1  0.07041667  -0.07041667  0.15271315  1.0
  O  O14  1  0.98195440  0.01804560  0.65205601  1.0
  O  O15  1  0.01804560  -0.01804560  0.34794399  1.0
  O  O16  1  0.11260713  -0.11260713  0.94478861  1.0
  O  O17  1  0.88739287  0.11260713  0.05521139  1.0
  O  O18  1  0.31165328  -0.31165328  0.86705561  1.0
  O  O19  1  0.68834672  0.31165328  0.13294439  1.0
  O  O20  1  0.64026564  0.35973436  0.33191671  1.0
  O  O21  1  0.35973436  -0.35973436  0.66808329  1.0
  O  O22  1  0.72856764  0.27143236  0.92082844  1.0
  O  O23  1  0.27143236  -0.27143236  0.07917156  1.0
  O  O24  1  0.76829235  0.23170765  0.70493290  1.0
  O  O25  1  0.23170765  -0.23170765  0.29506710  1.0
  O  O26  1  0.82190638  0.17809362  0.48011642  1.0
  O  O27  1  0.17809362  -0.17809362  0.51988358  1.0
  O  O28  1  0.84728213  0.15271787  0.26819013  1.0
  O  O29  1  0.15271787  -0.15271787  0.73180987  1.0
