# generated using pymatgen
data_YbAgO2
_symmetry_space_group_name_H-M   'P 1'
_cell_length_a   6.54266025
_cell_length_b   6.54266025
_cell_length_c   6.54266025
_cell_angle_alpha   30.95211276
_cell_angle_beta   30.95211276
_cell_angle_gamma   30.95211276
_symmetry_Int_Tables_number   1
_chemical_formula_structural   YbAgO2
_chemical_formula_sum   'Yb1 Ag1 O2'
_cell_volume   65.71754524
_cell_formula_units_Z   1
loop_
 _symmetry_equiv_pos_site_id
 _symmetry_equiv_pos_as_xyz
  1  'x, y, z'
loop_
 _atom_site_type_symbol
 _atom_site_label
 _atom_site_symmetry_multiplicity
 _atom_site_fract_x
 _atom_site_fract_y
 _atom_site_fract_z
 _atom_site_occupancy
  Yb  Yb0  1  1.50000000  0.50000000  0.50000000  1.0
  Ag  Ag1  1  0.00000000  0.00000000  0.00000000  1.0
  O  O2  1  0.88918746  0.88918746  0.88918746  1.0
  O  O3  1  1.11081254  1.11081254  0.11081254  1.0
