# generated using pymatgen
data_Ca6Si6H2O19
_symmetry_space_group_name_H-M   'P 1'
_cell_length_a   7.13480427
_cell_length_b   8.77851620
_cell_length_c   7.42087380
_cell_angle_alpha   102.18553879
_cell_angle_beta   89.95166602
_cell_angle_gamma   89.23408041
_symmetry_Int_Tables_number   1
_chemical_formula_structural   Ca6Si6H2O19
_chemical_formula_sum   'Ca6 Si6 H2 O19'
_cell_volume   454.27563891
_cell_formula_units_Z   1
loop_
 _symmetry_equiv_pos_site_id
 _symmetry_equiv_pos_as_xyz
  1  'x, y, z'
loop_
 _atom_site_type_symbol
 _atom_site_label
 _atom_site_symmetry_multiplicity
 _atom_site_fract_x
 _atom_site_fract_y
 _atom_site_fract_z
 _atom_site_occupancy
  Ca  Ca0  1  -0.34433341  -0.86679178  -0.83877879  1.0
  Ca  Ca1  1  -0.65566659  -0.13320822  -0.16122121  1.0
  Ca  Ca2  1  -0.34809134  -0.85836388  -0.34289586  1.0
  Ca  Ca3  1  -0.65190866  -0.14163612  -0.65710414  1.0
  Ca  Ca4  1  -0.50000000  -0.50000000  -0.50000000  1.0
  Ca  Ca5  1  -0.50000000  -0.50000000  0.00000000  1.0
  Si  Si6  1  -0.94662231  -0.31739006  -0.95462233  1.0
  Si  Si7  1  -0.05337769  -0.68260994  -0.04537767  1.0
  Si  Si8  1  -0.76576108  -0.78740815  -0.78235145  1.0
  Si  Si9  1  -0.23423892  -0.21259185  -0.21764855  1.0
  Si  Si10  1  -0.76775902  -0.78650375  -0.36232886  1.0
  Si  Si11  1  -0.23224098  -0.21349625  -0.63767114  1.0
  H  H12  1  -0.85682264  -0.31164515  -0.45042786  1.0
  H  H13  1  -0.14317736  -0.68835485  -0.54957214  1.0
  O  O14  1  -0.96752417  -0.77238496  -0.89036248  1.0
  O  O15  1  -0.03247583  -0.22761504  -0.10963752  1.0
  O  O16  1  -0.96997502  -0.76983641  -0.24758791  1.0
  O  O17  1  -0.03002498  -0.23016359  -0.75241209  1.0
  O  O18  1  -0.84344625  -0.77510543  -0.56955765  1.0
  O  O19  1  -0.15655375  -0.22489457  -0.43044235  1.0
  O  O20  1  -0.72314639  -0.29568234  -0.95046183  1.0
  O  O21  1  -0.27685361  -0.70431766  -0.04953817  1.0
  O  O22  1  -0.66541565  -0.95697897  -0.85925420  1.0
  O  O23  1  -0.33458435  -0.04302103  -0.14074580  1.0
  O  O24  1  -0.66837751  -0.95591302  -0.36834613  1.0
  O  O25  1  -0.33162249  -0.04408698  -0.63165387  1.0
  O  O26  1  -0.61559366  -0.65219668  -0.79110536  1.0
  O  O27  1  -0.38440634  -0.34780332  -0.20889464  1.0
  O  O28  1  -0.61528249  -0.65273334  -0.28627435  1.0
  O  O29  1  -0.38471751  -0.34726666  -0.71372565  1.0
  O  O30  1  -0.27838310  -0.70268688  -0.55330391  1.0
  O  O31  1  -0.72161690  -0.29731312  -0.44669609  1.0
  O  O32  1  0.00000000  -0.50000000  0.00000000  1.0
