# generated using pymatgen
data_Ta5Al3
_symmetry_space_group_name_H-M   'P 1'
_cell_length_a   7.80602400
_cell_length_b   7.80602400
_cell_length_c   5.22561559
_cell_angle_alpha   90.00000000
_cell_angle_beta   90.00000000
_cell_angle_gamma   120.00000000
_symmetry_Int_Tables_number   1
_chemical_formula_structural   Ta5Al3
_chemical_formula_sum   'Ta10 Al6'
_cell_volume   275.75783114
_cell_formula_units_Z   2
loop_
 _symmetry_equiv_pos_site_id
 _symmetry_equiv_pos_as_xyz
  1  'x, y, z'
loop_
 _atom_site_type_symbol
 _atom_site_label
 _atom_site_symmetry_multiplicity
 _atom_site_fract_x
 _atom_site_fract_y
 _atom_site_fract_z
 _atom_site_occupancy
  Ta  Ta0  1  0.76781319  0.76781319  0.25000000  1.0
  Ta  Ta1  1  0.76781319  0.00000000  0.75000000  1.0
  Ta  Ta2  1  -0.00000000  0.76781319  0.75000000  1.0
  Ta  Ta3  1  0.00000000  0.23218681  0.25000000  1.0
  Ta  Ta4  1  0.23218681  0.23218681  0.75000000  1.0
  Ta  Ta5  1  0.23218681  -0.00000000  0.25000000  1.0
  Ta  Ta6  1  0.33333333  0.66666667  0.50000000  1.0
  Ta  Ta7  1  0.33333333  0.66666667  0.00000000  1.0
  Ta  Ta8  1  0.66666667  0.33333333  0.50000000  1.0
  Ta  Ta9  1  0.66666667  0.33333333  -0.00000000  1.0
  Al  Al10  1  0.40293962  0.40293962  0.25000000  1.0
  Al  Al11  1  0.40293962  0.00000000  0.75000000  1.0
  Al  Al12  1  0.00000000  0.40293962  0.75000000  1.0
  Al  Al13  1  0.00000000  0.59706038  0.25000000  1.0
  Al  Al14  1  0.59706038  0.59706038  0.75000000  1.0
  Al  Al15  1  0.59706038  -0.00000000  0.25000000  1.0
