# generated using pymatgen
data_ZnSeO3
_symmetry_space_group_name_H-M   'P 1'
_cell_length_a   5.99017928
_cell_length_b   7.80621909
_cell_length_c   5.13875987
_cell_angle_alpha   90.00000000
_cell_angle_beta   90.00000000
_cell_angle_gamma   90.00000000
_symmetry_Int_Tables_number   1
_chemical_formula_structural   ZnSeO3
_chemical_formula_sum   'Zn4 Se4 O12'
_cell_volume   240.29176104
_cell_formula_units_Z   4
loop_
 _symmetry_equiv_pos_site_id
 _symmetry_equiv_pos_as_xyz
  1  'x, y, z'
loop_
 _atom_site_type_symbol
 _atom_site_label
 _atom_site_symmetry_multiplicity
 _atom_site_fract_x
 _atom_site_fract_y
 _atom_site_fract_z
 _atom_site_occupancy
  Zn  Zn0  1  0.50000000  0.00000000  0.50000000  1.0
  Zn  Zn1  1  0.50000000  0.50000000  0.50000000  1.0
  Zn  Zn2  1  0.00000000  0.00000000  0.00000000  1.0
  Zn  Zn3  1  0.00000000  0.50000000  0.00000000  1.0
  Se  Se4  1  0.46972862  0.75000000  0.01441180  1.0
  Se  Se5  1  0.96972862  0.75000000  0.48558820  1.0
  Se  Se6  1  0.53027138  0.25000000  0.98558820  1.0
  Se  Se7  1  0.03027138  0.25000000  0.51441180  1.0
  O  O8  1  0.30960039  0.92159880  0.13180037  1.0
  O  O9  1  0.30960039  0.57840120  0.13180037  1.0
  O  O10  1  0.80960039  0.92159880  0.36819963  1.0
  O  O11  1  0.80960039  0.57840120  0.36819963  1.0
  O  O12  1  0.69039961  0.42159880  0.86819963  1.0
  O  O13  1  0.69039961  0.07840120  0.86819963  1.0
  O  O14  1  0.19039961  0.42159880  0.63180037  1.0
  O  O15  1  0.19039961  0.07840120  0.63180037  1.0
  O  O16  1  0.42100116  0.75000000  0.68044533  1.0
  O  O17  1  0.92100116  0.75000000  0.81955467  1.0
  O  O18  1  0.57899884  0.25000000  0.31955467  1.0
  O  O19  1  0.07899884  0.25000000  0.18044533  1.0
