# generated using pymatgen
data_KPSe3
_symmetry_space_group_name_H-M   'P 1'
_cell_length_a   7.47341271
_cell_length_b   7.47341271
_cell_length_c   19.23265719
_cell_angle_alpha   90.00000000
_cell_angle_beta   90.00000000
_cell_angle_gamma   120.00000000
_symmetry_Int_Tables_number   1
_chemical_formula_structural   KPSe3
_chemical_formula_sum   'K6 P6 Se18'
_cell_volume   930.26751433
_cell_formula_units_Z   6
loop_
 _symmetry_equiv_pos_site_id
 _symmetry_equiv_pos_as_xyz
  1  'x, y, z'
loop_
 _atom_site_type_symbol
 _atom_site_label
 _atom_site_symmetry_multiplicity
 _atom_site_fract_x
 _atom_site_fract_y
 _atom_site_fract_z
 _atom_site_occupancy
  K  K0  1  0.73148410  0.46686967  0.92316671  1.0
  K  K1  1  0.46686967  0.73148410  0.07683329  1.0
  K  K2  1  0.73538557  0.26851590  0.58983338  1.0
  K  K3  1  0.53313033  0.26461443  0.25650004  1.0
  K  K4  1  0.26851590  0.73538557  0.41016662  1.0
  K  K5  1  0.26461443  0.53313033  0.74349996  1.0
  P  P6  1  0.93212948  0.84953648  0.72124755  1.0
  P  P7  1  0.84953648  0.93212948  0.27875245  1.0
  P  P8  1  0.91740700  0.06787052  0.38791422  1.0
  P  P9  1  0.15046352  0.08259300  0.05458089  1.0
  P  P10  1  0.06787052  0.91740700  0.61208578  1.0
  P  P11  1  0.08259300  0.15046352  0.94541911  1.0
  Se  Se12  1  1.02628472  0.75178047  0.05873384  1.0
  Se  Se13  1  0.75178047  1.02628472  0.94126616  1.0
  Se  Se14  1  0.72549575  -0.02628472  0.72540050  1.0
  Se  Se15  1  0.24821953  0.27450425  0.39206717  1.0
  Se  Se16  1  -0.02628472  0.72549575  0.27459950  1.0
  Se  Se17  1  0.27450425  0.24821953  0.60793283  1.0
  Se  Se18  1  0.80681500  0.52835341  0.74915075  1.0
  Se  Se19  1  0.52835341  0.80681500  0.25084925  1.0
  Se  Se20  1  0.72153841  0.19318500  0.41581741  1.0
  Se  Se21  1  0.47164659  0.27846159  0.08248408  1.0
  Se  Se22  1  0.19318500  0.72153841  0.58418259  1.0
  Se  Se23  1  0.27846159  0.47164659  0.91751592  1.0
  Se  Se24  1  0.18703846  0.93183260  0.89084548  1.0
  Se  Se25  1  0.93183260  0.18703846  0.10915452  1.0
  Se  Se26  1  0.74479414  0.81296154  0.55751215  1.0
  Se  Se27  1  0.06816740  0.25520586  0.22417881  1.0
  Se  Se28  1  0.81296154  0.74479414  0.44248785  1.0
  Se  Se29  1  0.25520586  0.06816740  0.77582119  1.0
