# generated using pymatgen
data_Li8SnO6
_symmetry_space_group_name_H-M   'P 1'
_cell_length_a   6.04608773
_cell_length_b   6.04608773
_cell_length_c   6.04608773
_cell_angle_alpha   54.12611443
_cell_angle_beta   54.12611443
_cell_angle_gamma   54.12611443
_symmetry_Int_Tables_number   1
_chemical_formula_structural   Li8SnO6
_chemical_formula_sum   'Li8 Sn1 O6'
_cell_volume   134.85000237
_cell_formula_units_Z   1
loop_
 _symmetry_equiv_pos_site_id
 _symmetry_equiv_pos_as_xyz
  1  'x, y, z'
loop_
 _atom_site_type_symbol
 _atom_site_label
 _atom_site_symmetry_multiplicity
 _atom_site_fract_x
 _atom_site_fract_y
 _atom_site_fract_z
 _atom_site_occupancy
  Li  Li0  1  0.34636705  0.34636705  -0.65363295  1.0
  Li  Li1  1  0.65363295  0.65363295  -0.34636705  1.0
  Li  Li2  1  0.23422089  0.90048235  -0.49539134  1.0
  Li  Li3  1  0.49539134  -0.23422089  0.09951765  1.0
  Li  Li4  1  1.09951765  -0.50460866  -0.23422089  1.0
  Li  Li5  1  0.76577911  0.09951765  -0.50460866  1.0
  Li  Li6  1  0.50460866  0.23422089  -0.09951766  1.0
  Li  Li7  1  0.90048234  0.50460866  -0.76577911  1.0
  Sn  Sn8  1  0.00000000  0.00000000  0.00000000  1.0
  O  O9  1  0.09504176  0.76419255  -0.61463279  1.0
  O  O10  1  0.61463279  -0.09504176  0.23580745  1.0
  O  O11  1  1.23580745  -0.38536721  -0.09504176  1.0
  O  O12  1  0.90495824  0.23580745  -0.38536721  1.0
  O  O13  1  0.38536721  0.09504176  -0.23580745  1.0
  O  O14  1  0.76419255  0.38536721  -0.90495824  1.0
