# generated using pymatgen
data_Sc3(Si2Ni)2
_symmetry_space_group_name_H-M   'P 1'
_cell_length_a   11.68974541
_cell_length_b   3.98962022
_cell_length_c   11.96494918
_cell_angle_alpha   90.00000000
_cell_angle_beta   90.00000000
_cell_angle_gamma   90.00000000
_symmetry_Int_Tables_number   1
_chemical_formula_structural   Sc3(Si2Ni)2
_chemical_formula_sum   'Sc12 Si16 Ni8'
_cell_volume   558.01704882
_cell_formula_units_Z   4
loop_
 _symmetry_equiv_pos_site_id
 _symmetry_equiv_pos_as_xyz
  1  'x, y, z'
loop_
 _atom_site_type_symbol
 _atom_site_label
 _atom_site_symmetry_multiplicity
 _atom_site_fract_x
 _atom_site_fract_y
 _atom_site_fract_z
 _atom_site_occupancy
  Sc  Sc0  1  0.75299499  0.75000000  0.65121830  1.0
  Sc  Sc1  1  0.25299499  0.75000000  0.84878170  1.0
  Sc  Sc2  1  0.24700501  0.25000000  0.34878170  1.0
  Sc  Sc3  1  0.74700501  0.25000000  0.15121830  1.0
  Sc  Sc4  1  0.69555169  0.75000000  0.92018257  1.0
  Sc  Sc5  1  0.19555169  0.75000000  0.57981743  1.0
  Sc  Sc6  1  0.30444831  0.25000000  0.07981743  1.0
  Sc  Sc7  1  0.80444831  0.25000000  0.42018257  1.0
  Sc  Sc8  1  0.98061027  0.75000000  0.81337366  1.0
  Sc  Sc9  1  0.48061027  0.75000000  0.68662634  1.0
  Sc  Sc10  1  0.01938973  0.25000000  0.18662634  1.0
  Sc  Sc11  1  0.51938973  0.25000000  0.31337366  1.0
  Si  Si12  1  0.87752979  0.75000000  0.26677880  1.0
  Si  Si13  1  0.37752979  0.75000000  0.23322120  1.0
  Si  Si14  1  0.12247021  0.25000000  0.73322120  1.0
  Si  Si15  1  0.62247021  0.25000000  0.76677880  1.0
  Si  Si16  1  0.67331984  0.75000000  0.29803416  1.0
  Si  Si17  1  0.17331984  0.75000000  0.20196584  1.0
  Si  Si18  1  0.32668016  0.25000000  0.70196584  1.0
  Si  Si19  1  0.82668016  0.25000000  0.79803416  1.0
  Si  Si20  1  0.94197629  0.75000000  0.53260294  1.0
  Si  Si21  1  0.44197629  0.75000000  0.96739706  1.0
  Si  Si22  1  0.05802371  0.25000000  0.46739706  1.0
  Si  Si23  1  0.55802371  0.25000000  0.03260294  1.0
  Si  Si24  1  0.89160317  0.75000000  0.06387870  1.0
  Si  Si25  1  0.39160317  0.75000000  0.43612130  1.0
  Si  Si26  1  0.10839683  0.25000000  0.93612130  1.0
  Si  Si27  1  0.60839683  0.25000000  0.56387870  1.0
  Ni  Ni28  1  0.55021859  0.75000000  0.13439695  1.0
  Ni  Ni29  1  0.05021859  0.75000000  0.36560305  1.0
  Ni  Ni30  1  0.44978141  0.25000000  0.86560305  1.0
  Ni  Ni31  1  0.94978141  0.25000000  0.63439695  1.0
  Ni  Ni32  1  0.59006984  0.75000000  0.47286806  1.0
  Ni  Ni33  1  0.09006984  0.75000000  0.02713194  1.0
  Ni  Ni34  1  0.40993016  0.25000000  0.52713194  1.0
  Ni  Ni35  1  0.90993016  0.25000000  0.97286806  1.0
