# generated using pymatgen
data_Dy2Fe17N3
_symmetry_space_group_name_H-M   'P 1'
_cell_length_a   6.49555006
_cell_length_b   6.49555006
_cell_length_c   6.49555006
_cell_angle_alpha   83.05234322
_cell_angle_beta   83.05234322
_cell_angle_gamma   83.05234322
_symmetry_Int_Tables_number   1
_chemical_formula_structural   Dy2Fe17N3
_chemical_formula_sum   'Dy2 Fe17 N3'
_cell_volume   268.47440185
_cell_formula_units_Z   1
loop_
 _symmetry_equiv_pos_site_id
 _symmetry_equiv_pos_as_xyz
  1  'x, y, z'
loop_
 _atom_site_type_symbol
 _atom_site_label
 _atom_site_symmetry_multiplicity
 _atom_site_fract_x
 _atom_site_fract_y
 _atom_site_fract_z
 _atom_site_occupancy
  Dy  Dy0  1  0.65790312  0.65790312  -0.34209688  1.0
  Dy  Dy1  1  0.34209688  0.34209688  -0.65790312  1.0
  Fe  Fe2  1  1.00000000  0.00000000  -0.50000000  1.0
  Fe  Fe3  1  1.00000000  -0.50000000  -0.00000000  1.0
  Fe  Fe4  1  1.50000000  1.00000000  0.00000000  1.0
  Fe  Fe5  1  0.28331227  -0.28331227  -0.00000000  1.0
  Fe  Fe6  1  0.71668773  0.00000000  -0.71668773  1.0
  Fe  Fe7  1  1.00000000  0.28331227  -0.28331227  1.0
  Fe  Fe8  1  0.28331227  -0.00000000  -0.28331227  1.0
  Fe  Fe9  1  1.00000000  -0.28331227  0.28331227  1.0
  Fe  Fe10  1  0.71668773  -0.71668773  0.00000000  1.0
  Fe  Fe11  1  0.34287122  0.34287122  -0.14371517  1.0
  Fe  Fe12  1  0.34287122  0.85628483  -0.65712878  1.0
  Fe  Fe13  1  0.85628483  0.34287122  -0.65712878  1.0
  Fe  Fe14  1  0.65712878  -0.34287122  0.14371517  1.0
  Fe  Fe15  1  0.65712878  0.14371517  -0.34287122  1.0
  Fe  Fe16  1  1.14371517  -0.34287122  -0.34287122  1.0
  Fe  Fe17  1  0.90548432  0.90548432  -0.09451568  1.0
  Fe  Fe18  1  1.09451568  1.09451568  0.09451568  1.0
  N  N19  1  0.50000000  -0.50000000  -0.00000000  1.0
  N  N20  1  0.50000000  -0.00000000  -0.50000000  1.0
  N  N21  1  1.00000000  0.50000000  -0.50000000  1.0
