# generated using pymatgen
data_MoO2
_symmetry_space_group_name_H-M   'P 1'
_cell_length_a   9.73154193
_cell_length_b   8.48761289
_cell_length_c   4.80981006
_cell_angle_alpha   90.00000000
_cell_angle_beta   90.00000000
_cell_angle_gamma   90.00000000
_symmetry_Int_Tables_number   1
_chemical_formula_structural   MoO2
_chemical_formula_sum   'Mo12 O24'
_cell_volume   397.27857864
_cell_formula_units_Z   12
loop_
 _symmetry_equiv_pos_site_id
 _symmetry_equiv_pos_as_xyz
  1  'x, y, z'
loop_
 _atom_site_type_symbol
 _atom_site_label
 _atom_site_symmetry_multiplicity
 _atom_site_fract_x
 _atom_site_fract_y
 _atom_site_fract_z
 _atom_site_occupancy
  Mo  Mo0  1  0.36432628  0.75000000  0.97979071  1.0
  Mo  Mo1  1  0.86432628  0.75000000  0.52020929  1.0
  Mo  Mo2  1  0.63567372  0.25000000  0.02020929  1.0
  Mo  Mo3  1  0.13567372  0.25000000  0.47979071  1.0
  Mo  Mo4  1  0.13267260  0.60128073  0.99186060  1.0
  Mo  Mo5  1  0.63267260  0.89871927  0.50813940  1.0
  Mo  Mo6  1  0.86732740  0.10128073  0.00813940  1.0
  Mo  Mo7  1  0.36732740  0.39871927  0.49186060  1.0
  Mo  Mo8  1  0.86732740  0.39871927  0.00813940  1.0
  Mo  Mo9  1  0.36732740  0.10128073  0.49186060  1.0
  Mo  Mo10  1  0.13267260  0.89871927  0.99186060  1.0
  Mo  Mo11  1  0.63267260  0.60128073  0.50813940  1.0
  O  O12  1  0.19964249  0.07365821  0.71922380  1.0
  O  O13  1  0.69964249  0.42634179  0.78077620  1.0
  O  O14  1  0.80035751  0.57365821  0.28077620  1.0
  O  O15  1  0.30035751  0.92634179  0.21922380  1.0
  O  O16  1  0.80035751  0.92634179  0.28077620  1.0
  O  O17  1  0.30035751  0.57365821  0.21922380  1.0
  O  O18  1  0.19964249  0.42634179  0.71922380  1.0
  O  O19  1  0.69964249  0.07365821  0.78077620  1.0
  O  O20  1  0.45627800  0.58755517  0.72047765  1.0
  O  O21  1  0.95627800  0.91244483  0.77952235  1.0
  O  O22  1  0.54372200  0.08755517  0.27952235  1.0
  O  O23  1  0.04372200  0.41244483  0.22047765  1.0
  O  O24  1  0.54372200  0.41244483  0.27952235  1.0
  O  O25  1  0.04372200  0.08755517  0.22047765  1.0
  O  O26  1  0.45627800  0.91244483  0.72047765  1.0
  O  O27  1  0.95627800  0.58755517  0.77952235  1.0
  O  O28  1  0.04275603  0.75000000  0.25367331  1.0
  O  O29  1  0.54275603  0.75000000  0.24632669  1.0
  O  O30  1  0.95724397  0.25000000  0.74632669  1.0
  O  O31  1  0.45724397  0.25000000  0.75367331  1.0
  O  O32  1  0.20545522  0.75000000  0.70229760  1.0
  O  O33  1  0.70545522  0.75000000  0.79770240  1.0
  O  O34  1  0.79454478  0.25000000  0.29770240  1.0
  O  O35  1  0.29454478  0.25000000  0.20229760  1.0
