# generated using pymatgen
data_Ca2CrClO4
_symmetry_space_group_name_H-M   'P 1'
_cell_length_a   6.34196470
_cell_length_b   7.16094970
_cell_length_c   11.08444008
_cell_angle_alpha   90.00000000
_cell_angle_beta   90.00000000
_cell_angle_gamma   90.00000000
_symmetry_Int_Tables_number   1
_chemical_formula_structural   Ca2CrClO4
_chemical_formula_sum   'Ca8 Cr4 Cl4 O16'
_cell_volume   503.39419536
_cell_formula_units_Z   4
loop_
 _symmetry_equiv_pos_site_id
 _symmetry_equiv_pos_as_xyz
  1  'x, y, z'
loop_
 _atom_site_type_symbol
 _atom_site_label
 _atom_site_symmetry_multiplicity
 _atom_site_fract_x
 _atom_site_fract_y
 _atom_site_fract_z
 _atom_site_occupancy
  Ca  Ca0  1  0.85910280  0.96952137  0.75000000  1.0
  Ca  Ca1  1  0.85910280  0.53047863  0.25000000  1.0
  Ca  Ca2  1  0.14089720  0.46952137  0.75000000  1.0
  Ca  Ca3  1  0.14089720  0.03047863  0.25000000  1.0
  Ca  Ca4  1  0.37672462  0.75000000  0.00000000  1.0
  Ca  Ca5  1  0.37672462  0.75000000  0.50000000  1.0
  Ca  Ca6  1  0.62327538  0.25000000  0.00000000  1.0
  Ca  Ca7  1  0.62327538  0.25000000  0.50000000  1.0
  Cr  Cr8  1  0.87178867  0.75000000  0.00000000  1.0
  Cr  Cr9  1  0.87178867  0.75000000  0.50000000  1.0
  Cr  Cr10  1  0.12821133  0.25000000  0.00000000  1.0
  Cr  Cr11  1  0.12821133  0.25000000  0.50000000  1.0
  Cl  Cl12  1  0.50481505  0.69498185  0.75000000  1.0
  Cl  Cl13  1  0.50481505  0.80501815  0.25000000  1.0
  Cl  Cl14  1  0.49518495  0.19498185  0.75000000  1.0
  Cl  Cl15  1  0.49518495  0.30501815  0.25000000  1.0
  O  O16  1  0.96599071  0.23195119  0.87713319  1.0
  O  O17  1  0.96599071  0.23195119  0.62286681  1.0
  O  O18  1  0.96599071  0.26804881  0.37713319  1.0
  O  O19  1  0.96599071  0.26804881  0.12286681  1.0
  O  O20  1  0.03400929  0.73195119  0.87713319  1.0
  O  O21  1  0.03400929  0.73195119  0.62286681  1.0
  O  O22  1  0.03400929  0.76804881  0.37713319  1.0
  O  O23  1  0.03400929  0.76804881  0.12286681  1.0
  O  O24  1  0.70823414  0.93229113  0.96860466  1.0
  O  O25  1  0.70823414  0.93229113  0.53139534  1.0
  O  O26  1  0.70823414  0.56770887  0.46860466  1.0
  O  O27  1  0.70823414  0.56770887  0.03139534  1.0
  O  O28  1  0.29176586  0.43229113  0.96860466  1.0
  O  O29  1  0.29176586  0.43229113  0.53139534  1.0
  O  O30  1  0.29176586  0.06770887  0.46860466  1.0
  O  O31  1  0.29176586  0.06770887  0.03139534  1.0
