# generated using pymatgen
data_P3RuO9
_symmetry_space_group_name_H-M   'P 1'
_cell_length_a   5.14386916
_cell_length_b   10.54103101
_cell_length_c   7.18365317
_cell_angle_alpha   98.66414112
_cell_angle_beta   91.58984364
_cell_angle_gamma   91.84283679
_symmetry_Int_Tables_number   1
_chemical_formula_structural   P3RuO9
_chemical_formula_sum   'P6 Ru2 O18'
_cell_volume   384.65628455
_cell_formula_units_Z   2
loop_
 _symmetry_equiv_pos_site_id
 _symmetry_equiv_pos_as_xyz
  1  'x, y, z'
loop_
 _atom_site_type_symbol
 _atom_site_label
 _atom_site_symmetry_multiplicity
 _atom_site_fract_x
 _atom_site_fract_y
 _atom_site_fract_z
 _atom_site_occupancy
  P  P0  1  -0.75951767  -0.26653141  -0.70129111  1.0
  P  P1  1  -0.24048233  -0.73346859  -0.29870889  1.0
  P  P2  1  -0.52128339  -0.67554921  -0.94322017  1.0
  P  P3  1  -0.47871661  -0.32445079  -0.05677983  1.0
  P  P4  1  -0.49997283  -0.85519262  -0.65293675  1.0
  P  P5  1  -0.50002717  -0.14480738  -0.34706325  1.0
  Ru  Ru6  1  0.00000000  0.00000000  -0.50000000  1.0
  Ru  Ru7  1  0.00000000  -0.50000000  -0.00000000  1.0
  O  O8  1  -0.45938712  -0.79975055  -0.84575619  1.0
  O  O9  1  -0.54061288  -0.20024945  -0.15424381  1.0
  O  O10  1  -0.91026411  -0.14570402  -0.70615116  1.0
  O  O11  1  -0.08973589  -0.85429598  -0.29384884  1.0
  O  O12  1  -0.91213920  -0.39373754  -0.74266731  1.0
  O  O13  1  -0.08786080  -0.60626246  -0.25733269  1.0
  O  O14  1  -0.80908392  -0.65043926  -0.91901509  1.0
  O  O15  1  -0.19091608  -0.34956074  -0.08098491  1.0
  O  O16  1  -0.79171676  -0.87306256  -0.63039565  1.0
  O  O17  1  -0.20828324  -0.12693744  -0.36960435  1.0
  O  O18  1  -0.51874742  -0.26439262  -0.84006131  1.0
  O  O19  1  -0.48125258  -0.73560738  -0.15993869  1.0
  O  O20  1  -0.38888864  -0.73507727  -0.49908537  1.0
  O  O21  1  -0.61111136  -0.26492273  -0.50091463  1.0
  O  O22  1  -0.33263523  -0.97046380  -0.65719822  1.0
  O  O23  1  -0.66736477  -0.02953620  -0.34280178  1.0
  O  O24  1  -0.32865739  -0.56661448  -0.87453852  1.0
  O  O25  1  -0.67134261  -0.43338552  -0.12546148  1.0
