# generated using pymatgen
data_Eu2SiO5
_symmetry_space_group_name_H-M   'P 1'
_cell_length_a   9.23293217
_cell_length_b   7.54362579
_cell_length_c   6.75688599
_cell_angle_alpha   90.00000000
_cell_angle_beta   108.65150111
_cell_angle_gamma   90.00000000
_symmetry_Int_Tables_number   1
_chemical_formula_structural   Eu2SiO5
_chemical_formula_sum   'Eu8 Si4 O20'
_cell_volume   445.89954811
_cell_formula_units_Z   4
loop_
 _symmetry_equiv_pos_site_id
 _symmetry_equiv_pos_as_xyz
  1  'x, y, z'
loop_
 _atom_site_type_symbol
 _atom_site_label
 _atom_site_symmetry_multiplicity
 _atom_site_fract_x
 _atom_site_fract_y
 _atom_site_fract_z
 _atom_site_occupancy
  O  O0  1  0.71796527  0.41691487  0.14012214  1.0
  O  O1  1  0.71796527  0.08308513  0.64012214  1.0
  O  O2  1  0.28203473  0.91691487  0.35987786  1.0
  O  O3  1  0.28203473  0.58308513  0.85987786  1.0
  O  O4  1  0.62604787  0.03991528  0.23975833  1.0
  O  O5  1  0.62604787  0.46008472  0.73975833  1.0
  O  O6  1  0.37395213  0.53991528  0.26024167  1.0
  O  O7  1  0.37395213  0.96008472  0.76024167  1.0
  O  O8  1  0.41241159  0.26661549  0.04306980  1.0
  O  O9  1  0.41241159  0.23338451  0.54306980  1.0
  O  O10  1  0.58758841  0.76661549  0.45693020  1.0
  O  O11  1  0.58758841  0.73338451  0.95693020  1.0
  O  O12  1  0.11954167  0.13325659  0.50108599  1.0
  O  O13  1  0.11954167  0.36674341  1.00108599  1.0
  O  O14  1  0.88045833  0.63325659  -0.00108599  1.0
  O  O15  1  0.88045833  0.86674341  0.49891401  1.0
  O  O16  1  0.89530752  0.12165720  0.06022767  1.0
  O  O17  1  0.89530752  0.37834280  0.56022767  1.0
  O  O18  1  0.10469248  0.62165720  0.43977233  1.0
  O  O19  1  0.10469248  0.87834280  0.93977233  1.0
  Eu  Eu20  1  0.60688594  0.33837393  0.40280814  1.0
  Eu  Eu21  1  0.60688594  0.16162607  0.90280814  1.0
  Eu  Eu22  1  0.39311406  0.83837393  0.09719186  1.0
  Eu  Eu23  1  0.39311406  0.66162607  0.59719186  1.0
  Eu  Eu24  1  0.99076001  0.37114716  0.26872404  1.0
  Eu  Eu25  1  0.99076001  0.12885284  0.76872404  1.0
  Eu  Eu26  1  0.00923999  0.87114716  0.23127596  1.0
  Eu  Eu27  1  0.00923999  0.62885284  0.73127596  1.0
  Si  Si28  1  0.70178628  0.92893414  0.45882464  1.0
  Si  Si29  1  0.70178628  0.57106586  0.95882464  1.0
  Si  Si30  1  0.29821372  0.42893414  0.04117536  1.0
  Si  Si31  1  0.29821372  0.07106586  0.54117536  1.0
