# generated using pymatgen
data_La5ZnGe3
_symmetry_space_group_name_H-M   'P 1'
_cell_length_a   9.35285443
_cell_length_b   9.35285443
_cell_length_c   6.63722876
_cell_angle_alpha   90.00000000
_cell_angle_beta   90.00000000
_cell_angle_gamma   120.00000000
_symmetry_Int_Tables_number   1
_chemical_formula_structural   La5ZnGe3
_chemical_formula_sum   'La10 Zn2 Ge6'
_cell_volume   502.81215480
_cell_formula_units_Z   2
loop_
 _symmetry_equiv_pos_site_id
 _symmetry_equiv_pos_as_xyz
  1  'x, y, z'
loop_
 _atom_site_type_symbol
 _atom_site_label
 _atom_site_symmetry_multiplicity
 _atom_site_fract_x
 _atom_site_fract_y
 _atom_site_fract_z
 _atom_site_occupancy
  La  La0  1  0.71404942  0.71404942  0.25000000  1.0
  La  La1  1  0.71404942  -0.00000000  0.75000000  1.0
  La  La2  1  -0.00000000  0.71404942  0.75000000  1.0
  La  La3  1  0.00000000  0.28595058  0.25000000  1.0
  La  La4  1  0.28595058  0.28595058  0.75000000  1.0
  La  La5  1  0.28595058  0.00000000  0.25000000  1.0
  La  La6  1  0.33333333  0.66666667  0.50000000  1.0
  La  La7  1  0.33333333  0.66666667  0.00000000  1.0
  La  La8  1  0.66666667  0.33333333  0.50000000  1.0
  La  La9  1  0.66666667  0.33333333  0.00000000  1.0
  Zn  Zn10  1  0.00000000  0.00000000  0.50000000  1.0
  Zn  Zn11  1  0.00000000  0.00000000  -0.00000000  1.0
  Ge  Ge12  1  0.36759198  0.36759198  0.25000000  1.0
  Ge  Ge13  1  0.36759198  -0.00000000  0.75000000  1.0
  Ge  Ge14  1  -0.00000000  0.36759198  0.75000000  1.0
  Ge  Ge15  1  -0.00000000  0.63240802  0.25000000  1.0
  Ge  Ge16  1  0.63240802  0.63240802  0.75000000  1.0
  Ge  Ge17  1  0.63240802  0.00000000  0.25000000  1.0
