# generated using pymatgen
data_Ca
_symmetry_space_group_name_H-M   'P 1'
_cell_length_a   6.19816664
_cell_length_b   6.19816664
_cell_length_c   6.19816664
_cell_angle_alpha   106.28336727
_cell_angle_beta   106.28336727
_cell_angle_gamma   116.05437090
_symmetry_Int_Tables_number   1
_chemical_formula_structural   Ca
_chemical_formula_sum   Ca4
_cell_volume   181.46708367
_cell_formula_units_Z   4
loop_
 _symmetry_equiv_pos_site_id
 _symmetry_equiv_pos_as_xyz
  1  'x, y, z'
loop_
 _atom_site_type_symbol
 _atom_site_label
 _atom_site_symmetry_multiplicity
 _atom_site_fract_x
 _atom_site_fract_y
 _atom_site_fract_z
 _atom_site_occupancy
  Ca  Ca0  1  0.16969771  0.66969771  0.83939541  1.0
  Ca  Ca1  1  0.83030229  0.33030229  1.16060459  1.0
  Ca  Ca2  1  0.66969771  0.83030229  0.50000000  1.0
  Ca  Ca3  1  1.33030229  1.16969771  1.50000000  1.0
