# generated using pymatgen
data_Gd(IO3)3
_symmetry_space_group_name_H-M   'P 1'
_cell_length_a   7.45080129
_cell_length_b   8.63596210
_cell_length_c   13.68461689
_cell_angle_alpha   90.00000000
_cell_angle_beta   100.17582499
_cell_angle_gamma   90.00000000
_symmetry_Int_Tables_number   1
_chemical_formula_structural   Gd(IO3)3
_chemical_formula_sum   'Gd4 I12 O36'
_cell_volume   866.68385370
_cell_formula_units_Z   4
loop_
 _symmetry_equiv_pos_site_id
 _symmetry_equiv_pos_as_xyz
  1  'x, y, z'
loop_
 _atom_site_type_symbol
 _atom_site_label
 _atom_site_symmetry_multiplicity
 _atom_site_fract_x
 _atom_site_fract_y
 _atom_site_fract_z
 _atom_site_occupancy
  Gd  Gd0  1  0.82450383  0.76739682  0.85640792  1.0
  Gd  Gd1  1  0.82450383  0.73260318  0.35640792  1.0
  Gd  Gd2  1  0.17549617  0.26739682  0.64359208  1.0
  Gd  Gd3  1  0.17549617  0.23260318  0.14359208  1.0
  I  I4  1  0.82553683  0.30247313  0.88869217  1.0
  I  I5  1  0.82553683  0.19752687  0.38869217  1.0
  I  I6  1  0.17446317  0.80247313  0.61130783  1.0
  I  I7  1  0.17446317  0.69752687  0.11130783  1.0
  I  I8  1  0.74596706  0.52737271  0.61689559  1.0
  I  I9  1  0.74596706  0.97262729  0.11689559  1.0
  I  I10  1  0.25403294  0.02737271  0.88310441  1.0
  I  I11  1  0.25403294  0.47262729  0.38310441  1.0
  I  I12  1  0.33674426  0.55432642  0.85660526  1.0
  I  I13  1  0.33674426  0.94567358  0.35660526  1.0
  I  I14  1  0.66325574  0.05432642  0.64339474  1.0
  I  I15  1  0.66325574  0.44567358  0.14339474  1.0
  O  O16  1  0.99734757  0.49020457  0.62502271  1.0
  O  O17  1  0.99734757  0.00979543  0.12502271  1.0
  O  O18  1  0.00265243  0.99020457  0.87497729  1.0
  O  O19  1  0.00265243  0.50979543  0.37497729  1.0
  O  O20  1  0.97073197  0.82575604  0.51041211  1.0
  O  O21  1  0.97073197  0.67424396  0.01041211  1.0
  O  O22  1  0.02926803  0.32575604  0.98958789  1.0
  O  O23  1  0.02926803  0.17424396  0.48958789  1.0
  O  O24  1  0.84672661  0.20781771  0.67398951  1.0
  O  O25  1  0.84672661  0.29218229  0.17398951  1.0
  O  O26  1  0.15327339  0.70781771  0.82601049  1.0
  O  O27  1  0.15327339  0.79218229  0.32601049  1.0
  O  O28  1  0.84250775  0.48731973  0.81684599  1.0
  O  O29  1  0.84250775  0.01268027  0.31684599  1.0
  O  O30  1  0.15749225  0.98731973  0.68315401  1.0
  O  O31  1  0.15749225  0.51268027  0.18315401  1.0
  O  O32  1  0.76803682  0.72527424  0.67845882  1.0
  O  O33  1  0.76803682  0.77472576  0.17845882  1.0
  O  O34  1  0.23196318  0.22527424  0.82154118  1.0
  O  O35  1  0.23196318  0.27472576  0.32154118  1.0
  O  O36  1  0.68940314  0.93231161  0.98088654  1.0
  O  O37  1  0.68940314  0.56768839  0.48088654  1.0
  O  O38  1  0.31059686  0.43231161  0.51911346  1.0
  O  O39  1  0.31059686  0.06768839  0.01911346  1.0
  O  O40  1  0.64952101  0.98111994  0.77171459  1.0
  O  O41  1  0.64952101  0.51888006  0.27171459  1.0
  O  O42  1  0.35047899  0.48111994  0.72828541  1.0
  O  O43  1  0.35047899  0.01888006  0.22828541  1.0
  O  O44  1  0.63121196  0.34802522  0.95456081  1.0
  O  O45  1  0.63121196  0.15197478  0.45456081  1.0
  O  O46  1  0.36878804  0.84802522  0.54543919  1.0
  O  O47  1  0.36878804  0.65197478  0.04543919  1.0
  O  O48  1  0.53522236  0.68881684  0.86904895  1.0
  O  O49  1  0.53522236  0.81118316  0.36904895  1.0
  O  O50  1  0.46477764  0.18881684  0.63095105  1.0
  O  O51  1  0.46477764  0.31118316  0.13095105  1.0
