# generated using pymatgen
data_TiSO5
_symmetry_space_group_name_H-M   'P 1'
_cell_length_a   11.20738604
_cell_length_b   5.30586531
_cell_length_c   6.65480159
_cell_angle_alpha   90.00000000
_cell_angle_beta   90.00000000
_cell_angle_gamma   90.00000000
_symmetry_Int_Tables_number   1
_chemical_formula_structural   TiSO5
_chemical_formula_sum   'Ti4 S4 O20'
_cell_volume   395.72698364
_cell_formula_units_Z   4
loop_
 _symmetry_equiv_pos_site_id
 _symmetry_equiv_pos_as_xyz
  1  'x, y, z'
loop_
 _atom_site_type_symbol
 _atom_site_label
 _atom_site_symmetry_multiplicity
 _atom_site_fract_x
 _atom_site_fract_y
 _atom_site_fract_z
 _atom_site_occupancy
  Ti  Ti0  1  0.44391381  0.75000000  0.65559918  1.0
  Ti  Ti1  1  0.94391381  0.75000000  0.84440082  1.0
  Ti  Ti2  1  0.55608619  0.25000000  0.34440082  1.0
  Ti  Ti3  1  0.05608619  0.25000000  0.15559918  1.0
  S  S4  1  0.65507745  0.75000000  0.02330239  1.0
  S  S5  1  0.15507745  0.75000000  0.47669761  1.0
  S  S6  1  0.34492255  0.25000000  0.97669761  1.0
  S  S7  1  0.84492255  0.25000000  0.52330239  1.0
  O  O8  1  0.28543468  0.75000000  0.52369653  1.0
  O  O9  1  0.78543468  0.75000000  0.97630347  1.0
  O  O10  1  0.71456532  0.25000000  0.47630347  1.0
  O  O11  1  0.21456532  0.25000000  0.02369653  1.0
  O  O12  1  0.37316510  0.48138236  0.86403989  1.0
  O  O13  1  0.37316510  0.01861764  0.86403989  1.0
  O  O14  1  0.87316510  0.48138236  0.63596011  1.0
  O  O15  1  0.87316510  0.01861764  0.63596011  1.0
  O  O16  1  0.62683490  0.98138236  0.13596011  1.0
  O  O17  1  0.62683490  0.51861764  0.13596011  1.0
  O  O18  1  0.12683490  0.98138236  0.36403989  1.0
  O  O19  1  0.12683490  0.51861764  0.36403989  1.0
  O  O20  1  0.50000000  -0.00000000  0.50000000  1.0
  O  O21  1  0.50000000  0.50000000  0.50000000  1.0
  O  O22  1  -0.00000000  -0.00000000  0.00000000  1.0
  O  O23  1  0.00000000  0.50000000  0.00000000  1.0
  O  O24  1  0.09045471  0.75000000  0.67329695  1.0
  O  O25  1  0.59045471  0.75000000  0.82670305  1.0
  O  O26  1  0.90954529  0.25000000  0.32670305  1.0
  O  O27  1  0.40954529  0.25000000  0.17329695  1.0
