# generated using pymatgen
data_K4Bi
_symmetry_space_group_name_H-M   'P 1'
_cell_length_a   10.10821722
_cell_length_b   10.10821722
_cell_length_c   10.10821722
_cell_angle_alpha   60.00000000
_cell_angle_beta   60.00000000
_cell_angle_gamma   60.00000000
_symmetry_Int_Tables_number   1
_chemical_formula_structural   K4Bi
_chemical_formula_sum   'K8 Bi2'
_cell_volume   730.31244272
_cell_formula_units_Z   2
loop_
 _symmetry_equiv_pos_site_id
 _symmetry_equiv_pos_as_xyz
  1  'x, y, z'
loop_
 _atom_site_type_symbol
 _atom_site_label
 _atom_site_symmetry_multiplicity
 _atom_site_fract_x
 _atom_site_fract_y
 _atom_site_fract_z
 _atom_site_occupancy
  K  K0  1  -0.11604393  0.88395607  0.34813180  1.0
  K  K1  1  0.88395607  -0.65186820  0.88395607  1.0
  K  K2  1  0.36604393  0.36604393  0.36604393  1.0
  K  K3  1  -0.09813180  0.36604393  0.36604393  1.0
  K  K4  1  -0.65186820  0.88395607  0.88395607  1.0
  K  K5  1  0.88395607  -0.11604393  0.88395607  1.0
  K  K6  1  0.36604393  -0.09813180  0.36604393  1.0
  K  K7  1  0.36604393  0.36604393  -0.09813180  1.0
  Bi  Bi8  1  0.50000000  0.50000000  -0.50000000  1.0
  Bi  Bi9  1  0.75000000  -0.25000000  0.75000000  1.0
