# generated using pymatgen
data_KV3O8
_symmetry_space_group_name_H-M   'P 1'
_cell_length_a   5.11643518
_cell_length_b   8.77753746
_cell_length_c   8.02213318
_cell_angle_alpha   90.00000000
_cell_angle_beta   102.46296994
_cell_angle_gamma   90.00000000
_symmetry_Int_Tables_number   1
_chemical_formula_structural   KV3O8
_chemical_formula_sum   'K2 V6 O16'
_cell_volume   351.78205347
_cell_formula_units_Z   2
loop_
 _symmetry_equiv_pos_site_id
 _symmetry_equiv_pos_as_xyz
  1  'x, y, z'
loop_
 _atom_site_type_symbol
 _atom_site_label
 _atom_site_symmetry_multiplicity
 _atom_site_fract_x
 _atom_site_fract_y
 _atom_site_fract_z
 _atom_site_occupancy
  K  K0  1  0.49756553  0.25000000  0.46286244  1.0
  K  K1  1  0.50243447  0.75000000  0.53713756  1.0
  V  V2  1  0.04036501  0.43934854  0.81980646  1.0
  V  V3  1  0.04036501  0.06065146  0.81980646  1.0
  V  V4  1  0.95963499  0.93934854  0.18019354  1.0
  V  V5  1  0.95963499  0.56065146  0.18019354  1.0
  V  V6  1  0.58472540  0.25000000  0.94822460  1.0
  V  V7  1  0.41527460  0.75000000  0.05177540  1.0
  O  O8  1  0.89767597  0.95314740  0.66406625  1.0
  O  O9  1  0.89767597  0.54685260  0.66406625  1.0
  O  O10  1  0.10232403  0.45314740  0.33593375  1.0
  O  O11  1  0.10232403  0.04685260  0.33593375  1.0
  O  O12  1  0.83239322  0.40833910  0.99937435  1.0
  O  O13  1  0.83239322  0.09166090  0.99937435  1.0
  O  O14  1  0.16760678  0.90833910  0.00062565  1.0
  O  O15  1  0.16760678  0.59166090  0.00062565  1.0
  O  O16  1  0.36070704  0.39173185  0.79462091  1.0
  O  O17  1  0.36070704  0.10826815  0.79462091  1.0
  O  O18  1  0.63929296  0.89173185  0.20537909  1.0
  O  O19  1  0.63929296  0.60826815  0.20537909  1.0
  O  O20  1  0.89406712  0.25000000  0.75080532  1.0
  O  O21  1  0.10593288  0.75000000  0.24919468  1.0
  O  O22  1  0.44845544  0.25000000  0.10934441  1.0
  O  O23  1  0.55154456  0.75000000  0.89065559  1.0
