# generated using pymatgen
data_Zn3TeP2Pb3O14
_symmetry_space_group_name_H-M   'P 1'
_cell_length_a   8.53962901
_cell_length_b   8.53962901
_cell_length_c   5.27943551
_cell_angle_alpha   90.00000000
_cell_angle_beta   90.00000000
_cell_angle_gamma   120.00000000
_symmetry_Int_Tables_number   1
_chemical_formula_structural   Zn3TeP2Pb3O14
_chemical_formula_sum   'Zn3 Te1 P2 Pb3 O14'
_cell_volume   333.42344076
_cell_formula_units_Z   1
loop_
 _symmetry_equiv_pos_site_id
 _symmetry_equiv_pos_as_xyz
  1  'x, y, z'
loop_
 _atom_site_type_symbol
 _atom_site_label
 _atom_site_symmetry_multiplicity
 _atom_site_fract_x
 _atom_site_fract_y
 _atom_site_fract_z
 _atom_site_occupancy
  Zn  Zn0  1  0.25123626  0.00000000  0.50000000  1.0
  Zn  Zn1  1  0.74876374  0.74876374  0.50000000  1.0
  Zn  Zn2  1  -0.00000000  0.25123626  0.50000000  1.0
  Te  Te3  1  0.00000000  0.00000000  0.00000000  1.0
  P  P4  1  0.66666667  0.33333333  0.44811257  1.0
  P  P5  1  0.33333333  0.66666667  0.55188743  1.0
  Pb  Pb6  1  -0.00000000  0.59162339  0.00000000  1.0
  Pb  Pb7  1  0.59162339  0.00000000  0.00000000  1.0
  Pb  Pb8  1  0.40837661  0.40837661  0.00000000  1.0
  O  O9  1  0.09275201  0.87164196  0.21636092  1.0
  O  O10  1  0.77888996  0.90724799  0.21636092  1.0
  O  O11  1  0.12835804  0.22111004  0.21636092  1.0
  O  O12  1  0.90724799  0.77888996  0.78363908  1.0
  O  O13  1  0.87164196  0.09275201  0.78363908  1.0
  O  O14  1  0.22111004  0.12835804  0.78363908  1.0
  O  O15  1  0.66666667  0.33333333  0.73998451  1.0
  O  O16  1  0.33333333  0.66666667  0.26001549  1.0
  O  O17  1  0.71287002  0.52160133  0.33229294  1.0
  O  O18  1  0.80873130  0.28712998  0.33229294  1.0
  O  O19  1  0.47839867  0.19126870  0.33229294  1.0
  O  O20  1  0.28712998  0.80873130  0.66770706  1.0
  O  O21  1  0.52160133  0.71287002  0.66770706  1.0
  O  O22  1  0.19126870  0.47839867  0.66770706  1.0
