# generated using pymatgen
data_LuGeAu
_symmetry_space_group_name_H-M   'P 1'
_cell_length_a   4.43727148
_cell_length_b   4.43727148
_cell_length_c   7.15220985
_cell_angle_alpha   90.00000000
_cell_angle_beta   90.00000000
_cell_angle_gamma   120.00000000
_symmetry_Int_Tables_number   1
_chemical_formula_structural   LuGeAu
_chemical_formula_sum   'Lu2 Ge2 Au2'
_cell_volume   121.95591804
_cell_formula_units_Z   2
loop_
 _symmetry_equiv_pos_site_id
 _symmetry_equiv_pos_as_xyz
  1  'x, y, z'
loop_
 _atom_site_type_symbol
 _atom_site_label
 _atom_site_symmetry_multiplicity
 _atom_site_fract_x
 _atom_site_fract_y
 _atom_site_fract_z
 _atom_site_occupancy
  Lu  Lu0  1  0.00000000  0.00000000  -0.00156912  1.0
  Lu  Lu1  1  0.00000000  -0.00000000  0.49843088  1.0
  Ge  Ge2  1  0.33333333  0.66666667  0.70457673  1.0
  Ge  Ge3  1  0.66666667  0.33333333  0.20457673  1.0
  Au  Au4  1  0.33333333  0.66666667  0.29659239  1.0
  Au  Au5  1  0.66666667  0.33333333  0.79659239  1.0
