# generated using pymatgen
data_Ga7Pt3
_symmetry_space_group_name_H-M   'P 1'
_cell_length_a   7.69627850
_cell_length_b   7.69627850
_cell_length_c   7.69627850
_cell_angle_alpha   109.47122063
_cell_angle_beta   109.47122063
_cell_angle_gamma   109.47122063
_symmetry_Int_Tables_number   1
_chemical_formula_structural   Ga7Pt3
_chemical_formula_sum   'Ga14 Pt6'
_cell_volume   350.92994960
_cell_formula_units_Z   2
loop_
 _symmetry_equiv_pos_site_id
 _symmetry_equiv_pos_as_xyz
  1  'x, y, z'
loop_
 _atom_site_type_symbol
 _atom_site_label
 _atom_site_symmetry_multiplicity
 _atom_site_fract_x
 _atom_site_fract_y
 _atom_site_fract_z
 _atom_site_occupancy
  Ga  Ga0  1  0.67025948  0.67025948  0.67025948  1.0
  Ga  Ga1  1  1.00000000  1.00000000  0.67025948  1.0
  Ga  Ga2  1  1.00000000  1.67025948  1.00000000  1.0
  Ga  Ga3  1  1.32974052  1.00000000  1.00000000  1.0
  Ga  Ga4  1  1.67025948  1.00000000  1.00000000  1.0
  Ga  Ga5  1  1.00000000  1.32974052  1.00000000  1.0
  Ga  Ga6  1  1.00000000  1.00000000  0.32974052  1.0
  Ga  Ga7  1  0.32974052  0.32974052  0.32974052  1.0
  Ga  Ga8  1  0.50000000  0.25000000  0.75000000  1.0
  Ga  Ga9  1  0.50000000  0.75000000  0.25000000  1.0
  Ga  Ga10  1  0.25000000  0.50000000  0.75000000  1.0
  Ga  Ga11  1  1.25000000  0.75000000  0.50000000  1.0
  Ga  Ga12  1  0.75000000  1.25000000  0.50000000  1.0
  Ga  Ga13  1  0.75000000  0.50000000  0.25000000  1.0
  Pt  Pt14  1  -0.00000000  0.65923037  0.65923037  1.0
  Pt  Pt15  1  0.65923037  0.00000000  0.65923037  1.0
  Pt  Pt16  1  0.65923037  0.65923037  -0.00000000  1.0
  Pt  Pt17  1  0.34076963  0.34076963  -0.00000000  1.0
  Pt  Pt18  1  0.34076963  -0.00000000  0.34076963  1.0
  Pt  Pt19  1  -0.00000000  0.34076963  0.34076963  1.0
