# generated using pymatgen
data_Ca2Cu6P5
_symmetry_space_group_name_H-M   'P 1'
_cell_length_a   12.66606988
_cell_length_b   12.66606988
_cell_length_c   12.66606988
_cell_angle_alpha   161.76185123
_cell_angle_beta   161.76185123
_cell_angle_gamma   25.90393692
_symmetry_Int_Tables_number   1
_chemical_formula_structural   Ca2Cu6P5
_chemical_formula_sum   'Ca2 Cu6 P5'
_cell_volume   198.96630514
_cell_formula_units_Z   1
loop_
 _symmetry_equiv_pos_site_id
 _symmetry_equiv_pos_as_xyz
  1  'x, y, z'
loop_
 _atom_site_type_symbol
 _atom_site_label
 _atom_site_symmetry_multiplicity
 _atom_site_fract_x
 _atom_site_fract_y
 _atom_site_fract_z
 _atom_site_occupancy
  Ca  Ca0  1  0.85089033  0.85089033  1.00000000  1.0
  Ca  Ca1  1  0.14910967  0.14910967  0.00000000  1.0
  Cu  Cu2  1  0.44610848  0.94610848  0.50000000  1.0
  Cu  Cu3  1  0.55389152  0.05389152  0.50000000  1.0
  Cu  Cu4  1  0.94610848  0.44610848  0.50000000  1.0
  Cu  Cu5  1  0.05389152  0.55389152  0.50000000  1.0
  Cu  Cu6  1  0.25000000  0.75000000  0.50000000  1.0
  Cu  Cu7  1  0.75000000  0.25000000  0.50000000  1.0
  P  P8  1  0.69761048  0.69761048  1.00000000  1.0
  P  P9  1  0.30238952  0.30238952  0.00000000  1.0
  P  P10  1  0.60568645  0.60568645  1.00000000  1.0
  P  P11  1  0.39431355  0.39431355  0.00000000  1.0
  P  P12  1  0.00000000  0.00000000  0.00000000  1.0
