# generated using pymatgen
data_Fe2O
_symmetry_space_group_name_H-M   'P 1'
_cell_length_a   2.53921684
_cell_length_b   2.53921684
_cell_length_c   4.81139082
_cell_angle_alpha   90.00000000
_cell_angle_beta   90.00000000
_cell_angle_gamma   120.00000000
_symmetry_Int_Tables_number   1
_chemical_formula_structural   Fe2O
_chemical_formula_sum   'Fe2 O1'
_cell_volume   26.86586617
_cell_formula_units_Z   1
loop_
 _symmetry_equiv_pos_site_id
 _symmetry_equiv_pos_as_xyz
  1  'x, y, z'
loop_
 _atom_site_type_symbol
 _atom_site_label
 _atom_site_symmetry_multiplicity
 _atom_site_fract_x
 _atom_site_fract_y
 _atom_site_fract_z
 _atom_site_occupancy
  Fe  Fe0  1  0.33333333  0.66666667  0.30351802  1.0
  Fe  Fe1  1  0.66666667  0.33333333  0.69648198  1.0
  O  O2  1  -0.00000000  -0.00000000  -0.00000000  1.0
