# generated using pymatgen
data_Ba2LaRuO6
_symmetry_space_group_name_H-M   'P 1'
_cell_length_a   6.06586607
_cell_length_b   6.06586607
_cell_length_c   6.06586607
_cell_angle_alpha   60.72057958
_cell_angle_beta   60.72057958
_cell_angle_gamma   60.72057958
_symmetry_Int_Tables_number   1
_chemical_formula_structural   Ba2LaRuO6
_chemical_formula_sum   'Ba2 La1 Ru1 O6'
_cell_volume   160.38689456
_cell_formula_units_Z   1
loop_
 _symmetry_equiv_pos_site_id
 _symmetry_equiv_pos_as_xyz
  1  'x, y, z'
loop_
 _atom_site_type_symbol
 _atom_site_label
 _atom_site_symmetry_multiplicity
 _atom_site_fract_x
 _atom_site_fract_y
 _atom_site_fract_z
 _atom_site_occupancy
  Ba  Ba0  1  0.75245118  0.75245118  -0.24754882  1.0
  Ba  Ba1  1  1.24754882  1.24754882  0.24754882  1.0
  La  La2  1  0.50000000  0.50000000  -0.50000000  1.0
  Ru  Ru3  1  0.00000000  0.00000000  0.00000000  1.0
  O  O4  1  0.81937762  -0.27392511  0.22334298  1.0
  O  O5  1  0.27392511  0.77665702  -0.81937762  1.0
  O  O6  1  0.77665702  0.18062238  -0.72607489  1.0
  O  O7  1  0.18062238  0.27392511  -0.22334298  1.0
  O  O8  1  0.72607489  0.22334298  -0.18062238  1.0
  O  O9  1  1.22334298  -0.18062238  -0.27392511  1.0
