# generated using pymatgen
data_MnVH4O2F5
_symmetry_space_group_name_H-M   'P 1'
_cell_length_a   7.53092861
_cell_length_b   7.53092861
_cell_length_c   7.53092861
_cell_angle_alpha   84.37882707
_cell_angle_beta   119.09332616
_cell_angle_gamma   127.71376190
_symmetry_Int_Tables_number   1
_chemical_formula_structural   MnVH4O2F5
_chemical_formula_sum   'Mn2 V2 H8 O4 F10'
_cell_volume   282.68906118
_cell_formula_units_Z   2
loop_
 _symmetry_equiv_pos_site_id
 _symmetry_equiv_pos_as_xyz
  1  'x, y, z'
loop_
 _atom_site_type_symbol
 _atom_site_label
 _atom_site_symmetry_multiplicity
 _atom_site_fract_x
 _atom_site_fract_y
 _atom_site_fract_z
 _atom_site_occupancy
  Mn  Mn0  1  1.00000000  1.00000000  0.50000000  1.0
  Mn  Mn1  1  1.00000000  0.50000000  1.00000000  1.0
  V  V2  1  1.00000000  1.00000000  1.00000000  1.0
  V  V3  1  0.50000000  0.00000000  0.50000000  1.0
  H  H4  1  1.51478832  1.52727736  1.30635970  1.0
  H  H5  1  1.27908234  0.79157137  0.80635970  1.0
  H  H6  1  1.27908234  1.47272264  1.48751096  1.0
  H  H7  1  1.51478832  1.20842863  0.98751096  1.0
  H  H8  1  1.72091766  1.52727736  1.51248904  1.0
  H  H9  1  1.48521168  0.79157137  1.01248904  1.0
  H  H10  1  1.48521168  1.47272264  1.69364030  1.0
  H  H11  1  1.72091766  1.20842863  1.19364030  1.0
  O  O12  1  1.30114632  0.73229245  0.93114613  1.0
  O  O13  1  1.69885368  1.62999981  1.43114613  1.0
  O  O14  1  1.69885368  1.26770755  1.06885387  1.0
  O  O15  1  1.30114632  1.37000019  1.56885387  1.0
  F  F16  1  0.83604751  0.92342438  0.16303441  1.0
  F  F17  1  0.73961003  0.32698690  0.66303441  1.0
  F  F18  1  0.73961003  1.07657562  0.41262313  1.0
  F  F19  1  0.83604751  0.67301310  0.91262313  1.0
  F  F20  1  1.26038997  0.92342438  0.58737687  1.0
  F  F21  1  1.16395249  0.32698690  1.08737687  1.0
  F  F22  1  1.16395249  1.07657562  0.83696559  1.0
  F  F23  1  1.26038997  0.67301310  1.33696559  1.0
  F  F24  1  1.31459629  1.06459629  1.25000000  1.0
  F  F25  1  1.68540371  0.93540371  0.75000000  1.0
