# generated using pymatgen
data_CuSeO3
_symmetry_space_group_name_H-M   'P 1'
_cell_length_a   6.04653760
_cell_length_b   12.39258245
_cell_length_c   7.27200131
_cell_angle_alpha   90.00000000
_cell_angle_beta   90.00000000
_cell_angle_gamma   90.00000000
_symmetry_Int_Tables_number   1
_chemical_formula_structural   CuSeO3
_chemical_formula_sum   'Cu8 Se8 O24'
_cell_volume   544.90717131
_cell_formula_units_Z   8
loop_
 _symmetry_equiv_pos_site_id
 _symmetry_equiv_pos_as_xyz
  1  'x, y, z'
loop_
 _atom_site_type_symbol
 _atom_site_label
 _atom_site_symmetry_multiplicity
 _atom_site_fract_x
 _atom_site_fract_y
 _atom_site_fract_z
 _atom_site_occupancy
  Cu  Cu0  1  0.34693782  0.09271561  0.07439874  1.0
  Cu  Cu1  1  0.34693782  0.40728439  0.57439874  1.0
  Cu  Cu2  1  0.84693782  0.09271561  0.42560126  1.0
  Cu  Cu3  1  0.84693782  0.40728439  0.92560126  1.0
  Cu  Cu4  1  0.65306218  0.59271561  0.42560126  1.0
  Cu  Cu5  1  0.65306218  0.90728439  0.92560126  1.0
  Cu  Cu6  1  0.15306218  0.59271561  0.07439874  1.0
  Cu  Cu7  1  0.15306218  0.90728439  0.57439874  1.0
  O  O8  1  0.29282995  0.26498295  0.45846956  1.0
  O  O9  1  0.29282995  0.23501705  0.95846956  1.0
  O  O10  1  0.79282995  0.26498295  0.04153044  1.0
  O  O11  1  0.79282995  0.23501705  0.54153044  1.0
  O  O12  1  0.70717005  0.76498295  0.04153044  1.0
  O  O13  1  0.70717005  0.73501705  0.54153044  1.0
  O  O14  1  0.20717005  0.76498295  0.45846956  1.0
  O  O15  1  0.20717005  0.73501705  0.95846956  1.0
  O  O16  1  0.02759001  0.09178315  0.14453331  1.0
  O  O17  1  0.02759001  0.40821685  0.64453331  1.0
  O  O18  1  0.52759001  0.09178315  0.35546669  1.0
  O  O19  1  0.52759001  0.40821685  0.85546669  1.0
  O  O20  1  0.97240999  0.59178315  0.35546669  1.0
  O  O21  1  0.97240999  0.90821685  0.85546669  1.0
  O  O22  1  0.47240999  0.59178315  0.14453331  1.0
  O  O23  1  0.47240999  0.90821685  0.64453331  1.0
  O  O24  1  0.14277003  0.43186250  0.03835579  1.0
  O  O25  1  0.14277003  0.06813750  0.53835579  1.0
  O  O26  1  0.64277003  0.43186250  0.46164421  1.0
  O  O27  1  0.64277003  0.06813750  0.96164421  1.0
  O  O28  1  0.85722997  0.93186250  0.46164421  1.0
  O  O29  1  0.85722997  0.56813750  0.96164421  1.0
  O  O30  1  0.35722997  0.93186250  0.03835579  1.0
  O  O31  1  0.35722997  0.56813750  0.53835579  1.0
  Se  Se32  1  0.38997014  0.35431687  0.04687833  1.0
  Se  Se33  1  0.38997014  0.14568313  0.54687833  1.0
  Se  Se34  1  0.88997014  0.35431687  0.45312167  1.0
  Se  Se35  1  0.88997014  0.14568313  0.95312167  1.0
  Se  Se36  1  0.61002986  0.85431687  0.45312167  1.0
  Se  Se37  1  0.61002986  0.64568313  0.95312167  1.0
  Se  Se38  1  0.11002986  0.85431687  0.04687833  1.0
  Se  Se39  1  0.11002986  0.64568313  0.54687833  1.0
