# generated using pymatgen
data_LiReO3
_symmetry_space_group_name_H-M   'P 1'
_cell_length_a   5.40802767
_cell_length_b   5.40802767
_cell_length_c   5.40802767
_cell_angle_alpha   56.46884629
_cell_angle_beta   56.46884629
_cell_angle_gamma   56.46884629
_symmetry_Int_Tables_number   1
_chemical_formula_structural   LiReO3
_chemical_formula_sum   'Li2 Re2 O6'
_cell_volume   102.71162696
_cell_formula_units_Z   2
loop_
 _symmetry_equiv_pos_site_id
 _symmetry_equiv_pos_as_xyz
  1  'x, y, z'
loop_
 _atom_site_type_symbol
 _atom_site_label
 _atom_site_symmetry_multiplicity
 _atom_site_fract_x
 _atom_site_fract_y
 _atom_site_fract_z
 _atom_site_occupancy
  Li  Li0  1  0.78112368  -0.21887632  -0.21887632  1.0
  Li  Li1  1  0.28112368  0.28112368  0.28112368  1.0
  Re  Re2  1  -0.00266713  -0.00266713  -0.00266713  1.0
  Re  Re3  1  0.49733287  0.49733287  -0.50266713  1.0
  O  O4  1  0.63318606  -0.14088726  0.24034465  1.0
  O  O5  1  0.13318606  0.74034465  -0.64088726  1.0
  O  O6  1  0.74034465  0.35911274  -0.86681394  1.0
  O  O7  1  1.24034465  -0.36681394  -0.14088726  1.0
  O  O8  1  0.35911274  0.13318606  -0.25965535  1.0
  O  O9  1  0.85911274  0.24034465  -0.36681394  1.0
