# generated using pymatgen
data_Y2Zn17
_symmetry_space_group_name_H-M   'P 1'
_cell_length_a   6.78494553
_cell_length_b   6.78494553
_cell_length_c   6.78494553
_cell_angle_alpha   82.80879413
_cell_angle_beta   82.80879413
_cell_angle_gamma   82.80879413
_symmetry_Int_Tables_number   1
_chemical_formula_structural   Y2Zn17
_chemical_formula_sum   'Y2 Zn17'
_cell_volume   305.54500888
_cell_formula_units_Z   1
loop_
 _symmetry_equiv_pos_site_id
 _symmetry_equiv_pos_as_xyz
  1  'x, y, z'
loop_
 _atom_site_type_symbol
 _atom_site_label
 _atom_site_symmetry_multiplicity
 _atom_site_fract_x
 _atom_site_fract_y
 _atom_site_fract_z
 _atom_site_occupancy
  Y  Y0  1  0.66494253  0.66494253  -0.33505747  1.0
  Y  Y1  1  0.33505747  0.33505747  -0.66494253  1.0
  Zn  Zn2  1  0.70297932  -0.00000000  0.29702068  1.0
  Zn  Zn3  1  0.70297932  -0.70297932  0.00000000  1.0
  Zn  Zn4  1  -0.00000000  0.70297932  -0.70297932  1.0
  Zn  Zn5  1  -0.00000000  0.29702068  -0.29702068  1.0
  Zn  Zn6  1  1.29702068  -0.00000000  -0.29702068  1.0
  Zn  Zn7  1  0.29702068  -0.29702068  0.00000000  1.0
  Zn  Zn8  1  0.35243278  0.35243278  -0.16189169  1.0
  Zn  Zn9  1  0.35243278  0.83810831  -0.64756722  1.0
  Zn  Zn10  1  0.16189169  0.64756722  -0.35243278  1.0
  Zn  Zn11  1  0.64756722  0.16189169  -0.35243278  1.0
  Zn  Zn12  1  0.64756722  0.64756722  -0.83810831  1.0
  Zn  Zn13  1  0.83810831  0.35243278  -0.64756722  1.0
  Zn  Zn14  1  1.00000000  1.50000000  -0.00000000  1.0
  Zn  Zn15  1  1.00000000  -0.00000000  -0.50000000  1.0
  Zn  Zn16  1  0.50000000  -0.00000000  -0.00000000  1.0
  Zn  Zn17  1  0.90014066  0.90014066  -0.09985934  1.0
  Zn  Zn18  1  1.09985934  1.09985934  0.09985934  1.0
