# generated using pymatgen
data_KAl4(SiO6)2
_symmetry_space_group_name_H-M   'P 1'
_cell_length_a   5.47807976
_cell_length_b   5.47807976
_cell_length_c   20.52534796
_cell_angle_alpha   87.92419361
_cell_angle_beta   92.07580639
_cell_angle_gamma   59.57003695
_symmetry_Int_Tables_number   1
_chemical_formula_structural   KAl4(SiO6)2
_chemical_formula_sum   'K2 Al8 Si4 O24'
_cell_volume   529.69056131
_cell_formula_units_Z   2
loop_
 _symmetry_equiv_pos_site_id
 _symmetry_equiv_pos_as_xyz
  1  'x, y, z'
loop_
 _atom_site_type_symbol
 _atom_site_label
 _atom_site_symmetry_multiplicity
 _atom_site_fract_x
 _atom_site_fract_y
 _atom_site_fract_z
 _atom_site_occupancy
  Si  Si0  1  0.52764917  -0.43520814  0.14027456  1.0
  Si  Si1  1  1.43520814  0.47235083  0.64027456  1.0
  Si  Si2  1  0.56479186  -0.47235083  0.35972544  1.0
  Si  Si3  1  1.47235083  0.43520814  0.85972544  1.0
  Al  Al4  1  1.56080113  0.21249424  0.49754384  1.0
  Al  Al5  1  0.78750576  -0.56080113  0.99754384  1.0
  Al  Al6  1  1.21249424  0.56080113  0.00245616  1.0
  Al  Al7  1  0.43919887  -0.21249424  0.50245616  1.0
  Al  Al8  1  1.25745368  0.18052991  0.36202550  1.0
  Al  Al9  1  0.81947009  -0.25745368  0.86202550  1.0
  Al  Al10  1  1.18052991  0.25745368  0.13797450  1.0
  Al  Al11  1  0.74254632  -0.18052991  0.63797450  1.0
  O  O12  1  0.52184355  -0.47071086  0.05767027  1.0
  O  O13  1  1.47071086  0.47815645  0.55767027  1.0
  O  O14  1  0.52928914  -0.47815645  0.44232973  1.0
  O  O15  1  1.47815645  0.47071086  0.94232973  1.0
  O  O16  1  0.35778743  -0.14822027  0.32965275  1.0
  O  O17  1  1.14822027  0.64221257  0.82965275  1.0
  O  O18  1  0.85177973  -0.64221257  0.17034725  1.0
  O  O19  1  1.64221257  0.14822027  0.67034725  1.0
  O  O20  1  0.42064678  -0.10634417  0.15309614  1.0
  O  O21  1  1.10634417  0.57935322  0.65309614  1.0
  O  O22  1  0.89365583  -0.57935322  0.34690386  1.0
  O  O23  1  1.57935322  0.10634417  0.84690386  1.0
  O  O24  1  1.46154226  0.31945034  0.33112626  1.0
  O  O25  1  0.68054966  -0.46154226  0.83112626  1.0
  O  O26  1  1.31945034  0.46154226  0.16887374  1.0
  O  O27  1  0.53845774  -0.31945034  0.66887374  1.0
  O  O28  1  1.99213532  -0.06530763  0.02789975  1.0
  O  O29  1  1.06530763  -0.99213532  0.52789975  1.0
  O  O30  1  0.93469237  0.99213532  0.47210025  1.0
  O  O31  1  0.00786468  0.06530763  0.97210025  1.0
  O  O32  1  1.37054856  0.09793828  0.44685676  1.0
  O  O33  1  0.90206172  -0.37054856  0.94685676  1.0
  O  O34  1  1.09793828  0.37054856  0.05314324  1.0
  O  O35  1  0.62945144  -0.09793828  0.55314324  1.0
  K  K36  1  0.87976228  -0.12023772  0.25000000  1.0
  K  K37  1  1.12023772  0.12023772  0.75000000  1.0
