# generated using pymatgen
data_La4CdRu
_symmetry_space_group_name_H-M   'P 1'
_cell_length_a   10.08194563
_cell_length_b   10.08194563
_cell_length_c   10.08194563
_cell_angle_alpha   60.00000000
_cell_angle_beta   60.00000000
_cell_angle_gamma   60.00000000
_symmetry_Int_Tables_number   1
_chemical_formula_structural   La4CdRu
_chemical_formula_sum   'La16 Cd4 Ru4'
_cell_volume   724.63291102
_cell_formula_units_Z   4
loop_
 _symmetry_equiv_pos_site_id
 _symmetry_equiv_pos_as_xyz
  1  'x, y, z'
loop_
 _atom_site_type_symbol
 _atom_site_label
 _atom_site_symmetry_multiplicity
 _atom_site_fract_x
 _atom_site_fract_y
 _atom_site_fract_z
 _atom_site_occupancy
  La  La0  1  0.05941588  0.44058412  0.44058412  1.0
  La  La1  1  0.44058412  0.44058412  0.05941588  1.0
  La  La2  1  0.44058412  0.05941588  0.44058412  1.0
  La  La3  1  0.05941588  0.05941588  0.44058412  1.0
  La  La4  1  0.05941588  0.44058412  0.05941588  1.0
  La  La5  1  0.44058412  0.05941588  0.05941588  1.0
  La  La6  1  -0.81113281  0.81113281  0.81113281  1.0
  La  La7  1  -0.18886719  0.81113281  0.18886719  1.0
  La  La8  1  -0.18886719  0.18886719  0.81113281  1.0
  La  La9  1  0.18886719  1.18886719  -0.18886719  1.0
  La  La10  1  0.18886719  -0.18886719  0.18886719  1.0
  La  La11  1  -0.18886719  0.18886719  0.18886719  1.0
  La  La12  1  -0.34574792  0.65425208  0.65425208  1.0
  La  La13  1  1.03724376  0.65425208  -0.34574792  1.0
  La  La14  1  -0.34574792  0.65425208  1.03724376  1.0
  La  La15  1  0.65425208  1.03724376  -0.34574792  1.0
  Cd  Cd16  1  0.42128032  1.42128032  0.42128032  1.0
  Cd  Cd17  1  -0.26384096  0.42128032  0.42128032  1.0
  Cd  Cd18  1  0.42128032  1.42128032  -0.26384096  1.0
  Cd  Cd19  1  0.42128032  -0.26384096  0.42128032  1.0
  Ru  Ru20  1  0.86301409  0.86301409  -0.13698591  1.0
  Ru  Ru21  1  0.41095774  0.86301409  -0.13698591  1.0
  Ru  Ru22  1  0.86301409  0.86301409  -0.58904226  1.0
  Ru  Ru23  1  0.86301409  0.41095774  -0.13698591  1.0
