# generated using pymatgen
data_RhN2
_symmetry_space_group_name_H-M   'P 1'
_cell_length_a   4.05090022
_cell_length_b   4.89072117
_cell_length_c   2.82517786
_cell_angle_alpha   90.00000000
_cell_angle_beta   90.00000000
_cell_angle_gamma   90.00000000
_symmetry_Int_Tables_number   1
_chemical_formula_structural   RhN2
_chemical_formula_sum   'Rh2 N4'
_cell_volume   55.97192518
_cell_formula_units_Z   2
loop_
 _symmetry_equiv_pos_site_id
 _symmetry_equiv_pos_as_xyz
  1  'x, y, z'
loop_
 _atom_site_type_symbol
 _atom_site_label
 _atom_site_symmetry_multiplicity
 _atom_site_fract_x
 _atom_site_fract_y
 _atom_site_fract_z
 _atom_site_occupancy
  Rh  Rh0  1  0.50000000  0.50000000  0.50000000  1.0
  Rh  Rh1  1  0.00000000  0.00000000  0.00000000  1.0
  N  N2  1  0.37740396  0.91433924  0.50000000  1.0
  N  N3  1  0.87740396  0.58566076  0.00000000  1.0
  N  N4  1  0.62259604  0.08566076  0.50000000  1.0
  N  N5  1  0.12259604  0.41433924  0.00000000  1.0
