# generated using pymatgen
data_Si2Os
_symmetry_space_group_name_H-M   'P 1'
_cell_length_a   4.60582366
_cell_length_b   4.60582366
_cell_length_c   7.50938673
_cell_angle_alpha   62.76322627
_cell_angle_beta   117.23677373
_cell_angle_gamma   141.89502555
_symmetry_Int_Tables_number   1
_chemical_formula_structural   Si2Os
_chemical_formula_sum   'Si4 Os2'
_cell_volume   86.01346536
_cell_formula_units_Z   2
loop_
 _symmetry_equiv_pos_site_id
 _symmetry_equiv_pos_as_xyz
  1  'x, y, z'
loop_
 _atom_site_type_symbol
 _atom_site_label
 _atom_site_symmetry_multiplicity
 _atom_site_fract_x
 _atom_site_fract_y
 _atom_site_fract_z
 _atom_site_occupancy
  Si  Si0  1  0.85848932  -0.85848932  0.47207516  1.0
  Si  Si1  1  0.14151068  -0.14151068  0.52792484  1.0
  Si  Si2  1  0.60529434  0.39470566  0.89518522  1.0
  Si  Si3  1  1.39470566  -0.39470566  0.10481478  1.0
  Os  Os4  1  0.84500004  0.15499996  0.79800191  1.0
  Os  Os5  1  1.15499996  -0.15499996  0.20199809  1.0
