# generated using pymatgen
data_Tl2PdSe2
_symmetry_space_group_name_H-M   'P 1'
_cell_length_a   6.20882925
_cell_length_b   11.56633035
_cell_length_c   3.74018077
_cell_angle_alpha   90.00000000
_cell_angle_beta   90.00000000
_cell_angle_gamma   90.00000000
_symmetry_Int_Tables_number   1
_chemical_formula_structural   Tl2PdSe2
_chemical_formula_sum   'Tl4 Pd2 Se4'
_cell_volume   268.59498630
_cell_formula_units_Z   2
loop_
 _symmetry_equiv_pos_site_id
 _symmetry_equiv_pos_as_xyz
  1  'x, y, z'
loop_
 _atom_site_type_symbol
 _atom_site_label
 _atom_site_symmetry_multiplicity
 _atom_site_fract_x
 _atom_site_fract_y
 _atom_site_fract_z
 _atom_site_occupancy
  Tl  Tl0  1  0.39016943  0.84657332  0.00000000  1.0
  Tl  Tl1  1  0.89016943  0.65342668  0.00000000  1.0
  Tl  Tl2  1  0.60983057  0.15342668  0.00000000  1.0
  Tl  Tl3  1  0.10983057  0.34657332  0.00000000  1.0
  Pd  Pd4  1  0.50000000  0.50000000  0.00000000  1.0
  Pd  Pd5  1  0.00000000  0.00000000  0.00000000  1.0
  Se  Se6  1  0.32397364  0.61012620  0.50000000  1.0
  Se  Se7  1  0.82397364  0.88987380  0.50000000  1.0
  Se  Se8  1  0.67602636  0.38987380  0.50000000  1.0
  Se  Se9  1  0.17602636  0.11012620  0.50000000  1.0
