# generated using pymatgen
data_V2Se3O11
_symmetry_space_group_name_H-M   'P 1'
_cell_length_a   15.50182971
_cell_length_b   6.40608209
_cell_length_c   9.50237850
_cell_angle_alpha   90.00000000
_cell_angle_beta   93.15187430
_cell_angle_gamma   90.00000000
_symmetry_Int_Tables_number   1
_chemical_formula_structural   V2Se3O11
_chemical_formula_sum   'V8 Se12 O44'
_cell_volume   942.21568929
_cell_formula_units_Z   4
loop_
 _symmetry_equiv_pos_site_id
 _symmetry_equiv_pos_as_xyz
  1  'x, y, z'
loop_
 _atom_site_type_symbol
 _atom_site_label
 _atom_site_symmetry_multiplicity
 _atom_site_fract_x
 _atom_site_fract_y
 _atom_site_fract_z
 _atom_site_occupancy
  V  V0  1  0.91083444  0.97006637  0.64648674  1.0
  V  V1  1  0.91083444  0.52993363  0.14648674  1.0
  V  V2  1  0.08916556  0.47006637  0.85351326  1.0
  V  V3  1  0.08916556  0.02993363  0.35351326  1.0
  V  V4  1  0.34323148  0.55185576  0.64729023  1.0
  V  V5  1  0.34323148  0.94814424  0.14729023  1.0
  V  V6  1  0.65676852  0.05185576  0.85270977  1.0
  V  V7  1  0.65676852  0.44814424  0.35270977  1.0
  Se  Se8  1  0.88581787  0.47766644  0.71885423  1.0
  Se  Se9  1  0.88581787  0.02233356  0.21885423  1.0
  Se  Se10  1  0.11418213  0.97766644  0.78114577  1.0
  Se  Se11  1  0.11418213  0.52233356  0.28114577  1.0
  Se  Se12  1  0.70031267  0.86330784  0.54346753  1.0
  Se  Se13  1  0.70031267  0.63669216  0.04346753  1.0
  Se  Se14  1  0.29968733  0.36330784  0.95653247  1.0
  Se  Se15  1  0.29968733  0.13669216  0.45653247  1.0
  Se  Se16  1  0.44791091  0.85381539  0.86622189  1.0
  Se  Se17  1  0.44791091  0.64618461  0.36622189  1.0
  Se  Se18  1  0.55208909  0.35381539  0.63377811  1.0
  Se  Se19  1  0.55208909  0.14618461  0.13377811  1.0
  O  O20  1  0.96554859  0.47846210  0.85711875  1.0
  O  O21  1  0.96554859  0.02153790  0.35711875  1.0
  O  O22  1  0.03445141  0.97846210  0.64288125  1.0
  O  O23  1  0.03445141  0.52153790  0.14288125  1.0
  O  O24  1  0.92159397  0.67379867  0.61165569  1.0
  O  O25  1  0.92159397  0.82620133  0.11165569  1.0
  O  O26  1  0.07840603  0.17379867  0.88834431  1.0
  O  O27  1  0.07840603  0.32620133  0.38834431  1.0
  O  O28  1  0.91385885  0.26977766  0.61626017  1.0
  O  O29  1  0.91385885  0.23022234  0.11626017  1.0
  O  O30  1  0.08614115  0.76977766  0.88373983  1.0
  O  O31  1  0.08614115  0.73022234  0.38373983  1.0
  O  O32  1  0.88807024  0.96077560  0.80521816  1.0
  O  O33  1  0.88807024  0.53922440  0.30521816  1.0
  O  O34  1  0.11192976  0.46077560  0.69478184  1.0
  O  O35  1  0.11192976  0.03922440  0.19478184  1.0
  O  O36  1  0.80499552  0.96507719  0.53879068  1.0
  O  O37  1  0.80499552  0.53492281  0.03879068  1.0
  O  O38  1  0.19500448  0.46507719  0.96120932  1.0
  O  O39  1  0.19500448  0.03492281  0.46120932  1.0
  O  O40  1  0.72106878  0.89420558  0.99661802  1.0
  O  O41  1  0.72106878  0.60579442  0.49661802  1.0
  O  O42  1  0.27893122  0.39420558  0.50338198  1.0
  O  O43  1  0.27893122  0.10579442  0.00338198  1.0
  O  O44  1  0.68829668  0.82257298  0.72105400  1.0
  O  O45  1  0.68829668  0.67742702  0.22105400  1.0
  O  O46  1  0.31170332  0.32257298  0.77894600  1.0
  O  O47  1  0.31170332  0.17742702  0.27894600  1.0
  O  O48  1  0.55053522  0.82730871  0.93237116  1.0
  O  O49  1  0.55053522  0.67269129  0.43237116  1.0
  O  O50  1  0.44946478  0.32730871  0.56762884  1.0
  O  O51  1  0.44946478  0.17269129  0.06762884  1.0
  O  O52  1  0.43799168  0.61242551  0.77454361  1.0
  O  O53  1  0.43799168  0.88757449  0.27454361  1.0
  O  O54  1  0.56200832  0.11242551  0.72545639  1.0
  O  O55  1  0.56200832  0.38757449  0.22545639  1.0
  O  O56  1  0.38709637  0.72826848  0.50688409  1.0
  O  O57  1  0.38709637  0.77173152  0.00688409  1.0
  O  O58  1  0.61290363  0.22826848  0.99311591  1.0
  O  O59  1  0.61290363  0.27173152  0.49311591  1.0
  O  O60  1  0.27671200  0.72209495  0.69721176  1.0
  O  O61  1  0.27671200  0.77790505  0.19721176  1.0
  O  O62  1  0.72328800  0.22209495  0.80278824  1.0
  O  O63  1  0.72328800  0.27790505  0.30278824  1.0
