# generated using pymatgen
data_Cu2PO4F
_symmetry_space_group_name_H-M   'P 1'
_cell_length_a   7.18469607
_cell_length_b   7.18469607
_cell_length_c   10.21391033
_cell_angle_alpha   63.87671616
_cell_angle_beta   116.12328384
_cell_angle_gamma   128.29276066
_symmetry_Int_Tables_number   1
_chemical_formula_structural   Cu2PO4F
_chemical_formula_sum   'Cu8 P4 O16 F4'
_cell_volume   360.89351178
_cell_formula_units_Z   4
loop_
 _symmetry_equiv_pos_site_id
 _symmetry_equiv_pos_as_xyz
  1  'x, y, z'
loop_
 _atom_site_type_symbol
 _atom_site_label
 _atom_site_symmetry_multiplicity
 _atom_site_fract_x
 _atom_site_fract_y
 _atom_site_fract_z
 _atom_site_occupancy
  P  P0  1  0.72028116  0.06398052  0.19880550  1.0
  P  P1  1  0.93601948  -0.72028116  0.69880550  1.0
  P  P2  1  1.06398052  0.72028116  0.30119450  1.0
  P  P3  1  1.27971884  -0.06398052  0.80119450  1.0
  O  O4  1  0.85045696  0.00376919  0.36439210  1.0
  O  O5  1  0.99623081  -0.85045696  0.86439210  1.0
  O  O6  1  1.00376919  0.85045696  0.13560790  1.0
  O  O7  1  1.14954304  -0.00376919  0.63560790  1.0
  O  O8  1  0.27029196  -0.09817546  0.40208431  1.0
  O  O9  1  1.09817546  0.72970804  0.90208431  1.0
  O  O10  1  0.90182454  -0.72970804  0.09791569  1.0
  O  O11  1  1.72970804  0.09817546  0.59791569  1.0
  O  O12  1  0.54886126  0.13855294  0.18977876  1.0
  O  O13  1  0.86144706  -0.54886126  0.68977876  1.0
  O  O14  1  1.13855294  0.54886126  0.31022124  1.0
  O  O15  1  1.45113874  -0.13855294  0.81022124  1.0
  O  O16  1  1.55987683  -0.16606035  0.13166550  1.0
  O  O17  1  1.16606035  -0.55987683  0.63166550  1.0
  O  O18  1  0.83393965  0.55987683  0.36833450  1.0
  O  O19  1  0.44012317  0.16606035  0.86833450  1.0
  Cu  Cu20  1  1.69357549  -0.18451381  0.99882903  1.0
  Cu  Cu21  1  1.18451381  0.30642451  0.49882903  1.0
  Cu  Cu22  1  0.81548619  -0.30642451  0.50117097  1.0
  Cu  Cu23  1  0.30642451  0.18451381  0.00117097  1.0
  Cu  Cu24  1  0.53705365  0.23147168  0.34818049  1.0
  Cu  Cu25  1  0.76852832  0.46294635  0.84818049  1.0
  Cu  Cu26  1  1.23147168  -0.46294635  0.15181951  1.0
  Cu  Cu27  1  1.46294635  -0.23147168  0.65181951  1.0
  F  F28  1  0.40545336  0.35573125  0.40285970  1.0
  F  F29  1  0.64426875  0.59454664  0.90285970  1.0
  F  F30  1  1.35573125  -0.59454664  0.09714030  1.0
  F  F31  1  1.59454664  -0.35573125  0.59714030  1.0
