# generated using pymatgen
data_BaC2
_symmetry_space_group_name_H-M   'P 1'
_cell_length_a   7.73720187
_cell_length_b   5.54181129
_cell_length_c   9.73342323
_cell_angle_alpha   90.00000000
_cell_angle_beta   90.00000000
_cell_angle_gamma   90.00000000
_symmetry_Int_Tables_number   1
_chemical_formula_structural   BaC2
_chemical_formula_sum   'Ba8 C16'
_cell_volume   417.35081804
_cell_formula_units_Z   8
loop_
 _symmetry_equiv_pos_site_id
 _symmetry_equiv_pos_as_xyz
  1  'x, y, z'
loop_
 _atom_site_type_symbol
 _atom_site_label
 _atom_site_symmetry_multiplicity
 _atom_site_fract_x
 _atom_site_fract_y
 _atom_site_fract_z
 _atom_site_occupancy
  Ba  Ba0  1  0.00421043  0.25000000  0.31988381  1.0
  Ba  Ba1  1  0.50421043  0.25000000  0.18011619  1.0
  Ba  Ba2  1  0.99578957  0.75000000  0.68011619  1.0
  Ba  Ba3  1  0.49578957  0.75000000  0.81988381  1.0
  Ba  Ba4  1  0.85305440  0.25000000  0.90340933  1.0
  Ba  Ba5  1  0.35305440  0.25000000  0.59659067  1.0
  Ba  Ba6  1  0.14694560  0.75000000  0.09659067  1.0
  Ba  Ba7  1  0.64694560  0.75000000  0.40340933  1.0
  C  C8  1  0.36924601  0.25000000  0.90772462  1.0
  C  C9  1  0.86924601  0.25000000  0.59227538  1.0
  C  C10  1  0.63075399  0.75000000  0.09227538  1.0
  C  C11  1  0.13075399  0.75000000  0.40772462  1.0
  C  C12  1  0.20570301  0.25000000  0.00254946  1.0
  C  C13  1  0.70570301  0.25000000  0.49745054  1.0
  C  C14  1  0.79429699  0.75000000  0.99745054  1.0
  C  C15  1  0.29429699  0.75000000  0.50254946  1.0
  C  C16  1  0.20406085  0.10759665  0.86399269  1.0
  C  C17  1  0.70406085  0.39240335  0.63600731  1.0
  C  C18  1  0.79593915  0.60759665  0.13600731  1.0
  C  C19  1  0.29593915  0.89240335  0.36399269  1.0
  C  C20  1  0.79593915  0.89240335  0.13600731  1.0
  C  C21  1  0.29593915  0.60759665  0.36399269  1.0
  C  C22  1  0.20406085  0.39240335  0.86399269  1.0
  C  C23  1  0.70406085  0.10759665  0.63600731  1.0
