# generated using pymatgen
data_Tl2PO3
_symmetry_space_group_name_H-M   'P 1'
_cell_length_a   5.57187656
_cell_length_b   13.59813005
_cell_length_c   12.96450063
_cell_angle_alpha   90.00000000
_cell_angle_beta   90.00000000
_cell_angle_gamma   90.00000000
_symmetry_Int_Tables_number   1
_chemical_formula_structural   Tl2PO3
_chemical_formula_sum   'Tl16 P8 O24'
_cell_volume   982.28264356
_cell_formula_units_Z   8
loop_
 _symmetry_equiv_pos_site_id
 _symmetry_equiv_pos_as_xyz
  1  'x, y, z'
loop_
 _atom_site_type_symbol
 _atom_site_label
 _atom_site_symmetry_multiplicity
 _atom_site_fract_x
 _atom_site_fract_y
 _atom_site_fract_z
 _atom_site_occupancy
  Tl  Tl0  1  0.06233130  0.28149420  0.36648196  1.0
  Tl  Tl1  1  0.43766870  0.71850580  0.86648196  1.0
  Tl  Tl2  1  0.56233130  0.21850580  0.63351804  1.0
  Tl  Tl3  1  0.93766870  0.78149420  0.13351804  1.0
  Tl  Tl4  1  0.93766870  0.71850580  0.63351804  1.0
  Tl  Tl5  1  0.56233130  0.28149420  0.13351804  1.0
  Tl  Tl6  1  0.43766870  0.78149420  0.36648196  1.0
  Tl  Tl7  1  0.06233130  0.21850580  0.86648196  1.0
  Tl  Tl8  1  0.50301464  0.93201359  0.65025157  1.0
  Tl  Tl9  1  -0.00301464  0.06798641  0.15025157  1.0
  Tl  Tl10  1  1.00301464  0.56798641  0.34974843  1.0
  Tl  Tl11  1  0.49698536  0.43201359  0.84974843  1.0
  Tl  Tl12  1  0.49698536  0.06798641  0.34974843  1.0
  Tl  Tl13  1  1.00301464  0.93201359  0.84974843  1.0
  Tl  Tl14  1  -0.00301464  0.43201359  0.65025157  1.0
  Tl  Tl15  1  0.50301464  0.56798641  0.15025157  1.0
  P  P16  1  0.02096171  0.06366939  0.55346015  1.0
  P  P17  1  0.47903829  0.93633061  0.05346015  1.0
  P  P18  1  0.52096171  0.43633061  0.44653985  1.0
  P  P19  1  0.97903829  0.56366939  0.94653985  1.0
  P  P20  1  0.97903829  0.93633061  0.44653985  1.0
  P  P21  1  0.52096171  0.06366939  0.94653985  1.0
  P  P22  1  0.47903829  0.56366939  0.55346015  1.0
  P  P23  1  0.02096171  0.43633061  0.05346015  1.0
  O  O24  1  0.89026696  0.15386147  0.50517784  1.0
  O  O25  1  0.60973304  0.84613853  0.00517784  1.0
  O  O26  1  0.39026696  0.34613853  0.49482216  1.0
  O  O27  1  0.10973304  0.65386147  0.99482216  1.0
  O  O28  1  0.10973304  0.84613853  0.49482216  1.0
  O  O29  1  0.39026696  0.15386147  0.99482216  1.0
  O  O30  1  0.60973304  0.65386147  0.50517784  1.0
  O  O31  1  0.89026696  0.34613853  0.00517784  1.0
  O  O32  1  0.90880763  0.03400564  0.65816706  1.0
  O  O33  1  0.59119237  0.96599436  0.15816706  1.0
  O  O34  1  0.40880763  0.46599436  0.34183294  1.0
  O  O35  1  0.09119237  0.53400564  0.84183294  1.0
  O  O36  1  0.09119237  0.96599436  0.34183294  1.0
  O  O37  1  0.40880763  0.03400564  0.84183294  1.0
  O  O38  1  0.59119237  0.53400564  0.65816706  1.0
  O  O39  1  0.90880763  0.46599436  0.15816706  1.0
  O  O40  1  0.29931323  0.07998868  0.55884661  1.0
  O  O41  1  0.20068677  0.92001132  0.05884661  1.0
  O  O42  1  0.79931323  0.42001132  0.44115339  1.0
  O  O43  1  0.70068677  0.57998868  0.94115339  1.0
  O  O44  1  0.70068677  0.92001132  0.44115339  1.0
  O  O45  1  0.79931323  0.07998868  0.94115339  1.0
  O  O46  1  0.20068677  0.57998868  0.55884661  1.0
  O  O47  1  0.29931323  0.42001132  0.05884661  1.0
