# generated using pymatgen
data_La2Sb
_symmetry_space_group_name_H-M   'P 1'
_cell_length_a   9.69694354
_cell_length_b   9.69694354
_cell_length_c   9.69694354
_cell_angle_alpha   152.18598013
_cell_angle_beta   152.18598013
_cell_angle_gamma   39.74177170
_symmetry_Int_Tables_number   1
_chemical_formula_structural   La2Sb
_chemical_formula_sum   'La4 Sb2'
_cell_volume   198.14452264
_cell_formula_units_Z   2
loop_
 _symmetry_equiv_pos_site_id
 _symmetry_equiv_pos_as_xyz
  1  'x, y, z'
loop_
 _atom_site_type_symbol
 _atom_site_label
 _atom_site_symmetry_multiplicity
 _atom_site_fract_x
 _atom_site_fract_y
 _atom_site_fract_z
 _atom_site_occupancy
  La  La0  1  0.67895767  0.67895767  1.00000000  1.0
  La  La1  1  0.32104233  0.32104233  0.00000000  1.0
  La  La2  1  0.50000000  -0.00000000  0.50000000  1.0
  La  La3  1  -0.00000000  0.50000000  0.50000000  1.0
  Sb  Sb4  1  0.86202958  0.86202958  1.00000000  1.0
  Sb  Sb5  1  0.13797042  0.13797042  0.00000000  1.0
