# generated using pymatgen
data_Mg2V2CuO8
_symmetry_space_group_name_H-M   'P 1'
_cell_length_a   6.43379889
_cell_length_b   8.19710242
_cell_length_c   6.27180019
_cell_angle_alpha   90.00000000
_cell_angle_beta   115.69804951
_cell_angle_gamma   90.00000000
_symmetry_Int_Tables_number   1
_chemical_formula_structural   Mg2V2CuO8
_chemical_formula_sum   'Mg4 V4 Cu2 O16'
_cell_volume   298.04997274
_cell_formula_units_Z   2
loop_
 _symmetry_equiv_pos_site_id
 _symmetry_equiv_pos_as_xyz
  1  'x, y, z'
loop_
 _atom_site_type_symbol
 _atom_site_label
 _atom_site_symmetry_multiplicity
 _atom_site_fract_x
 _atom_site_fract_y
 _atom_site_fract_z
 _atom_site_occupancy
  Mg  Mg0  1  0.72758653  0.75095490  0.61472217  1.0
  Mg  Mg1  1  0.72758653  0.74904510  0.11472217  1.0
  Mg  Mg2  1  0.27241347  0.25095490  0.88527783  1.0
  Mg  Mg3  1  0.27241347  0.24904510  0.38527783  1.0
  V  V4  1  0.75761174  0.37555065  0.86035846  1.0
  V  V5  1  0.75761174  0.12444935  0.36035846  1.0
  V  V6  1  0.24238826  0.87555065  0.63964154  1.0
  V  V7  1  0.24238826  0.62444935  0.13964154  1.0
  Cu  Cu8  1  0.00000000  0.00000000  0.00000000  1.0
  Cu  Cu9  1  -0.00000000  0.50000000  0.50000000  1.0
  O  O10  1  0.99536620  0.76130488  1.00005251  1.0
  O  O11  1  0.99536620  0.73869512  0.50005251  1.0
  O  O12  1  0.00463380  0.26130488  0.49994749  1.0
  O  O13  1  0.00463380  0.23869512  -0.00005251  1.0
  O  O14  1  0.77648804  0.49804589  0.64365905  1.0
  O  O15  1  0.77648804  0.00195411  0.14365905  1.0
  O  O16  1  0.22351196  0.99804589  0.85634095  1.0
  O  O17  1  0.22351196  0.50195411  0.35634095  1.0
  O  O18  1  0.50088488  0.77243657  0.76092740  1.0
  O  O19  1  0.50088488  0.72756343  0.26092740  1.0
  O  O20  1  0.49911512  0.27243657  0.73907260  1.0
  O  O21  1  0.49911512  0.22756343  0.23907260  1.0
  O  O22  1  0.24764069  0.50206985  0.92962672  1.0
  O  O23  1  0.24764069  0.99793015  0.42962672  1.0
  O  O24  1  0.75235931  0.00206985  0.57037328  1.0
  O  O25  1  0.75235931  0.49793015  0.07037328  1.0
