# generated using pymatgen
data_AlAsO4
_symmetry_space_group_name_H-M   'P 1'
_cell_length_a   5.14208575
_cell_length_b   5.14208575
_cell_length_c   11.49977999
_cell_angle_alpha   90.00000000
_cell_angle_beta   90.00000000
_cell_angle_gamma   120.00000000
_symmetry_Int_Tables_number   1
_chemical_formula_structural   AlAsO4
_chemical_formula_sum   'Al3 As3 O12'
_cell_volume   263.32906193
_cell_formula_units_Z   3
loop_
 _symmetry_equiv_pos_site_id
 _symmetry_equiv_pos_as_xyz
  1  'x, y, z'
loop_
 _atom_site_type_symbol
 _atom_site_label
 _atom_site_symmetry_multiplicity
 _atom_site_fract_x
 _atom_site_fract_y
 _atom_site_fract_z
 _atom_site_occupancy
  Al  Al0  1  0.53934780  0.53934780  0.50000000  1.0
  Al  Al1  1  0.00000000  0.46065220  0.16666667  1.0
  Al  Al2  1  0.46065220  0.00000000  0.83333333  1.0
  As  As3  1  0.54106194  0.54106194  -0.00000000  1.0
  As  As4  1  0.00000000  0.45893806  0.66666667  1.0
  As  As5  1  0.45893806  0.00000000  0.33333333  1.0
  O  O6  1  0.11198426  0.70742771  0.78157734  1.0
  O  O7  1  0.70742771  0.11198426  0.21842266  1.0
  O  O8  1  0.59544345  0.88801574  0.44824400  1.0
  O  O9  1  0.29257229  0.40455655  0.11491067  1.0
  O  O10  1  0.88801574  0.59544345  0.55175600  1.0
  O  O11  1  0.40455655  0.29257229  0.88508933  1.0
  O  O12  1  0.88225881  0.59639711  0.04769504  1.0
  O  O13  1  0.59639711  0.88225881  0.95230496  1.0
  O  O14  1  0.71413830  0.11774119  0.71436171  1.0
  O  O15  1  0.40360289  0.28586170  0.38102838  1.0
  O  O16  1  0.11774119  0.71413830  0.28563829  1.0
  O  O17  1  0.28586170  0.40360289  0.61897162  1.0
