# generated using pymatgen
data_La4Ge3
_symmetry_space_group_name_H-M   'P 1'
_cell_length_a   8.13522341
_cell_length_b   8.13522341
_cell_length_c   8.13522341
_cell_angle_alpha   109.47122063
_cell_angle_beta   109.47122063
_cell_angle_gamma   109.47122063
_symmetry_Int_Tables_number   1
_chemical_formula_structural   La4Ge3
_chemical_formula_sum   'La8 Ge6'
_cell_volume   414.46375818
_cell_formula_units_Z   2
loop_
 _symmetry_equiv_pos_site_id
 _symmetry_equiv_pos_as_xyz
  1  'x, y, z'
loop_
 _atom_site_type_symbol
 _atom_site_label
 _atom_site_symmetry_multiplicity
 _atom_site_fract_x
 _atom_site_fract_y
 _atom_site_fract_z
 _atom_site_occupancy
  La  La0  1  1.36728331  1.36728331  1.36728331  1.0
  La  La1  1  1.50000000  1.00000000  1.13271669  1.0
  La  La2  1  0.86728331  0.86728331  0.86728331  1.0
  La  La3  1  0.50000000  1.00000000  0.63271669  1.0
  La  La4  1  1.00000000  1.13271669  1.50000000  1.0
  La  La5  1  1.13271669  0.50000000  1.00000000  1.0
  La  La6  1  1.00000000  0.63271669  1.50000000  1.0
  La  La7  1  0.63271669  1.50000000  1.00000000  1.0
  Ge  Ge8  1  1.12500000  0.87500000  1.25000000  1.0
  Ge  Ge9  1  0.37500000  0.62500000  0.75000000  1.0
  Ge  Ge10  1  0.25000000  1.12500000  0.87500000  1.0
  Ge  Ge11  1  0.75000000  1.37500000  0.62500000  1.0
  Ge  Ge12  1  0.62500000  0.75000000  0.37500000  1.0
  Ge  Ge13  1  0.87500000  0.25000000  1.12500000  1.0
