# generated using pymatgen
data_BiSe
_symmetry_space_group_name_H-M   'P 1'
_cell_length_a   4.33154056
_cell_length_b   4.33154056
_cell_length_c   6.22345163
_cell_angle_alpha   81.30647350
_cell_angle_beta   98.69352650
_cell_angle_gamma   90.07219558
_symmetry_Int_Tables_number   1
_chemical_formula_structural   BiSe
_chemical_formula_sum   'Bi2 Se2'
_cell_volume   114.07043119
_cell_formula_units_Z   2
loop_
 _symmetry_equiv_pos_site_id
 _symmetry_equiv_pos_as_xyz
  1  'x, y, z'
loop_
 _atom_site_type_symbol
 _atom_site_label
 _atom_site_symmetry_multiplicity
 _atom_site_fract_x
 _atom_site_fract_y
 _atom_site_fract_z
 _atom_site_occupancy
  Bi  Bi0  1  1.20787439  -0.20787439  0.23482043  1.0
  Bi  Bi1  1  0.79212561  0.20787439  0.76517957  1.0
  Se  Se2  1  1.27861680  -0.27861680  0.72839652  1.0
  Se  Se3  1  0.72138320  0.27861680  0.27160348  1.0
