# generated using pymatgen
data_Cr3B7O13F
_symmetry_space_group_name_H-M   'P 1'
_cell_length_a   8.59094128
_cell_length_b   8.59094128
_cell_length_c   8.59094128
_cell_angle_alpha   60.00000000
_cell_angle_beta   60.00000000
_cell_angle_gamma   60.00000000
_symmetry_Int_Tables_number   1
_chemical_formula_structural   Cr3B7O13F
_chemical_formula_sum   'Cr6 B14 O26 F2'
_cell_volume   448.33975954
_cell_formula_units_Z   2
loop_
 _symmetry_equiv_pos_site_id
 _symmetry_equiv_pos_as_xyz
  1  'x, y, z'
loop_
 _atom_site_type_symbol
 _atom_site_label
 _atom_site_symmetry_multiplicity
 _atom_site_fract_x
 _atom_site_fract_y
 _atom_site_fract_z
 _atom_site_occupancy
  Cr  Cr0  1  0.50000000  -0.00000000  0.00000000  1.0
  Cr  Cr1  1  1.00000000  0.50000000  -0.50000000  1.0
  Cr  Cr2  1  -0.50000000  0.50000000  1.00000000  1.0
  Cr  Cr3  1  -0.00000000  0.50000000  0.00000000  1.0
  Cr  Cr4  1  0.00000000  0.00000000  0.50000000  1.0
  Cr  Cr5  1  0.50000000  1.00000000  -0.50000000  1.0
  B  B6  1  0.91944611  0.91944611  -0.08055389  1.0
  B  B7  1  0.41944611  1.41944611  0.41944611  1.0
  B  B8  1  0.24166166  0.91944611  -0.08055389  1.0
  B  B9  1  -0.25833834  0.41944611  0.41944611  1.0
  B  B10  1  0.91944611  0.91944611  -0.75833834  1.0
  B  B11  1  0.41944611  1.41944611  -0.25833834  1.0
  B  B12  1  0.91944611  0.24166166  -0.08055389  1.0
  B  B13  1  0.41944611  -0.25833834  0.41944611  1.0
  B  B14  1  -0.75000000  0.75000000  0.75000000  1.0
  B  B15  1  -0.25000000  0.25000000  0.25000000  1.0
  B  B16  1  0.25000000  1.25000000  -0.25000000  1.0
  B  B17  1  -0.25000000  0.25000000  0.75000000  1.0
  B  B18  1  -0.25000000  0.75000000  0.25000000  1.0
  B  B19  1  0.25000000  -0.25000000  0.25000000  1.0
  O  O20  1  0.74174944  1.06387196  -0.10226912  1.0
  O  O21  1  0.24174944  1.39773088  0.56387196  1.0
  O  O22  1  -0.70335227  0.89773088  1.06387196  1.0
  O  O23  1  -0.20335227  0.56387196  0.39773088  1.0
  O  O24  1  0.39773088  1.56387196  0.24174944  1.0
  O  O25  1  -0.10226912  0.74174944  1.06387196  1.0
  O  O26  1  -0.20335227  0.24174944  0.56387196  1.0
  O  O27  1  0.29664773  1.06387196  -0.25825056  1.0
  O  O28  1  1.06387196  0.89773088  -0.25825056  1.0
  O  O29  1  0.56387196  1.24174944  0.39773088  1.0
  O  O30  1  -0.70335227  0.74174944  0.89773088  1.0
  O  O31  1  -0.20335227  0.39773088  0.24174944  1.0
  O  O32  1  1.06387196  0.74174944  -0.70335227  1.0
  O  O33  1  0.39773088  1.24174944  -0.20335227  1.0
  O  O34  1  -0.10226912  0.29664773  0.74174944  1.0
  O  O35  1  0.56387196  -0.20335227  0.24174944  1.0
  O  O36  1  0.56387196  1.39773088  -0.20335227  1.0
  O  O37  1  -0.25825056  0.89773088  0.29664773  1.0
  O  O38  1  0.24174944  -0.20335227  0.39773088  1.0
  O  O39  1  1.06387196  0.29664773  -0.10226912  1.0
  O  O40  1  0.89773088  1.06387196  -0.70335227  1.0
  O  O41  1  0.24174944  1.56387196  -0.20335227  1.0
  O  O42  1  -0.25825056  0.29664773  1.06387196  1.0
  O  O43  1  0.39773088  -0.20335227  0.56387196  1.0
  O  O44  1  0.00000000  0.00000000  0.00000000  1.0
  O  O45  1  -0.50000000  0.50000000  0.50000000  1.0
  F  F46  1  0.75000000  0.75000000  -0.25000000  1.0
  F  F47  1  0.25000000  0.25000000  0.25000000  1.0
