# generated using pymatgen
data_Zr4W
_symmetry_space_group_name_H-M   'P 1'
_cell_length_a   7.09615291
_cell_length_b   7.09615291
_cell_length_c   7.09615291
_cell_angle_alpha   60.00000000
_cell_angle_beta   60.00000000
_cell_angle_gamma   60.00000000
_symmetry_Int_Tables_number   1
_chemical_formula_structural   Zr4W
_chemical_formula_sum   'Zr8 W2'
_cell_volume   252.67012650
_cell_formula_units_Z   2
loop_
 _symmetry_equiv_pos_site_id
 _symmetry_equiv_pos_as_xyz
  1  'x, y, z'
loop_
 _atom_site_type_symbol
 _atom_site_label
 _atom_site_symmetry_multiplicity
 _atom_site_fract_x
 _atom_site_fract_y
 _atom_site_fract_z
 _atom_site_occupancy
  Zr  Zr0  1  -0.10556571  0.89443429  0.31669713  1.0
  Zr  Zr1  1  0.89443429  -0.68330287  0.89443429  1.0
  Zr  Zr2  1  0.35556571  0.35556571  0.35556571  1.0
  Zr  Zr3  1  -0.06669713  0.35556571  0.35556571  1.0
  Zr  Zr4  1  -0.68330287  0.89443429  0.89443429  1.0
  Zr  Zr5  1  0.89443429  -0.10556571  0.89443429  1.0
  Zr  Zr6  1  0.35556571  -0.06669713  0.35556571  1.0
  Zr  Zr7  1  0.35556571  0.35556571  -0.06669713  1.0
  W  W8  1  0.50000000  0.50000000  -0.50000000  1.0
  W  W9  1  0.75000000  -0.25000000  0.75000000  1.0
