# generated using pymatgen
data_Mn3B7BrO13
_symmetry_space_group_name_H-M   'P 1'
_cell_length_a   8.72767102
_cell_length_b   8.72767102
_cell_length_c   8.72767102
_cell_angle_alpha   60.00000000
_cell_angle_beta   60.00000000
_cell_angle_gamma   60.00000000
_symmetry_Int_Tables_number   1
_chemical_formula_structural   Mn3B7BrO13
_chemical_formula_sum   'Mn6 B14 Br2 O26'
_cell_volume   470.08901690
_cell_formula_units_Z   2
loop_
 _symmetry_equiv_pos_site_id
 _symmetry_equiv_pos_as_xyz
  1  'x, y, z'
loop_
 _atom_site_type_symbol
 _atom_site_label
 _atom_site_symmetry_multiplicity
 _atom_site_fract_x
 _atom_site_fract_y
 _atom_site_fract_z
 _atom_site_occupancy
  Mn  Mn0  1  0.50000000  0.00000000  -0.00000000  1.0
  Mn  Mn1  1  1.00000000  0.50000000  -0.50000000  1.0
  Mn  Mn2  1  -0.50000000  0.50000000  1.00000000  1.0
  Mn  Mn3  1  0.00000000  0.50000000  -0.00000000  1.0
  Mn  Mn4  1  -0.00000000  -0.00000000  0.50000000  1.0
  Mn  Mn5  1  0.50000000  1.00000000  -0.50000000  1.0
  B  B6  1  0.92004427  0.92004427  -0.07995573  1.0
  B  B7  1  0.42004427  1.42004427  0.42004427  1.0
  B  B8  1  0.23986719  0.92004427  -0.07995573  1.0
  B  B9  1  -0.26013281  0.42004427  0.42004427  1.0
  B  B10  1  0.92004427  0.92004427  -0.76013281  1.0
  B  B11  1  0.42004427  1.42004427  -0.26013281  1.0
  B  B12  1  0.92004427  0.23986719  -0.07995573  1.0
  B  B13  1  0.42004427  -0.26013281  0.42004427  1.0
  B  B14  1  -0.75000000  0.75000000  0.75000000  1.0
  B  B15  1  -0.25000000  0.25000000  0.25000000  1.0
  B  B16  1  0.25000000  1.25000000  -0.25000000  1.0
  B  B17  1  -0.25000000  0.25000000  0.75000000  1.0
  B  B18  1  -0.25000000  0.75000000  0.25000000  1.0
  B  B19  1  0.25000000  -0.25000000  0.25000000  1.0
  Br  Br20  1  0.75000000  0.75000000  -0.25000000  1.0
  Br  Br21  1  0.25000000  0.25000000  0.25000000  1.0
  O  O22  1  0.74748342  1.06356003  -0.10808826  1.0
  O  O23  1  0.24748342  1.39191174  0.56356003  1.0
  O  O24  1  -0.70295519  0.89191174  1.06356003  1.0
  O  O25  1  -0.20295519  0.56356003  0.39191174  1.0
  O  O26  1  0.39191174  1.56356003  0.24748342  1.0
  O  O27  1  -0.10808826  0.74748342  1.06356003  1.0
  O  O28  1  -0.20295519  0.24748342  0.56356003  1.0
  O  O29  1  0.29704481  1.06356003  -0.25251658  1.0
  O  O30  1  1.06356003  0.89191174  -0.25251658  1.0
  O  O31  1  0.56356003  1.24748342  0.39191174  1.0
  O  O32  1  -0.70295519  0.74748342  0.89191174  1.0
  O  O33  1  -0.20295519  0.39191174  0.24748342  1.0
  O  O34  1  1.06356003  0.74748342  -0.70295519  1.0
  O  O35  1  0.39191174  1.24748342  -0.20295519  1.0
  O  O36  1  -0.10808826  0.29704481  0.74748342  1.0
  O  O37  1  0.56356003  -0.20295519  0.24748342  1.0
  O  O38  1  0.56356003  1.39191174  -0.20295519  1.0
  O  O39  1  -0.25251658  0.89191174  0.29704481  1.0
  O  O40  1  0.24748342  -0.20295519  0.39191174  1.0
  O  O41  1  1.06356003  0.29704481  -0.10808826  1.0
  O  O42  1  0.89191174  1.06356003  -0.70295519  1.0
  O  O43  1  0.24748342  1.56356003  -0.20295519  1.0
  O  O44  1  -0.25251658  0.29704481  1.06356003  1.0
  O  O45  1  0.39191174  -0.20295519  0.56356003  1.0
  O  O46  1  0.00000000  0.00000000  0.00000000  1.0
  O  O47  1  -0.50000000  0.50000000  0.50000000  1.0
