# generated using pymatgen
data_KCrS2
_symmetry_space_group_name_H-M   'P 1'
_cell_length_a   7.38211756
_cell_length_b   7.38211756
_cell_length_c   7.38211756
_cell_angle_alpha   28.78658199
_cell_angle_beta   28.78658199
_cell_angle_gamma   28.78658199
_symmetry_Int_Tables_number   1
_chemical_formula_structural   KCrS2
_chemical_formula_sum   'K1 Cr1 S2'
_cell_volume   82.48658080
_cell_formula_units_Z   1
loop_
 _symmetry_equiv_pos_site_id
 _symmetry_equiv_pos_as_xyz
  1  'x, y, z'
loop_
 _atom_site_type_symbol
 _atom_site_label
 _atom_site_symmetry_multiplicity
 _atom_site_fract_x
 _atom_site_fract_y
 _atom_site_fract_z
 _atom_site_occupancy
  K  K0  1  0.00000000  0.00000000  0.00000000  1.0
  Cr  Cr1  1  1.50000000  0.50000000  0.50000000  1.0
  S  S2  1  0.77482471  0.77482471  0.77482471  1.0
  S  S3  1  1.22517529  1.22517529  0.22517529  1.0
