# generated using pymatgen
data_Cs2PH4Se3O2
_symmetry_space_group_name_H-M   'P 1'
_cell_length_a   10.28344553
_cell_length_b   12.91511821
_cell_length_c   8.02158831
_cell_angle_alpha   90.00000000
_cell_angle_beta   90.00000000
_cell_angle_gamma   90.00000000
_symmetry_Int_Tables_number   1
_chemical_formula_structural   Cs2PH4Se3O2
_chemical_formula_sum   'Cs8 P4 H16 Se12 O8'
_cell_volume   1065.36250130
_cell_formula_units_Z   4
loop_
 _symmetry_equiv_pos_site_id
 _symmetry_equiv_pos_as_xyz
  1  'x, y, z'
loop_
 _atom_site_type_symbol
 _atom_site_label
 _atom_site_symmetry_multiplicity
 _atom_site_fract_x
 _atom_site_fract_y
 _atom_site_fract_z
 _atom_site_occupancy
  Cs  Cs0  1  0.39032926  0.16561881  0.50000000  1.0
  Cs  Cs1  1  0.89032926  0.33438119  0.00000000  1.0
  Cs  Cs2  1  0.60967074  0.83438119  0.50000000  1.0
  Cs  Cs3  1  0.10967074  0.66561881  0.00000000  1.0
  Cs  Cs4  1  0.50000000  0.50000000  0.00000000  1.0
  Cs  Cs5  1  0.00000000  0.00000000  0.50000000  1.0
  Cs  Cs6  1  0.50000000  0.50000000  0.50000000  1.0
  Cs  Cs7  1  0.00000000  0.00000000  0.00000000  1.0
  P  P8  1  0.11235937  0.50631714  0.50000000  1.0
  P  P9  1  0.61235937  0.99368286  0.00000000  1.0
  P  P10  1  0.88764063  0.49368286  0.50000000  1.0
  P  P11  1  0.38764063  0.00631714  0.00000000  1.0
  H  H12  1  0.40958954  0.74677143  0.20319614  1.0
  H  H13  1  0.40958954  0.74677143  0.79680386  1.0
  H  H14  1  0.90958954  0.75322857  0.70319614  1.0
  H  H15  1  0.90958954  0.75322857  0.29680386  1.0
  H  H16  1  0.59041046  0.25322857  0.20319614  1.0
  H  H17  1  0.59041046  0.25322857  0.79680386  1.0
  H  H18  1  0.09041046  0.24677143  0.70319614  1.0
  H  H19  1  0.09041046  0.24677143  0.29680386  1.0
  H  H20  1  0.32621338  0.67436353  0.31442512  1.0
  H  H21  1  0.32621338  0.67436353  0.68557488  1.0
  H  H22  1  0.82621338  0.82563647  0.81442512  1.0
  H  H23  1  0.82621338  0.82563647  0.18557488  1.0
  H  H24  1  0.67378662  0.32563647  0.31442512  1.0
  H  H25  1  0.67378662  0.32563647  0.68557488  1.0
  H  H26  1  0.17378662  0.17436353  0.81442512  1.0
  H  H27  1  0.17378662  0.17436353  0.18557488  1.0
  Se  Se28  1  0.31723278  0.92929329  0.22814906  1.0
  Se  Se29  1  0.31723278  0.92929329  0.77185094  1.0
  Se  Se30  1  0.81723278  0.57070671  0.72814906  1.0
  Se  Se31  1  0.81723278  0.57070671  0.27185094  1.0
  Se  Se32  1  0.68276722  0.07070671  0.22814906  1.0
  Se  Se33  1  0.68276722  0.07070671  0.77185094  1.0
  Se  Se34  1  0.18276722  0.42929329  0.72814906  1.0
  Se  Se35  1  0.18276722  0.42929329  0.27185094  1.0
  Se  Se36  1  0.14999362  0.67521038  0.50000000  1.0
  Se  Se37  1  0.64999362  0.82478962  0.00000000  1.0
  Se  Se38  1  0.85000638  0.32478962  0.50000000  1.0
  Se  Se39  1  0.35000638  0.17521038  0.00000000  1.0
  O  O40  1  0.40561396  0.67472731  0.24369204  1.0
  O  O41  1  0.40561396  0.67472731  0.75630796  1.0
  O  O42  1  0.90561396  0.82527269  0.74369204  1.0
  O  O43  1  0.90561396  0.82527269  0.25630796  1.0
  O  O44  1  0.59438604  0.32527269  0.24369204  1.0
  O  O45  1  0.59438604  0.32527269  0.75630796  1.0
  O  O46  1  0.09438604  0.17472731  0.74369204  1.0
  O  O47  1  0.09438604  0.17472731  0.25630796  1.0
