# generated using pymatgen
data_SiO2
_symmetry_space_group_name_H-M   'P 1'
_cell_length_a   6.86324787
_cell_length_b   6.86324787
_cell_length_c   13.59918213
_cell_angle_alpha   90.00000000
_cell_angle_beta   90.00000000
_cell_angle_gamma   120.00000000
_symmetry_Int_Tables_number   1
_chemical_formula_structural   SiO2
_chemical_formula_sum   'Si12 O24'
_cell_volume   554.75699803
_cell_formula_units_Z   12
loop_
 _symmetry_equiv_pos_site_id
 _symmetry_equiv_pos_as_xyz
  1  'x, y, z'
loop_
 _atom_site_type_symbol
 _atom_site_label
 _atom_site_symmetry_multiplicity
 _atom_site_fract_x
 _atom_site_fract_y
 _atom_site_fract_z
 _atom_site_occupancy
  Si  Si0  1  0.82293498  0.22720073  0.04894333  1.0
  Si  Si1  1  0.77279927  0.59573425  0.38227667  1.0
  Si  Si2  1  0.40426575  0.17706502  0.71561000  1.0
  Si  Si3  1  0.17706502  0.77279927  0.04894333  1.0
  Si  Si4  1  0.22720073  0.40426575  0.38227667  1.0
  Si  Si5  1  0.59573425  0.82293498  0.71561000  1.0
  Si  Si6  1  0.22720073  0.82293498  0.28439000  1.0
  Si  Si7  1  0.59573425  0.77279927  0.95105667  1.0
  Si  Si8  1  0.17706502  0.40426575  0.61772333  1.0
  Si  Si9  1  0.77279927  0.17706502  0.28439000  1.0
  Si  Si10  1  0.40426575  0.22720073  0.95105667  1.0
  Si  Si11  1  0.82293498  0.59573425  0.61772333  1.0
  O  O12  1  0.39400973  0.78801947  0.00000000  1.0
  O  O13  1  0.21198053  0.60599027  0.33333333  1.0
  O  O14  1  0.39400973  0.60599027  0.66666667  1.0
  O  O15  1  0.60599027  0.21198053  0.00000000  1.0
  O  O16  1  0.78801947  0.39400973  0.33333333  1.0
  O  O17  1  0.60599027  0.39400973  0.66666667  1.0
  O  O18  1  0.62603330  0.81301665  0.83333333  1.0
  O  O19  1  0.18698335  0.81301665  0.16666667  1.0
  O  O20  1  0.18698335  0.37396670  0.50000000  1.0
  O  O21  1  0.37396670  0.18698335  0.83333333  1.0
  O  O22  1  0.81301665  0.18698335  0.16666667  1.0
  O  O23  1  0.81301665  0.62603330  0.50000000  1.0
  O  O24  1  0.50000000  -0.00000000  0.69657388  1.0
  O  O25  1  0.00000000  0.50000000  0.02990721  1.0
  O  O26  1  0.50000000  0.50000000  0.36324054  1.0
  O  O27  1  0.00000000  0.50000000  0.63675946  1.0
  O  O28  1  0.50000000  0.00000000  0.30342612  1.0
  O  O29  1  0.50000000  0.50000000  0.97009279  1.0
  O  O30  1  0.81692041  0.00000000  0.00000000  1.0
  O  O31  1  -0.00000000  0.81692041  0.33333333  1.0
  O  O32  1  0.18307959  0.18307959  0.66666667  1.0
  O  O33  1  0.18307959  -0.00000000  0.00000000  1.0
  O  O34  1  0.00000000  0.18307959  0.33333333  1.0
  O  O35  1  0.81692041  0.81692041  0.66666667  1.0
