# generated using pymatgen
data_Dy(BO2)6
_symmetry_space_group_name_H-M   'P 1'
_cell_length_a   8.38680858
_cell_length_b   8.38680858
_cell_length_c   8.38680858
_cell_angle_alpha   62.86143077
_cell_angle_beta   62.86143077
_cell_angle_gamma   62.86143077
_symmetry_Int_Tables_number   1
_chemical_formula_structural   Dy(BO2)6
_chemical_formula_sum   'Dy2 B12 O24'
_cell_volume   443.66046787
_cell_formula_units_Z   2
loop_
 _symmetry_equiv_pos_site_id
 _symmetry_equiv_pos_as_xyz
  1  'x, y, z'
loop_
 _atom_site_type_symbol
 _atom_site_label
 _atom_site_symmetry_multiplicity
 _atom_site_fract_x
 _atom_site_fract_y
 _atom_site_fract_z
 _atom_site_occupancy
  O  O0  1  0.83965898  -0.21721373  0.13033609  1.0
  O  O1  1  0.33965898  0.63033609  -0.71721373  1.0
  O  O2  1  0.63033609  0.28278627  -0.66034102  1.0
  O  O3  1  1.13033609  -0.16034102  -0.21721373  1.0
  O  O4  1  0.28278627  0.33965898  -0.36966391  1.0
  O  O5  1  0.78278627  0.13033609  -0.16034102  1.0
  O  O6  1  1.25246237  -0.32623743  0.03218570  1.0
  O  O7  1  0.75246237  0.53218570  -0.82623743  1.0
  O  O8  1  0.53218570  0.17376257  -0.24753763  1.0
  O  O9  1  1.03218570  0.25246237  -0.32623743  1.0
  O  O10  1  0.17376257  0.75246237  -0.46781430  1.0
  O  O11  1  0.67376257  0.03218570  0.25246237  1.0
  O  O12  1  1.07202464  -0.45881528  -0.00416765  1.0
  O  O13  1  0.57202464  0.49583235  -0.95881528  1.0
  O  O14  1  0.49583235  0.04118472  -0.42797536  1.0
  O  O15  1  0.99583235  0.07202464  -0.45881528  1.0
  O  O16  1  0.04118472  0.57202464  -0.50416765  1.0
  O  O17  1  0.54118472  -0.00416765  0.07202464  1.0
  O  O18  1  0.37938438  0.54447647  -0.22249486  1.0
  O  O19  1  0.87938438  -0.72249486  0.04447647  1.0
  O  O20  1  0.27750514  0.04447647  -0.12061562  1.0
  O  O21  1  0.77750514  0.37938438  -0.45552353  1.0
  O  O22  1  1.04447647  -0.12061562  -0.72249486  1.0
  O  O23  1  0.54447647  0.77750514  -0.62061562  1.0
  Dy  Dy24  1  0.00595316  0.00595316  0.00595316  1.0
  Dy  Dy25  1  0.50595316  0.50595316  -0.49404684  1.0
  B  B26  1  0.89182119  -0.38581617  0.09801286  1.0
  B  B27  1  0.39182119  0.59801286  -0.88581617  1.0
  B  B28  1  0.59801286  0.11418383  -0.60817881  1.0
  B  B29  1  1.09801286  -0.10817881  -0.38581617  1.0
  B  B30  1  0.11418383  0.39182119  -0.40198714  1.0
  B  B31  1  0.61418383  0.09801286  -0.10817881  1.0
  B  B32  1  1.21211192  -0.35994080  -0.10244186  1.0
  B  B33  1  0.71211192  0.39755814  -0.85994080  1.0
  B  B34  1  0.39755814  0.14005920  -0.28788808  1.0
  B  B35  1  0.89755814  0.21211192  -0.35994080  1.0
  B  B36  1  0.14005920  0.71211192  -0.60244186  1.0
  B  B37  1  0.64005920  -0.10244186  0.21211192  1.0
