# generated using pymatgen
data_NaI(OF)2
_symmetry_space_group_name_H-M   'P 1'
_cell_length_a   5.27111079
_cell_length_b   5.27111079
_cell_length_c   7.26831184
_cell_angle_alpha   90.00000000
_cell_angle_beta   90.00000000
_cell_angle_gamma   92.86379151
_symmetry_Int_Tables_number   1
_chemical_formula_structural   NaI(OF)2
_chemical_formula_sum   'Na2 I2 O4 F4'
_cell_volume   201.69499670
_cell_formula_units_Z   2
loop_
 _symmetry_equiv_pos_site_id
 _symmetry_equiv_pos_as_xyz
  1  'x, y, z'
loop_
 _atom_site_type_symbol
 _atom_site_label
 _atom_site_symmetry_multiplicity
 _atom_site_fract_x
 _atom_site_fract_y
 _atom_site_fract_z
 _atom_site_occupancy
  Na  Na0  1  0.50000000  0.50000000  0.50000000  1.0
  Na  Na1  1  0.50000000  0.50000000  0.00000000  1.0
  I  I2  1  0.03667403  0.96332597  0.25000000  1.0
  I  I3  1  -0.03667403  1.03667403  0.75000000  1.0
  O  O4  1  0.18672900  0.81327100  0.45077204  1.0
  O  O5  1  0.18672900  0.81327100  0.04922796  1.0
  O  O6  1  -0.18672900  1.18672900  0.95077204  1.0
  O  O7  1  -0.18672900  1.18672900  0.54922796  1.0
  F  F8  1  -0.26291573  1.68189521  0.25000000  1.0
  F  F9  1  0.68189521  0.73708427  0.75000000  1.0
  F  F10  1  -0.68189521  1.26291573  0.25000000  1.0
  F  F11  1  0.26291573  0.31810479  0.75000000  1.0
