# generated using pymatgen
data_Lu11Ge10
_symmetry_space_group_name_H-M   'P 1'
_cell_length_a   11.00010934
_cell_length_b   11.00010934
_cell_length_c   11.00010934
_cell_angle_alpha   121.74063574
_cell_angle_beta   121.74063574
_cell_angle_gamma   87.01067626
_symmetry_Int_Tables_number   1
_chemical_formula_structural   Lu11Ge10
_chemical_formula_sum   'Lu22 Ge20'
_cell_volume   915.07034974
_cell_formula_units_Z   2
loop_
 _symmetry_equiv_pos_site_id
 _symmetry_equiv_pos_as_xyz
  1  'x, y, z'
loop_
 _atom_site_type_symbol
 _atom_site_label
 _atom_site_symmetry_multiplicity
 _atom_site_fract_x
 _atom_site_fract_y
 _atom_site_fract_z
 _atom_site_occupancy
  Lu  Lu0  1  0.67625123  0.67625123  1.35250246  1.0
  Lu  Lu1  1  0.32374877  0.67625123  1.00000000  1.0
  Lu  Lu2  1  0.67625123  0.32374877  1.00000000  1.0
  Lu  Lu3  1  0.32374877  0.32374877  0.64749754  1.0
  Lu  Lu4  1  0.43791677  0.68940672  0.74851006  1.0
  Lu  Lu5  1  1.05910334  0.31059328  0.74851006  1.0
  Lu  Lu6  1  0.94089666  0.68940672  1.25148994  1.0
  Lu  Lu7  1  0.56208323  0.31059328  0.25148994  1.0
  Lu  Lu8  1  0.68940672  0.43791677  0.74851006  1.0
  Lu  Lu9  1  0.31059328  1.05910334  0.74851006  1.0
  Lu  Lu10  1  0.68940672  0.94089666  1.25148994  1.0
  Lu  Lu11  1  0.31059328  0.56208323  0.25148994  1.0
  Lu  Lu12  1  0.57114121  0.89778485  0.67335636  1.0
  Lu  Lu13  1  0.77557151  0.10221515  0.67335636  1.0
  Lu  Lu14  1  1.22442849  0.89778485  1.32664364  1.0
  Lu  Lu15  1  0.42885879  0.10221515  0.32664364  1.0
  Lu  Lu16  1  0.89778485  0.57114121  0.67335636  1.0
  Lu  Lu17  1  0.10221515  0.77557151  0.67335636  1.0
  Lu  Lu18  1  0.89778485  1.22442849  1.32664364  1.0
  Lu  Lu19  1  0.10221515  0.42885879  0.32664364  1.0
  Lu  Lu20  1  0.83913475  0.83913475  1.00000000  1.0
  Lu  Lu21  1  0.16086525  0.16086525  0.00000000  1.0
  Ge  Ge22  1  0.61170773  0.61170773  0.58285349  1.0
  Ge  Ge23  1  0.97114577  0.97114577  1.58285349  1.0
  Ge  Ge24  1  1.02885423  0.61170773  1.00000000  1.0
  Ge  Ge25  1  0.38829227  0.97114577  1.00000000  1.0
  Ge  Ge26  1  0.61170773  1.02885423  1.00000000  1.0
  Ge  Ge27  1  0.97114577  0.38829227  1.00000000  1.0
  Ge  Ge28  1  1.02885423  1.02885423  1.41714651  1.0
  Ge  Ge29  1  0.38829227  0.38829227  0.41714651  1.0
  Ge  Ge30  1  0.50000000  0.85761201  1.35761201  1.0
  Ge  Ge31  1  0.85761201  0.50000000  1.35761201  1.0
  Ge  Ge32  1  0.14238799  0.50000000  0.64238799  1.0
  Ge  Ge33  1  0.50000000  0.14238799  0.64238799  1.0
  Ge  Ge34  1  0.87760923  0.87760923  1.75521846  1.0
  Ge  Ge35  1  0.12239077  0.87760923  1.00000000  1.0
  Ge  Ge36  1  0.87760923  0.12239077  1.00000000  1.0
  Ge  Ge37  1  0.12239077  0.12239077  0.24478154  1.0
  Ge  Ge38  1  0.61375677  0.61375677  1.00000000  1.0
  Ge  Ge39  1  0.38624323  0.38624323  0.00000000  1.0
  Ge  Ge40  1  0.25000000  0.75000000  0.50000000  1.0
  Ge  Ge41  1  0.75000000  0.25000000  0.50000000  1.0
