# generated using pymatgen
data_Nb2Zn4O9
_symmetry_space_group_name_H-M   'P 1'
_cell_length_a   5.23915681
_cell_length_b   5.23915681
_cell_length_c   14.31866693
_cell_angle_alpha   90.00000000
_cell_angle_beta   90.00000000
_cell_angle_gamma   120.00000000
_symmetry_Int_Tables_number   1
_chemical_formula_structural   Nb2Zn4O9
_chemical_formula_sum   'Nb4 Zn8 O18'
_cell_volume   340.37371304
_cell_formula_units_Z   2
loop_
 _symmetry_equiv_pos_site_id
 _symmetry_equiv_pos_as_xyz
  1  'x, y, z'
loop_
 _atom_site_type_symbol
 _atom_site_label
 _atom_site_symmetry_multiplicity
 _atom_site_fract_x
 _atom_site_fract_y
 _atom_site_fract_z
 _atom_site_occupancy
  Nb  Nb0  1  -0.00000000  -0.00000000  0.13909184  1.0
  Nb  Nb1  1  0.00000000  0.00000000  0.63909184  1.0
  Nb  Nb2  1  -0.00000000  -0.00000000  0.36090816  1.0
  Nb  Nb3  1  0.00000000  0.00000000  0.86090816  1.0
  Zn  Zn4  1  0.33333333  0.66666667  0.01436125  1.0
  Zn  Zn5  1  0.33333333  0.66666667  0.51436125  1.0
  Zn  Zn6  1  0.66666667  0.33333333  0.48563875  1.0
  Zn  Zn7  1  0.66666667  0.33333333  0.98563875  1.0
  Zn  Zn8  1  0.33333333  0.66666667  0.29366862  1.0
  Zn  Zn9  1  0.33333333  0.66666667  0.79366862  1.0
  Zn  Zn10  1  0.66666667  0.33333333  0.20633138  1.0
  Zn  Zn11  1  0.66666667  0.33333333  0.70633138  1.0
  O  O12  1  0.98104359  0.66284394  0.08382834  1.0
  O  O13  1  0.98104359  0.31819965  0.58382834  1.0
  O  O14  1  0.66284394  0.98104359  0.41617166  1.0
  O  O15  1  0.66284394  0.68180035  0.91617166  1.0
  O  O16  1  0.68180035  0.66284394  0.58382834  1.0
  O  O17  1  0.68180035  0.01895641  0.08382834  1.0
  O  O18  1  0.33715606  0.01895641  0.58382834  1.0
  O  O19  1  0.33715606  0.31819965  0.08382834  1.0
  O  O20  1  0.01895641  0.68180035  0.41617166  1.0
  O  O21  1  0.01895641  0.33715606  0.91617166  1.0
  O  O22  1  0.31819965  0.98104359  0.91617166  1.0
  O  O23  1  0.31819965  0.33715606  0.41617166  1.0
  O  O24  1  0.71513246  0.71513246  0.25000000  1.0
  O  O25  1  0.71513246  0.00000000  0.75000000  1.0
  O  O26  1  -0.00000000  0.71513246  0.75000000  1.0
  O  O27  1  0.00000000  0.28486754  0.25000000  1.0
  O  O28  1  0.28486754  0.28486754  0.75000000  1.0
  O  O29  1  0.28486754  -0.00000000  0.25000000  1.0
