# generated using pymatgen
data_Na2TePO11
_symmetry_space_group_name_H-M   'P 1'
_cell_length_a   6.02863851
_cell_length_b   6.02863851
_cell_length_c   15.32203738
_cell_angle_alpha   90.00000000
_cell_angle_beta   90.00000000
_cell_angle_gamma   120.00000000
_symmetry_Int_Tables_number   1
_chemical_formula_structural   Na2TePO11
_chemical_formula_sum   'Na4 Te2 P2 O22'
_cell_volume   482.26488012
_cell_formula_units_Z   2
loop_
 _symmetry_equiv_pos_site_id
 _symmetry_equiv_pos_as_xyz
  1  'x, y, z'
loop_
 _atom_site_type_symbol
 _atom_site_label
 _atom_site_symmetry_multiplicity
 _atom_site_fract_x
 _atom_site_fract_y
 _atom_site_fract_z
 _atom_site_occupancy
  P  P0  1  0.00000000  0.00000000  0.73057831  1.0
  P  P1  1  -0.00000000  -0.00000000  0.23057831  1.0
  O  O2  1  0.66666667  0.33333333  0.77771071  1.0
  O  O3  1  0.33333333  0.66666667  0.27771071  1.0
  O  O4  1  0.28445247  0.36125149  0.94713024  1.0
  O  O5  1  0.07679902  0.71554753  0.94713024  1.0
  O  O6  1  0.63874851  0.92320098  0.94713024  1.0
  O  O7  1  0.71554753  0.63874851  0.44713024  1.0
  O  O8  1  0.92320098  0.28445247  0.44713024  1.0
  O  O9  1  0.36125149  0.07679902  0.44713024  1.0
  O  O10  1  0.53706667  0.00101613  0.57214883  1.0
  O  O11  1  0.46394946  0.46293333  0.57214883  1.0
  O  O12  1  0.99898387  0.53605054  0.57214883  1.0
  O  O13  1  0.46293333  0.99898387  0.07214883  1.0
  O  O14  1  0.53605054  0.53706667  0.07214883  1.0
  O  O15  1  0.00101613  0.46394946  0.07214883  1.0
  O  O16  1  0.00000000  0.00000000  0.62831728  1.0
  O  O17  1  0.00000000  0.00000000  0.12831728  1.0
  O  O18  1  0.23083719  0.26117983  0.75811348  1.0
  O  O19  1  0.03034264  0.76916281  0.75811348  1.0
  O  O20  1  0.73882017  0.96965736  0.75811348  1.0
  O  O21  1  0.76916281  0.73882017  0.25811348  1.0
  O  O22  1  0.96965736  0.23083719  0.25811348  1.0
  O  O23  1  0.26117983  0.03034264  0.25811348  1.0
  Te  Te24  1  0.66666667  0.33333333  0.51241172  1.0
  Te  Te25  1  0.33333333  0.66666667  0.01241172  1.0
  Na  Na26  1  0.66666667  0.33333333  0.94811528  1.0
  Na  Na27  1  0.33333333  0.66666667  0.44811528  1.0
  Na  Na28  1  0.33333333  0.66666667  0.69088904  1.0
  Na  Na29  1  0.66666667  0.33333333  0.19088904  1.0
