# generated using pymatgen
data_Na10Be4Si4O17
_symmetry_space_group_name_H-M   'P 1'
_cell_length_a   7.36846068
_cell_length_b   7.36846068
_cell_length_c   7.36846068
_cell_angle_alpha   90.00000000
_cell_angle_beta   90.00000000
_cell_angle_gamma   90.00000000
_symmetry_Int_Tables_number   1
_chemical_formula_structural   Na10Be4Si4O17
_chemical_formula_sum   'Na10 Be4 Si4 O17'
_cell_volume   400.06477238
_cell_formula_units_Z   1
loop_
 _symmetry_equiv_pos_site_id
 _symmetry_equiv_pos_as_xyz
  1  'x, y, z'
loop_
 _atom_site_type_symbol
 _atom_site_label
 _atom_site_symmetry_multiplicity
 _atom_site_fract_x
 _atom_site_fract_y
 _atom_site_fract_z
 _atom_site_occupancy
  Na  Na0  1  0.34098008  0.34098008  0.65901992  1.0
  Na  Na1  1  0.34098008  0.65901992  0.34098008  1.0
  Na  Na2  1  0.65901992  0.34098008  0.34098008  1.0
  Na  Na3  1  0.65901992  0.65901992  0.65901992  1.0
  Na  Na4  1  0.50000000  0.00000000  0.00000000  1.0
  Na  Na5  1  0.00000000  0.50000000  0.00000000  1.0
  Na  Na6  1  0.00000000  0.00000000  0.50000000  1.0
  Na  Na7  1  0.00000000  0.50000000  0.50000000  1.0
  Na  Na8  1  0.50000000  0.00000000  0.50000000  1.0
  Na  Na9  1  0.50000000  0.50000000  0.00000000  1.0
  Be  Be10  1  0.13219237  0.13219237  0.86780763  1.0
  Be  Be11  1  0.13219237  0.86780763  0.13219237  1.0
  Be  Be12  1  0.86780763  0.13219237  0.13219237  1.0
  Be  Be13  1  0.86780763  0.86780763  0.86780763  1.0
  Si  Si14  1  0.78064687  0.78064687  0.21935313  1.0
  Si  Si15  1  0.78064687  0.21935313  0.78064687  1.0
  Si  Si16  1  0.21935313  0.78064687  0.78064687  1.0
  Si  Si17  1  0.21935313  0.21935313  0.21935313  1.0
  O  O18  1  0.74014649  0.74014649  -0.00019041  1.0
  O  O19  1  0.74014649  1.00019041  0.25985351  1.0
  O  O20  1  0.74014649  0.25985351  1.00019041  1.0
  O  O21  1  0.74014649  -0.00019041  0.74014649  1.0
  O  O22  1  1.00019041  0.74014649  0.25985351  1.0
  O  O23  1  1.00019041  0.25985351  0.74014649  1.0
  O  O24  1  0.25985351  0.74014649  1.00019041  1.0
  O  O25  1  0.25985351  1.00019041  0.74014649  1.0
  O  O26  1  0.25985351  0.25985351  -0.00019041  1.0
  O  O27  1  0.25985351  -0.00019041  0.25985351  1.0
  O  O28  1  -0.00019041  0.74014649  0.74014649  1.0
  O  O29  1  -0.00019041  0.25985351  0.25985351  1.0
  O  O30  1  0.65429052  0.65429052  0.34570948  1.0
  O  O31  1  0.65429052  0.34570948  0.65429052  1.0
  O  O32  1  0.34570948  0.65429052  0.65429052  1.0
  O  O33  1  0.34570948  0.34570948  0.34570948  1.0
  O  O34  1  0.00000000  0.00000000  0.00000000  1.0
