# generated using pymatgen
data_CoBMo
_symmetry_space_group_name_H-M   'P 1'
_cell_length_a   5.73615094
_cell_length_b   3.23946764
_cell_length_c   6.60151856
_cell_angle_alpha   90.00000000
_cell_angle_beta   90.00000000
_cell_angle_gamma   90.00000000
_symmetry_Int_Tables_number   1
_chemical_formula_structural   CoBMo
_chemical_formula_sum   'Co4 B4 Mo4'
_cell_volume   122.66991529
_cell_formula_units_Z   4
loop_
 _symmetry_equiv_pos_site_id
 _symmetry_equiv_pos_as_xyz
  1  'x, y, z'
loop_
 _atom_site_type_symbol
 _atom_site_label
 _atom_site_symmetry_multiplicity
 _atom_site_fract_x
 _atom_site_fract_y
 _atom_site_fract_z
 _atom_site_occupancy
  Co  Co0  1  0.85642297  0.75000000  0.05721067  1.0
  Co  Co1  1  0.35642297  0.75000000  0.44278933  1.0
  Co  Co2  1  0.14357703  0.25000000  0.94278933  1.0
  Co  Co3  1  0.64357703  0.25000000  0.55721067  1.0
  B  B4  1  0.72797467  0.75000000  0.37486902  1.0
  B  B5  1  0.22797467  0.75000000  0.12513098  1.0
  B  B6  1  0.27202533  0.25000000  0.62513098  1.0
  B  B7  1  0.77202533  0.25000000  0.87486902  1.0
  Mo  Mo8  1  0.97252295  0.75000000  0.67387850  1.0
  Mo  Mo9  1  0.47252295  0.75000000  0.82612150  1.0
  Mo  Mo10  1  0.02747705  0.25000000  0.32612150  1.0
  Mo  Mo11  1  0.52747705  0.25000000  0.17387850  1.0
