# generated using pymatgen
data_Ti3(BiO3)4
_symmetry_space_group_name_H-M   'P 1'
_cell_length_a   16.95597740
_cell_length_b   16.95597740
_cell_length_c   5.47424001
_cell_angle_alpha   90.00000000
_cell_angle_beta   90.00000000
_cell_angle_gamma   18.84225496
_symmetry_Int_Tables_number   1
_chemical_formula_structural   Ti3(BiO3)4
_chemical_formula_sum   'Ti6 Bi8 O24'
_cell_volume   508.30370081
_cell_formula_units_Z   2
loop_
 _symmetry_equiv_pos_site_id
 _symmetry_equiv_pos_as_xyz
  1  'x, y, z'
loop_
 _atom_site_type_symbol
 _atom_site_label
 _atom_site_symmetry_multiplicity
 _atom_site_fract_x
 _atom_site_fract_y
 _atom_site_fract_z
 _atom_site_occupancy
  Ti  Ti0  1  -0.42552989  0.42552989  0.50000000  1.0
  Ti  Ti1  1  0.07447011  -0.07447011  0.00000000  1.0
  Ti  Ti2  1  -0.30234725  0.55576145  0.50358701  1.0
  Ti  Ti3  1  -0.05576145  0.80234725  0.00358701  1.0
  Ti  Ti4  1  -0.55576145  1.30234725  0.49641299  1.0
  Ti  Ti5  1  -0.80234725  1.05576145  0.99641299  1.0
  Bi  Bi6  1  -0.31550644  0.44713226  0.00235065  1.0
  Bi  Bi7  1  0.05286774  0.81550644  0.50235065  1.0
  Bi  Bi8  1  -0.44713226  1.31550644  0.99764935  1.0
  Bi  Bi9  1  -0.81550644  0.94713226  0.49764935  1.0
  Bi  Bi10  1  -0.05113732  0.62818959  0.52505018  1.0
  Bi  Bi11  1  -0.12818959  0.55113732  0.02505018  1.0
  Bi  Bi12  1  -0.62818959  1.05113732  0.47494982  1.0
  Bi  Bi13  1  -0.55113732  1.12818959  0.97494982  1.0
  O  O14  1  0.07856461  0.03692563  0.92624364  1.0
  O  O15  1  0.46307437  0.42143539  0.42624364  1.0
  O  O16  1  -0.03692563  0.92143539  0.07375636  1.0
  O  O17  1  -0.42143539  0.53692563  0.57375636  1.0
  O  O18  1  -0.11717703  0.76002824  0.93694963  1.0
  O  O19  1  -0.26002824  0.61717703  0.43694963  1.0
  O  O20  1  -0.76002824  1.11717703  0.06305037  1.0
  O  O21  1  -0.61717703  1.26002824  0.56305037  1.0
  O  O22  1  0.20961733  0.57256279  0.77492952  1.0
  O  O23  1  -0.07256279  0.29038267  0.27492952  1.0
  O  O24  1  -0.57256279  0.79038267  0.22507048  1.0
  O  O25  1  -0.29038267  1.07256279  0.72507048  1.0
  O  O26  1  0.12984708  0.36941153  0.76143758  1.0
  O  O27  1  0.13058847  0.37015292  0.26143758  1.0
  O  O28  1  -0.36941153  0.87015292  0.23856242  1.0
  O  O29  1  -0.37015292  0.86941153  0.73856242  1.0
  O  O30  1  0.27577195  0.70477623  0.74700098  1.0
  O  O31  1  -0.20477623  0.22422805  0.24700098  1.0
  O  O32  1  -0.70477623  0.72422805  0.25299902  1.0
  O  O33  1  -0.22422805  1.20477623  0.75299902  1.0
  O  O34  1  -0.11861280  0.36530254  0.79364637  1.0
  O  O35  1  0.13469746  0.61861280  0.29364637  1.0
  O  O36  1  -0.36530254  1.11861280  0.20635363  1.0
  O  O37  1  -0.61861280  0.86530254  0.70635363  1.0
