# generated using pymatgen
data_SbC2N2F5
_symmetry_space_group_name_H-M   'P 1'
_cell_length_a   9.16565860
_cell_length_b   9.16565860
_cell_length_c   6.74605510
_cell_angle_alpha   90.00000000
_cell_angle_beta   90.00000000
_cell_angle_gamma   136.28163535
_symmetry_Int_Tables_number   1
_chemical_formula_structural   SbC2N2F5
_chemical_formula_sum   'Sb2 C4 N4 F10'
_cell_volume   391.67602943
_cell_formula_units_Z   2
loop_
 _symmetry_equiv_pos_site_id
 _symmetry_equiv_pos_as_xyz
  1  'x, y, z'
loop_
 _atom_site_type_symbol
 _atom_site_label
 _atom_site_symmetry_multiplicity
 _atom_site_fract_x
 _atom_site_fract_y
 _atom_site_fract_z
 _atom_site_occupancy
  Sb  Sb0  1  0.13268580  0.86731420  0.75000000  1.0
  Sb  Sb1  1  -0.13268580  0.13268580  0.25000000  1.0
  C  C2  1  0.33300726  0.66699274  0.75000000  1.0
  C  C3  1  -0.33300726  0.33300726  0.25000000  1.0
  C  C4  1  0.41358262  0.58641738  0.75000000  1.0
  C  C5  1  -0.41358262  0.41358262  0.25000000  1.0
  N  N6  1  0.26502314  0.73497686  0.75000000  1.0
  N  N7  1  -0.26502314  0.26502314  0.25000000  1.0
  N  N8  1  0.48207033  0.51792967  0.75000000  1.0
  N  N9  1  -0.48207033  0.48207033  0.25000000  1.0
  F  F10  1  -0.04597577  0.66475536  0.54498901  1.0
  F  F11  1  0.66475536  0.95402423  0.45501099  1.0
  F  F12  1  0.33524464  1.04597577  0.95501099  1.0
  F  F13  1  0.04597577  0.33524464  0.04498901  1.0
  F  F14  1  -0.05778169  0.65276643  0.94293353  1.0
  F  F15  1  0.65276643  0.94221831  0.05706647  1.0
  F  F16  1  0.34723357  1.05778169  0.55706647  1.0
  F  F17  1  0.05778169  0.34723357  0.44293353  1.0
  F  F18  1  0.02143956  0.97856044  0.75000000  1.0
  F  F19  1  -0.02143956  0.02143956  0.25000000  1.0
