# generated using pymatgen
data_Li2S5O16
_symmetry_space_group_name_H-M   'P 1'
_cell_length_a   10.25563880
_cell_length_b   10.25563880
_cell_length_c   10.28120944
_cell_angle_alpha   74.47358609
_cell_angle_beta   105.52641391
_cell_angle_gamma   140.85480189
_symmetry_Int_Tables_number   1
_chemical_formula_structural   Li2S5O16
_chemical_formula_sum   'Li4 S10 O32'
_cell_volume   654.51989305
_cell_formula_units_Z   2
loop_
 _symmetry_equiv_pos_site_id
 _symmetry_equiv_pos_as_xyz
  1  'x, y, z'
loop_
 _atom_site_type_symbol
 _atom_site_label
 _atom_site_symmetry_multiplicity
 _atom_site_fract_x
 _atom_site_fract_y
 _atom_site_fract_z
 _atom_site_occupancy
  Li  Li0  1  1.00000000  0.50000000  -0.00000000  1.0
  Li  Li1  1  0.50000000  -0.00000000  0.50000000  1.0
  Li  Li2  1  -0.00000000  0.00000000  0.50000000  1.0
  Li  Li3  1  0.00000000  0.00000000  0.00000000  1.0
  S  S4  1  0.50622029  0.26460941  0.88358418  1.0
  S  S5  1  1.26460941  0.50622029  0.61641582  1.0
  S  S6  1  0.49377971  -0.26460941  0.11641582  1.0
  S  S7  1  0.73539059  0.49377971  0.38358418  1.0
  S  S8  1  0.22031968  -0.09960200  0.71894371  1.0
  S  S9  1  0.90039800  0.22031968  0.78105629  1.0
  S  S10  1  0.77968032  0.09960200  0.28105629  1.0
  S  S11  1  1.09960200  0.77968032  0.21894371  1.0
  S  S12  1  0.64296351  0.64296351  0.75000000  1.0
  S  S13  1  0.35703649  0.35703649  0.25000000  1.0
  O  O14  1  0.47052589  0.12569524  0.81043114  1.0
  O  O15  1  1.12569524  0.47052589  0.68956886  1.0
  O  O16  1  0.52947411  -0.12569524  0.18956886  1.0
  O  O17  1  0.87430476  0.52947411  0.31043114  1.0
  O  O18  1  0.72426094  -0.23916019  0.62230343  1.0
  O  O19  1  0.76083981  0.72426094  0.87769657  1.0
  O  O20  1  0.27573906  0.23916019  0.37769657  1.0
  O  O21  1  1.23916019  0.27573906  0.12230343  1.0
  O  O22  1  0.14872335  -0.01808301  0.64944104  1.0
  O  O23  1  0.98191699  0.14872335  0.85055896  1.0
  O  O24  1  0.85127665  0.01808301  0.35055896  1.0
  O  O25  1  1.01808301  0.85127665  0.14944104  1.0
  O  O26  1  0.30673849  -0.11163106  0.63937204  1.0
  O  O27  1  0.88836894  0.30673849  0.86062796  1.0
  O  O28  1  0.69326151  0.11163106  0.36062796  1.0
  O  O29  1  1.11163106  0.69326151  0.13937204  1.0
  O  O30  1  0.32328937  0.16855959  0.92874181  1.0
  O  O31  1  1.16855959  0.32328937  0.57125819  1.0
  O  O32  1  0.67671063  -0.16855959  0.07125819  1.0
  O  O33  1  0.83144041  0.67671063  0.42874181  1.0
  O  O34  1  0.56241746  0.43363255  0.74343272  1.0
  O  O35  1  1.43363255  0.56241746  0.75656728  1.0
  O  O36  1  0.43758254  -0.43363255  0.25656728  1.0
  O  O37  1  0.56636745  0.43758254  0.24343272  1.0
  O  O38  1  1.10754040  0.74245756  0.83047907  1.0
  O  O39  1  0.74245756  0.10754040  0.66952093  1.0
  O  O40  1  0.89245960  0.25754244  0.16952093  1.0
  O  O41  1  0.25754244  -0.10754040  0.33047907  1.0
  O  O42  1  0.69477046  0.37846675  0.97268805  1.0
  O  O43  1  0.37846675  -0.30522954  0.52731195  1.0
  O  O44  1  1.30522954  0.62153325  0.02731195  1.0
  O  O45  1  0.62153325  0.30522954  0.47268805  1.0
