# generated using pymatgen
data_LuSeO3F
_symmetry_space_group_name_H-M   'P 1'
_cell_length_a   6.57811937
_cell_length_b   6.96748133
_cell_length_c   7.18657878
_cell_angle_alpha   90.00000000
_cell_angle_beta   97.97503460
_cell_angle_gamma   90.00000000
_symmetry_Int_Tables_number   1
_chemical_formula_structural   LuSeO3F
_chemical_formula_sum   'Lu4 Se4 O12 F4'
_cell_volume   326.19633976
_cell_formula_units_Z   4
loop_
 _symmetry_equiv_pos_site_id
 _symmetry_equiv_pos_as_xyz
  1  'x, y, z'
loop_
 _atom_site_type_symbol
 _atom_site_label
 _atom_site_symmetry_multiplicity
 _atom_site_fract_x
 _atom_site_fract_y
 _atom_site_fract_z
 _atom_site_occupancy
  Lu  Lu0  1  0.86147945  0.85973062  0.67344666  1.0
  Lu  Lu1  1  0.86147945  0.64026938  0.17344666  1.0
  Lu  Lu2  1  0.13852055  0.35973062  0.82655334  1.0
  Lu  Lu3  1  0.13852055  0.14026938  0.32655334  1.0
  Se  Se4  1  0.35045658  0.87744532  0.78778821  1.0
  Se  Se5  1  0.35045658  0.62255468  0.28778821  1.0
  Se  Se6  1  0.64954342  0.37744532  0.71221179  1.0
  Se  Se7  1  0.64954342  0.12255468  0.21221179  1.0
  O  O8  1  0.82728311  0.52652897  0.85359934  1.0
  O  O9  1  0.82728311  0.97347103  0.35359934  1.0
  O  O10  1  0.17271689  0.02652897  0.64640066  1.0
  O  O11  1  0.17271689  0.47347103  0.14640066  1.0
  O  O12  1  0.82635279  0.19045581  0.72402256  1.0
  O  O13  1  0.82635279  0.30954419  0.22402256  1.0
  O  O14  1  0.17364721  0.69045581  0.77597744  1.0
  O  O15  1  0.17364721  0.80954419  0.27597744  1.0
  O  O16  1  0.51860822  0.81230656  0.63845223  1.0
  O  O17  1  0.51860822  0.68769344  0.13845223  1.0
  O  O18  1  0.48139178  0.31230656  0.86154777  1.0
  O  O19  1  0.48139178  0.18769344  0.36154777  1.0
  F  F20  1  0.83567557  0.87710344  0.97207158  1.0
  F  F21  1  0.83567557  0.62289656  0.47207158  1.0
  F  F22  1  0.16432443  0.37710344  0.52792842  1.0
  F  F23  1  0.16432443  0.12289656  0.02792842  1.0
