# generated using pymatgen
data_Sr3(GeP2)2
_symmetry_space_group_name_H-M   'P 1'
_cell_length_a   7.49915475
_cell_length_b   18.26514695
_cell_length_c   7.30893661
_cell_angle_alpha   90.00000000
_cell_angle_beta   112.05787213
_cell_angle_gamma   90.00000000
_symmetry_Int_Tables_number   1
_chemical_formula_structural   Sr3(GeP2)2
_chemical_formula_sum   'Sr12 Ge8 P16'
_cell_volume   927.85059997
_cell_formula_units_Z   4
loop_
 _symmetry_equiv_pos_site_id
 _symmetry_equiv_pos_as_xyz
  1  'x, y, z'
loop_
 _atom_site_type_symbol
 _atom_site_label
 _atom_site_symmetry_multiplicity
 _atom_site_fract_x
 _atom_site_fract_y
 _atom_site_fract_z
 _atom_site_occupancy
  Sr  Sr0  1  0.78317379  0.18440353  0.98939134  1.0
  Sr  Sr1  1  0.78317379  0.31559647  0.48939134  1.0
  Sr  Sr2  1  0.21682621  0.68440353  0.51060866  1.0
  Sr  Sr3  1  0.21682621  0.81559647  0.01060866  1.0
  Sr  Sr4  1  0.74357592  0.43674019  0.98869504  1.0
  Sr  Sr5  1  0.74357592  0.06325981  0.48869504  1.0
  Sr  Sr6  1  0.25642408  0.93674019  0.51130496  1.0
  Sr  Sr7  1  0.25642408  0.56325981  0.01130496  1.0
  Sr  Sr8  1  0.73917920  0.94130263  0.99506548  1.0
  Sr  Sr9  1  0.73917920  0.55869737  0.49506548  1.0
  Sr  Sr10  1  0.26082080  0.44130263  0.50493452  1.0
  Sr  Sr11  1  0.26082080  0.05869737  0.00493452  1.0
  Ge  Ge12  1  0.78832120  0.62720648  0.97292500  1.0
  Ge  Ge13  1  0.78832120  0.87279352  0.47292500  1.0
  Ge  Ge14  1  0.21167880  0.12720648  0.52707500  1.0
  Ge  Ge15  1  0.21167880  0.37279352  0.02707500  1.0
  Ge  Ge16  1  0.68607204  0.75849142  0.59083490  1.0
  Ge  Ge17  1  0.68607204  0.74150858  0.09083490  1.0
  Ge  Ge18  1  0.31392796  0.25849142  0.90916510  1.0
  Ge  Ge19  1  0.31392796  0.24150858  0.40916510  1.0
  P  P20  1  0.99067630  0.93958740  0.74318590  1.0
  P  P21  1  0.99067630  0.56041260  0.24318590  1.0
  P  P22  1  0.00932370  0.43958740  0.75681410  1.0
  P  P23  1  0.00932370  0.06041260  0.25681410  1.0
  P  P24  1  0.95374455  0.68487218  0.78138330  1.0
  P  P25  1  0.95374455  0.81512782  0.28138330  1.0
  P  P26  1  0.04625545  0.18487218  0.71861670  1.0
  P  P27  1  0.04625545  0.31512782  0.21861670  1.0
  P  P28  1  0.50882647  0.56821135  0.76128010  1.0
  P  P29  1  0.50882647  0.93178865  0.26128010  1.0
  P  P30  1  0.49117353  0.06821135  0.73871990  1.0
  P  P31  1  0.49117353  0.43178865  0.23871990  1.0
  P  P32  1  0.50268218  0.79966779  0.78099805  1.0
  P  P33  1  0.50268218  0.70033221  0.28099805  1.0
  P  P34  1  0.49731782  0.29966779  0.71900195  1.0
  P  P35  1  0.49731782  0.20033221  0.21900195  1.0
