# generated using pymatgen
data_Mn(FeO2)2
_symmetry_space_group_name_H-M   'P 1'
_cell_length_a   5.97733024
_cell_length_b   5.97733024
_cell_length_c   5.97733024
_cell_angle_alpha   60.00000000
_cell_angle_beta   60.00000000
_cell_angle_gamma   60.00000000
_symmetry_Int_Tables_number   1
_chemical_formula_structural   Mn(FeO2)2
_chemical_formula_sum   'Mn2 Fe4 O8'
_cell_volume   151.01036369
_cell_formula_units_Z   2
loop_
 _symmetry_equiv_pos_site_id
 _symmetry_equiv_pos_as_xyz
  1  'x, y, z'
loop_
 _atom_site_type_symbol
 _atom_site_label
 _atom_site_symmetry_multiplicity
 _atom_site_fract_x
 _atom_site_fract_y
 _atom_site_fract_z
 _atom_site_occupancy
  Mn  Mn0  1  0.75000000  -0.25000000  0.75000000  1.0
  Mn  Mn1  1  0.50000000  0.50000000  -0.50000000  1.0
  Fe  Fe2  1  0.12500000  0.12500000  1.62500000  1.0
  Fe  Fe3  1  0.12500000  0.62500000  0.12500000  1.0
  Fe  Fe4  1  0.62500000  0.12500000  1.12500000  1.0
  Fe  Fe5  1  0.12500000  0.12500000  0.12500000  1.0
  O  O6  1  0.36869724  0.36869724  -0.10609172  1.0
  O  O7  1  0.36869724  -0.10609172  0.36869724  1.0
  O  O8  1  -0.10609172  0.36869724  0.36869724  1.0
  O  O9  1  0.36869724  0.36869724  0.36869724  1.0
  O  O10  1  -0.11869724  0.88130276  0.35609172  1.0
  O  O11  1  0.88130276  -0.64390828  0.88130276  1.0
  O  O12  1  -0.64390828  0.88130276  0.88130276  1.0
  O  O13  1  0.88130276  -0.11869724  0.88130276  1.0
