# generated using pymatgen
data_SrBiBrO2
_symmetry_space_group_name_H-M   'P 1'
_cell_length_a   7.21139551
_cell_length_b   7.21139551
_cell_length_c   5.73069982
_cell_angle_alpha   90.00000000
_cell_angle_beta   90.00000000
_cell_angle_gamma   132.16629535
_symmetry_Int_Tables_number   1
_chemical_formula_structural   SrBiBrO2
_chemical_formula_sum   'Sr2 Bi2 Br2 O4'
_cell_volume   220.89275614
_cell_formula_units_Z   2
loop_
 _symmetry_equiv_pos_site_id
 _symmetry_equiv_pos_as_xyz
  1  'x, y, z'
loop_
 _atom_site_type_symbol
 _atom_site_label
 _atom_site_symmetry_multiplicity
 _atom_site_fract_x
 _atom_site_fract_y
 _atom_site_fract_z
 _atom_site_occupancy
  Sr  Sr0  1  0.39935559  0.60064441  0.75000000  1.0
  Sr  Sr1  1  -0.39935559  0.39935559  0.25000000  1.0
  Bi  Bi2  1  0.07757769  0.92242231  0.75000000  1.0
  Bi  Bi3  1  -0.07757769  0.07757769  0.25000000  1.0
  Br  Br4  1  -0.25626434  0.25626434  0.75000000  1.0
  Br  Br5  1  0.25626434  0.74373566  0.25000000  1.0
  O  O6  1  0.76615117  0.76615117  0.00000000  1.0
  O  O7  1  0.76615117  0.76615117  0.50000000  1.0
  O  O8  1  0.23384883  0.23384883  0.00000000  1.0
  O  O9  1  0.23384883  0.23384883  0.50000000  1.0
