# generated using pymatgen
data_K2Sn(SO4)2
_symmetry_space_group_name_H-M   'P 1'
_cell_length_a   7.74036741
_cell_length_b   7.74036741
_cell_length_c   7.74036741
_cell_angle_alpha   42.16224933
_cell_angle_beta   42.16224933
_cell_angle_gamma   42.16224933
_symmetry_Int_Tables_number   1
_chemical_formula_structural   K2Sn(SO4)2
_chemical_formula_sum   'K2 Sn1 S2 O8'
_cell_volume   189.06633375
_cell_formula_units_Z   1
loop_
 _symmetry_equiv_pos_site_id
 _symmetry_equiv_pos_as_xyz
  1  'x, y, z'
loop_
 _atom_site_type_symbol
 _atom_site_label
 _atom_site_symmetry_multiplicity
 _atom_site_fract_x
 _atom_site_fract_y
 _atom_site_fract_z
 _atom_site_occupancy
  K  K0  1  0.79701118  0.79701118  0.79701118  1.0
  K  K1  1  1.20298882  1.20298882  0.20298882  1.0
  Sn  Sn2  1  0.00000000  0.00000000  0.00000000  1.0
  S  S3  1  1.60036725  0.60036725  0.60036725  1.0
  S  S4  1  1.39963275  0.39963275  0.39963275  1.0
  O  O5  1  1.27704121  0.27704121  0.71816155  1.0
  O  O6  1  1.27704121  0.71816155  0.27704121  1.0
  O  O7  1  1.28183845  0.72295879  0.72295879  1.0
  O  O8  1  1.72295879  0.28183845  0.72295879  1.0
  O  O9  1  1.72295879  0.72295879  0.28183845  1.0
  O  O10  1  1.71816155  0.27704121  0.27704121  1.0
  O  O11  1  0.67054646  0.67054646  0.67054646  1.0
  O  O12  1  1.32945354  1.32945354  0.32945354  1.0
