# generated using pymatgen
data_Zr4(AlC2)3
_symmetry_space_group_name_H-M   'P 1'
_cell_length_a   3.35402321
_cell_length_b   3.35402321
_cell_length_c   33.09705980
_cell_angle_alpha   90.00000000
_cell_angle_beta   90.00000000
_cell_angle_gamma   120.00000000
_symmetry_Int_Tables_number   1
_chemical_formula_structural   Zr4(AlC2)3
_chemical_formula_sum   'Zr8 Al6 C12'
_cell_volume   322.44242112
_cell_formula_units_Z   2
loop_
 _symmetry_equiv_pos_site_id
 _symmetry_equiv_pos_as_xyz
  1  'x, y, z'
loop_
 _atom_site_type_symbol
 _atom_site_label
 _atom_site_symmetry_multiplicity
 _atom_site_fract_x
 _atom_site_fract_y
 _atom_site_fract_z
 _atom_site_occupancy
  Zr  Zr0  1  0.33333333  0.66666667  0.45995143  1.0
  Zr  Zr1  1  0.66666667  0.33333333  0.54004857  1.0
  Zr  Zr2  1  0.66666667  0.33333333  0.95995143  1.0
  Zr  Zr3  1  0.33333333  0.66666667  0.04004857  1.0
  Zr  Zr4  1  0.00000000  0.00000000  0.37971367  1.0
  Zr  Zr5  1  0.00000000  0.00000000  0.62028633  1.0
  Zr  Zr6  1  0.00000000  0.00000000  0.87971367  1.0
  Zr  Zr7  1  0.00000000  0.00000000  0.12028633  1.0
  Al  Al8  1  0.66666667  0.33333333  0.31122650  1.0
  Al  Al9  1  0.33333333  0.66666667  0.68877350  1.0
  Al  Al10  1  0.33333333  0.66666667  0.81122650  1.0
  Al  Al11  1  0.66666667  0.33333333  0.18877350  1.0
  Al  Al12  1  0.33333333  0.66666667  0.25000000  1.0
  Al  Al13  1  0.66666667  0.33333333  0.75000000  1.0
  C  C14  1  0.00000000  0.00000000  0.50000000  1.0
  C  C15  1  0.00000000  0.00000000  0.00000000  1.0
  C  C16  1  0.66666667  0.33333333  0.41720714  1.0
  C  C17  1  0.33333333  0.66666667  0.58279286  1.0
  C  C18  1  0.33333333  0.66666667  0.91720714  1.0
  C  C19  1  0.66666667  0.33333333  0.08279286  1.0
  C  C20  1  0.33333333  0.66666667  0.33224770  1.0
  C  C21  1  0.66666667  0.33333333  0.66775230  1.0
  C  C22  1  0.66666667  0.33333333  0.83224770  1.0
  C  C23  1  0.33333333  0.66666667  0.16775230  1.0
  C  C24  1  0.66666667  0.33333333  0.25000000  1.0
  C  C25  1  0.33333333  0.66666667  0.75000000  1.0
