# generated using pymatgen
data_Na(PdCl)2
_symmetry_space_group_name_H-M   'P 1'
_cell_length_a   11.92400309
_cell_length_b   11.92400309
_cell_length_c   6.45541027
_cell_angle_alpha   90.00000000
_cell_angle_beta   90.00000000
_cell_angle_gamma   90.00000000
_symmetry_Int_Tables_number   1
_chemical_formula_structural   Na(PdCl)2
_chemical_formula_sum   'Na8 Pd16 Cl16'
_cell_volume   917.84217231
_cell_formula_units_Z   8
loop_
 _symmetry_equiv_pos_site_id
 _symmetry_equiv_pos_as_xyz
  1  'x, y, z'
loop_
 _atom_site_type_symbol
 _atom_site_label
 _atom_site_symmetry_multiplicity
 _atom_site_fract_x
 _atom_site_fract_y
 _atom_site_fract_z
 _atom_site_occupancy
  Na  Na0  1  0.21508396  0.78491604  0.75000000  1.0
  Na  Na1  1  0.21508396  0.21508396  0.25000000  1.0
  Na  Na2  1  0.71508396  0.28491604  0.25000000  1.0
  Na  Na3  1  0.71508396  0.71508396  0.75000000  1.0
  Na  Na4  1  0.78491604  0.21508396  0.75000000  1.0
  Na  Na5  1  0.78491604  0.78491604  0.25000000  1.0
  Na  Na6  1  0.28491604  0.71508396  0.25000000  1.0
  Na  Na7  1  0.28491604  0.28491604  0.75000000  1.0
  Pd  Pd8  1  0.12971850  0.01042965  0.87178449  1.0
  Pd  Pd9  1  0.12971850  0.98957035  0.37178449  1.0
  Pd  Pd10  1  0.62971850  0.51042965  0.12821551  1.0
  Pd  Pd11  1  0.62971850  0.48957035  0.62821551  1.0
  Pd  Pd12  1  0.01042965  0.12971850  0.62821551  1.0
  Pd  Pd13  1  0.01042965  0.87028150  0.12821551  1.0
  Pd  Pd14  1  0.51042965  0.62971850  0.37178449  1.0
  Pd  Pd15  1  0.51042965  0.37028150  0.87178449  1.0
  Pd  Pd16  1  0.87028150  0.01042965  0.37178449  1.0
  Pd  Pd17  1  0.87028150  0.98957035  0.87178449  1.0
  Pd  Pd18  1  0.37028150  0.51042965  0.62821551  1.0
  Pd  Pd19  1  0.37028150  0.48957035  0.12821551  1.0
  Pd  Pd20  1  0.98957035  0.12971850  0.12821551  1.0
  Pd  Pd21  1  0.98957035  0.87028150  0.62821551  1.0
  Pd  Pd22  1  0.48957035  0.62971850  0.87178449  1.0
  Pd  Pd23  1  0.48957035  0.37028150  0.37178449  1.0
  Cl  Cl24  1  0.43424607  0.22800857  1.11205295  1.0
  Cl  Cl25  1  0.43424607  0.77199143  0.61205295  1.0
  Cl  Cl26  1  0.93424607  0.72800857  -0.11205295  1.0
  Cl  Cl27  1  0.93424607  0.27199143  0.38794705  1.0
  Cl  Cl28  1  0.22800857  0.43424607  0.38794705  1.0
  Cl  Cl29  1  0.22800857  0.56575393  -0.11205295  1.0
  Cl  Cl30  1  0.72800857  0.93424607  0.61205295  1.0
  Cl  Cl31  1  0.72800857  0.06575393  1.11205295  1.0
  Cl  Cl32  1  0.56575393  0.22800857  0.61205295  1.0
  Cl  Cl33  1  0.56575393  0.77199143  1.11205295  1.0
  Cl  Cl34  1  0.06575393  0.72800857  0.38794705  1.0
  Cl  Cl35  1  0.06575393  0.27199143  -0.11205295  1.0
  Cl  Cl36  1  0.77199143  0.43424607  -0.11205295  1.0
  Cl  Cl37  1  0.77199143  0.56575393  0.38794705  1.0
  Cl  Cl38  1  0.27199143  0.93424607  1.11205295  1.0
  Cl  Cl39  1  0.27199143  0.06575393  0.61205295  1.0
