# generated using pymatgen
data_Na3BN2
_symmetry_space_group_name_H-M   'P 1'
_cell_length_a   5.72857787
_cell_length_b   8.01161843
_cell_length_c   7.90385267
_cell_angle_alpha   90.00000000
_cell_angle_beta   111.10542394
_cell_angle_gamma   90.00000000
_symmetry_Int_Tables_number   1
_chemical_formula_structural   Na3BN2
_chemical_formula_sum   'Na12 B4 N8'
_cell_volume   338.41535661
_cell_formula_units_Z   4
loop_
 _symmetry_equiv_pos_site_id
 _symmetry_equiv_pos_as_xyz
  1  'x, y, z'
loop_
 _atom_site_type_symbol
 _atom_site_label
 _atom_site_symmetry_multiplicity
 _atom_site_fract_x
 _atom_site_fract_y
 _atom_site_fract_z
 _atom_site_occupancy
  Na  Na0  1  0.74005502  0.02201307  0.37758263  1.0
  Na  Na1  1  0.74005502  0.47798693  0.87758263  1.0
  Na  Na2  1  0.25994498  0.52201307  0.12241737  1.0
  Na  Na3  1  0.25994498  0.97798693  0.62241737  1.0
  Na  Na4  1  0.75065361  0.46891854  0.49165426  1.0
  Na  Na5  1  0.75065361  0.03108146  0.99165426  1.0
  Na  Na6  1  0.24934639  0.96891854  0.00834574  1.0
  Na  Na7  1  0.24934639  0.53108146  0.50834574  1.0
  Na  Na8  1  0.24127835  0.20812488  0.31332330  1.0
  Na  Na9  1  0.24127835  0.29187512  0.81332330  1.0
  Na  Na10  1  0.75872165  0.70812488  0.18667670  1.0
  Na  Na11  1  0.75872165  0.79187512  0.68667670  1.0
  B  B12  1  0.71484444  0.32201869  0.17646748  1.0
  B  B13  1  0.71484444  0.17798131  0.67646748  1.0
  B  B14  1  0.28515556  0.82201869  0.32353252  1.0
  B  B15  1  0.28515556  0.67798131  0.82353252  1.0
  N  N16  1  0.91614118  0.42494135  0.22399919  1.0
  N  N17  1  0.91614118  0.07505865  0.72399919  1.0
  N  N18  1  0.08385882  0.92494135  0.27600081  1.0
  N  N19  1  0.08385882  0.57505865  0.77600081  1.0
  N  N20  1  0.51217054  0.22052638  0.12911015  1.0
  N  N21  1  0.51217054  0.27947362  0.62911015  1.0
  N  N22  1  0.48782946  0.72052638  0.37088985  1.0
  N  N23  1  0.48782946  0.77947362  0.87088985  1.0
