# generated using pymatgen
data_Ca2Al2FeSi3O13
_symmetry_space_group_name_H-M   'P 1'
_cell_length_a   8.93500742
_cell_length_b   5.74255832
_cell_length_c   10.48167050
_cell_angle_alpha   90.00000000
_cell_angle_beta   116.33935802
_cell_angle_gamma   90.00000000
_symmetry_Int_Tables_number   1
_chemical_formula_structural   Ca2Al2FeSi3O13
_chemical_formula_sum   'Ca4 Al4 Fe2 Si6 O26'
_cell_volume   481.97774452
_cell_formula_units_Z   2
loop_
 _symmetry_equiv_pos_site_id
 _symmetry_equiv_pos_as_xyz
  1  'x, y, z'
loop_
 _atom_site_type_symbol
 _atom_site_label
 _atom_site_symmetry_multiplicity
 _atom_site_fract_x
 _atom_site_fract_y
 _atom_site_fract_z
 _atom_site_occupancy
  Fe  Fe0  1  0.70749319  0.75000000  0.26786799  1.0
  Fe  Fe1  1  0.29250681  0.25000000  0.73213201  1.0
  Si  Si2  1  0.18277021  0.75000000  0.81309003  1.0
  Si  Si3  1  0.81722979  0.25000000  0.18690997  1.0
  Si  Si4  1  0.31919021  0.75000000  0.23487647  1.0
  Si  Si5  1  0.68080979  0.25000000  0.76512353  1.0
  Si  Si6  1  0.33896977  0.75000000  0.54575880  1.0
  Si  Si7  1  0.66103023  0.25000000  0.45424120  1.0
  Al  Al8  1  0.00000000  0.00000000  0.00000000  1.0
  Al  Al9  1  0.00000000  0.50000000  0.00000000  1.0
  Al  Al10  1  -0.00000000  0.00000000  0.50000000  1.0
  Al  Al11  1  -0.00000000  0.50000000  0.50000000  1.0
  Ca  Ca12  1  0.63288067  0.75000000  0.92517388  1.0
  Ca  Ca13  1  0.36711933  0.25000000  0.07482612  1.0
  Ca  Ca14  1  0.75587062  0.75000000  0.65222041  1.0
  Ca  Ca15  1  0.24412938  0.25000000  0.34777959  1.0
  O  O16  1  0.21030338  -0.01616959  0.16856524  1.0
  O  O17  1  0.21030338  0.51616959  0.16856524  1.0
  O  O18  1  0.78969662  0.48383041  0.83143476  1.0
  O  O19  1  0.78969662  0.01616959  0.83143476  1.0
  O  O20  1  0.22651916  -0.01105963  0.52978142  1.0
  O  O21  1  0.22651916  0.51105963  0.52978142  1.0
  O  O22  1  0.77348084  0.48894037  0.47021858  1.0
  O  O23  1  0.77348084  0.01105963  0.47021858  1.0
  O  O24  1  0.04380361  0.75000000  0.64085790  1.0
  O  O25  1  0.95619639  0.25000000  0.35914210  1.0
  O  O26  1  0.07536993  0.75000000  0.90442316  1.0
  O  O27  1  0.92463007  0.25000000  0.09557684  1.0
  O  O28  1  0.38747946  0.75000000  0.40942050  1.0
  O  O29  1  0.61252054  0.25000000  0.59057950  1.0
  O  O30  1  0.51296244  0.75000000  0.68362566  1.0
  O  O31  1  0.48703756  0.25000000  0.31637434  1.0
  O  O32  1  0.91453355  0.75000000  0.05329557  1.0
  O  O33  1  0.08546645  0.25000000  0.94670443  1.0
  O  O34  1  0.30741355  -0.01929913  0.84918467  1.0
  O  O35  1  0.30741355  0.51929913  0.84918467  1.0
  O  O36  1  0.69258645  0.48070087  0.15081533  1.0
  O  O37  1  0.69258645  0.01929913  0.15081533  1.0
  O  O38  1  0.93399606  0.75000000  0.36940845  1.0
  O  O39  1  0.06600394  0.25000000  0.63059155  1.0
  O  O40  1  0.48248688  0.75000000  0.20119688  1.0
  O  O41  1  0.51751312  0.25000000  0.79880312  1.0
