# generated using pymatgen
data_AlH7(CO2)4
_symmetry_space_group_name_H-M   'P 1'
_cell_length_a   8.06293662
_cell_length_b   7.62333750
_cell_length_c   7.62379072
_cell_angle_alpha   115.82942581
_cell_angle_beta   107.88941062
_cell_angle_gamma   93.51229196
_symmetry_Int_Tables_number   1
_chemical_formula_structural   AlH7(CO2)4
_chemical_formula_sum   'Al2 H14 C8 O16'
_cell_volume   390.84790982
_cell_formula_units_Z   2
loop_
 _symmetry_equiv_pos_site_id
 _symmetry_equiv_pos_as_xyz
  1  'x, y, z'
loop_
 _atom_site_type_symbol
 _atom_site_label
 _atom_site_symmetry_multiplicity
 _atom_site_fract_x
 _atom_site_fract_y
 _atom_site_fract_z
 _atom_site_occupancy
  Al  Al0  1  0.89611522  0.81367978  0.80456588  1.0
  Al  Al1  1  0.10388478  0.18632022  0.19543412  1.0
  H  H2  1  0.86100346  0.92006127  0.14966340  1.0
  H  H3  1  0.13899654  0.07993873  0.85033660  1.0
  H  H4  1  0.64346652  0.54914421  0.76114708  1.0
  H  H5  1  0.35653348  0.45085579  0.23885292  1.0
  H  H6  1  0.80489089  0.44003000  0.70323712  1.0
  H  H7  1  0.19510911  0.55997000  0.29676288  1.0
  H  H8  1  0.94289948  0.72837138  0.45751965  1.0
  H  H9  1  0.05710052  0.27162862  0.54248035  1.0
  H  H10  1  0.73411307  0.63599707  0.40211549  1.0
  H  H11  1  0.26588693  0.36400292  0.59788451  1.0
  H  H12  1  0.79244317  0.12124320  0.49085917  1.0
  H  H13  1  0.20755683  0.87875680  0.50914083  1.0
  H  H14  1  0.92194528  0.18006289  0.72317251  1.0
  H  H15  1  0.07805472  0.81993711  0.27682749  1.0
  C  C16  1  0.47694842  0.13710873  0.87603079  1.0
  C  C17  1  0.52305158  0.86289127  0.12396921  1.0
  C  C18  1  0.64226231  0.06408929  0.87734598  1.0
  C  C19  1  0.35773769  0.93591071  0.12265402  1.0
  C  C20  1  0.41662698  0.67976352  0.92319582  1.0
  C  C21  1  0.58337302  0.32023648  0.07680418  1.0
  C  C22  1  0.25415152  0.75371356  0.92920813  1.0
  C  C23  1  0.74584848  0.24628644  0.07079187  1.0
  O  O24  1  0.96223689  0.92854826  0.10347644  1.0
  O  O25  1  0.03776311  0.07145174  0.89652356  1.0
  O  O26  1  0.76012271  0.56689534  0.74293782  1.0
  O  O27  1  0.23987729  0.43310466  0.25706218  1.0
  O  O28  1  0.84713415  0.73524699  0.51587004  1.0
  O  O29  1  0.15286585  0.26475301  0.48412996  1.0
  O  O30  1  0.09246955  0.68544594  0.80328845  1.0
  O  O31  1  0.90753045  0.31455406  0.19671155  1.0
  O  O32  1  0.67415362  0.90053053  0.76339883  1.0
  O  O33  1  0.32584638  0.09946947  0.23660117  1.0
  O  O34  1  0.31470894  0.06806712  0.76165820  1.0
  O  O35  1  0.68529106  0.93193288  0.23834180  1.0
  O  O36  1  0.44874590  0.52938473  0.79186239  1.0
  O  O37  1  0.55125410  0.47061527  0.20813761  1.0
  O  O38  1  0.88058810  0.23391151  0.62427932  1.0
  O  O39  1  0.11941190  0.76608849  0.37572068  1.0
