# generated using pymatgen
data_Ti4MnBi2
_symmetry_space_group_name_H-M   'P 1'
_cell_length_a   7.86244596
_cell_length_b   7.86244596
_cell_length_c   7.86244596
_cell_angle_alpha   95.80595972
_cell_angle_beta   95.80595972
_cell_angle_gamma   142.90916794
_symmetry_Int_Tables_number   1
_chemical_formula_structural   Ti4MnBi2
_chemical_formula_sum   'Ti8 Mn2 Bi4'
_cell_volume   277.90057976
_cell_formula_units_Z   2
loop_
 _symmetry_equiv_pos_site_id
 _symmetry_equiv_pos_as_xyz
  1  'x, y, z'
loop_
 _atom_site_type_symbol
 _atom_site_label
 _atom_site_symmetry_multiplicity
 _atom_site_fract_x
 _atom_site_fract_y
 _atom_site_fract_z
 _atom_site_occupancy
  Ti  Ti0  1  0.30809762  0.42002165  0.72811926  1.0
  Ti  Ti1  1  1.19190238  0.92002165  1.11192403  1.0
  Ti  Ti2  1  0.92002165  0.80809762  1.72811926  1.0
  Ti  Ti3  1  0.57997835  1.30809762  0.88807597  1.0
  Ti  Ti4  1  0.80809762  1.07997835  0.88807597  1.0
  Ti  Ti5  1  0.69190238  0.57997835  1.27188074  1.0
  Ti  Ti6  1  1.42002165  0.69190238  1.11192403  1.0
  Ti  Ti7  1  0.07997835  0.19190238  0.27188074  1.0
  Mn  Mn8  1  0.25000000  0.25000000  0.00000000  1.0
  Mn  Mn9  1  0.75000000  0.75000000  0.00000000  1.0
  Bi  Bi10  1  0.86083006  0.36083006  1.22166012  1.0
  Bi  Bi11  1  0.63916994  0.86083006  0.50000000  1.0
  Bi  Bi12  1  1.36083006  1.13916994  1.50000000  1.0
  Bi  Bi13  1  0.13916994  0.63916994  0.77833988  1.0
