# generated using pymatgen
data_SmC10
_symmetry_space_group_name_H-M   'P 1'
_cell_length_a   9.45801298
_cell_length_b   9.45801298
_cell_length_c   9.45801298
_cell_angle_alpha   109.47122063
_cell_angle_beta   109.47122063
_cell_angle_gamma   109.47122063
_symmetry_Int_Tables_number   1
_chemical_formula_structural   SmC10
_chemical_formula_sum   'Sm6 C60'
_cell_volume   651.29512381
_cell_formula_units_Z   6
loop_
 _symmetry_equiv_pos_site_id
 _symmetry_equiv_pos_as_xyz
  1  'x, y, z'
loop_
 _atom_site_type_symbol
 _atom_site_label
 _atom_site_symmetry_multiplicity
 _atom_site_fract_x
 _atom_site_fract_y
 _atom_site_fract_z
 _atom_site_occupancy
  Sm  Sm0  1  0.77069735  0.27069735  0.50000000  1.0
  Sm  Sm1  1  0.50000000  0.22930265  0.72930265  1.0
  Sm  Sm2  1  0.50000000  0.77069735  0.27069735  1.0
  Sm  Sm3  1  0.27069735  0.50000000  0.77069735  1.0
  Sm  Sm4  1  0.72930265  0.50000000  0.22930265  1.0
  Sm  Sm5  1  0.22930265  0.72930265  0.50000000  1.0
  C  C6  1  1.69655188  1.14747717  0.97527582  1.0
  C  C7  1  0.69655188  0.72127606  0.54907471  1.0
  C  C8  1  1.17220135  1.14747717  0.45092529  1.0
  C  C9  1  1.17220135  0.72127606  1.02472418  1.0
  C  C10  1  0.54907471  0.82779865  0.85252283  1.0
  C  C11  1  0.54907471  0.69655188  0.72127606  1.0
  C  C12  1  0.97527582  0.82779865  0.27872394  1.0
  C  C13  1  0.97527582  1.69655188  1.14747717  1.0
  C  C14  1  0.72127606  1.02472418  1.17220135  1.0
  C  C15  1  0.72127606  0.54907471  0.69655188  1.0
  C  C16  1  0.85252283  1.02472418  1.30344812  1.0
  C  C17  1  0.85252283  0.54907471  0.82779865  1.0
  C  C18  1  0.82779865  0.27872394  0.97527582  1.0
  C  C19  1  0.82779865  0.85252283  0.54907471  1.0
  C  C20  1  0.30344812  0.27872394  0.45092529  1.0
  C  C21  1  1.30344812  0.85252283  1.02472418  1.0
  C  C22  1  1.02472418  1.30344812  0.85252283  1.0
  C  C23  1  1.02472418  1.17220135  0.72127606  1.0
  C  C24  1  0.45092529  0.30344812  0.27872394  1.0
  C  C25  1  0.45092529  1.17220135  1.14747717  1.0
  C  C26  1  1.14747717  0.45092529  1.17220135  1.0
  C  C27  1  1.14747717  0.97527582  1.69655188  1.0
  C  C28  1  0.27872394  0.45092529  0.30344812  1.0
  C  C29  1  0.27872394  0.97527582  0.82779865  1.0
  C  C30  1  0.76053922  1.17381158  1.14913996  1.0
  C  C31  1  0.76053922  0.61139926  0.58672764  1.0
  C  C32  1  1.02467162  1.17381158  0.41327236  1.0
  C  C33  1  1.02467162  1.61139926  0.85086004  1.0
  C  C34  1  0.58672764  0.97532838  0.82618842  1.0
  C  C35  1  0.58672764  0.76053922  0.61139926  1.0
  C  C36  1  1.14913996  0.97532838  1.38860074  1.0
  C  C37  1  1.14913996  0.76053922  1.17381158  1.0
  C  C38  1  1.61139926  0.85086004  1.02467162  1.0
  C  C39  1  0.61139926  0.58672764  0.76053922  1.0
  C  C40  1  0.82618842  0.85086004  0.23946078  1.0
  C  C41  1  0.82618842  0.58672764  0.97532838  1.0
  C  C42  1  0.97532838  1.38860074  1.14913996  1.0
  C  C43  1  0.97532838  0.82618842  0.58672764  1.0
  C  C44  1  0.23946078  0.38860074  0.41327236  1.0
  C  C45  1  0.23946078  0.82618842  0.85086004  1.0
  C  C46  1  0.85086004  0.23946078  0.82618842  1.0
  C  C47  1  0.85086004  1.02467162  1.61139926  1.0
  C  C48  1  0.41327236  0.23946078  0.38860074  1.0
  C  C49  1  0.41327236  1.02467162  1.17381158  1.0
  C  C50  1  1.17381158  0.41327236  1.02467162  1.0
  C  C51  1  1.17381158  1.14913996  0.76053922  1.0
  C  C52  1  0.38860074  0.41327236  0.23946078  1.0
  C  C53  1  1.38860074  1.14913996  0.97532838  1.0
  C  C54  1  0.93388388  1.32192012  1.25580400  1.0
  C  C55  1  0.93388388  0.67807988  0.61196375  1.0
  C  C56  1  0.06611612  0.32192012  0.38803625  1.0
  C  C57  1  0.06611612  0.67807988  0.74419600  1.0
  C  C58  1  0.61196375  0.93388388  0.67807988  1.0
  C  C59  1  1.25580400  0.93388388  1.32192012  1.0
  C  C60  1  0.67807988  0.74419600  0.06611612  1.0
  C  C61  1  0.67807988  0.61196375  0.93388388  1.0
  C  C62  1  0.74419600  0.06611612  0.67807988  1.0
  C  C63  1  0.38803625  0.06611612  0.32192012  1.0
  C  C64  1  0.32192012  0.38803625  0.06611612  1.0
  C  C65  1  1.32192012  1.25580400  0.93388388  1.0
