# generated using pymatgen
data_CaIn2Pt
_symmetry_space_group_name_H-M   'P 1'
_cell_length_a   5.70278147
_cell_length_b   5.70278147
_cell_length_c   7.97794452
_cell_angle_alpha   90.00000000
_cell_angle_beta   90.00000000
_cell_angle_gamma   134.13775327
_symmetry_Int_Tables_number   1
_chemical_formula_structural   CaIn2Pt
_chemical_formula_sum   'Ca2 In4 Pt2'
_cell_volume   186.20348558
_cell_formula_units_Z   2
loop_
 _symmetry_equiv_pos_site_id
 _symmetry_equiv_pos_as_xyz
  1  'x, y, z'
loop_
 _atom_site_type_symbol
 _atom_site_label
 _atom_site_symmetry_multiplicity
 _atom_site_fract_x
 _atom_site_fract_y
 _atom_site_fract_z
 _atom_site_occupancy
  Ca  Ca0  1  0.43280063  0.56719937  0.75000000  1.0
  Ca  Ca1  1  -0.43280063  0.43280063  0.25000000  1.0
  In  In2  1  0.14397570  0.85602430  0.94805416  1.0
  In  In3  1  0.14397570  0.85602430  0.55194584  1.0
  In  In4  1  -0.14397570  0.14397570  0.44805416  1.0
  In  In5  1  -0.14397570  0.14397570  0.05194584  1.0
  Pt  Pt6  1  -0.28187979  0.28187979  0.75000000  1.0
  Pt  Pt7  1  0.28187979  0.71812021  0.25000000  1.0
