# generated using pymatgen
data_K2Ca2(CO3)3
_symmetry_space_group_name_H-M   'P 1'
_cell_length_a   8.16315974
_cell_length_b   8.16315974
_cell_length_c   8.16315974
_cell_angle_alpha   108.11232887
_cell_angle_beta   108.11232887
_cell_angle_gamma   108.11232887
_symmetry_Int_Tables_number   1
_chemical_formula_structural   K2Ca2(CO3)3
_chemical_formula_sum   'K4 Ca4 C6 O18'
_cell_volume   438.55167100
_cell_formula_units_Z   2
loop_
 _symmetry_equiv_pos_site_id
 _symmetry_equiv_pos_as_xyz
  1  'x, y, z'
loop_
 _atom_site_type_symbol
 _atom_site_label
 _atom_site_symmetry_multiplicity
 _atom_site_fract_x
 _atom_site_fract_y
 _atom_site_fract_z
 _atom_site_occupancy
  K  K0  1  1.11152350  -0.34036030  0.25769743  1.0
  K  K1  1  0.65963970  0.25769743  0.11152350  1.0
  K  K2  1  1.25769743  0.11152350  -0.34036030  1.0
  K  K3  1  0.42514137  0.42514137  0.42514137  1.0
  Ca  Ca4  1  0.72429728  1.06203210  -0.42325078  1.0
  Ca  Ca5  1  1.06203210  0.57674922  -0.27570272  1.0
  Ca  Ca6  1  0.57674922  0.72429728  0.06203210  1.0
  Ca  Ca7  1  -0.00004884  -0.00004884  -0.00004884  1.0
  C  C8  1  1.35595033  -0.02941137  0.16579202  1.0
  C  C9  1  0.97058863  0.16579202  0.35595033  1.0
  C  C10  1  1.16579202  0.35595033  -0.02941137  1.0
  C  C11  1  0.82093189  0.73637123  0.48918134  1.0
  C  C12  1  0.73637123  1.48918134  -0.17906811  1.0
  C  C13  1  1.48918134  0.82093189  -0.26362877  1.0
  O  O14  1  0.27375530  1.02878084  -0.73225865  1.0
  O  O15  1  1.02878084  0.26774135  -0.72624470  1.0
  O  O16  1  0.26774135  0.27375530  0.02878084  1.0
  O  O17  1  0.65745540  0.70616297  0.36313632  1.0
  O  O18  1  0.70616297  1.36313632  -0.34254460  1.0
  O  O19  1  1.36313632  0.65745540  -0.29383703  1.0
  O  O20  1  0.90592719  0.97982037  0.27121293  1.0
  O  O21  1  0.97982037  1.27121293  -0.09407281  1.0
  O  O22  1  1.27121293  0.90592719  -0.02017963  1.0
  O  O23  1  0.97881664  0.24831285  0.52538352  1.0
  O  O24  1  1.24831285  0.52538352  -0.02118336  1.0
  O  O25  1  1.52538352  -0.02118336  0.24831285  1.0
  O  O26  1  1.45242583  -0.10590941  0.61735081  1.0
  O  O27  1  0.89409059  0.61735081  0.45242583  1.0
  O  O28  1  1.61735081  0.45242583  -0.10590941  1.0
  O  O29  1  0.91020781  0.88918571  0.65538638  1.0
  O  O30  1  0.88918571  1.65538638  -0.08979219  1.0
  O  O31  1  1.65538638  0.91020781  -0.11081429  1.0
