# generated using pymatgen
data_Rb2TaCuS2
_symmetry_space_group_name_H-M   'P 1'
_cell_length_a   19.11543737
_cell_length_b   18.35021522
_cell_length_c   6.77925746
_cell_angle_alpha   86.01540735
_cell_angle_beta   73.26522450
_cell_angle_gamma   20.71936815
_symmetry_Int_Tables_number   1
_chemical_formula_structural   Rb2TaCuS2
_chemical_formula_sum   'Rb8 Ta4 Cu4 S8'
_cell_volume   650.61883420
_cell_formula_units_Z   4
loop_
 _symmetry_equiv_pos_site_id
 _symmetry_equiv_pos_as_xyz
  1  'x, y, z'
loop_
 _atom_site_type_symbol
 _atom_site_label
 _atom_site_symmetry_multiplicity
 _atom_site_fract_x
 _atom_site_fract_y
 _atom_site_fract_z
 _atom_site_occupancy
  Rb  Rb0  1  1.09667377  0.48112871  0.64047754  1.0
  Rb  Rb1  1  0.78171998  0.64047754  0.48112871  1.0
  Rb  Rb2  1  0.76887129  1.15332623  0.46828002  1.0
  Rb  Rb3  1  0.60952246  0.46828002  1.15332623  1.0
  Rb  Rb4  1  1.64047754  -0.21828002  0.09667377  1.0
  Rb  Rb5  1  1.48112871  0.09667377  -0.21828002  1.0
  Rb  Rb6  1  0.46828002  0.60952246  0.76887129  1.0
  Rb  Rb7  1  1.15332623  0.76887129  0.60952246  1.0
  Ta  Ta8  1  1.12500000  0.12500000  0.62500000  1.0
  Ta  Ta9  1  1.12500000  0.62500000  0.12500000  1.0
  Ta  Ta10  1  1.12500000  0.12500000  0.12500000  1.0
  Ta  Ta11  1  1.62500000  0.12500000  0.12500000  1.0
  Cu  Cu12  1  0.62500000  0.62500000  1.12500000  1.0
  Cu  Cu13  1  0.62500000  1.12500000  0.62500000  1.0
  Cu  Cu14  1  0.62500000  0.62500000  0.62500000  1.0
  Cu  Cu15  1  1.12500000  0.62500000  0.62500000  1.0
  S  S16  1  1.12299774  0.00022564  0.63729945  1.0
  S  S17  1  1.23947717  0.63729945  0.00022564  1.0
  S  S18  1  0.24977436  1.12700226  1.01052283  1.0
  S  S19  1  0.61270055  1.01052283  1.12700226  1.0
  S  S20  1  1.63729945  0.23947717  0.12299774  1.0
  S  S21  1  1.00022564  0.12299774  0.23947717  1.0
  S  S22  1  1.01052283  0.61270055  0.24977436  1.0
  S  S23  1  1.12700226  0.24977436  0.61270055  1.0
