# generated using pymatgen
data_Nb4Mo6I22O
_symmetry_space_group_name_H-M   'P 1'
_cell_length_a   10.72628130
_cell_length_b   10.99244245
_cell_length_c   12.05766692
_cell_angle_alpha   78.64869579
_cell_angle_beta   77.53413651
_cell_angle_gamma   76.06087039
_symmetry_Int_Tables_number   1
_chemical_formula_structural   Nb4Mo6I22O
_chemical_formula_sum   'Nb4 Mo6 I22 O1'
_cell_volume   1331.47419506
_cell_formula_units_Z   1
loop_
 _symmetry_equiv_pos_site_id
 _symmetry_equiv_pos_as_xyz
  1  'x, y, z'
loop_
 _atom_site_type_symbol
 _atom_site_label
 _atom_site_symmetry_multiplicity
 _atom_site_fract_x
 _atom_site_fract_y
 _atom_site_fract_z
 _atom_site_occupancy
  Nb  Nb0  1  -0.64333823  -0.92047823  -0.09955581  1.0
  Nb  Nb1  1  -0.35666176  -0.07952177  -0.90044419  1.0
  Nb  Nb2  1  -0.58695256  -0.83348590  -0.93532559  1.0
  Nb  Nb3  1  -0.41304744  -0.16651410  -0.06467441  1.0
  Mo  Mo4  1  -0.92879156  -0.64530573  -0.40290795  1.0
  Mo  Mo5  1  -0.07120844  -0.35469427  -0.59709205  1.0
  Mo  Mo6  1  -0.86833644  -0.54957506  -0.62452345  1.0
  Mo  Mo7  1  -0.13166356  -0.45042494  -0.37547655  1.0
  Mo  Mo8  1  -0.89083001  -0.40805422  -0.46130387  1.0
  Mo  Mo9  1  -0.10916999  -0.59194578  -0.53869613  1.0
  I  I10  1  -0.57697172  -1.00864802  -0.72484552  1.0
  I  I11  1  -0.42302828  0.00864802  -0.27515448  1.0
  I  I12  1  -0.82057666  -0.88006631  -0.25913823  1.0
  I  I13  1  -0.17942334  -0.11993369  -0.74086177  1.0
  I  I14  1  -0.85372431  -0.84254237  -0.92071718  1.0
  I  I15  1  -0.14627569  -0.15745763  -0.07928282  1.0
  I  I16  1  -0.90132508  -0.80046106  -0.56905176  1.0
  I  I17  1  -0.09867492  -0.19953894  -0.43094824  1.0
  I  I18  1  -0.31635762  -0.82355658  -0.96009320  1.0
  I  I19  1  -0.68364238  -0.17644342  -0.03990680  1.0
  I  I20  1  -0.27130547  -0.72983859  -0.59660189  1.0
  I  I21  1  -0.72869453  -0.27016141  -0.40339811  1.0
  I  I22  1  -0.67363831  -0.60956813  -0.48929844  1.0
  I  I23  1  -0.32636169  -0.39043187  -0.51070156  1.0
  I  I24  1  -0.65789106  -0.61066180  -0.82186733  1.0
  I  I25  1  -0.34210894  -0.38933820  -0.17813267  1.0
  I  I26  1  -0.95190409  -0.50530739  -0.22689190  1.0
  I  I27  1  -0.04809591  -0.49469261  -0.77310810  1.0
  I  I28  1  -0.39999583  -0.33146429  -0.85033521  1.0
  I  I29  1  -0.60000417  -0.66853571  -0.14966479  1.0
  I  I30  1  -0.82353539  -0.30241137  -0.69183766  1.0
  I  I31  1  -0.17646461  -0.69758863  -0.30816234  1.0
  O  O32  1  -0.50000000  0.00000000  0.00000000  1.0
