# generated using pymatgen
data_K2FeH12(C2N3)4
_symmetry_space_group_name_H-M   'P 1'
_cell_length_a   8.77263488
_cell_length_b   8.77263488
_cell_length_c   8.77263488
_cell_angle_alpha   57.45310301
_cell_angle_beta   57.45310301
_cell_angle_gamma   57.45310301
_symmetry_Int_Tables_number   1
_chemical_formula_structural   K2FeH12(C2N3)4
_chemical_formula_sum   'K2 Fe1 H12 C8 N12'
_cell_volume   449.42093979
_cell_formula_units_Z   1
loop_
 _symmetry_equiv_pos_site_id
 _symmetry_equiv_pos_as_xyz
  1  'x, y, z'
loop_
 _atom_site_type_symbol
 _atom_site_label
 _atom_site_symmetry_multiplicity
 _atom_site_fract_x
 _atom_site_fract_y
 _atom_site_fract_z
 _atom_site_occupancy
  K  K0  1  0.18262477  0.18262477  0.18262477  1.0
  K  K1  1  0.81737523  -0.18262477  -0.18262477  1.0
  Fe  Fe2  1  0.00000000  0.00000000  0.00000000  1.0
  H  H3  1  0.49381144  0.13516197  -0.39883526  1.0
  H  H4  1  0.39883526  0.50618856  -0.13516197  1.0
  H  H5  1  0.86483803  0.39883526  -0.49381144  1.0
  H  H6  1  0.50618856  0.86483803  -0.60116474  1.0
  H  H7  1  0.60116474  0.49381144  -0.86483803  1.0
  H  H8  1  0.13516197  0.60116474  -0.50618856  1.0
  H  H9  1  0.36491013  0.66012874  -0.82072156  1.0
  H  H10  1  0.82072156  0.63508987  -0.66012874  1.0
  H  H11  1  0.33987126  0.82072156  -0.36491013  1.0
  H  H12  1  0.63508987  0.33987126  -0.17927844  1.0
  H  H13  1  0.17927844  0.36491013  -0.33987126  1.0
  H  H14  1  0.66012874  0.17927844  -0.63508987  1.0
  C  C15  1  0.25772949  -0.02278777  -0.08291772  1.0
  C  C16  1  1.08291772  -0.25772949  0.02278777  1.0
  C  C17  1  1.02278777  0.08291772  -0.25772949  1.0
  C  C18  1  0.74227051  0.02278777  0.08291772  1.0
  C  C19  1  0.91708228  -0.74227051  -0.02278777  1.0
  C  C20  1  0.97721223  -0.08291772  -0.74227051  1.0
  C  C21  1  0.40825621  0.40825621  -0.59174379  1.0
  C  C22  1  0.59174379  0.59174379  -0.40825621  1.0
  N  N23  1  0.53323346  0.23029017  -0.53693817  1.0
  N  N24  1  0.53693817  0.46676654  -0.23029017  1.0
  N  N25  1  0.76970983  0.53693817  -0.53323346  1.0
  N  N26  1  0.46676654  0.76970983  -0.46306183  1.0
  N  N27  1  0.46306183  0.53323346  -0.76970983  1.0
  N  N28  1  0.23029017  0.46306183  -0.46676654  1.0
  N  N29  1  0.41662758  -0.03316647  -0.13163323  1.0
  N  N30  1  1.13163323  -0.41662758  0.03316647  1.0
  N  N31  1  1.03316647  0.13163323  -0.41662758  1.0
  N  N32  1  0.58337242  0.03316647  0.13163323  1.0
  N  N33  1  0.86836677  -0.58337242  -0.03316647  1.0
  N  N34  1  0.96683353  -0.13163323  -0.58337242  1.0
