# generated using pymatgen
data_ZrCuSiP
_symmetry_space_group_name_H-M   'P 1'
_cell_length_a   3.59101529
_cell_length_b   3.59101529
_cell_length_c   9.50823784
_cell_angle_alpha   90.00000000
_cell_angle_beta   90.00000000
_cell_angle_gamma   90.00000000
_symmetry_Int_Tables_number   1
_chemical_formula_structural   ZrCuSiP
_chemical_formula_sum   'Zr2 Cu2 Si2 P2'
_cell_volume   122.61244270
_cell_formula_units_Z   2
loop_
 _symmetry_equiv_pos_site_id
 _symmetry_equiv_pos_as_xyz
  1  'x, y, z'
loop_
 _atom_site_type_symbol
 _atom_site_label
 _atom_site_symmetry_multiplicity
 _atom_site_fract_x
 _atom_site_fract_y
 _atom_site_fract_z
 _atom_site_occupancy
  Zr  Zr0  1  0.50000000  0.00000000  0.22895057  1.0
  Zr  Zr1  1  0.00000000  0.50000000  0.77104943  1.0
  Cu  Cu2  1  0.00000000  0.00000000  0.50000000  1.0
  Cu  Cu3  1  0.50000000  0.50000000  0.50000000  1.0
  Si  Si4  1  0.00000000  0.00000000  0.00000000  1.0
  Si  Si5  1  0.50000000  0.50000000  0.00000000  1.0
  P  P6  1  0.50000000  0.00000000  0.67251711  1.0
  P  P7  1  0.00000000  0.50000000  0.32748289  1.0
