# generated using pymatgen
data_LaSi4Ni9
_symmetry_space_group_name_H-M   'P 1'
_cell_length_a   7.99126179
_cell_length_b   7.99126179
_cell_length_c   7.99126179
_cell_angle_alpha   120.97693480
_cell_angle_beta   120.97693480
_cell_angle_gamma   88.31606739
_symmetry_Int_Tables_number   1
_chemical_formula_structural   LaSi4Ni9
_chemical_formula_sum   'La2 Si8 Ni18'
_cell_volume   355.35855180
_cell_formula_units_Z   2
loop_
 _symmetry_equiv_pos_site_id
 _symmetry_equiv_pos_as_xyz
  1  'x, y, z'
loop_
 _atom_site_type_symbol
 _atom_site_label
 _atom_site_symmetry_multiplicity
 _atom_site_fract_x
 _atom_site_fract_y
 _atom_site_fract_z
 _atom_site_occupancy
  La  La0  1  0.75000000  0.75000000  1.00000000  1.0
  La  La1  1  0.25000000  0.25000000  0.00000000  1.0
  Si  Si2  1  1.21233620  0.71233620  1.15896923  1.0
  Si  Si3  1  0.44663304  0.94663304  1.15896923  1.0
  Si  Si4  1  1.05336696  1.21233620  1.50000000  1.0
  Si  Si5  1  0.28766380  0.44663304  0.50000000  1.0
  Si  Si6  1  0.71233620  0.55336696  0.50000000  1.0
  Si  Si7  1  0.94663304  0.78766380  1.50000000  1.0
  Si  Si8  1  0.55336696  1.05336696  0.84103077  1.0
  Si  Si9  1  0.78766380  0.28766380  0.84103077  1.0
  Ni  Ni10  1  0.68479041  1.18479041  1.23911106  1.0
  Ni  Ni11  1  1.05432065  0.55432065  1.23911106  1.0
  Ni  Ni12  1  0.44567935  0.68479041  0.50000000  1.0
  Ni  Ni13  1  0.81520959  1.05432065  1.50000000  1.0
  Ni  Ni14  1  1.18479041  0.94567935  1.50000000  1.0
  Ni  Ni15  1  0.55432065  0.31520959  0.50000000  1.0
  Ni  Ni16  1  0.94567935  0.44567935  0.76088894  1.0
  Ni  Ni17  1  0.31520959  0.81520959  0.76088894  1.0
  Ni  Ni18  1  0.79557089  0.93136898  1.72693987  1.0
  Ni  Ni19  1  0.70442911  0.43136898  1.13579809  1.0
  Ni  Ni20  1  0.43136898  0.29557089  0.72693987  1.0
  Ni  Ni21  1  0.06863102  0.79557089  0.86420191  1.0
  Ni  Ni22  1  0.29557089  0.56863102  0.86420191  1.0
  Ni  Ni23  1  0.20442911  0.06863102  0.27306013  1.0
  Ni  Ni24  1  0.93136898  0.20442911  1.13579809  1.0
  Ni  Ni25  1  0.56863102  0.70442911  1.27306013  1.0
  Ni  Ni26  1  0.50000000  0.00000000  0.50000000  1.0
  Ni  Ni27  1  0.00000000  0.50000000  0.50000000  1.0
