# generated using pymatgen
data_Sc13Co4
_symmetry_space_group_name_H-M   'P 1'
_cell_length_a   11.06780658
_cell_length_b   11.06780658
_cell_length_c   11.06780658
_cell_angle_alpha   60.00000000
_cell_angle_beta   60.00000000
_cell_angle_gamma   60.00000000
_symmetry_Int_Tables_number   1
_chemical_formula_structural   Sc13Co4
_chemical_formula_sum   'Sc26 Co8'
_cell_volume   958.67120793
_cell_formula_units_Z   2
loop_
 _symmetry_equiv_pos_site_id
 _symmetry_equiv_pos_as_xyz
  1  'x, y, z'
loop_
 _atom_site_type_symbol
 _atom_site_label
 _atom_site_symmetry_multiplicity
 _atom_site_fract_x
 _atom_site_fract_y
 _atom_site_fract_z
 _atom_site_occupancy
  Sc  Sc0  1  0.94209171  -0.56423811  0.68005468  1.0
  Sc  Sc1  1  -0.05790829  0.68005468  0.43576189  1.0
  Sc  Sc2  1  -0.18576189  0.30790829  0.30790829  1.0
  Sc  Sc3  1  0.56994532  0.30790829  0.30790829  1.0
  Sc  Sc4  1  -0.56423811  0.94209171  0.68005468  1.0
  Sc  Sc5  1  0.94209171  -0.05790829  0.68005468  1.0
  Sc  Sc6  1  0.94209171  -0.31994532  0.94209171  1.0
  Sc  Sc7  1  -0.56423811  0.68005468  0.94209171  1.0
  Sc  Sc8  1  0.30790829  -0.18576189  0.30790829  1.0
  Sc  Sc9  1  0.30790829  0.30790829  -0.18576189  1.0
  Sc  Sc10  1  0.56994532  0.30790829  -0.18576189  1.0
  Sc  Sc11  1  0.56994532  -0.18576189  0.30790829  1.0
  Sc  Sc12  1  0.68005468  -0.05790829  0.94209171  1.0
  Sc  Sc13  1  -0.56423811  0.94209171  0.94209171  1.0
  Sc  Sc14  1  0.30790829  0.56994532  -0.18576189  1.0
  Sc  Sc15  1  0.30790829  -0.18576189  0.56994532  1.0
  Sc  Sc16  1  -0.31994532  0.94209171  0.43576189  1.0
  Sc  Sc17  1  0.68005468  -0.56423811  0.94209171  1.0
  Sc  Sc18  1  0.94209171  -0.56423811  0.94209171  1.0
  Sc  Sc19  1  -0.05790829  0.94209171  0.43576189  1.0
  Sc  Sc20  1  0.30790829  0.56994532  0.30790829  1.0
  Sc  Sc21  1  -0.18576189  0.56994532  0.30790829  1.0
  Sc  Sc22  1  -0.18576189  0.30790829  0.56994532  1.0
  Sc  Sc23  1  0.30790829  0.30790829  0.56994532  1.0
  Sc  Sc24  1  0.50000000  0.50000000  -0.50000000  1.0
  Sc  Sc25  1  0.75000000  -0.25000000  0.75000000  1.0
  Co  Co26  1  0.66360906  -0.33639094  1.00917283  1.0
  Co  Co27  1  0.66360906  0.00917283  0.66360906  1.0
  Co  Co28  1  0.58639094  -0.41360906  0.58639094  1.0
  Co  Co29  1  1.24082717  -0.41360906  0.58639094  1.0
  Co  Co30  1  1.00917283  -0.33639094  0.66360906  1.0
  Co  Co31  1  0.66360906  -0.33639094  0.66360906  1.0
  Co  Co32  1  0.58639094  0.24082717  0.58639094  1.0
  Co  Co33  1  0.58639094  -0.41360906  1.24082717  1.0
