# generated using pymatgen
data_VAs
_symmetry_space_group_name_H-M   'P 1'
_cell_length_a   5.85857351
_cell_length_b   6.26659036
_cell_length_c   3.33417436
_cell_angle_alpha   90.00000000
_cell_angle_beta   90.00000000
_cell_angle_gamma   90.00000000
_symmetry_Int_Tables_number   1
_chemical_formula_structural   VAs
_chemical_formula_sum   'V4 As4'
_cell_volume   122.40847780
_cell_formula_units_Z   4
loop_
 _symmetry_equiv_pos_site_id
 _symmetry_equiv_pos_as_xyz
  1  'x, y, z'
loop_
 _atom_site_type_symbol
 _atom_site_label
 _atom_site_symmetry_multiplicity
 _atom_site_fract_x
 _atom_site_fract_y
 _atom_site_fract_z
 _atom_site_occupancy
  V  V0  1  0.49486760  0.68235805  0.49135542  1.0
  V  V1  1  0.99486760  0.81764195  0.49135542  1.0
  V  V2  1  0.50513240  0.31764195  -0.00864458  1.0
  V  V3  1  0.00513240  0.18235805  -0.00864458  1.0
  As  As4  1  0.19265224  0.57344395  0.99134458  1.0
  As  As5  1  0.69265224  0.92655605  0.99134458  1.0
  As  As6  1  0.80734776  0.42655605  0.49134458  1.0
  As  As7  1  0.30734776  0.07344395  0.49134458  1.0
