# generated using pymatgen
data_NiP2
_symmetry_space_group_name_H-M   'P 1'
_cell_length_a   4.29366680
_cell_length_b   4.29366680
_cell_length_c   5.63325836
_cell_angle_alpha   68.15603155
_cell_angle_beta   111.84396845
_cell_angle_gamma   98.31651546
_symmetry_Int_Tables_number   1
_chemical_formula_structural   NiP2
_chemical_formula_sum   'Ni2 P4'
_cell_volume   89.47233491
_cell_formula_units_Z   2
loop_
 _symmetry_equiv_pos_site_id
 _symmetry_equiv_pos_as_xyz
  1  'x, y, z'
loop_
 _atom_site_type_symbol
 _atom_site_label
 _atom_site_symmetry_multiplicity
 _atom_site_fract_x
 _atom_site_fract_y
 _atom_site_fract_z
 _atom_site_occupancy
  Ni  Ni0  1  1.50000000  0.00000000  0.50000000  1.0
  Ni  Ni1  1  1.00000000  0.50000000  0.00000000  1.0
  P  P2  1  0.68916003  0.08142349  0.16659548  1.0
  P  P3  1  0.91857651  0.31083997  0.66659548  1.0
  P  P4  1  1.08142349  -0.31083997  0.33340452  1.0
  P  P5  1  1.31083997  -0.08142349  0.83340452  1.0
