# generated using pymatgen
data_KIn(WO4)2
_symmetry_space_group_name_H-M   'P 1'
_cell_length_a   5.92203561
_cell_length_b   5.92203561
_cell_length_c   14.86726320
_cell_angle_alpha   90.00000000
_cell_angle_beta   90.00000000
_cell_angle_gamma   120.00000000
_symmetry_Int_Tables_number   1
_chemical_formula_structural   KIn(WO4)2
_chemical_formula_sum   'K2 In2 W4 O16'
_cell_volume   451.54775892
_cell_formula_units_Z   2
loop_
 _symmetry_equiv_pos_site_id
 _symmetry_equiv_pos_as_xyz
  1  'x, y, z'
loop_
 _atom_site_type_symbol
 _atom_site_label
 _atom_site_symmetry_multiplicity
 _atom_site_fract_x
 _atom_site_fract_y
 _atom_site_fract_z
 _atom_site_occupancy
  K  K0  1  0.00000000  -0.00000000  0.25000000  1.0
  K  K1  1  -0.00000000  -0.00000000  0.75000000  1.0
  In  In2  1  0.00000000  0.00000000  -0.00000000  1.0
  In  In3  1  -0.00000000  -0.00000000  0.50000000  1.0
  W  W4  1  0.33333333  0.66666667  0.12612835  1.0
  W  W5  1  0.33333333  0.66666667  0.62612835  1.0
  W  W6  1  0.66666667  0.33333333  0.37387165  1.0
  W  W7  1  0.66666667  0.33333333  0.87387165  1.0
  O  O8  1  0.16633728  0.83468145  0.08885077  1.0
  O  O9  1  0.16633728  0.33165583  0.58885077  1.0
  O  O10  1  0.83468145  0.16633728  0.41114923  1.0
  O  O11  1  0.83468145  0.66834417  0.91114923  1.0
  O  O12  1  0.66834417  0.83468145  0.58885077  1.0
  O  O13  1  0.66834417  0.83366272  0.08885077  1.0
  O  O14  1  0.16531855  0.83366272  0.58885077  1.0
  O  O15  1  0.16531855  0.33165583  0.08885077  1.0
  O  O16  1  0.83366272  0.66834417  0.41114923  1.0
  O  O17  1  0.83366272  0.16531855  0.91114923  1.0
  O  O18  1  0.33165583  0.16633728  0.91114923  1.0
  O  O19  1  0.33165583  0.16531855  0.41114923  1.0
  O  O20  1  0.33333333  0.66666667  0.24423782  1.0
  O  O21  1  0.33333333  0.66666667  0.74423782  1.0
  O  O22  1  0.66666667  0.33333333  0.25576218  1.0
  O  O23  1  0.66666667  0.33333333  0.75576218  1.0
