# generated using pymatgen
data_NaSbCl6
_symmetry_space_group_name_H-M   'P 1'
_cell_length_a   6.68652037
_cell_length_b   6.68652037
_cell_length_c   10.89534792
_cell_angle_alpha   90.00000000
_cell_angle_beta   90.00000000
_cell_angle_gamma   90.00000000
_symmetry_Int_Tables_number   1
_chemical_formula_structural   NaSbCl6
_chemical_formula_sum   'Na2 Sb2 Cl12'
_cell_volume   487.12615254
_cell_formula_units_Z   2
loop_
 _symmetry_equiv_pos_site_id
 _symmetry_equiv_pos_as_xyz
  1  'x, y, z'
loop_
 _atom_site_type_symbol
 _atom_site_label
 _atom_site_symmetry_multiplicity
 _atom_site_fract_x
 _atom_site_fract_y
 _atom_site_fract_z
 _atom_site_occupancy
  Na  Na0  1  0.00000000  0.00000000  0.75000000  1.0
  Na  Na1  1  0.00000000  0.00000000  0.25000000  1.0
  Sb  Sb2  1  -0.00000000  0.50000000  0.00000000  1.0
  Sb  Sb3  1  0.50000000  0.00000000  0.50000000  1.0
  Cl  Cl4  1  0.64968055  0.79194611  0.65717985  1.0
  Cl  Cl5  1  0.64968055  0.79194611  0.34282015  1.0
  Cl  Cl6  1  0.79194611  0.35031945  0.15717985  1.0
  Cl  Cl7  1  0.79194611  0.35031945  0.84282015  1.0
  Cl  Cl8  1  0.35031945  0.20805389  0.65717985  1.0
  Cl  Cl9  1  0.35031945  0.20805389  0.34282015  1.0
  Cl  Cl10  1  0.20805389  0.64968055  0.15717985  1.0
  Cl  Cl11  1  0.20805389  0.64968055  0.84282015  1.0
  Cl  Cl12  1  0.79022742  0.79523050  0.00000000  1.0
  Cl  Cl13  1  0.79523050  0.20977258  0.50000000  1.0
  Cl  Cl14  1  0.20977258  0.20476950  0.00000000  1.0
  Cl  Cl15  1  0.20476950  0.79022742  0.50000000  1.0
