# generated using pymatgen
data_Eu(FeP)2
_symmetry_space_group_name_H-M   'P 1'
_cell_length_a   5.89633357
_cell_length_b   5.89633357
_cell_length_c   5.89633357
_cell_angle_alpha   142.29764097
_cell_angle_beta   142.29764097
_cell_angle_gamma   54.38070853
_symmetry_Int_Tables_number   1
_chemical_formula_structural   Eu(FeP)2
_chemical_formula_sum   'Eu1 Fe2 P2'
_cell_volume   76.14698910
_cell_formula_units_Z   1
loop_
 _symmetry_equiv_pos_site_id
 _symmetry_equiv_pos_as_xyz
  1  'x, y, z'
loop_
 _atom_site_type_symbol
 _atom_site_label
 _atom_site_symmetry_multiplicity
 _atom_site_fract_x
 _atom_site_fract_y
 _atom_site_fract_z
 _atom_site_occupancy
  Eu  Eu0  1  0.00000000  0.00000000  0.00000000  1.0
  Fe  Fe1  1  0.25000000  0.75000000  0.50000000  1.0
  Fe  Fe2  1  0.75000000  0.25000000  0.50000000  1.0
  P  P3  1  0.64540549  0.64540549  1.00000000  1.0
  P  P4  1  0.35459451  0.35459451  0.00000000  1.0
