# generated using pymatgen
data_Al2Ag2Bi2S3Cl8
_symmetry_space_group_name_H-M   'P 1'
_cell_length_a   7.00815446
_cell_length_b   7.00815446
_cell_length_c   24.01827665
_cell_angle_alpha   90.00000000
_cell_angle_beta   90.00000000
_cell_angle_gamma   120.00000000
_symmetry_Int_Tables_number   1
_chemical_formula_structural   Al2Ag2Bi2S3Cl8
_chemical_formula_sum   'Al4 Ag4 Bi4 S6 Cl16'
_cell_volume   1021.59746130
_cell_formula_units_Z   2
loop_
 _symmetry_equiv_pos_site_id
 _symmetry_equiv_pos_as_xyz
  1  'x, y, z'
loop_
 _atom_site_type_symbol
 _atom_site_label
 _atom_site_symmetry_multiplicity
 _atom_site_fract_x
 _atom_site_fract_y
 _atom_site_fract_z
 _atom_site_occupancy
  Al  Al0  1  0.33333333  0.66666667  0.91564040  1.0
  Al  Al1  1  0.33333333  0.66666667  0.58435960  1.0
  Al  Al2  1  0.66666667  0.33333333  0.41564040  1.0
  Al  Al3  1  0.66666667  0.33333333  0.08435960  1.0
  Ag  Ag4  1  0.66666667  0.33333333  0.25000000  1.0
  Ag  Ag5  1  0.33333333  0.66666667  0.75000000  1.0
  Ag  Ag6  1  0.00000000  0.00000000  0.25000000  1.0
  Ag  Ag7  1  0.00000000  0.00000000  0.75000000  1.0
  Bi  Bi8  1  0.33333333  0.66666667  0.32263871  1.0
  Bi  Bi9  1  0.33333333  0.66666667  0.17736129  1.0
  Bi  Bi10  1  0.66666667  0.33333333  0.82263871  1.0
  Bi  Bi11  1  0.66666667  0.33333333  0.67736129  1.0
  S  S12  1  0.33163563  0.95459860  0.25000000  1.0
  S  S13  1  0.95459860  0.33163563  0.75000000  1.0
  S  S14  1  0.62296297  0.66836437  0.25000000  1.0
  S  S15  1  0.04540140  0.37703703  0.25000000  1.0
  S  S16  1  0.66836437  0.62296297  0.75000000  1.0
  S  S17  1  0.37703703  0.04540140  0.75000000  1.0
  Cl  Cl18  1  0.92249232  0.64682969  0.38095938  1.0
  Cl  Cl19  1  0.92249232  0.64682969  0.11904062  1.0
  Cl  Cl20  1  0.64682969  0.92249232  0.88095938  1.0
  Cl  Cl21  1  0.64682969  0.92249232  0.61904062  1.0
  Cl  Cl22  1  0.72433738  0.07750768  0.38095938  1.0
  Cl  Cl23  1  0.72433738  0.07750768  0.11904062  1.0
  Cl  Cl24  1  0.35317031  0.27566262  0.38095938  1.0
  Cl  Cl25  1  0.35317031  0.27566262  0.11904062  1.0
  Cl  Cl26  1  0.07750768  0.72433738  0.88095938  1.0
  Cl  Cl27  1  0.07750768  0.72433738  0.61904062  1.0
  Cl  Cl28  1  0.27566262  0.35317031  0.88095938  1.0
  Cl  Cl29  1  0.27566262  0.35317031  0.61904062  1.0
  Cl  Cl30  1  0.33333333  0.66666667  0.49660267  1.0
  Cl  Cl31  1  0.33333333  0.66666667  0.00339733  1.0
  Cl  Cl32  1  0.66666667  0.33333333  0.99660267  1.0
  Cl  Cl33  1  0.66666667  0.33333333  0.50339733  1.0
