# generated using pymatgen
data_Li2FeGeO4
_symmetry_space_group_name_H-M   'P 1'
_cell_length_a   6.44209673
_cell_length_b   5.47190367
_cell_length_c   5.11094096
_cell_angle_alpha   90.00000000
_cell_angle_beta   90.00000000
_cell_angle_gamma   90.00000000
_symmetry_Int_Tables_number   1
_chemical_formula_structural   Li2FeGeO4
_chemical_formula_sum   'Li4 Fe2 Ge2 O8'
_cell_volume   180.16339165
_cell_formula_units_Z   2
loop_
 _symmetry_equiv_pos_site_id
 _symmetry_equiv_pos_as_xyz
  1  'x, y, z'
loop_
 _atom_site_type_symbol
 _atom_site_label
 _atom_site_symmetry_multiplicity
 _atom_site_fract_x
 _atom_site_fract_y
 _atom_site_fract_z
 _atom_site_occupancy
  Li  Li0  1  0.25140460  0.16617547  0.00168166  1.0
  Li  Li1  1  0.75140460  0.83382453  0.50168166  1.0
  Li  Li2  1  0.74859540  0.16617547  0.00168166  1.0
  Li  Li3  1  0.24859540  0.83382453  0.50168166  1.0
  Fe  Fe4  1  0.50000000  0.67857389  -0.00020594  1.0
  Fe  Fe5  1  0.00000000  0.32142611  0.49979406  1.0
  Ge  Ge6  1  0.50000000  0.33758443  0.50674121  1.0
  Ge  Ge7  1  0.00000000  0.66241557  0.00674121  1.0
  O  O8  1  0.27188260  0.18188443  0.39397554  1.0
  O  O9  1  0.77188261  0.81811557  0.89397554  1.0
  O  O10  1  0.72811740  0.18188443  0.39397554  1.0
  O  O11  1  0.22811740  0.81811557  0.89397554  1.0
  O  O12  1  0.50000000  0.33271102  0.85656410  1.0
  O  O13  1  0.00000000  0.66728898  0.35656410  1.0
  O  O14  1  0.50000000  0.64878176  0.39808622  1.0
  O  O15  1  0.00000000  0.35121824  0.89808622  1.0
