# generated using pymatgen
data_CuBrO2
_symmetry_space_group_name_H-M   'P 1'
_cell_length_a   3.67655833
_cell_length_b   7.05264985
_cell_length_c   7.05365818
_cell_angle_alpha   110.82435912
_cell_angle_beta   90.25840349
_cell_angle_gamma   89.77758723
_symmetry_Int_Tables_number   1
_chemical_formula_structural   CuBrO2
_chemical_formula_sum   'Cu2 Br2 O4'
_cell_volume   170.94757170
_cell_formula_units_Z   2
loop_
 _symmetry_equiv_pos_site_id
 _symmetry_equiv_pos_as_xyz
  1  'x, y, z'
loop_
 _atom_site_type_symbol
 _atom_site_label
 _atom_site_symmetry_multiplicity
 _atom_site_fract_x
 _atom_site_fract_y
 _atom_site_fract_z
 _atom_site_occupancy
  Cu  Cu0  1  0.02304278  0.34331301  -0.75651240  1.0
  Cu  Cu1  1  0.51790685  0.67218170  -0.08635282  1.0
  Br  Br2  1  0.52526812  0.20774265  -0.62088049  1.0
  Br  Br3  1  1.01569632  0.80764762  -0.22203687  1.0
  O  O4  1  0.31842428  0.56855958  -0.75337439  1.0
  O  O5  1  0.22290427  0.67577285  -0.86095561  1.0
  O  O6  1  0.72433216  0.33955125  -0.98205509  1.0
  O  O7  1  0.81639521  0.44680134  -0.08958233  1.0
