# generated using pymatgen
data_GaRe(Cl3O)2
_symmetry_space_group_name_H-M   'P 1'
_cell_length_a   12.57644329
_cell_length_b   8.74991181
_cell_length_c   11.83570508
_cell_angle_alpha   90.00000000
_cell_angle_beta   107.35595042
_cell_angle_gamma   90.00000000
_symmetry_Int_Tables_number   1
_chemical_formula_structural   GaRe(Cl3O)2
_chemical_formula_sum   'Ga4 Re4 Cl24 O8'
_cell_volume   1243.13389741
_cell_formula_units_Z   4
loop_
 _symmetry_equiv_pos_site_id
 _symmetry_equiv_pos_as_xyz
  1  'x, y, z'
loop_
 _atom_site_type_symbol
 _atom_site_label
 _atom_site_symmetry_multiplicity
 _atom_site_fract_x
 _atom_site_fract_y
 _atom_site_fract_z
 _atom_site_occupancy
  Ga  Ga0  1  0.25102910  0.64661684  0.87512604  1.0
  Ga  Ga1  1  0.25102910  0.85338316  0.37512604  1.0
  Ga  Ga2  1  0.74897090  0.14661684  0.62487396  1.0
  Ga  Ga3  1  0.74897090  0.35338316  0.12487396  1.0
  Re  Re4  1  0.75611313  0.72790635  0.62567949  1.0
  Re  Re5  1  0.75611313  0.77209365  0.12567949  1.0
  Re  Re6  1  0.24388687  0.22790635  0.87432051  1.0
  Re  Re7  1  0.24388687  0.27209365  0.37432051  1.0
  Cl  Cl8  1  0.90827867  0.79549096  0.57178759  1.0
  Cl  Cl9  1  0.90827867  0.70450904  0.07178759  1.0
  Cl  Cl10  1  0.09172133  0.29549096  0.92821241  1.0
  Cl  Cl11  1  0.09172133  0.20450904  0.42821241  1.0
  Cl  Cl12  1  0.87856492  0.27100080  0.58017831  1.0
  Cl  Cl13  1  0.87856492  0.22899920  0.08017831  1.0
  Cl  Cl14  1  0.12143508  0.77100080  0.91982169  1.0
  Cl  Cl15  1  0.12143508  0.72899920  0.41982169  1.0
  Cl  Cl16  1  0.82548141  0.97133590  0.76986028  1.0
  Cl  Cl17  1  0.82548141  0.52866410  0.26986028  1.0
  Cl  Cl18  1  0.17451859  0.47133590  0.73013972  1.0
  Cl  Cl19  1  0.17451859  0.02866410  0.23013972  1.0
  Cl  Cl20  1  0.67135560  0.53169430  0.98305926  1.0
  Cl  Cl21  1  0.67135560  0.96830570  0.48305926  1.0
  Cl  Cl22  1  0.32864440  0.03169430  0.51694074  1.0
  Cl  Cl23  1  0.32864440  0.46830570  0.01694074  1.0
  Cl  Cl24  1  0.60061631  0.77205939  0.68026512  1.0
  Cl  Cl25  1  0.60061631  0.72794061  0.18026512  1.0
  Cl  Cl26  1  0.39938369  0.27205939  0.81973488  1.0
  Cl  Cl27  1  0.39938369  0.22794061  0.31973488  1.0
  Cl  Cl28  1  0.37853054  0.77780528  0.83225926  1.0
  Cl  Cl29  1  0.37853054  0.72219472  0.33225926  1.0
  Cl  Cl30  1  0.62146946  0.27780528  0.66774074  1.0
  Cl  Cl31  1  0.62146946  0.22219472  0.16774074  1.0
  O  O32  1  0.82161780  0.61143993  0.73990073  1.0
  O  O33  1  0.82161780  0.88856007  0.23990073  1.0
  O  O34  1  0.17838220  0.11143993  0.76009927  1.0
  O  O35  1  0.17838220  0.38856007  0.26009927  1.0
  O  O36  1  0.69757087  0.89008437  1.01002814  1.0
  O  O37  1  0.69757087  0.60991563  0.51002814  1.0
  O  O38  1  0.30242913  0.39008437  0.48997186  1.0
  O  O39  1  0.30242913  0.10991563  -0.01002814  1.0
