# generated using pymatgen
data_Lu3BC3
_symmetry_space_group_name_H-M   'P 1'
_cell_length_a   3.52616297
_cell_length_b   3.52616297
_cell_length_c   15.71938413
_cell_angle_alpha   90.00000000
_cell_angle_beta   90.00000000
_cell_angle_gamma   90.33951379
_symmetry_Int_Tables_number   1
_chemical_formula_structural   Lu3BC3
_chemical_formula_sum   'Lu6 B2 C6'
_cell_volume   195.44864493
_cell_formula_units_Z   2
loop_
 _symmetry_equiv_pos_site_id
 _symmetry_equiv_pos_as_xyz
  1  'x, y, z'
loop_
 _atom_site_type_symbol
 _atom_site_label
 _atom_site_symmetry_multiplicity
 _atom_site_fract_x
 _atom_site_fract_y
 _atom_site_fract_z
 _atom_site_occupancy
  Lu  Lu0  1  -0.42333171  1.42333171  0.39582407  1.0
  Lu  Lu1  1  -0.42333171  1.42333171  0.10417593  1.0
  Lu  Lu2  1  0.42333171  0.57666829  0.89582407  1.0
  Lu  Lu3  1  0.42333171  0.57666829  0.60417593  1.0
  Lu  Lu4  1  0.08241878  0.91758122  0.25000000  1.0
  Lu  Lu5  1  -0.08241878  1.08241878  0.75000000  1.0
  B  B6  1  0.00000000  0.00000000  0.50000000  1.0
  B  B7  1  0.00000000  0.00000000  0.00000000  1.0
  C  C8  1  0.08674437  0.91325563  0.41132243  1.0
  C  C9  1  0.08674437  0.91325563  0.08867757  1.0
  C  C10  1  -0.08674437  1.08674437  0.91132243  1.0
  C  C11  1  -0.08674437  1.08674437  0.58867757  1.0
  C  C12  1  -0.41193723  1.41193723  0.25000000  1.0
  C  C13  1  0.41193723  0.58806277  0.75000000  1.0
