# generated using pymatgen
data_Hf2P2O9
_symmetry_space_group_name_H-M   'P 1'
_cell_length_a   7.69288931
_cell_length_b   7.69288931
_cell_length_c   10.25635790
_cell_angle_alpha   52.86402225
_cell_angle_beta   127.13597775
_cell_angle_gamma   129.00686345
_symmetry_Int_Tables_number   1
_chemical_formula_structural   Hf2P2O9
_chemical_formula_sum   'Hf4 P4 O18'
_cell_volume   350.63495496
_cell_formula_units_Z   2
loop_
 _symmetry_equiv_pos_site_id
 _symmetry_equiv_pos_as_xyz
  1  'x, y, z'
loop_
 _atom_site_type_symbol
 _atom_site_label
 _atom_site_symmetry_multiplicity
 _atom_site_fract_x
 _atom_site_fract_y
 _atom_site_fract_z
 _atom_site_occupancy
  Hf  Hf0  1  0.81505061  0.18494939  0.86445428  1.0
  Hf  Hf1  1  1.18494939  -0.18494939  0.13554572  1.0
  Hf  Hf2  1  1.44330775  -0.44330775  0.59601822  1.0
  Hf  Hf3  1  0.55669225  0.44330775  0.40398178  1.0
  P  P4  1  0.90642534  -0.90642534  0.66543571  1.0
  P  P5  1  0.09357466  -0.09357466  0.33456429  1.0
  P  P6  1  0.33031133  -0.33031133  0.96142408  1.0
  P  P7  1  0.66968867  -0.66968867  0.03857592  1.0
  O  O8  1  1.73841508  -0.11825698  0.60369733  1.0
  O  O9  1  1.11825698  -0.73841508  0.60369733  1.0
  O  O10  1  0.88174302  0.73841508  0.39630267  1.0
  O  O11  1  0.26158492  0.11825698  0.39630267  1.0
  O  O12  1  0.50585888  -0.12479315  0.86202651  1.0
  O  O13  1  1.12479315  0.49414112  0.86202651  1.0
  O  O14  1  0.87520685  -0.49414112  0.13797349  1.0
  O  O15  1  1.49414112  0.12479315  0.13797349  1.0
  O  O16  1  0.98418026  -0.98418026  0.86779860  1.0
  O  O17  1  0.01581974  -0.01581974  0.13220140  1.0
  O  O18  1  0.76595673  0.23404327  0.59915130  1.0
  O  O19  1  1.23404327  -0.23404327  0.40084870  1.0
  O  O20  1  0.61362190  0.38637810  0.65547230  1.0
  O  O21  1  1.38637810  -0.38637810  0.34452770  1.0
  O  O22  1  0.53254492  0.46745508  0.85241244  1.0
  O  O23  1  1.46745508  -0.46745508  0.14758756  1.0
  O  O24  1  0.22671224  -0.22671224  0.97760333  1.0
  O  O25  1  0.77328776  -0.77328776  0.02239667  1.0
