# generated using pymatgen
data_Rb3VS4
_symmetry_space_group_name_H-M   'P 1'
_cell_length_a   9.53869254
_cell_length_b   11.11674818
_cell_length_c   9.57492656
_cell_angle_alpha   90.00000000
_cell_angle_beta   90.00000000
_cell_angle_gamma   90.00000000
_symmetry_Int_Tables_number   1
_chemical_formula_structural   Rb3VS4
_chemical_formula_sum   'Rb12 V4 S16'
_cell_volume   1015.31796258
_cell_formula_units_Z   4
loop_
 _symmetry_equiv_pos_site_id
 _symmetry_equiv_pos_as_xyz
  1  'x, y, z'
loop_
 _atom_site_type_symbol
 _atom_site_label
 _atom_site_symmetry_multiplicity
 _atom_site_fract_x
 _atom_site_fract_y
 _atom_site_fract_z
 _atom_site_occupancy
  Rb  Rb0  1  0.45185976  0.95605090  0.79091201  1.0
  Rb  Rb1  1  0.45185976  0.54394910  0.79091201  1.0
  Rb  Rb2  1  0.95185976  0.95605090  0.70908799  1.0
  Rb  Rb3  1  0.95185976  0.54394910  0.70908799  1.0
  Rb  Rb4  1  0.54814024  0.45605090  0.20908799  1.0
  Rb  Rb5  1  0.54814024  0.04394910  0.20908799  1.0
  Rb  Rb6  1  0.04814024  0.45605090  0.29091201  1.0
  Rb  Rb7  1  0.04814024  0.04394910  0.29091201  1.0
  Rb  Rb8  1  0.14398719  0.75000000  0.08309695  1.0
  Rb  Rb9  1  0.64398719  0.75000000  0.41690305  1.0
  Rb  Rb10  1  0.85601281  0.25000000  0.91690305  1.0
  Rb  Rb11  1  0.35601281  0.25000000  0.58309695  1.0
  V  V12  1  0.22009242  0.75000000  0.51458624  1.0
  V  V13  1  0.72009242  0.75000000  0.98541376  1.0
  V  V14  1  0.77990758  0.25000000  0.48541376  1.0
  V  V15  1  0.27990758  0.25000000  0.01458624  1.0
  S  S16  1  0.17019650  0.41042180  0.94971654  1.0
  S  S17  1  0.17019650  0.08957820  0.94971654  1.0
  S  S18  1  0.67019650  0.41042180  0.55028346  1.0
  S  S19  1  0.67019650  0.08957820  0.55028346  1.0
  S  S20  1  0.82980350  0.91042180  0.05028346  1.0
  S  S21  1  0.82980350  0.58957820  0.05028346  1.0
  S  S22  1  0.32980350  0.91042180  0.44971654  1.0
  S  S23  1  0.32980350  0.58957820  0.44971654  1.0
  S  S24  1  0.51066644  0.75000000  0.07371000  1.0
  S  S25  1  0.01066644  0.75000000  0.42629000  1.0
  S  S26  1  0.48933356  0.25000000  0.92629000  1.0
  S  S27  1  0.98933356  0.25000000  0.57371000  1.0
  S  S28  1  0.20510050  0.75000000  0.74020511  1.0
  S  S29  1  0.70510050  0.75000000  0.75979489  1.0
  S  S30  1  0.79489950  0.25000000  0.25979489  1.0
  S  S31  1  0.29489950  0.25000000  0.24020511  1.0
