# generated using pymatgen
data_Bi3BrO4
_symmetry_space_group_name_H-M   'P 1'
_cell_length_a   5.82718496
_cell_length_b   19.34920597
_cell_length_c   5.83510806
_cell_angle_alpha   90.00000000
_cell_angle_beta   90.00000000
_cell_angle_gamma   90.00000000
_symmetry_Int_Tables_number   1
_chemical_formula_structural   Bi3BrO4
_chemical_formula_sum   'Bi12 Br4 O16'
_cell_volume   657.91661442
_cell_formula_units_Z   4
loop_
 _symmetry_equiv_pos_site_id
 _symmetry_equiv_pos_as_xyz
  1  'x, y, z'
loop_
 _atom_site_type_symbol
 _atom_site_label
 _atom_site_symmetry_multiplicity
 _atom_site_fract_x
 _atom_site_fract_y
 _atom_site_fract_z
 _atom_site_occupancy
  Bi  Bi0  1  0.19869555  0.85953938  0.20090871  1.0
  Bi  Bi1  1  0.19869555  0.64046062  0.29909129  1.0
  Bi  Bi2  1  0.69869555  0.85953938  0.79909129  1.0
  Bi  Bi3  1  0.69869555  0.64046062  0.70090871  1.0
  Bi  Bi4  1  0.80130445  0.35953938  0.70090871  1.0
  Bi  Bi5  1  0.80130445  0.14046062  0.79909129  1.0
  Bi  Bi6  1  0.30130445  0.35953938  0.29909129  1.0
  Bi  Bi7  1  0.30130445  0.14046062  0.20090871  1.0
  Bi  Bi8  1  0.25000000  0.00000000  0.69909816  1.0
  Bi  Bi9  1  0.25000000  0.50000000  0.80090184  1.0
  Bi  Bi10  1  0.75000000  0.00000000  0.30090184  1.0
  Bi  Bi11  1  0.75000000  0.50000000  0.19909816  1.0
  Br  Br12  1  0.73116608  0.75000000  0.25000000  1.0
  Br  Br13  1  0.23116608  0.75000000  0.75000000  1.0
  Br  Br14  1  0.26883392  0.25000000  0.75000000  1.0
  Br  Br15  1  0.76883392  0.25000000  0.25000000  1.0
  O  O16  1  0.48058450  0.91162337  0.04059207  1.0
  O  O17  1  0.48058450  0.58837663  0.45940793  1.0
  O  O18  1  0.98058450  0.91162337  0.95940793  1.0
  O  O19  1  0.98058450  0.58837663  0.54059207  1.0
  O  O20  1  0.51941550  0.41162337  0.54059207  1.0
  O  O21  1  0.51941550  0.08837663  0.95940793  1.0
  O  O22  1  0.01941550  0.41162337  0.45940793  1.0
  O  O23  1  0.01941550  0.08837663  0.04059207  1.0
  O  O24  1  0.42523232  0.43631432  0.06911527  1.0
  O  O25  1  0.42523232  0.06368568  0.43088473  1.0
  O  O26  1  0.92523232  0.43631432  0.93088473  1.0
  O  O27  1  0.92523232  0.06368568  0.56911527  1.0
  O  O28  1  0.57476768  0.93631432  0.56911527  1.0
  O  O29  1  0.57476768  0.56368568  0.93088473  1.0
  O  O30  1  0.07476768  0.93631432  0.43088473  1.0
  O  O31  1  0.07476768  0.56368568  0.06911527  1.0
