# generated using pymatgen
data_PH8IN4
_symmetry_space_group_name_H-M   'P 1'
_cell_length_a   8.47552571
_cell_length_b   8.47552571
_cell_length_c   5.19214876
_cell_angle_alpha   90.00000000
_cell_angle_beta   90.00000000
_cell_angle_gamma   90.00000000
_symmetry_Int_Tables_number   1
_chemical_formula_structural   PH8IN4
_chemical_formula_sum   'P2 H16 I2 N8'
_cell_volume   372.97559718
_cell_formula_units_Z   2
loop_
 _symmetry_equiv_pos_site_id
 _symmetry_equiv_pos_as_xyz
  1  'x, y, z'
loop_
 _atom_site_type_symbol
 _atom_site_label
 _atom_site_symmetry_multiplicity
 _atom_site_fract_x
 _atom_site_fract_y
 _atom_site_fract_z
 _atom_site_occupancy
  P  P0  1  0.50000000  0.00000000  0.50000000  1.0
  P  P1  1  0.00000000  0.50000000  0.50000000  1.0
  H  H2  1  0.22273030  0.42076769  0.27376044  1.0
  H  H3  1  0.72273030  1.07923231  0.27376044  1.0
  H  H4  1  0.27726970  -0.07923231  0.27376044  1.0
  H  H5  1  0.77726970  0.57923231  0.27376044  1.0
  H  H6  1  0.27726970  1.07923231  0.72623956  1.0
  H  H7  1  0.77726970  0.42076769  0.72623956  1.0
  H  H8  1  0.22273030  0.57923231  0.72623956  1.0
  H  H9  1  0.72273030  -0.07923231  0.72623956  1.0
  H  H10  1  0.42076769  0.22273030  0.72623956  1.0
  H  H11  1  1.07923231  0.72273030  0.72623956  1.0
  H  H12  1  -0.07923231  0.27726970  0.72623956  1.0
  H  H13  1  0.57923231  0.77726970  0.72623956  1.0
  H  H14  1  1.07923231  0.27726970  0.27376044  1.0
  H  H15  1  0.42076769  0.77726970  0.27376044  1.0
  H  H16  1  0.57923231  0.22273030  0.27376044  1.0
  H  H17  1  -0.07923231  0.72273030  0.27376044  1.0
  I  I18  1  0.50000000  0.50000000  0.00000000  1.0
  I  I19  1  0.00000000  0.00000000  0.00000000  1.0
  N  N20  1  0.12112206  0.37887794  0.35472590  1.0
  N  N21  1  0.62112206  0.12112206  0.35472590  1.0
  N  N22  1  0.37887794  0.87887794  0.35472590  1.0
  N  N23  1  0.87887794  0.62112206  0.35472590  1.0
  N  N24  1  0.37887794  0.12112206  0.64527410  1.0
  N  N25  1  0.87887794  0.37887794  0.64527410  1.0
  N  N26  1  0.12112206  0.62112206  0.64527410  1.0
  N  N27  1  0.62112206  0.87887794  0.64527410  1.0
