# generated using pymatgen
data_KInH4(CO3)2
_symmetry_space_group_name_H-M   'P 1'
_cell_length_a   10.61912975
_cell_length_b   10.61912975
_cell_length_c   10.61912975
_cell_angle_alpha   105.61080960
_cell_angle_beta   105.61080960
_cell_angle_gamma   117.50312179
_symmetry_Int_Tables_number   1
_chemical_formula_structural   KInH4(CO3)2
_chemical_formula_sum   'K4 In4 H16 C8 O24'
_cell_volume   908.05449694
_cell_formula_units_Z   4
loop_
 _symmetry_equiv_pos_site_id
 _symmetry_equiv_pos_as_xyz
  1  'x, y, z'
loop_
 _atom_site_type_symbol
 _atom_site_label
 _atom_site_symmetry_multiplicity
 _atom_site_fract_x
 _atom_site_fract_y
 _atom_site_fract_z
 _atom_site_occupancy
  K  K0  1  1.37500000  1.12500000  0.75000000  1.0
  K  K1  1  1.37500000  1.62500000  1.25000000  1.0
  K  K2  1  1.37500000  0.62500000  0.75000000  1.0
  K  K3  1  0.87500000  0.62500000  0.25000000  1.0
  In  In4  1  0.87500000  0.62500000  0.75000000  1.0
  In  In5  1  0.87500000  1.12500000  1.25000000  1.0
  In  In6  1  0.87500000  0.12500000  0.75000000  1.0
  In  In7  1  0.37500000  0.12500000  0.25000000  1.0
  H  H8  1  1.38154822  0.42341503  0.85898070  1.0
  H  H9  1  1.18556567  0.72743248  0.35898070  1.0
  H  H10  1  0.47743248  0.61845178  1.04186681  1.0
  H  H11  1  1.17341503  0.81443433  0.54186681  1.0
  H  H12  1  0.56443433  1.52256752  1.14101930  1.0
  H  H13  1  1.36845178  1.82658497  1.64101930  1.0
  H  H14  1  0.57658497  0.43556567  0.95813319  1.0
  H  H15  1  1.27256752  1.63154822  1.45813319  1.0
  H  H16  1  0.39732391  0.32885435  0.09950535  1.0
  H  H17  1  1.52065099  0.95218144  0.59950535  1.0
  H  H18  1  0.70218144  0.60267609  0.93153045  1.0
  H  H19  1  1.07885435  1.47934901  1.43153045  1.0
  H  H20  1  1.22934901  1.29781856  1.90049465  1.0
  H  H21  1  1.35267609  1.92114565  1.40049465  1.0
  H  H22  1  0.67114565  0.77065099  1.06846955  1.0
  H  H23  1  1.04781856  0.64732391  0.56846955  1.0
  C  C24  1  1.57795873  1.69368958  1.54418079  1.0
  C  C25  1  1.60049121  1.21622205  1.04418079  1.0
  C  C26  1  0.96622205  1.42204127  1.11573085  1.0
  C  C27  1  1.44368958  1.39950879  1.61573085  1.0
  C  C28  1  1.14950879  1.03377795  0.45581921  1.0
  C  C29  1  1.17204127  1.55631042  0.95581921  1.0
  C  C30  1  1.30631042  0.85049121  0.88426915  1.0
  C  C31  1  0.78377795  0.82795873  0.38426915  1.0
  O  O32  1  0.81055560  0.73054905  0.98224989  1.0
  O  O33  1  1.00170084  1.42169429  1.48224989  1.0
  O  O34  1  1.17169429  0.18944440  0.91999345  1.0
  O  O35  1  0.48054905  -0.00170084  0.41999345  1.0
  O  O36  1  0.74829916  0.82830571  1.01775011  1.0
  O  O37  1  0.93944440  0.51945095  0.51775011  1.0
  O  O38  1  0.26945095  1.25170084  1.08000655  1.0
  O  O39  1  0.57830571  1.06055560  1.58000655  1.0
  O  O40  1  0.50787686  0.35385604  0.56816653  1.0
  O  O41  1  0.96431050  1.31028968  1.06816653  1.0
  O  O42  1  1.06028968  0.49212314  0.84597918  1.0
  O  O43  1  1.10385604  1.03568950  0.34597918  1.0
  O  O44  1  0.78568950  0.93971032  1.43183347  1.0
  O  O45  1  1.24212314  0.89614396  0.93183347  1.0
  O  O46  1  0.64614396  1.21431050  1.15402082  1.0
  O  O47  1  1.68971032  1.75787686  1.65402082  1.0
  O  O48  1  0.55233281  1.42372926  1.13761440  1.0
  O  O49  1  1.46388514  1.83528159  1.63761440  1.0
  O  O50  1  0.58528159  0.44766719  0.87139645  1.0
  O  O51  1  1.17372926  1.53611486  1.37139645  1.0
  O  O52  1  1.28611486  0.41471841  0.86238560  1.0
  O  O53  1  1.19766719  0.82627074  0.36238560  1.0
  O  O54  1  0.57627074  0.71388514  1.12860355  1.0
  O  O55  1  1.16471841  0.80233281  0.62860355  1.0
