# generated using pymatgen
data_TlHgCl3
_symmetry_space_group_name_H-M   'P 1'
_cell_length_a   10.05013603
_cell_length_b   4.52469932
_cell_length_c   14.27714884
_cell_angle_alpha   90.00000000
_cell_angle_beta   90.00000000
_cell_angle_gamma   90.00000000
_symmetry_Int_Tables_number   1
_chemical_formula_structural   TlHgCl3
_chemical_formula_sum   'Tl4 Hg4 Cl12'
_cell_volume   649.23683424
_cell_formula_units_Z   4
loop_
 _symmetry_equiv_pos_site_id
 _symmetry_equiv_pos_as_xyz
  1  'x, y, z'
loop_
 _atom_site_type_symbol
 _atom_site_label
 _atom_site_symmetry_multiplicity
 _atom_site_fract_x
 _atom_site_fract_y
 _atom_site_fract_z
 _atom_site_occupancy
  Tl  Tl0  1  0.48391279  0.25000000  0.34910092  1.0
  Tl  Tl1  1  0.98391279  0.25000000  0.15089908  1.0
  Tl  Tl2  1  0.51608721  0.75000000  0.65089908  1.0
  Tl  Tl3  1  0.01608721  0.75000000  0.84910092  1.0
  Hg  Hg4  1  0.16864441  0.25000000  0.53674090  1.0
  Hg  Hg5  1  0.66864441  0.25000000  0.96325910  1.0
  Hg  Hg6  1  0.83135559  0.75000000  0.46325910  1.0
  Hg  Hg7  1  0.33135559  0.75000000  0.03674090  1.0
  Cl  Cl8  1  0.26543783  0.25000000  0.68751741  1.0
  Cl  Cl9  1  0.76543783  0.25000000  0.81248259  1.0
  Cl  Cl10  1  0.73456217  0.75000000  0.31248259  1.0
  Cl  Cl11  1  0.23456217  0.75000000  0.18751741  1.0
  Cl  Cl12  1  0.15446603  0.25000000  0.97279945  1.0
  Cl  Cl13  1  0.65446603  0.25000000  0.52720055  1.0
  Cl  Cl14  1  0.84553397  0.75000000  0.02720055  1.0
  Cl  Cl15  1  0.34553397  0.75000000  0.47279945  1.0
  Cl  Cl16  1  0.04470492  0.25000000  0.39597084  1.0
  Cl  Cl17  1  0.54470492  0.25000000  0.10402916  1.0
  Cl  Cl18  1  0.95529508  0.75000000  0.60402916  1.0
  Cl  Cl19  1  0.45529508  0.75000000  0.89597084  1.0
