# generated using pymatgen
data_Sn(S4I)4
_symmetry_space_group_name_H-M   'P 1'
_cell_length_a   13.34975811
_cell_length_b   13.31701985
_cell_length_c   16.62922478
_cell_angle_alpha   51.50921922
_cell_angle_beta   51.33285764
_cell_angle_gamma   77.15792313
_symmetry_Int_Tables_number   1
_chemical_formula_structural   Sn(S4I)4
_chemical_formula_sum   'Sn2 S32 I8'
_cell_volume   1738.26979138
_cell_formula_units_Z   2
loop_
 _symmetry_equiv_pos_site_id
 _symmetry_equiv_pos_as_xyz
  1  'x, y, z'
loop_
 _atom_site_type_symbol
 _atom_site_label
 _atom_site_symmetry_multiplicity
 _atom_site_fract_x
 _atom_site_fract_y
 _atom_site_fract_z
 _atom_site_occupancy
  Sn  Sn0  1  1.00275482  0.00275482  -0.00275482  1.0
  Sn  Sn1  1  0.25275482  0.25275482  0.24724518  1.0
  S  S2  1  0.33416796  0.54069495  0.32622775  1.0
  S  S3  1  0.92377225  0.45109065  -0.08416796  1.0
  S  S4  1  0.54069495  0.33416796  -0.20109065  1.0
  S  S5  1  0.45109065  0.92377225  -0.29069495  1.0
  S  S6  1  0.46664432  0.25179899  0.53124163  1.0
  S  S7  1  0.71875837  0.49968494  -0.21664432  1.0
  S  S8  1  0.25179899  0.46664432  -0.24968494  1.0
  S  S9  1  0.49968494  0.71875837  -0.00179899  1.0
  S  S10  1  0.64008312  0.35527128  0.33535019  1.0
  S  S11  1  0.91464981  0.58070459  -0.39008312  1.0
  S  S12  1  0.35527128  0.64008312  -0.33070459  1.0
  S  S13  1  0.58070459  0.91464981  -0.10527128  1.0
  S  S14  1  0.38988254  0.06897359  0.60579120  1.0
  S  S15  1  0.64420880  0.31464733  -0.13988254  1.0
  S  S16  1  0.06897359  0.38988254  -0.06464733  1.0
  S  S17  1  0.31464733  0.64420880  0.18102641  1.0
  S  S18  1  0.89070928  0.61649899  -0.09401863  1.0
  S  S19  1  1.34401863  0.66318963  -0.64070928  1.0
  S  S20  1  0.61649899  0.89070928  -0.41318963  1.0
  S  S21  1  0.66318963  1.34401863  -0.36649899  1.0
  S  S22  1  0.17700601  -0.13332896  0.63939353  1.0
  S  S23  1  0.61060647  -0.06692941  0.07299399  1.0
  S  S24  1  -0.13332896  0.17700601  0.31692941  1.0
  S  S25  1  -0.06692941  0.61060647  0.38332896  1.0
  S  S26  1  0.32688159  -0.19706195  0.54106242  1.0
  S  S27  1  0.70893758  0.92088206  -0.07688159  1.0
  S  S28  1  -0.19706195  0.32688159  0.32911794  1.0
  S  S29  1  0.92088206  0.70893758  -0.55293805  1.0
  S  S30  1  0.54139691  0.74483919  0.25114516  1.0
  S  S31  1  0.99885484  0.78738127  -0.29139691  1.0
  S  S32  1  0.74483919  0.54139691  -0.53738127  1.0
  S  S33  1  0.78738127  0.99885484  -0.49483919  1.0
  I  I34  1  0.03253296  0.22030918  0.77887016  1.0
  I  I35  1  0.47112984  0.28171230  0.21746704  1.0
  I  I36  1  0.22030918  0.03253296  -0.03171230  1.0
  I  I37  1  0.28171230  0.47112984  0.02969082  1.0
  I  I38  1  0.03485443  0.22369080  0.46562411  1.0
  I  I39  1  0.78437589  -0.02583066  0.21514557  1.0
  I  I40  1  0.22369080  0.03485443  0.27583066  1.0
  I  I41  1  -0.02583066  0.78437589  0.02630920  1.0
