# generated using pymatgen
data_Rb4CO4
_symmetry_space_group_name_H-M   'P 1'
_cell_length_a   5.98292222
_cell_length_b   5.98292222
_cell_length_c   5.98292222
_cell_angle_alpha   86.32095197
_cell_angle_beta   86.32095197
_cell_angle_gamma   86.32095197
_symmetry_Int_Tables_number   1
_chemical_formula_structural   Rb4CO4
_chemical_formula_sum   'Rb4 C1 O4'
_cell_volume   212.89096596
_cell_formula_units_Z   1
loop_
 _symmetry_equiv_pos_site_id
 _symmetry_equiv_pos_as_xyz
  1  'x, y, z'
loop_
 _atom_site_type_symbol
 _atom_site_label
 _atom_site_symmetry_multiplicity
 _atom_site_fract_x
 _atom_site_fract_y
 _atom_site_fract_z
 _atom_site_occupancy
  C  C0  1  1.00348721  1.00348721  0.00348721  1.0
  O  O1  1  0.81947976  0.09643012  -0.90356988  1.0
  O  O2  1  0.09643012  0.09643012  -0.18052024  1.0
  O  O3  1  0.09643012  0.81947976  -0.90356988  1.0
  O  O4  1  0.51179444  0.51179444  -0.48820556  1.0
  Rb  Rb5  1  1.26095704  1.26095704  0.26095704  1.0
  Rb  Rb6  1  1.11120269  0.64593931  -0.35406069  1.0
  Rb  Rb7  1  0.64593931  0.64593931  0.11120269  1.0
  Rb  Rb8  1  0.64593931  1.11120269  -0.35406069  1.0
