# generated using pymatgen
data_LaTiAgO4
_symmetry_space_group_name_H-M   'P 1'
_cell_length_a   3.72920510
_cell_length_b   3.72920510
_cell_length_c   13.82148082
_cell_angle_alpha   90.00000000
_cell_angle_beta   90.00000000
_cell_angle_gamma   90.00000000
_symmetry_Int_Tables_number   1
_chemical_formula_structural   LaTiAgO4
_chemical_formula_sum   'La2 Ti2 Ag2 O8'
_cell_volume   192.21492851
_cell_formula_units_Z   2
loop_
 _symmetry_equiv_pos_site_id
 _symmetry_equiv_pos_as_xyz
  1  'x, y, z'
loop_
 _atom_site_type_symbol
 _atom_site_label
 _atom_site_symmetry_multiplicity
 _atom_site_fract_x
 _atom_site_fract_y
 _atom_site_fract_z
 _atom_site_occupancy
  La  La0  1  0.50000000  0.00000000  0.89404381  1.0
  La  La1  1  0.00000000  0.50000000  0.10595619  1.0
  Ti  Ti2  1  0.50000000  0.00000000  0.27120022  1.0
  Ti  Ti3  1  0.00000000  0.50000000  0.72879978  1.0
  Ag  Ag4  1  0.50000000  0.00000000  0.56971401  1.0
  Ag  Ag5  1  0.00000000  0.50000000  0.43028599  1.0
  O  O6  1  0.00000000  0.00000000  0.23184670  1.0
  O  O7  1  0.50000000  0.50000000  0.76815330  1.0
  O  O8  1  0.50000000  0.50000000  0.23184670  1.0
  O  O9  1  0.00000000  0.00000000  0.76815330  1.0
  O  O10  1  0.50000000  0.00000000  0.06721244  1.0
  O  O11  1  0.00000000  0.50000000  0.93278756  1.0
  O  O12  1  0.50000000  0.00000000  0.40025128  1.0
  O  O13  1  0.00000000  0.50000000  0.59974872  1.0
