# generated using pymatgen
data_Gd12(ReC3)5
_symmetry_space_group_name_H-M   'P 1'
_cell_length_a   10.82696139
_cell_length_b   10.82696139
_cell_length_c   5.17426969
_cell_angle_alpha   90.00000000
_cell_angle_beta   90.00000000
_cell_angle_gamma   120.00000000
_symmetry_Int_Tables_number   1
_chemical_formula_structural   Gd12(ReC3)5
_chemical_formula_sum   'Gd12 Re5 C15'
_cell_volume   525.28242330
_cell_formula_units_Z   1
loop_
 _symmetry_equiv_pos_site_id
 _symmetry_equiv_pos_as_xyz
  1  'x, y, z'
loop_
 _atom_site_type_symbol
 _atom_site_label
 _atom_site_symmetry_multiplicity
 _atom_site_fract_x
 _atom_site_fract_y
 _atom_site_fract_z
 _atom_site_occupancy
  Gd  Gd0  1  0.18646131  0.72963303  0.00000000  1.0
  Gd  Gd1  1  0.72963303  0.18646131  0.00000000  1.0
  Gd  Gd2  1  0.54317172  0.81353869  0.00000000  1.0
  Gd  Gd3  1  0.27036697  0.45682828  0.00000000  1.0
  Gd  Gd4  1  0.81353869  0.54317172  0.00000000  1.0
  Gd  Gd5  1  0.45682828  0.27036697  0.00000000  1.0
  Gd  Gd6  1  0.57517449  0.57517449  0.50000000  1.0
  Gd  Gd7  1  0.00000000  0.42482551  0.50000000  1.0
  Gd  Gd8  1  0.42482551  0.00000000  0.50000000  1.0
  Gd  Gd9  1  0.20552872  0.20552872  0.50000000  1.0
  Gd  Gd10  1  0.00000000  0.79447128  0.50000000  1.0
  Gd  Gd11  1  0.79447128  0.00000000  0.50000000  1.0
  Re  Re12  1  0.84828193  0.84828193  0.00000000  1.0
  Re  Re13  1  0.00000000  0.15171807  0.00000000  1.0
  Re  Re14  1  0.15171807  0.00000000  0.00000000  1.0
  Re  Re15  1  0.33333333  0.66666667  0.50000000  1.0
  Re  Re16  1  0.66666667  0.33333333  0.50000000  1.0
  C  C17  1  0.18897288  0.71831449  0.50000000  1.0
  C  C18  1  0.71831449  0.18897288  0.50000000  1.0
  C  C19  1  0.52934161  0.81102712  0.50000000  1.0
  C  C20  1  0.28168551  0.47065839  0.50000000  1.0
  C  C21  1  0.81102712  0.52934161  0.50000000  1.0
  C  C22  1  0.47065839  0.28168551  0.50000000  1.0
  C  C23  1  0.66921452  0.66921452  0.00000000  1.0
  C  C24  1  0.00000000  0.33078548  0.00000000  1.0
  C  C25  1  0.33078548  0.00000000  0.00000000  1.0
  C  C26  1  0.54394956  0.54394956  0.00000000  1.0
  C  C27  1  -0.00000000  0.45605044  0.00000000  1.0
  C  C28  1  0.45605044  0.00000000  0.00000000  1.0
  C  C29  1  0.21221387  0.21221387  0.00000000  1.0
  C  C30  1  -0.00000000  0.78778613  0.00000000  1.0
  C  C31  1  0.78778613  0.00000000  0.00000000  1.0
