# generated using pymatgen
data_Gd4CoB13
_symmetry_space_group_name_H-M   'P 1'
_cell_length_a   7.35667544
_cell_length_b   7.35667544
_cell_length_c   6.97381439
_cell_angle_alpha   90.00000000
_cell_angle_beta   90.00000000
_cell_angle_gamma   90.00000000
_symmetry_Int_Tables_number   1
_chemical_formula_structural   Gd4CoB13
_chemical_formula_sum   'Gd8 Co2 B26'
_cell_volume   377.42753177
_cell_formula_units_Z   2
loop_
 _symmetry_equiv_pos_site_id
 _symmetry_equiv_pos_as_xyz
  1  'x, y, z'
loop_
 _atom_site_type_symbol
 _atom_site_label
 _atom_site_symmetry_multiplicity
 _atom_site_fract_x
 _atom_site_fract_y
 _atom_site_fract_z
 _atom_site_occupancy
  B  B0  1  0.33090910  0.53944667  0.25397139  1.0
  B  B1  1  0.33090910  0.53944667  0.74602861  1.0
  B  B2  1  0.83090910  0.96055333  0.75397139  1.0
  B  B3  1  0.83090910  0.96055333  0.24602861  1.0
  B  B4  1  0.46055333  0.33090910  0.25397139  1.0
  B  B5  1  0.46055333  0.33090910  0.74602861  1.0
  B  B6  1  0.96055333  0.16909090  0.75397139  1.0
  B  B7  1  0.96055333  0.16909090  0.24602861  1.0
  B  B8  1  0.66909090  0.46055333  0.25397139  1.0
  B  B9  1  0.66909090  0.46055333  0.74602861  1.0
  B  B10  1  0.16909090  0.03944667  0.75397139  1.0
  B  B11  1  0.16909090  0.03944667  0.24602861  1.0
  B  B12  1  0.53944667  0.66909090  0.25397139  1.0
  B  B13  1  0.53944667  0.66909090  0.74602861  1.0
  B  B14  1  0.03944667  0.83090910  0.75397139  1.0
  B  B15  1  0.03944667  0.83090910  0.24602861  1.0
  B  B16  1  0.40850217  0.09149783  0.25000000  1.0
  B  B17  1  0.40850217  0.09149783  0.75000000  1.0
  B  B18  1  0.90850217  0.40850217  0.75000000  1.0
  B  B19  1  0.90850217  0.40850217  0.25000000  1.0
  B  B20  1  0.59149783  0.90850217  0.25000000  1.0
  B  B21  1  0.59149783  0.90850217  0.75000000  1.0
  B  B22  1  0.09149783  0.59149783  0.75000000  1.0
  B  B23  1  0.09149783  0.59149783  0.25000000  1.0
  B  B24  1  0.50000000  0.50000000  0.50000000  1.0
  B  B25  1  0.00000000  0.00000000  0.00000000  1.0
  Co  Co26  1  0.50000000  0.50000000  -0.00000000  1.0
  Co  Co27  1  0.00000000  0.00000000  0.50000000  1.0
  Gd  Gd28  1  0.31893913  0.81537210  0.50000000  1.0
  Gd  Gd29  1  0.81893913  0.68462790  -0.00000000  1.0
  Gd  Gd30  1  0.18462790  0.31893913  0.50000000  1.0
  Gd  Gd31  1  0.68462790  0.18106087  0.00000000  1.0
  Gd  Gd32  1  0.68106087  0.18462790  0.50000000  1.0
  Gd  Gd33  1  0.18106087  0.31537210  -0.00000000  1.0
  Gd  Gd34  1  0.81537210  0.68106087  0.50000000  1.0
  Gd  Gd35  1  0.31537210  0.81893913  0.00000000  1.0
