# generated using pymatgen
data_Zr6Ga16Rh7
_symmetry_space_group_name_H-M   'P 1'
_cell_length_a   8.76799542
_cell_length_b   8.76799542
_cell_length_c   8.76799542
_cell_angle_alpha   60.00000000
_cell_angle_beta   60.00000000
_cell_angle_gamma   60.00000000
_symmetry_Int_Tables_number   1
_chemical_formula_structural   Zr6Ga16Rh7
_chemical_formula_sum   'Zr6 Ga16 Rh7'
_cell_volume   476.63501587
_cell_formula_units_Z   1
loop_
 _symmetry_equiv_pos_site_id
 _symmetry_equiv_pos_as_xyz
  1  'x, y, z'
loop_
 _atom_site_type_symbol
 _atom_site_label
 _atom_site_symmetry_multiplicity
 _atom_site_fract_x
 _atom_site_fract_y
 _atom_site_fract_z
 _atom_site_occupancy
  Zr  Zr0  1  -0.69643880  0.69643880  0.69643880  1.0
  Zr  Zr1  1  -0.30356120  0.30356120  0.69643880  1.0
  Zr  Zr2  1  0.69643880  0.69643880  -0.69643880  1.0
  Zr  Zr3  1  0.30356120  1.30356120  -0.30356120  1.0
  Zr  Zr4  1  0.30356120  -0.30356120  1.30356120  1.0
  Zr  Zr5  1  -0.30356120  0.30356120  0.30356120  1.0
  Ga  Ga6  1  0.87755826  0.87755826  -0.12244174  1.0
  Ga  Ga7  1  1.12244174  0.12244174  0.63267477  1.0
  Ga  Ga8  1  1.12244174  0.63267477  0.12244174  1.0
  Ga  Ga9  1  0.36732523  0.87755826  -0.12244174  1.0
  Ga  Ga10  1  1.63267477  0.12244174  0.12244174  1.0
  Ga  Ga11  1  0.87755826  0.36732523  -0.12244174  1.0
  Ga  Ga12  1  0.87755826  0.87755826  -0.63267477  1.0
  Ga  Ga13  1  1.12244174  0.12244174  0.12244174  1.0
  Ga  Ga14  1  0.65588956  0.65588956  -0.34411044  1.0
  Ga  Ga15  1  1.34411044  0.34411044  -0.03233131  1.0
  Ga  Ga16  1  1.34411044  -0.03233131  0.34411044  1.0
  Ga  Ga17  1  1.03233131  0.65588956  -0.34411044  1.0
  Ga  Ga18  1  0.96766869  0.34411044  0.34411044  1.0
  Ga  Ga19  1  0.65588956  1.03233131  -0.34411044  1.0
  Ga  Ga20  1  0.65588956  0.65588956  0.03233131  1.0
  Ga  Ga21  1  1.34411044  0.34411044  0.34411044  1.0
  Rh  Rh22  1  1.50000000  -0.00000000  0.00000000  1.0
  Rh  Rh23  1  1.00000000  0.50000000  -0.50000000  1.0
  Rh  Rh24  1  -0.00000000  1.50000000  0.00000000  1.0
  Rh  Rh25  1  0.50000000  1.00000000  -0.50000000  1.0
  Rh  Rh26  1  0.00000000  -0.00000000  0.50000000  1.0
  Rh  Rh27  1  0.50000000  -0.50000000  1.00000000  1.0
  Rh  Rh28  1  0.00000000  0.00000000  0.00000000  1.0
