# generated using pymatgen
data_Ba2MgF6
_symmetry_space_group_name_H-M   'P 1'
_cell_length_a   5.84159294
_cell_length_b   5.84159294
_cell_length_c   4.53938180
_cell_angle_alpha   90.00000000
_cell_angle_beta   90.00000000
_cell_angle_gamma   120.00000000
_symmetry_Int_Tables_number   1
_chemical_formula_structural   Ba2MgF6
_chemical_formula_sum   'Ba2 Mg1 F6'
_cell_volume   134.14976743
_cell_formula_units_Z   1
loop_
 _symmetry_equiv_pos_site_id
 _symmetry_equiv_pos_as_xyz
  1  'x, y, z'
loop_
 _atom_site_type_symbol
 _atom_site_label
 _atom_site_symmetry_multiplicity
 _atom_site_fract_x
 _atom_site_fract_y
 _atom_site_fract_z
 _atom_site_occupancy
  Ba  Ba0  1  0.33333333  0.66666667  0.27089268  1.0
  Ba  Ba1  1  0.66666667  0.33333333  0.72910732  1.0
  Mg  Mg2  1  0.00000000  0.00000000  0.00000000  1.0
  F  F3  1  0.33946957  0.16973478  0.23051669  1.0
  F  F4  1  0.16973478  0.33946957  0.76948331  1.0
  F  F5  1  0.16973478  0.83026522  0.76948331  1.0
  F  F6  1  0.83026522  0.16973478  0.23051669  1.0
  F  F7  1  0.83026522  0.66053043  0.23051669  1.0
  F  F8  1  0.66053043  0.83026522  0.76948331  1.0
