# generated using pymatgen
data_BaGa4S7
_symmetry_space_group_name_H-M   'P 1'
_cell_length_a   15.00409304
_cell_length_b   6.31193666
_cell_length_c   6.02961058
_cell_angle_alpha   90.00000000
_cell_angle_beta   90.00000000
_cell_angle_gamma   90.00000000
_symmetry_Int_Tables_number   1
_chemical_formula_structural   BaGa4S7
_chemical_formula_sum   'Ba2 Ga8 S14'
_cell_volume   571.03357605
_cell_formula_units_Z   2
loop_
 _symmetry_equiv_pos_site_id
 _symmetry_equiv_pos_as_xyz
  1  'x, y, z'
loop_
 _atom_site_type_symbol
 _atom_site_label
 _atom_site_symmetry_multiplicity
 _atom_site_fract_x
 _atom_site_fract_y
 _atom_site_fract_z
 _atom_site_occupancy
  Ba  Ba0  1  0.50000000  0.65125036  0.48366237  1.0
  Ba  Ba1  1  0.00000000  0.34874964  -0.01633763  1.0
  Ga  Ga2  1  0.38012462  0.17041303  0.10207755  1.0
  Ga  Ga3  1  0.88012462  0.82958697  0.60207755  1.0
  Ga  Ga4  1  0.61987538  0.17041303  0.10207755  1.0
  Ga  Ga5  1  0.11987538  0.82958697  0.60207755  1.0
  Ga  Ga6  1  0.25212364  0.68500429  0.08431359  1.0
  Ga  Ga7  1  0.75212364  0.31499571  0.58431359  1.0
  Ga  Ga8  1  0.74787636  0.68500429  0.08431359  1.0
  Ga  Ga9  1  0.24787636  0.31499571  0.58431359  1.0
  S  S10  1  0.38364640  0.19733823  0.48144165  1.0
  S  S11  1  0.88364640  0.80266177  0.98144165  1.0
  S  S12  1  0.61635360  0.19733823  0.48144165  1.0
  S  S13  1  0.11635360  0.80266177  0.98144165  1.0
  S  S14  1  0.24768408  0.32744015  0.97660035  1.0
  S  S15  1  0.74768408  0.67255985  0.47660035  1.0
  S  S16  1  0.75231592  0.32744015  0.97660035  1.0
  S  S17  1  0.25231592  0.67255985  0.47660035  1.0
  S  S18  1  0.11296725  0.17767058  0.50035480  1.0
  S  S19  1  0.61296725  0.82232942  1.00035480  1.0
  S  S20  1  0.88703275  0.17767058  0.50035480  1.0
  S  S21  1  0.38703275  0.82232942  1.00035480  1.0
  S  S22  1  0.50000000  0.36143600  0.98276176  1.0
  S  S23  1  0.00000000  0.63856400  0.48276176  1.0
