# generated using pymatgen
data_Ba(CuP)2
_symmetry_space_group_name_H-M   'P 1'
_cell_length_a   14.04779764
_cell_length_b   12.02542035
_cell_length_c   8.19841386
_cell_angle_alpha   85.78744520
_cell_angle_beta   58.61897831
_cell_angle_gamma   35.59357649
_symmetry_Int_Tables_number   1
_chemical_formula_structural   Ba(CuP)2
_chemical_formula_sum   'Ba4 Cu8 P8'
_cell_volume   488.51594609
_cell_formula_units_Z   4
loop_
 _symmetry_equiv_pos_site_id
 _symmetry_equiv_pos_as_xyz
  1  'x, y, z'
loop_
 _atom_site_type_symbol
 _atom_site_label
 _atom_site_symmetry_multiplicity
 _atom_site_fract_x
 _atom_site_fract_y
 _atom_site_fract_z
 _atom_site_occupancy
  Ba  Ba0  1  0.62500000  0.62500000  1.12500000  1.0
  Ba  Ba1  1  0.62500000  1.12500000  0.62500000  1.0
  Ba  Ba2  1  0.62500000  0.62500000  0.62500000  1.0
  Ba  Ba3  1  1.12500000  0.62500000  0.62500000  1.0
  Cu  Cu4  1  1.10974896  -0.02177077  0.76660469  1.0
  Cu  Cu5  1  1.14541712  0.76660469  -0.02177077  1.0
  Cu  Cu6  1  1.27177077  0.14025104  0.10458288  1.0
  Cu  Cu7  1  1.48339531  0.10458288  0.14025104  1.0
  Cu  Cu8  1  1.76660469  0.14541712  0.10974896  1.0
  Cu  Cu9  1  0.97822923  0.10974896  0.14541712  1.0
  Cu  Cu10  1  1.10458288  0.48339531  0.27177077  1.0
  Cu  Cu11  1  1.14025104  0.27177077  0.48339531  1.0
  P  P12  1  0.88951207  0.12467610  0.47214136  1.0
  P  P13  1  1.51367047  0.47214136  0.12467610  1.0
  P  P14  1  1.12532390  0.36048793  0.73632953  1.0
  P  P15  1  0.77785864  0.73632953  0.36048793  1.0
  P  P16  1  1.47214136  0.51367047  -0.11048793  1.0
  P  P17  1  1.12467610  -0.11048793  0.51367047  1.0
  P  P18  1  0.73632953  0.77785864  1.12532390  1.0
  P  P19  1  0.36048793  1.12532390  0.77785864  1.0
