# generated using pymatgen
data_KFeS2
_symmetry_space_group_name_H-M   'P 1'
_cell_length_a   6.64642074
_cell_length_b   6.64642074
_cell_length_c   5.37976983
_cell_angle_alpha   78.42345824
_cell_angle_beta   101.57654176
_cell_angle_gamma   63.90589873
_symmetry_Int_Tables_number   1
_chemical_formula_structural   KFeS2
_chemical_formula_sum   'K2 Fe2 S4'
_cell_volume   197.48858805
_cell_formula_units_Z   2
loop_
 _symmetry_equiv_pos_site_id
 _symmetry_equiv_pos_as_xyz
  1  'x, y, z'
loop_
 _atom_site_type_symbol
 _atom_site_label
 _atom_site_symmetry_multiplicity
 _atom_site_fract_x
 _atom_site_fract_y
 _atom_site_fract_z
 _atom_site_occupancy
  K  K0  1  0.85721902  -0.14278098  0.25000000  1.0
  K  K1  1  1.14278098  0.14278098  0.75000000  1.0
  Fe  Fe2  1  1.49712832  0.49712832  0.25000000  1.0
  Fe  Fe3  1  0.50287168  -0.49712832  0.75000000  1.0
  S  S4  1  0.41300120  -0.20290320  0.40063610  1.0
  S  S5  1  1.20290320  0.58699880  0.90063610  1.0
  S  S6  1  0.79709680  -0.58699880  0.09936390  1.0
  S  S7  1  1.58699880  0.20290320  0.59936390  1.0
