# generated using pymatgen
data_CsMo2P3O13
_symmetry_space_group_name_H-M   'P 1'
_cell_length_a   8.06545911
_cell_length_b   8.58329587
_cell_length_c   9.09132758
_cell_angle_alpha   90.00000000
_cell_angle_beta   99.69727370
_cell_angle_gamma   90.00000000
_symmetry_Int_Tables_number   1
_chemical_formula_structural   CsMo2P3O13
_chemical_formula_sum   'Cs2 Mo4 P6 O26'
_cell_volume   620.38358826
_cell_formula_units_Z   2
loop_
 _symmetry_equiv_pos_site_id
 _symmetry_equiv_pos_as_xyz
  1  'x, y, z'
loop_
 _atom_site_type_symbol
 _atom_site_label
 _atom_site_symmetry_multiplicity
 _atom_site_fract_x
 _atom_site_fract_y
 _atom_site_fract_z
 _atom_site_occupancy
  Cs  Cs0  1  0.50000000  0.81588460  0.75000000  1.0
  Cs  Cs1  1  0.50000000  0.18411540  0.25000000  1.0
  Mo  Mo2  1  0.79611906  0.76498572  0.43634369  1.0
  Mo  Mo3  1  0.79611906  0.23501428  0.93634369  1.0
  Mo  Mo4  1  0.20388094  0.76498572  0.06365631  1.0
  Mo  Mo5  1  0.20388094  0.23501428  0.56365631  1.0
  P  P6  1  0.85711159  0.43961034  0.63910573  1.0
  P  P7  1  0.85711159  0.56038966  0.13910573  1.0
  P  P8  1  0.14288841  0.43961034  0.86089427  1.0
  P  P9  1  0.14288841  0.56038966  0.36089427  1.0
  P  P10  1  0.00000000  0.95573837  0.75000000  1.0
  P  P11  1  -0.00000000  0.04426163  0.25000000  1.0
  O  O12  1  0.94876660  0.32823704  0.54908139  1.0
  O  O13  1  0.94876660  0.67176296  0.04908139  1.0
  O  O14  1  0.05123340  0.32823704  0.95091861  1.0
  O  O15  1  0.05123340  0.67176296  0.45091861  1.0
  O  O16  1  0.88795309  0.94649669  0.33665053  1.0
  O  O17  1  0.88795309  0.05350331  0.83665053  1.0
  O  O18  1  0.11204691  0.94649669  0.16334947  1.0
  O  O19  1  0.11204691  0.05350331  0.66334947  1.0
  O  O20  1  0.87907927  0.85114156  0.64178312  1.0
  O  O21  1  0.87907927  0.14885844  0.14178312  1.0
  O  O22  1  0.12092073  0.85114156  0.85821688  1.0
  O  O23  1  0.12092073  0.14885844  0.35821688  1.0
  O  O24  1  0.74865172  0.56240264  0.54454719  1.0
  O  O25  1  0.74865172  0.43759736  0.04454719  1.0
  O  O26  1  0.25134828  0.56240264  0.95545281  1.0
  O  O27  1  0.25134828  0.43759736  0.45545281  1.0
  O  O28  1  0.74909757  0.35515086  0.73913107  1.0
  O  O29  1  0.74909757  0.64484914  0.23913107  1.0
  O  O30  1  0.25090243  0.35515086  0.76086893  1.0
  O  O31  1  0.25090243  0.64484914  0.26086893  1.0
  O  O32  1  0.59784900  0.83487634  0.42240418  1.0
  O  O33  1  0.59784900  0.16512366  0.92240418  1.0
  O  O34  1  0.40215100  0.83487634  0.07759582  1.0
  O  O35  1  0.40215100  0.16512366  0.57759582  1.0
  O  O36  1  0.00000000  0.53605630  0.75000000  1.0
  O  O37  1  -0.00000000  0.46394370  0.25000000  1.0
