# generated using pymatgen
data_K3SbO3
_symmetry_space_group_name_H-M   'P 1'
_cell_length_a   8.51065657
_cell_length_b   8.51065657
_cell_length_c   8.51065657
_cell_angle_alpha   90.00000000
_cell_angle_beta   90.00000000
_cell_angle_gamma   90.00000000
_symmetry_Int_Tables_number   1
_chemical_formula_structural   K3SbO3
_chemical_formula_sum   'K12 Sb4 O12'
_cell_volume   616.43770758
_cell_formula_units_Z   4
loop_
 _symmetry_equiv_pos_site_id
 _symmetry_equiv_pos_as_xyz
  1  'x, y, z'
loop_
 _atom_site_type_symbol
 _atom_site_label
 _atom_site_symmetry_multiplicity
 _atom_site_fract_x
 _atom_site_fract_y
 _atom_site_fract_z
 _atom_site_occupancy
  K  K0  1  0.46776294  0.96776294  0.53223706  1.0
  K  K1  1  0.96776294  0.53223706  0.46776294  1.0
  K  K2  1  0.53223706  0.46776294  0.96776294  1.0
  K  K3  1  0.03223706  0.03223706  0.03223706  1.0
  K  K4  1  0.96289995  0.46289995  0.03710005  1.0
  K  K5  1  0.46289995  0.03710005  0.96289995  1.0
  K  K6  1  0.03710005  0.96289995  0.46289995  1.0
  K  K7  1  0.53710005  0.53710005  0.53710005  1.0
  K  K8  1  0.73002647  0.23002647  0.26997353  1.0
  K  K9  1  0.23002647  0.26997353  0.73002647  1.0
  K  K10  1  0.26997353  0.73002647  0.23002647  1.0
  K  K11  1  0.76997353  0.76997353  0.76997353  1.0
  Sb  Sb12  1  0.23750404  0.73750404  0.76249596  1.0
  Sb  Sb13  1  0.73750404  0.76249596  0.23750404  1.0
  Sb  Sb14  1  0.76249596  0.23750404  0.73750404  1.0
  Sb  Sb15  1  0.26249596  0.26249596  0.26249596  1.0
  O  O16  1  0.46425962  0.74518221  0.80896852  1.0
  O  O17  1  0.96425962  0.75481779  0.19103148  1.0
  O  O18  1  0.24518221  0.69103148  0.53574038  1.0
  O  O19  1  0.74518221  0.80896852  0.46425962  1.0
  O  O20  1  0.19103148  0.96425962  0.75481779  1.0
  O  O21  1  0.69103148  0.53574038  0.24518221  1.0
  O  O22  1  0.53574038  0.24518221  0.69103148  1.0
  O  O23  1  0.03574038  0.25481779  0.30896852  1.0
  O  O24  1  0.75481779  0.19103148  0.96425962  1.0
  O  O25  1  0.25481779  0.30896852  0.03574038  1.0
  O  O26  1  0.80896852  0.46425962  0.74518221  1.0
  O  O27  1  0.30896852  0.03574038  0.25481779  1.0
