# generated using pymatgen
data_CuB4O7
_symmetry_space_group_name_H-M   'P 1'
_cell_length_a   6.35460174
_cell_length_b   6.35460174
_cell_length_c   5.14856054
_cell_angle_alpha   90.00000000
_cell_angle_beta   90.00000000
_cell_angle_gamma   62.25716044
_symmetry_Int_Tables_number   1
_chemical_formula_structural   CuB4O7
_chemical_formula_sum   'Cu2 B8 O14'
_cell_volume   184.00441946
_cell_formula_units_Z   2
loop_
 _symmetry_equiv_pos_site_id
 _symmetry_equiv_pos_as_xyz
  1  'x, y, z'
loop_
 _atom_site_type_symbol
 _atom_site_label
 _atom_site_symmetry_multiplicity
 _atom_site_fract_x
 _atom_site_fract_y
 _atom_site_fract_z
 _atom_site_occupancy
  Cu  Cu0  1  -0.28181872  1.28181872  0.25000000  1.0
  Cu  Cu1  1  0.28181872  0.71818128  0.75000000  1.0
  B  B2  1  0.07579953  0.69675966  0.25000000  1.0
  B  B3  1  -0.30324034  1.07579953  0.75000000  1.0
  B  B4  1  0.30324034  0.92420047  0.25000000  1.0
  B  B5  1  -0.07579953  1.30324034  0.75000000  1.0
  B  B6  1  0.70395447  0.70395447  0.50000000  1.0
  B  B7  1  0.70395447  0.70395447  0.00000000  1.0
  B  B8  1  0.29604553  0.29604553  0.50000000  1.0
  B  B9  1  0.29604553  0.29604553  0.00000000  1.0
  O  O10  1  0.19022375  0.55408190  0.47908161  1.0
  O  O11  1  0.19022375  0.55408190  0.02091839  1.0
  O  O12  1  -0.44591810  1.19022375  0.97908161  1.0
  O  O13  1  -0.44591810  1.19022375  0.52091839  1.0
  O  O14  1  0.44591810  0.80977625  0.47908161  1.0
  O  O15  1  0.44591810  0.80977625  0.02091839  1.0
  O  O16  1  -0.19022375  1.44591810  0.97908161  1.0
  O  O17  1  -0.19022375  1.44591810  0.52091839  1.0
  O  O18  1  -0.19629824  1.75659533  0.25000000  1.0
  O  O19  1  0.75659533  0.80370176  0.75000000  1.0
  O  O20  1  -0.75659533  1.19629824  0.25000000  1.0
  O  O21  1  0.19629824  0.24340467  0.75000000  1.0
  O  O22  1  0.08086177  0.91913823  0.25000000  1.0
  O  O23  1  -0.08086177  1.08086177  0.75000000  1.0
