# generated using pymatgen
data_NaLiBeF4
_symmetry_space_group_name_H-M   'P 1'
_cell_length_a   10.97342130
_cell_length_b   6.27896528
_cell_length_c   4.69265441
_cell_angle_alpha   90.00000000
_cell_angle_beta   90.00000000
_cell_angle_gamma   90.00000000
_symmetry_Int_Tables_number   1
_chemical_formula_structural   NaLiBeF4
_chemical_formula_sum   'Na4 Li4 Be4 F16'
_cell_volume   323.33201375
_cell_formula_units_Z   4
loop_
 _symmetry_equiv_pos_site_id
 _symmetry_equiv_pos_as_xyz
  1  'x, y, z'
loop_
 _atom_site_type_symbol
 _atom_site_label
 _atom_site_symmetry_multiplicity
 _atom_site_fract_x
 _atom_site_fract_y
 _atom_site_fract_z
 _atom_site_occupancy
  Na  Na0  1  0.77605180  0.25000000  0.53374729  1.0
  Na  Na1  1  0.27605180  0.25000000  0.96625271  1.0
  Na  Na2  1  0.22394820  0.75000000  0.46625271  1.0
  Na  Na3  1  0.72394820  0.75000000  0.03374729  1.0
  Li  Li4  1  0.00000000  0.50000000  -0.00000000  1.0
  Li  Li5  1  -0.00000000  -0.00000000  0.00000000  1.0
  Li  Li6  1  0.50000000  0.50000000  0.50000000  1.0
  Li  Li7  1  0.50000000  0.00000000  0.50000000  1.0
  Be  Be8  1  0.57927824  0.25000000  0.10464306  1.0
  Be  Be9  1  0.07927824  0.25000000  0.39535694  1.0
  Be  Be10  1  0.42072176  0.75000000  0.89535694  1.0
  Be  Be11  1  0.92072176  0.75000000  0.60464306  1.0
  F  F12  1  0.57707538  0.25000000  0.77556761  1.0
  F  F13  1  0.07707538  0.25000000  0.72443239  1.0
  F  F14  1  0.42292462  0.75000000  0.22443239  1.0
  F  F15  1  0.92292462  0.75000000  0.27556761  1.0
  F  F16  1  0.94895662  0.25000000  0.24701626  1.0
  F  F17  1  0.44895662  0.25000000  0.25298374  1.0
  F  F18  1  0.05104338  0.75000000  0.75298374  1.0
  F  F19  1  0.55104338  0.75000000  0.74701626  1.0
  F  F20  1  0.64375973  0.45169978  0.23598319  1.0
  F  F21  1  0.64375973  0.04830022  0.23598319  1.0
  F  F22  1  0.14375973  0.45169978  0.26401681  1.0
  F  F23  1  0.14375973  0.04830022  0.26401681  1.0
  F  F24  1  0.35624027  0.95169978  0.76401681  1.0
  F  F25  1  0.35624027  0.54830022  0.76401681  1.0
  F  F26  1  0.85624027  0.95169978  0.73598319  1.0
  F  F27  1  0.85624027  0.54830022  0.73598319  1.0
