# generated using pymatgen
data_Ta(NiTe)2
_symmetry_space_group_name_H-M   'P 1'
_cell_length_a   6.50611032
_cell_length_b   3.56850200
_cell_length_c   18.25316406
_cell_angle_alpha   90.00000000
_cell_angle_beta   90.00000000
_cell_angle_gamma   90.00000000
_symmetry_Int_Tables_number   1
_chemical_formula_structural   Ta(NiTe)2
_chemical_formula_sum   'Ta4 Ni8 Te8'
_cell_volume   423.78494569
_cell_formula_units_Z   4
loop_
 _symmetry_equiv_pos_site_id
 _symmetry_equiv_pos_as_xyz
  1  'x, y, z'
loop_
 _atom_site_type_symbol
 _atom_site_label
 _atom_site_symmetry_multiplicity
 _atom_site_fract_x
 _atom_site_fract_y
 _atom_site_fract_z
 _atom_site_occupancy
  Ta  Ta0  1  0.90478765  0.75000000  0.77438098  1.0
  Ta  Ta1  1  0.40478765  0.75000000  0.72561902  1.0
  Ta  Ta2  1  0.09521235  0.25000000  0.22561902  1.0
  Ta  Ta3  1  0.59521235  0.25000000  0.27438098  1.0
  Ni  Ni4  1  0.89985811  0.75000000  0.31230254  1.0
  Ni  Ni5  1  0.39985811  0.75000000  0.18769746  1.0
  Ni  Ni6  1  0.10014189  0.25000000  0.68769746  1.0
  Ni  Ni7  1  0.60014189  0.25000000  0.81230254  1.0
  Ni  Ni8  1  0.78941533  0.75000000  0.18698939  1.0
  Ni  Ni9  1  0.28941533  0.75000000  0.31301061  1.0
  Ni  Ni10  1  0.21058467  0.25000000  0.81301061  1.0
  Ni  Ni11  1  0.71058467  0.25000000  0.68698939  1.0
  Te  Te12  1  0.90632275  0.75000000  0.61181853  1.0
  Te  Te13  1  0.40632275  0.75000000  0.88818147  1.0
  Te  Te14  1  0.09367725  0.25000000  0.38818147  1.0
  Te  Te15  1  0.59367725  0.25000000  0.11181853  1.0
  Te  Te16  1  0.59525015  0.75000000  0.40047337  1.0
  Te  Te17  1  0.09525015  0.75000000  0.09952663  1.0
  Te  Te18  1  0.40474985  0.25000000  0.59952663  1.0
  Te  Te19  1  0.90474985  0.25000000  0.90047337  1.0
