# generated using pymatgen
data_Na2Cu3Bi2As2O13
_symmetry_space_group_name_H-M   'P 1'
_cell_length_a   5.64803402
_cell_length_b   5.64803402
_cell_length_c   13.05165497
_cell_angle_alpha   73.88294012
_cell_angle_beta   106.11705988
_cell_angle_gamma   124.93209809
_symmetry_Int_Tables_number   1
_chemical_formula_structural   Na2Cu3Bi2As2O13
_chemical_formula_sum   'Na2 Cu3 Bi2 As2 O13'
_cell_volume   324.18023770
_cell_formula_units_Z   1
loop_
 _symmetry_equiv_pos_site_id
 _symmetry_equiv_pos_as_xyz
  1  'x, y, z'
loop_
 _atom_site_type_symbol
 _atom_site_label
 _atom_site_symmetry_multiplicity
 _atom_site_fract_x
 _atom_site_fract_y
 _atom_site_fract_z
 _atom_site_occupancy
  As  As0  1  0.93626785  -0.87620855  0.71863306  1.0
  As  As1  1  0.12379145  -0.06373215  0.28136694  1.0
  O  O2  1  1.11677065  0.40982224  0.94401877  1.0
  O  O3  1  1.40982224  0.11677065  0.05598123  1.0
  O  O4  1  1.19857905  0.49983855  0.71767672  1.0
  O  O5  1  1.49983855  0.19857905  0.28232328  1.0
  O  O6  1  1.05160472  0.92465182  0.82541232  1.0
  O  O7  1  1.92465182  0.05160472  0.17458768  1.0
  O  O8  1  1.87519936  0.02656752  0.59745353  1.0
  O  O9  1  1.02656752  0.87519936  0.40254647  1.0
  O  O10  1  0.60826205  -0.09178967  0.96049021  1.0
  O  O11  1  0.90821033  -0.39173795  0.03950979  1.0
  O  O12  1  0.61717635  0.07263415  0.74746703  1.0
  O  O13  1  1.07263415  -0.38282365  0.25253297  1.0
  O  O14  1  0.40554812  0.40554812  0.50000000  1.0
  Na  Na15  1  0.90588884  -0.76975384  0.41761964  1.0
  Na  Na16  1  0.23024616  -0.09411116  0.58238036  1.0
  Bi  Bi17  1  0.67754002  0.35703253  0.89477317  1.0
  Bi  Bi18  1  1.35703253  -0.32245998  0.10522683  1.0
  Cu  Cu19  1  0.36686184  -0.29414840  0.83880562  1.0
  Cu  Cu20  1  0.70585160  -0.63313816  0.16119438  1.0
  Cu  Cu21  1  0.01095483  0.01095483  -0.00000000  1.0
