# generated using pymatgen
data_LuSiPt2
_symmetry_space_group_name_H-M   'P 1'
_cell_length_a   7.21365698
_cell_length_b   6.98445058
_cell_length_c   5.44254909
_cell_angle_alpha   90.00000000
_cell_angle_beta   90.00000000
_cell_angle_gamma   90.00000000
_symmetry_Int_Tables_number   1
_chemical_formula_structural   LuSiPt2
_chemical_formula_sum   'Lu4 Si4 Pt8'
_cell_volume   274.21429458
_cell_formula_units_Z   4
loop_
 _symmetry_equiv_pos_site_id
 _symmetry_equiv_pos_as_xyz
  1  'x, y, z'
loop_
 _atom_site_type_symbol
 _atom_site_label
 _atom_site_symmetry_multiplicity
 _atom_site_fract_x
 _atom_site_fract_y
 _atom_site_fract_z
 _atom_site_occupancy
  Lu  Lu0  1  0.97470692  0.25000000  0.63299713  1.0
  Lu  Lu1  1  0.47470692  0.25000000  0.86700287  1.0
  Lu  Lu2  1  0.02529308  0.75000000  0.36700287  1.0
  Lu  Lu3  1  0.52529308  0.75000000  0.13299713  1.0
  Si  Si4  1  0.61865119  0.25000000  0.36734166  1.0
  Si  Si5  1  0.11865119  0.25000000  0.13265834  1.0
  Si  Si6  1  0.38134881  0.75000000  0.63265834  1.0
  Si  Si7  1  0.88134881  0.75000000  0.86734166  1.0
  Pt  Pt8  1  0.81683851  0.44960437  0.09213899  1.0
  Pt  Pt9  1  0.81683851  0.05039563  0.09213899  1.0
  Pt  Pt10  1  0.31683851  0.44960437  0.40786101  1.0
  Pt  Pt11  1  0.31683851  0.05039563  0.40786101  1.0
  Pt  Pt12  1  0.18316149  0.94960437  0.90786101  1.0
  Pt  Pt13  1  0.18316149  0.55039563  0.90786101  1.0
  Pt  Pt14  1  0.68316149  0.94960437  0.59213899  1.0
  Pt  Pt15  1  0.68316149  0.55039563  0.59213899  1.0
