# generated using pymatgen
data_Sr3SiO
_symmetry_space_group_name_H-M   'P 1'
_cell_length_a   7.18668669
_cell_length_b   10.13594732
_cell_length_c   7.14544979
_cell_angle_alpha   90.00000000
_cell_angle_beta   90.00000000
_cell_angle_gamma   90.00000000
_symmetry_Int_Tables_number   1
_chemical_formula_structural   Sr3SiO
_chemical_formula_sum   'Sr12 Si4 O4'
_cell_volume   520.50227077
_cell_formula_units_Z   4
loop_
 _symmetry_equiv_pos_site_id
 _symmetry_equiv_pos_as_xyz
  1  'x, y, z'
loop_
 _atom_site_type_symbol
 _atom_site_label
 _atom_site_symmetry_multiplicity
 _atom_site_fract_x
 _atom_site_fract_y
 _atom_site_fract_z
 _atom_site_occupancy
  Sr  Sr0  1  0.28281962  0.46762819  0.78307927  1.0
  Sr  Sr1  1  0.28281962  0.03237181  0.78307927  1.0
  Sr  Sr2  1  0.78281962  0.46762819  0.71692073  1.0
  Sr  Sr3  1  0.78281962  0.03237181  0.71692073  1.0
  Sr  Sr4  1  0.71718038  0.96762819  0.21692073  1.0
  Sr  Sr5  1  0.71718038  0.53237181  0.21692073  1.0
  Sr  Sr6  1  0.21718038  0.96762819  0.28307927  1.0
  Sr  Sr7  1  0.21718038  0.53237181  0.28307927  1.0
  Sr  Sr8  1  0.98943753  0.25000000  0.06212434  1.0
  Sr  Sr9  1  0.48943753  0.25000000  0.43787566  1.0
  Sr  Sr10  1  0.01056247  0.75000000  0.93787566  1.0
  Sr  Sr11  1  0.51056247  0.75000000  0.56212434  1.0
  Si  Si12  1  0.02753028  0.25000000  0.50639300  1.0
  Si  Si13  1  0.52753028  0.25000000  -0.00639300  1.0
  Si  Si14  1  0.97246972  0.75000000  0.49360700  1.0
  Si  Si15  1  0.47246972  0.75000000  1.00639300  1.0
  O  O16  1  0.50000000  0.50000000  0.50000000  1.0
  O  O17  1  0.50000000  0.00000000  0.50000000  1.0
  O  O18  1  0.00000000  0.50000000  0.00000000  1.0
  O  O19  1  0.00000000  0.00000000  0.00000000  1.0
