# generated using pymatgen
data_Sn(SeO3)2
_symmetry_space_group_name_H-M   'P 1'
_cell_length_a   8.36536719
_cell_length_b   8.36536719
_cell_length_c   8.36536719
_cell_angle_alpha   90.00000000
_cell_angle_beta   90.00000000
_cell_angle_gamma   90.00000000
_symmetry_Int_Tables_number   1
_chemical_formula_structural   Sn(SeO3)2
_chemical_formula_sum   'Sn4 Se8 O24'
_cell_volume   585.40311171
_cell_formula_units_Z   4
loop_
 _symmetry_equiv_pos_site_id
 _symmetry_equiv_pos_as_xyz
  1  'x, y, z'
loop_
 _atom_site_type_symbol
 _atom_site_label
 _atom_site_symmetry_multiplicity
 _atom_site_fract_x
 _atom_site_fract_y
 _atom_site_fract_z
 _atom_site_occupancy
  Sn  Sn0  1  0.50000000  0.00000000  0.50000000  1.0
  Sn  Sn1  1  0.50000000  0.50000000  0.00000000  1.0
  Sn  Sn2  1  0.00000000  0.00000000  0.00000000  1.0
  Sn  Sn3  1  0.00000000  0.50000000  0.50000000  1.0
  Se  Se4  1  0.16880687  0.66880687  0.83119313  1.0
  Se  Se5  1  0.16880687  0.83119313  0.33119313  1.0
  Se  Se6  1  0.66880687  0.66880687  0.66880687  1.0
  Se  Se7  1  0.66880687  0.83119313  0.16880687  1.0
  Se  Se8  1  0.83119313  0.16880687  0.66880687  1.0
  Se  Se9  1  0.83119313  0.33119313  0.16880687  1.0
  Se  Se10  1  0.33119313  0.16880687  0.83119313  1.0
  Se  Se11  1  0.33119313  0.33119313  0.33119313  1.0
  O  O12  1  0.25635056  0.53756286  0.96513544  1.0
  O  O13  1  0.25635056  0.96243714  0.46513544  1.0
  O  O14  1  0.75635056  0.53756286  0.53486456  1.0
  O  O15  1  0.75635056  0.96243714  0.03486456  1.0
  O  O16  1  0.03756286  0.53486456  0.74364944  1.0
  O  O17  1  0.03756286  0.96513544  0.24364944  1.0
  O  O18  1  0.53756286  0.53486456  0.75635056  1.0
  O  O19  1  0.53756286  0.96513544  0.25635056  1.0
  O  O20  1  0.03486456  0.75635056  0.96243714  1.0
  O  O21  1  0.03486456  0.74364944  0.46243714  1.0
  O  O22  1  0.53486456  0.75635056  0.53756286  1.0
  O  O23  1  0.53486456  0.74364944  0.03756286  1.0
  O  O24  1  0.74364944  0.03756286  0.53486456  1.0
  O  O25  1  0.74364944  0.46243714  0.03486456  1.0
  O  O26  1  0.24364944  0.03756286  0.96513544  1.0
  O  O27  1  0.24364944  0.46243714  0.46513544  1.0
  O  O28  1  0.96243714  0.03486456  0.75635056  1.0
  O  O29  1  0.96243714  0.46513544  0.25635056  1.0
  O  O30  1  0.46243714  0.03486456  0.74364944  1.0
  O  O31  1  0.46243714  0.46513544  0.24364944  1.0
  O  O32  1  0.96513544  0.25635056  0.53756286  1.0
  O  O33  1  0.96513544  0.24364944  0.03756286  1.0
  O  O34  1  0.46513544  0.25635056  0.96243714  1.0
  O  O35  1  0.46513544  0.24364944  0.46243714  1.0
