# generated using pymatgen
data_Sr2Li3TaN4
_symmetry_space_group_name_H-M   'P 1'
_cell_length_a   8.71512446
_cell_length_b   9.01334396
_cell_length_c   7.02278135
_cell_angle_alpha   90.00000000
_cell_angle_beta   90.00000000
_cell_angle_gamma   90.00000000
_symmetry_Int_Tables_number   1
_chemical_formula_structural   Sr2Li3TaN4
_chemical_formula_sum   'Sr8 Li12 Ta4 N16'
_cell_volume   551.65643087
_cell_formula_units_Z   4
loop_
 _symmetry_equiv_pos_site_id
 _symmetry_equiv_pos_as_xyz
  1  'x, y, z'
loop_
 _atom_site_type_symbol
 _atom_site_label
 _atom_site_symmetry_multiplicity
 _atom_site_fract_x
 _atom_site_fract_y
 _atom_site_fract_z
 _atom_site_occupancy
  Sr  Sr0  1  0.25988525  0.25218415  0.50000000  1.0
  Sr  Sr1  1  0.75988525  0.24781585  0.00000000  1.0
  Sr  Sr2  1  0.74011475  0.74781585  0.50000000  1.0
  Sr  Sr3  1  0.24011475  0.75218415  0.00000000  1.0
  Sr  Sr4  1  0.50000000  0.50000000  0.23939396  1.0
  Sr  Sr5  1  0.50000000  0.50000000  0.76060604  1.0
  Sr  Sr6  1  0.00000000  0.00000000  0.73939396  1.0
  Sr  Sr7  1  0.00000000  0.00000000  0.26060604  1.0
  Li  Li8  1  0.47968234  0.86603185  0.26092119  1.0
  Li  Li9  1  0.47968234  0.86603185  0.73907881  1.0
  Li  Li10  1  0.97968234  0.63396815  0.76092119  1.0
  Li  Li11  1  0.97968234  0.63396815  0.23907881  1.0
  Li  Li12  1  0.52031766  0.13396815  0.26092119  1.0
  Li  Li13  1  0.52031766  0.13396815  0.73907881  1.0
  Li  Li14  1  0.02031766  0.36603185  0.76092119  1.0
  Li  Li15  1  0.02031766  0.36603185  0.23907881  1.0
  Li  Li16  1  0.29585882  0.92239442  0.50000000  1.0
  Li  Li17  1  0.79585882  0.57760558  0.00000000  1.0
  Li  Li18  1  0.70414118  0.07760558  0.50000000  1.0
  Li  Li19  1  0.20414118  0.42239442  0.00000000  1.0
  Ta  Ta20  1  0.21382552  0.63745818  0.50000000  1.0
  Ta  Ta21  1  0.71382552  0.86254182  0.00000000  1.0
  Ta  Ta22  1  0.78617448  0.36254182  0.50000000  1.0
  Ta  Ta23  1  0.28617448  0.13745818  0.00000000  1.0
  N  N24  1  0.19757572  0.51952009  0.26501587  1.0
  N  N25  1  0.19757572  0.51952009  0.73498413  1.0
  N  N26  1  0.69757572  0.98047991  0.76501587  1.0
  N  N27  1  0.69757572  0.98047991  0.23498413  1.0
  N  N28  1  0.80242428  0.48047991  0.26501587  1.0
  N  N29  1  0.80242428  0.48047991  0.73498413  1.0
  N  N30  1  0.30242428  0.01952009  0.76501587  1.0
  N  N31  1  0.30242428  0.01952009  0.23498413  1.0
  N  N32  1  0.42538766  0.72185649  0.50000000  1.0
  N  N33  1  0.92538766  0.77814351  0.00000000  1.0
  N  N34  1  0.57461234  0.27814351  0.50000000  1.0
  N  N35  1  0.07461234  0.22185649  0.00000000  1.0
  N  N36  1  0.04617839  0.78325710  0.50000000  1.0
  N  N37  1  0.54617839  0.71674290  0.00000000  1.0
  N  N38  1  0.95382161  0.21674290  0.50000000  1.0
  N  N39  1  0.45382161  0.28325710  0.00000000  1.0
