# generated using pymatgen
data_MgGaMo4O7
_symmetry_space_group_name_H-M   'P 1'
_cell_length_a   9.39164335
_cell_length_b   9.39164335
_cell_length_c   9.39164335
_cell_angle_alpha   144.22492933
_cell_angle_beta   142.17559363
_cell_angle_gamma   53.04324150
_symmetry_Int_Tables_number   1
_chemical_formula_structural   MgGaMo4O7
_chemical_formula_sum   'Mg2 Ga2 Mo8 O14'
_cell_volume   295.15389568
_cell_formula_units_Z   2
loop_
 _symmetry_equiv_pos_site_id
 _symmetry_equiv_pos_as_xyz
  1  'x, y, z'
loop_
 _atom_site_type_symbol
 _atom_site_label
 _atom_site_symmetry_multiplicity
 _atom_site_fract_x
 _atom_site_fract_y
 _atom_site_fract_z
 _atom_site_occupancy
  Mg  Mg0  1  0.50000000  0.00000000  0.50000000  1.0
  Mg  Mg1  1  -0.00000000  0.00000000  -0.00000000  1.0
  Ga  Ga2  1  0.69376805  0.44376805  0.25000000  1.0
  Ga  Ga3  1  0.30623195  0.55623195  0.75000000  1.0
  Mo  Mo4  1  1.11268141  0.59168076  0.97899935  1.0
  Mo  Mo5  1  0.88731859  0.86631794  1.47899935  1.0
  Mo  Mo6  1  1.11268141  1.13368206  1.52100065  1.0
  Mo  Mo7  1  0.88731859  0.40831924  1.02100065  1.0
  Mo  Mo8  1  1.23345013  0.75418223  1.47926790  1.0
  Mo  Mo9  1  1.22508567  0.24581777  0.97926790  1.0
  Mo  Mo10  1  0.76654987  0.24581777  0.52073210  1.0
  Mo  Mo11  1  0.77491433  0.75418223  1.02073210  1.0
  O  O12  1  1.24203117  0.75013973  1.00810856  1.0
  O  O13  1  0.75796883  0.76607739  1.50810856  1.0
  O  O14  1  1.24203117  1.23392261  1.49189144  1.0
  O  O15  1  0.75796883  0.24986027  0.99189144  1.0
  O  O16  1  0.85782248  0.37118229  0.48664019  1.0
  O  O17  1  0.61545790  0.62881771  0.98664019  1.0
  O  O18  1  0.14217752  0.62881771  0.51335981  1.0
  O  O19  1  0.38454210  0.37118229  0.01335981  1.0
  O  O20  1  1.34958186  0.87501326  1.47456860  1.0
  O  O21  1  1.09955534  0.12498674  0.97456860  1.0
  O  O22  1  0.65041814  0.12498674  0.52543140  1.0
  O  O23  1  0.90044466  0.87501326  1.02543140  1.0
  O  O24  1  0.50000000  1.00000000  1.00000000  1.0
  O  O25  1  0.50000000  0.50000000  0.50000000  1.0
