# generated using pymatgen
data_WCl5
_symmetry_space_group_name_H-M   'P 1'
_cell_length_a   12.92644341
_cell_length_b   12.92644341
_cell_length_c   6.43016347
_cell_angle_alpha   86.04147647
_cell_angle_beta   93.95852353
_cell_angle_gamma   89.94135480
_symmetry_Int_Tables_number   1
_chemical_formula_structural   WCl5
_chemical_formula_sum   'W6 Cl30'
_cell_volume   1069.29634914
_cell_formula_units_Z   6
loop_
 _symmetry_equiv_pos_site_id
 _symmetry_equiv_pos_as_xyz
  1  'x, y, z'
loop_
 _atom_site_type_symbol
 _atom_site_label
 _atom_site_symmetry_multiplicity
 _atom_site_fract_x
 _atom_site_fract_y
 _atom_site_fract_z
 _atom_site_occupancy
  W  W0  1  0.43897807  -0.22678323  0.93147198  1.0
  W  W1  1  1.22678323  0.56102193  0.93147198  1.0
  W  W2  1  0.77321677  -0.56102193  0.06852802  1.0
  W  W3  1  1.56102193  0.22678323  0.06852802  1.0
  W  W4  1  0.89357908  -0.10642092  0.50000000  1.0
  W  W5  1  1.10642092  0.10642092  0.50000000  1.0
  Cl  Cl6  1  0.73491666  -0.11153422  0.63153183  1.0
  Cl  Cl7  1  1.11153422  0.26508334  0.63153183  1.0
  Cl  Cl8  1  0.88846578  -0.26508334  0.36846817  1.0
  Cl  Cl9  1  1.26508334  0.11153422  0.36846817  1.0
  Cl  Cl10  1  0.50569977  -0.31623601  0.67678364  1.0
  Cl  Cl11  1  1.31623601  0.49430023  0.67678364  1.0
  Cl  Cl12  1  0.68376399  -0.49430023  0.32321636  1.0
  Cl  Cl13  1  1.49430023  0.31623601  0.32321636  1.0
  Cl  Cl14  1  0.44751916  -0.07126311  0.74587982  1.0
  Cl  Cl15  1  1.07126311  0.55248084  0.74587982  1.0
  Cl  Cl16  1  0.92873689  -0.55248084  0.25412018  1.0
  Cl  Cl17  1  1.55248084  0.07126311  0.25412018  1.0
  Cl  Cl18  1  1.65084339  0.16051784  0.81375854  1.0
  Cl  Cl19  1  0.83948216  -0.65084339  0.81375854  1.0
  Cl  Cl20  1  1.16051784  0.65084339  0.18624146  1.0
  Cl  Cl21  1  0.34915661  -0.16051784  0.18624146  1.0
  Cl  Cl22  1  1.40578701  0.21714638  0.88251596  1.0
  Cl  Cl23  1  0.78285362  -0.40578701  0.88251596  1.0
  Cl  Cl24  1  1.21714638  0.40578701  0.11748404  1.0
  Cl  Cl25  1  0.59421299  -0.21714638  0.11748404  1.0
  Cl  Cl26  1  1.16697537  0.02234797  0.80837626  1.0
  Cl  Cl27  1  0.97765203  -0.16697537  0.80837626  1.0
  Cl  Cl28  1  1.02234797  0.16697537  0.19162374  1.0
  Cl  Cl29  1  0.83302463  -0.02234797  0.19162374  1.0
  Cl  Cl30  1  0.92761777  -0.92761777  0.62497962  1.0
  Cl  Cl31  1  0.07238223  -0.07238223  0.37502038  1.0
  Cl  Cl32  1  0.59753083  -0.59753083  0.89261679  1.0
  Cl  Cl33  1  0.40246917  -0.40246917  0.10738321  1.0
  Cl  Cl34  1  0.26343309  -0.26343309  0.75534584  1.0
  Cl  Cl35  1  0.73656691  -0.73656691  0.24465416  1.0
