# generated using pymatgen
data_H4CN5O2
_symmetry_space_group_name_H-M   'P 1'
_cell_length_a   5.06789639
_cell_length_b   12.83852914
_cell_length_c   6.90690200
_cell_angle_alpha   90.00000000
_cell_angle_beta   96.22505921
_cell_angle_gamma   90.00000000
_symmetry_Int_Tables_number   1
_chemical_formula_structural   H4CN5O2
_chemical_formula_sum   'H16 C4 N20 O8'
_cell_volume   446.74320340
_cell_formula_units_Z   4
loop_
 _symmetry_equiv_pos_site_id
 _symmetry_equiv_pos_as_xyz
  1  'x, y, z'
loop_
 _atom_site_type_symbol
 _atom_site_label
 _atom_site_symmetry_multiplicity
 _atom_site_fract_x
 _atom_site_fract_y
 _atom_site_fract_z
 _atom_site_occupancy
  H  H0  1  0.90405842  0.61489638  0.06595360  1.0
  H  H1  1  0.90405842  0.88510362  0.56595360  1.0
  H  H2  1  0.09594158  0.11489638  0.43404640  1.0
  H  H3  1  0.09594158  0.38510362  0.93404640  1.0
  H  H4  1  0.83358848  0.78838719  0.40334939  1.0
  H  H5  1  0.83358848  0.71161281  0.90334939  1.0
  H  H6  1  0.16641152  0.28838719  0.09665061  1.0
  H  H7  1  0.16641152  0.21161281  0.59665061  1.0
  H  H8  1  0.63338640  0.89533095  0.38440455  1.0
  H  H9  1  0.63338640  0.60466905  0.88440455  1.0
  H  H10  1  0.36661360  0.39533095  0.11559545  1.0
  H  H11  1  0.36661360  0.10466905  0.61559545  1.0
  H  H12  1  0.55690041  0.15262621  0.36791126  1.0
  H  H13  1  0.55690041  0.34737379  0.86791126  1.0
  H  H14  1  0.44309959  0.65262621  0.13208874  1.0
  H  H15  1  0.44309959  0.84737379  0.63208874  1.0
  C  C16  1  0.60021638  0.46389296  0.47729445  1.0
  C  C17  1  0.60021638  0.03610704  0.97729445  1.0
  C  C18  1  0.39978362  0.96389296  0.02270555  1.0
  C  C19  1  0.39978362  0.53610704  0.52270555  1.0
  N  N20  1  0.93526979  0.14498664  0.01574916  1.0
  N  N21  1  0.93526979  0.35501336  0.51574916  1.0
  N  N22  1  0.06473021  0.64498664  0.48425084  1.0
  N  N23  1  0.06473021  0.85501336  0.98425084  1.0
  N  N24  1  0.86028576  0.36698056  0.32937077  1.0
  N  N25  1  0.86028576  0.13301944  0.82937077  1.0
  N  N26  1  0.13971424  0.86698056  0.17062923  1.0
  N  N27  1  0.13971424  0.63301944  0.67062923  1.0
  N  N28  1  0.74896641  0.84612840  0.48121470  1.0
  N  N29  1  0.74896641  0.65387160  0.98121470  1.0
  N  N30  1  0.25103359  0.34612840  0.01878530  1.0
  N  N31  1  0.25103359  0.15387160  0.51878530  1.0
  N  N32  1  0.77362752  0.08510651  0.11167669  1.0
  N  N33  1  0.77362752  0.41489349  0.61167669  1.0
  N  N34  1  0.22637248  0.58510651  0.38832331  1.0
  N  N35  1  0.22637248  0.91489349  0.88832331  1.0
  N  N36  1  0.65434530  0.43298676  0.30008842  1.0
  N  N37  1  0.65434530  0.06701324  0.80008842  1.0
  N  N38  1  0.34565470  0.93298676  0.19991158  1.0
  N  N39  1  0.34565470  0.56701324  0.69991158  1.0
  O  O40  1  0.78976154  0.07982111  0.30194967  1.0
  O  O41  1  0.78976154  0.42017889  0.80194967  1.0
  O  O42  1  0.21023846  0.57982111  0.19805033  1.0
  O  O43  1  0.21023846  0.92017889  0.69805033  1.0
  O  O44  1  0.41651172  0.20552660  0.39727817  1.0
  O  O45  1  0.41651172  0.29447340  0.89727817  1.0
  O  O46  1  0.58348828  0.70552660  0.10272183  1.0
  O  O47  1  0.58348828  0.79447340  0.60272183  1.0
