# generated using pymatgen
data_Ag3AsS3
_symmetry_space_group_name_H-M   'P 1'
_cell_length_a   6.98038105
_cell_length_b   6.98038105
_cell_length_c   6.98038105
_cell_angle_alpha   100.95613184
_cell_angle_beta   100.95613184
_cell_angle_gamma   100.95613184
_symmetry_Int_Tables_number   1
_chemical_formula_structural   Ag3AsS3
_chemical_formula_sum   'Ag6 As2 S6'
_cell_volume   318.68450577
_cell_formula_units_Z   2
loop_
 _symmetry_equiv_pos_site_id
 _symmetry_equiv_pos_as_xyz
  1  'x, y, z'
loop_
 _atom_site_type_symbol
 _atom_site_label
 _atom_site_symmetry_multiplicity
 _atom_site_fract_x
 _atom_site_fract_y
 _atom_site_fract_z
 _atom_site_occupancy
  Ag  Ag0  1  0.55092586  0.10821306  -0.11049776  1.0
  Ag  Ag1  1  1.05092586  0.38950224  -0.39178694  1.0
  Ag  Ag2  1  0.88950224  -0.44907414  0.10821306  1.0
  Ag  Ag3  1  0.60821306  1.05092586  -0.61049776  1.0
  Ag  Ag4  1  1.10821306  -0.11049776  -0.44907414  1.0
  Ag  Ag5  1  0.38950224  0.60821306  0.05092586  1.0
  As  As6  1  0.62885887  0.62885887  0.62885887  1.0
  As  As7  1  0.12885887  0.12885887  0.12885887  1.0
  S  S8  1  0.40171710  0.73182064  0.40716224  1.0
  S  S9  1  0.90171710  -0.09283776  0.23182064  1.0
  S  S10  1  1.40716224  0.40171710  -0.26817936  1.0
  S  S11  1  1.23182064  -0.09828290  -0.09283776  1.0
  S  S12  1  0.73182064  0.40716224  0.40171710  1.0
  S  S13  1  0.90716224  0.23182064  -0.09828290  1.0
