# generated using pymatgen
data_Sm(FeAs3)4
_symmetry_space_group_name_H-M   'P 1'
_cell_length_a   7.23635798
_cell_length_b   7.23635798
_cell_length_c   7.23635798
_cell_angle_alpha   109.47122063
_cell_angle_beta   109.47122063
_cell_angle_gamma   109.47122063
_symmetry_Int_Tables_number   1
_chemical_formula_structural   Sm(FeAs3)4
_chemical_formula_sum   'Sm1 Fe4 As12'
_cell_volume   291.70121589
_cell_formula_units_Z   1
loop_
 _symmetry_equiv_pos_site_id
 _symmetry_equiv_pos_as_xyz
  1  'x, y, z'
loop_
 _atom_site_type_symbol
 _atom_site_label
 _atom_site_symmetry_multiplicity
 _atom_site_fract_x
 _atom_site_fract_y
 _atom_site_fract_z
 _atom_site_occupancy
  Sm  Sm0  1  0.00000000  0.00000000  0.00000000  1.0
  Fe  Fe1  1  0.50000000  1.00000000  1.00000000  1.0
  Fe  Fe2  1  0.50000000  0.50000000  0.50000000  1.0
  Fe  Fe3  1  1.00000000  1.00000000  0.50000000  1.0
  Fe  Fe4  1  1.00000000  0.50000000  1.00000000  1.0
  As  As5  1  0.84458941  1.34306572  1.18765514  1.0
  As  As6  1  0.84458941  0.65693428  0.50152369  1.0
  As  As7  1  0.15541059  0.34306572  0.49847631  1.0
  As  As8  1  0.15541059  0.65693428  0.81234486  1.0
  As  As9  1  0.50152369  0.84458941  0.65693428  1.0
  As  As10  1  1.18765514  0.84458941  1.34306572  1.0
  As  As11  1  0.65693428  0.81234486  0.15541059  1.0
  As  As12  1  0.65693428  0.50152369  0.84458941  1.0
  As  As13  1  0.81234486  0.15541059  0.65693428  1.0
  As  As14  1  0.49847631  0.15541059  0.34306572  1.0
  As  As15  1  0.34306572  0.49847631  0.15541059  1.0
  As  As16  1  1.34306572  1.18765514  0.84458941  1.0
