# generated using pymatgen
data_SiO2
_symmetry_space_group_name_H-M   'P 1'
_cell_length_a   14.15285296
_cell_length_b   5.08948301
_cell_length_c   17.48113118
_cell_angle_alpha   90.00000000
_cell_angle_beta   105.58942482
_cell_angle_gamma   90.00000000
_symmetry_Int_Tables_number   1
_chemical_formula_structural   SiO2
_chemical_formula_sum   'Si24 O48'
_cell_volume   1212.85578236
_cell_formula_units_Z   24
loop_
 _symmetry_equiv_pos_site_id
 _symmetry_equiv_pos_as_xyz
  1  'x, y, z'
loop_
 _atom_site_type_symbol
 _atom_site_label
 _atom_site_symmetry_multiplicity
 _atom_site_fract_x
 _atom_site_fract_y
 _atom_site_fract_z
 _atom_site_occupancy
  Si  Si0  1  0.99059376  0.09025789  0.19554827  1.0
  Si  Si1  1  0.99059376  0.40974211  0.69554827  1.0
  Si  Si2  1  0.00940624  0.59025789  0.30445173  1.0
  Si  Si3  1  0.00940624  0.90974211  0.80445173  1.0
  Si  Si4  1  0.80729488  0.68366510  0.33944539  1.0
  Si  Si5  1  0.80729488  0.81633490  0.83944539  1.0
  Si  Si6  1  0.19270512  0.18366510  0.16055461  1.0
  Si  Si7  1  0.19270512  0.31633490  0.66055461  1.0
  Si  Si8  1  0.77052571  0.16971753  0.09206352  1.0
  Si  Si9  1  0.77052571  0.33028247  0.59206352  1.0
  Si  Si10  1  0.22947429  0.66971753  0.40793648  1.0
  Si  Si11  1  0.22947429  0.83028247  0.90793648  1.0
  Si  Si12  1  0.72954893  0.16952419  0.40755061  1.0
  Si  Si13  1  0.72954893  0.33047581  0.90755061  1.0
  Si  Si14  1  0.27045107  0.66952419  0.09244939  1.0
  Si  Si15  1  0.27045107  0.83047581  0.59244939  1.0
  Si  Si16  1  0.50934286  0.09094607  0.30448720  1.0
  Si  Si17  1  0.50934286  0.40905393  0.80448720  1.0
  Si  Si18  1  0.49065714  0.59094607  0.19551280  1.0
  Si  Si19  1  0.49065714  0.90905393  0.69551280  1.0
  Si  Si20  1  0.30730701  0.18429320  0.33985147  1.0
  Si  Si21  1  0.30730701  0.31570680  0.83985147  1.0
  Si  Si22  1  0.69269299  0.68429320  0.16014853  1.0
  Si  Si23  1  0.69269299  0.81570680  0.66014853  1.0
  O  O24  1  0.99524611  0.29307532  0.26857567  1.0
  O  O25  1  0.99524611  0.20692468  0.76857567  1.0
  O  O26  1  0.00475389  0.79307532  0.23142433  1.0
  O  O27  1  0.00475389  0.70692468  0.73142433  1.0
  O  O28  1  0.92393032  0.65254969  0.34811099  1.0
  O  O29  1  0.92393032  0.84745031  0.84811099  1.0
  O  O30  1  0.07606968  0.15254969  0.15188901  1.0
  O  O31  1  0.07606968  0.34745031  0.65188901  1.0
  O  O32  1  0.88668359  0.11054029  0.12840470  1.0
  O  O33  1  0.88668359  0.38945971  0.62840470  1.0
  O  O34  1  0.11331641  0.61054029  0.37159530  1.0
  O  O35  1  0.11331641  0.88945971  0.87159530  1.0
  O  O36  1  0.79278824  0.90563427  0.40226622  1.0
  O  O37  1  0.79278824  0.59436573  0.90226622  1.0
  O  O38  1  0.20721176  0.40563427  0.09773378  1.0
  O  O39  1  0.20721176  0.09436573  0.59773378  1.0
  O  O40  1  0.76179087  0.40467834  0.35697867  1.0
  O  O41  1  0.76179087  0.09532166  0.85697867  1.0
  O  O42  1  0.23820913  0.90467834  0.14302133  1.0
  O  O43  1  0.23820913  0.59532166  0.64302133  1.0
  O  O44  1  0.75015500  0.78003138  0.24979293  1.0
  O  O45  1  0.75015500  0.71996862  0.74979293  1.0
  O  O46  1  0.24984500  0.28003138  0.25020707  1.0
  O  O47  1  0.24984500  0.21996862  0.75020707  1.0
  O  O48  1  0.73831030  0.40601682  0.14221582  1.0
  O  O49  1  0.73831030  0.09398318  0.64221582  1.0
  O  O50  1  0.26168970  0.90601682  0.35778418  1.0
  O  O51  1  0.26168970  0.59398318  0.85778418  1.0
  O  O52  1  0.75041688  0.25050576  0.49978822  1.0
  O  O53  1  0.75041688  0.24949424  0.99978822  1.0
  O  O54  1  0.24958312  0.75050576  0.00021178  1.0
  O  O55  1  0.24958312  0.74949424  0.50021178  1.0
  O  O56  1  0.70668869  0.90699445  0.09736070  1.0
  O  O57  1  0.70668869  0.59300555  0.59736070  1.0
  O  O58  1  0.29331131  0.40699445  0.40263930  1.0
  O  O59  1  0.29331131  0.09300555  0.90263930  1.0
  O  O60  1  0.61321421  0.11167451  0.37167683  1.0
  O  O61  1  0.61321421  0.38832549  0.87167683  1.0
  O  O62  1  0.38678579  0.61167451  0.12832317  1.0
  O  O63  1  0.38678579  0.88832549  0.62832317  1.0
  O  O64  1  0.50456369  0.29387586  0.23147164  1.0
  O  O65  1  0.50456369  0.20612414  0.73147164  1.0
  O  O66  1  0.49543631  0.79387586  0.26852836  1.0
  O  O67  1  0.49543631  0.70612414  0.76852836  1.0
  O  O68  1  0.42382755  0.15242870  0.34816111  1.0
  O  O69  1  0.42382755  0.34757130  0.84816111  1.0
  O  O70  1  0.57617245  0.65242870  0.15183889  1.0
  O  O71  1  0.57617245  0.84757130  0.65183889  1.0
