# generated using pymatgen
data_LaGe2
_symmetry_space_group_name_H-M   'P 1'
_cell_length_a   8.44849750
_cell_length_b   8.44849750
_cell_length_c   8.44849750
_cell_angle_alpha   150.41355819
_cell_angle_beta   150.41504315
_cell_angle_gamma   42.33359305
_symmetry_Int_Tables_number   1
_chemical_formula_structural   LaGe2
_chemical_formula_sum   'La2 Ge4'
_cell_volume   146.63909027
_cell_formula_units_Z   2
loop_
 _symmetry_equiv_pos_site_id
 _symmetry_equiv_pos_as_xyz
  1  'x, y, z'
loop_
 _atom_site_type_symbol
 _atom_site_label
 _atom_site_symmetry_multiplicity
 _atom_site_fract_x
 _atom_site_fract_y
 _atom_site_fract_z
 _atom_site_occupancy
  La  La0  1  0.62499835  0.37499835  0.25000000  1.0
  La  La1  1  0.37500165  0.62500165  0.75000000  1.0
  Ge  Ge2  1  1.20661282  0.95661282  1.25000000  1.0
  Ge  Ge3  1  0.79338718  0.04338718  0.75000000  1.0
  Ge  Ge4  1  1.04339007  0.79339007  1.25000000  1.0
  Ge  Ge5  1  0.95660993  0.20660993  0.75000000  1.0
