# generated using pymatgen
data_AgAuF7
_symmetry_space_group_name_H-M   'P 1'
_cell_length_a   7.88808341
_cell_length_b   7.35587491
_cell_length_c   10.33841290
_cell_angle_alpha   90.00000000
_cell_angle_beta   90.00000000
_cell_angle_gamma   90.00000000
_symmetry_Int_Tables_number   1
_chemical_formula_structural   AgAuF7
_chemical_formula_sum   'Ag4 Au4 F28'
_cell_volume   599.87353522
_cell_formula_units_Z   4
loop_
 _symmetry_equiv_pos_site_id
 _symmetry_equiv_pos_as_xyz
  1  'x, y, z'
loop_
 _atom_site_type_symbol
 _atom_site_label
 _atom_site_symmetry_multiplicity
 _atom_site_fract_x
 _atom_site_fract_y
 _atom_site_fract_z
 _atom_site_occupancy
  Ag  Ag0  1  0.86679542  0.75000000  0.24080733  1.0
  Ag  Ag1  1  0.36679542  0.75000000  0.25919267  1.0
  Ag  Ag2  1  0.13320458  0.25000000  0.75919267  1.0
  Ag  Ag3  1  0.63320458  0.25000000  0.74080733  1.0
  Au  Au4  1  0.69604894  0.75000000  0.55371797  1.0
  Au  Au5  1  0.19604894  0.75000000  0.94628203  1.0
  Au  Au6  1  0.30395106  0.25000000  0.44628203  1.0
  Au  Au7  1  0.80395106  0.25000000  0.05371797  1.0
  F  F8  1  0.87934269  0.43264176  0.17631235  1.0
  F  F9  1  0.87934269  0.06735824  0.17631235  1.0
  F  F10  1  0.37934269  0.43264176  0.32368765  1.0
  F  F11  1  0.37934269  0.06735824  0.32368765  1.0
  F  F12  1  0.12065731  0.93264176  0.82368765  1.0
  F  F13  1  0.12065731  0.56735824  0.82368765  1.0
  F  F14  1  0.62065731  0.93264176  0.67631235  1.0
  F  F15  1  0.62065731  0.56735824  0.67631235  1.0
  F  F16  1  0.77351450  0.92824404  0.42830396  1.0
  F  F17  1  0.77351450  0.57175596  0.42830396  1.0
  F  F18  1  0.27351450  0.92824404  0.07169604  1.0
  F  F19  1  0.27351450  0.57175596  0.07169604  1.0
  F  F20  1  0.22648550  0.42824404  0.57169604  1.0
  F  F21  1  0.22648550  0.07175596  0.57169604  1.0
  F  F22  1  0.72648550  0.42824404  0.92830396  1.0
  F  F23  1  0.72648550  0.07175596  0.92830396  1.0
  F  F24  1  0.96922407  0.75000000  0.02557704  1.0
  F  F25  1  0.46922407  0.75000000  0.47442296  1.0
  F  F26  1  0.03077593  0.25000000  0.97442296  1.0
  F  F27  1  0.53077593  0.25000000  0.52557704  1.0
  F  F28  1  0.91557026  0.75000000  0.63188092  1.0
  F  F29  1  0.41557026  0.75000000  0.86811908  1.0
  F  F30  1  0.08442974  0.25000000  0.36811908  1.0
  F  F31  1  0.58442974  0.25000000  0.13188092  1.0
  F  F32  1  0.61315114  0.75000000  0.19914459  1.0
  F  F33  1  0.11315114  0.75000000  0.30085541  1.0
  F  F34  1  0.38684886  0.25000000  0.80085541  1.0
  F  F35  1  0.88684886  0.25000000  0.69914459  1.0
