# generated using pymatgen
data_CeSiO4
_symmetry_space_group_name_H-M   'P 1'
_cell_length_a   5.90003499
_cell_length_b   5.90003499
_cell_length_c   5.90003499
_cell_angle_alpha   106.44500931
_cell_angle_beta   106.44500931
_cell_angle_gamma   115.70960043
_symmetry_Int_Tables_number   1
_chemical_formula_structural   CeSiO4
_chemical_formula_sum   'Ce2 Si2 O8'
_cell_volume   156.68284953
_cell_formula_units_Z   2
loop_
 _symmetry_equiv_pos_site_id
 _symmetry_equiv_pos_as_xyz
  1  'x, y, z'
loop_
 _atom_site_type_symbol
 _atom_site_label
 _atom_site_symmetry_multiplicity
 _atom_site_fract_x
 _atom_site_fract_y
 _atom_site_fract_z
 _atom_site_occupancy
  Ce  Ce0  1  0.25000000  0.75000000  0.50000000  1.0
  Ce  Ce1  1  0.50000000  0.50000000  -0.00000000  1.0
  Si  Si2  1  0.75000000  1.25000000  0.50000000  1.0
  Si  Si3  1  0.00000000  0.00000000  0.00000000  1.0
  O  O4  1  0.16927798  0.99075543  0.82147745  1.0
  O  O5  1  0.74075543  0.41927798  0.32147745  1.0
  O  O6  1  1.09780053  1.41927798  0.67852255  1.0
  O  O7  1  0.16927798  0.34780053  0.17852255  1.0
  O  O8  1  0.58072202  1.25924457  0.67852255  1.0
  O  O9  1  1.00924457  0.83072202  1.17852255  1.0
  O  O10  1  1.65219947  0.83072202  0.82147745  1.0
  O  O11  1  0.58072202  0.90219947  0.32147745  1.0
