# generated using pymatgen
data_La3OsO7
_symmetry_space_group_name_H-M   'P 1'
_cell_length_a   6.77160392
_cell_length_b   6.77160392
_cell_length_c   7.70644766
_cell_angle_alpha   90.00000000
_cell_angle_beta   90.00000000
_cell_angle_gamma   68.20513621
_symmetry_Int_Tables_number   1
_chemical_formula_structural   La3OsO7
_chemical_formula_sum   'La6 Os2 O14'
_cell_volume   328.11658016
_cell_formula_units_Z   2
loop_
 _symmetry_equiv_pos_site_id
 _symmetry_equiv_pos_as_xyz
  1  'x, y, z'
loop_
 _atom_site_type_symbol
 _atom_site_label
 _atom_site_symmetry_multiplicity
 _atom_site_fract_x
 _atom_site_fract_y
 _atom_site_fract_z
 _atom_site_occupancy
  O  O0  1  -0.10280700  1.84150036  0.25000000  1.0
  O  O1  1  0.84150036  0.89719300  0.75000000  1.0
  O  O2  1  -0.84150036  1.10280700  0.25000000  1.0
  O  O3  1  0.10280700  0.15849964  0.75000000  1.0
  O  O4  1  -0.19366388  1.44119387  0.46177559  1.0
  O  O5  1  -0.19366388  1.44119387  0.03822441  1.0
  O  O6  1  0.44119387  0.80633612  0.96177559  1.0
  O  O7  1  0.44119387  0.80633612  0.53822441  1.0
  O  O8  1  -0.44119387  1.19366388  0.46177559  1.0
  O  O9  1  -0.44119387  1.19366388  0.03822441  1.0
  O  O10  1  0.19366388  0.55880613  0.96177559  1.0
  O  O11  1  0.19366388  0.55880613  0.53822441  1.0
  O  O12  1  0.42286117  0.57713883  0.25000000  1.0
  O  O13  1  -0.42286117  1.42286117  0.75000000  1.0
  La  La14  1  0.08333738  0.47041252  0.25000000  1.0
  La  La15  1  -0.52958748  1.08333738  0.75000000  1.0
  La  La16  1  0.52958748  0.91666262  0.25000000  1.0
  La  La17  1  -0.08333738  1.52958748  0.75000000  1.0
  La  La18  1  0.00000000  0.00000000  0.50000000  1.0
  La  La19  1  0.00000000  0.00000000  0.00000000  1.0
  Os  Os20  1  0.50000000  0.50000000  0.50000000  1.0
  Os  Os21  1  0.50000000  0.50000000  0.00000000  1.0
