# generated using pymatgen
data_KLi6IrO6
_symmetry_space_group_name_H-M   'P 1'
_cell_length_a   5.32246908
_cell_length_b   5.32246908
_cell_length_c   5.32246908
_cell_angle_alpha   101.34339479
_cell_angle_beta   101.34339479
_cell_angle_gamma   101.34339479
_symmetry_Int_Tables_number   1
_chemical_formula_structural   KLi6IrO6
_chemical_formula_sum   'K1 Li6 Ir1 O6'
_cell_volume   140.53351004
_cell_formula_units_Z   1
loop_
 _symmetry_equiv_pos_site_id
 _symmetry_equiv_pos_as_xyz
  1  'x, y, z'
loop_
 _atom_site_type_symbol
 _atom_site_label
 _atom_site_symmetry_multiplicity
 _atom_site_fract_x
 _atom_site_fract_y
 _atom_site_fract_z
 _atom_site_occupancy
  K  K0  1  0.50000000  0.50000000  0.50000000  1.0
  Li  Li1  1  0.66161866  1.00000000  -0.66161866  1.0
  Li  Li2  1  0.66161866  0.33838134  -0.00000000  1.0
  Li  Li3  1  1.00000000  0.66161866  -0.66161866  1.0
  Li  Li4  1  1.00000000  0.33838134  -0.33838134  1.0
  Li  Li5  1  0.33838134  1.00000000  -0.33838134  1.0
  Li  Li6  1  0.33838134  0.66161866  -0.00000000  1.0
  Ir  Ir7  1  0.00000000  0.00000000  0.00000000  1.0
  O  O8  1  1.27433270  0.27433270  -0.07871153  1.0
  O  O9  1  1.27433270  -0.07871153  0.27433270  1.0
  O  O10  1  1.07871153  0.72566730  -0.27433270  1.0
  O  O11  1  0.72566730  1.07871153  -0.27433270  1.0
  O  O12  1  0.72566730  0.72566730  0.07871153  1.0
  O  O13  1  0.92128847  0.27433270  0.27433270  1.0
