# generated using pymatgen
data_Nb3Si
_symmetry_space_group_name_H-M   'P 1'
_cell_length_a   10.24790728
_cell_length_b   10.24790728
_cell_length_c   5.20326354
_cell_angle_alpha   90.00000000
_cell_angle_beta   90.00000000
_cell_angle_gamma   90.00000000
_symmetry_Int_Tables_number   1
_chemical_formula_structural   Nb3Si
_chemical_formula_sum   'Nb24 Si8'
_cell_volume   546.44467508
_cell_formula_units_Z   8
loop_
 _symmetry_equiv_pos_site_id
 _symmetry_equiv_pos_as_xyz
  1  'x, y, z'
loop_
 _atom_site_type_symbol
 _atom_site_label
 _atom_site_symmetry_multiplicity
 _atom_site_fract_x
 _atom_site_fract_y
 _atom_site_fract_z
 _atom_site_occupancy
  Nb  Nb0  1  0.59668231  0.91525483  0.53360873  1.0
  Nb  Nb1  1  0.40331769  0.08474517  0.53360873  1.0
  Nb  Nb2  1  0.41525483  0.90331769  0.03360873  1.0
  Nb  Nb3  1  0.58474517  0.09668231  0.03360873  1.0
  Nb  Nb4  1  0.90331769  0.58474517  0.96639127  1.0
  Nb  Nb5  1  0.09668231  0.41525483  0.96639127  1.0
  Nb  Nb6  1  0.08474517  0.59668231  0.46639127  1.0
  Nb  Nb7  1  0.91525483  0.40331769  0.46639127  1.0
  Nb  Nb8  1  0.98432753  0.85404203  0.72636687  1.0
  Nb  Nb9  1  0.01567247  0.14595797  0.72636687  1.0
  Nb  Nb10  1  0.35404203  0.51567247  0.22636687  1.0
  Nb  Nb11  1  0.64595797  0.48432753  0.22636687  1.0
  Nb  Nb12  1  0.51567247  0.64595797  0.77363313  1.0
  Nb  Nb13  1  0.48432753  0.35404203  0.77363313  1.0
  Nb  Nb14  1  0.14595797  0.98432753  0.27363313  1.0
  Nb  Nb15  1  0.85404203  0.01567247  0.27363313  1.0
  Nb  Nb16  1  0.71360839  0.80969837  0.01420661  1.0
  Nb  Nb17  1  0.28639161  0.19030163  0.01420661  1.0
  Nb  Nb18  1  0.30969837  0.78639161  0.51420661  1.0
  Nb  Nb19  1  0.69030163  0.21360839  0.51420661  1.0
  Nb  Nb20  1  0.78639161  0.69030163  0.48579339  1.0
  Nb  Nb21  1  0.21360839  0.30969837  0.48579339  1.0
  Nb  Nb22  1  0.19030163  0.71360839  0.98579339  1.0
  Nb  Nb23  1  0.80969837  0.28639161  0.98579339  1.0
  Si  Si24  1  0.97240058  0.79425962  0.22033378  1.0
  Si  Si25  1  0.02759942  0.20574038  0.22033378  1.0
  Si  Si26  1  0.29425962  0.52759942  0.72033378  1.0
  Si  Si27  1  0.70574038  0.47240058  0.72033378  1.0
  Si  Si28  1  0.52759942  0.70574038  0.27966622  1.0
  Si  Si29  1  0.47240058  0.29425962  0.27966622  1.0
  Si  Si30  1  0.20574038  0.97240058  0.77966622  1.0
  Si  Si31  1  0.79425962  0.02759942  0.77966622  1.0
