# generated using pymatgen
data_YCl
_symmetry_space_group_name_H-M   'P 1'
_cell_length_a   10.26663928
_cell_length_b   10.26663928
_cell_length_c   10.26663928
_cell_angle_alpha   21.11059685
_cell_angle_beta   21.11059685
_cell_angle_gamma   21.11059685
_symmetry_Int_Tables_number   1
_chemical_formula_structural   YCl
_chemical_formula_sum   'Y2 Cl2'
_cell_volume   122.94558167
_cell_formula_units_Z   2
loop_
 _symmetry_equiv_pos_site_id
 _symmetry_equiv_pos_as_xyz
  1  'x, y, z'
loop_
 _atom_site_type_symbol
 _atom_site_label
 _atom_site_symmetry_multiplicity
 _atom_site_fract_x
 _atom_site_fract_y
 _atom_site_fract_z
 _atom_site_occupancy
  Y  Y0  1  1.62024247  0.62024247  0.62024247  1.0
  Y  Y1  1  1.37975753  0.37975753  0.37975753  1.0
  Cl  Cl2  1  0.89642141  0.89642141  0.89642141  1.0
  Cl  Cl3  1  1.10357859  1.10357859  0.10357859  1.0
