# generated using pymatgen
data_RbYP2O7
_symmetry_space_group_name_H-M   'P 1'
_cell_length_a   7.90692639
_cell_length_b   11.08785673
_cell_length_c   8.82799692
_cell_angle_alpha   90.00000000
_cell_angle_beta   106.21011851
_cell_angle_gamma   90.00000000
_symmetry_Int_Tables_number   1
_chemical_formula_structural   RbYP2O7
_chemical_formula_sum   'Rb4 Y4 P8 O28'
_cell_volume   743.18897351
_cell_formula_units_Z   4
loop_
 _symmetry_equiv_pos_site_id
 _symmetry_equiv_pos_as_xyz
  1  'x, y, z'
loop_
 _atom_site_type_symbol
 _atom_site_label
 _atom_site_symmetry_multiplicity
 _atom_site_fract_x
 _atom_site_fract_y
 _atom_site_fract_z
 _atom_site_occupancy
  Rb  Rb0  1  0.81396406  0.82231034  0.43205629  1.0
  Rb  Rb1  1  0.81396406  0.67768966  0.93205629  1.0
  Rb  Rb2  1  0.18603594  0.32231034  0.06794371  1.0
  Rb  Rb3  1  0.18603594  0.17768966  0.56794371  1.0
  Y  Y4  1  0.76384574  0.40091089  0.24814774  1.0
  Y  Y5  1  0.76384574  0.09908911  0.74814774  1.0
  Y  Y6  1  0.23615426  0.90091089  0.25185226  1.0
  Y  Y7  1  0.23615426  0.59908911  0.75185226  1.0
  P  P8  1  0.87285099  0.10028219  0.18412615  1.0
  P  P9  1  0.87285099  0.39971781  0.68412615  1.0
  P  P10  1  0.12714901  0.60028219  0.31587385  1.0
  P  P11  1  0.12714901  0.89971781  0.81587385  1.0
  P  P12  1  0.56806967  0.13405991  0.31151647  1.0
  P  P13  1  0.56806967  0.36594009  0.81151647  1.0
  P  P14  1  0.43193033  0.63405991  0.18848353  1.0
  P  P15  1  0.43193033  0.86594009  0.68848353  1.0
  O  O16  1  0.00198906  0.50368518  0.21963238  1.0
  O  O17  1  0.00198906  0.99631482  0.71963238  1.0
  O  O18  1  0.99801094  0.00368518  0.28036762  1.0
  O  O19  1  0.99801094  0.49631482  0.78036762  1.0
  O  O20  1  0.92400973  0.22736395  0.25308281  1.0
  O  O21  1  0.92400973  0.27263605  0.75308281  1.0
  O  O22  1  0.07599027  0.72736395  0.24691719  1.0
  O  O23  1  0.07599027  0.77263605  0.74691719  1.0
  O  O24  1  0.85710928  0.40631674  0.50842229  1.0
  O  O25  1  0.85710928  0.09368326  0.00842229  1.0
  O  O26  1  0.14289072  0.90631674  0.99157771  1.0
  O  O27  1  0.14289072  0.59368326  0.49157771  1.0
  O  O28  1  0.67095473  0.10941006  0.48325269  1.0
  O  O29  1  0.67095473  0.39058994  0.98325269  1.0
  O  O30  1  0.32904527  0.60941006  0.01674731  1.0
  O  O31  1  0.32904527  0.89058994  0.51674731  1.0
  O  O32  1  0.67800871  0.06648678  0.20261531  1.0
  O  O33  1  0.67800871  0.43351322  0.70261531  1.0
  O  O34  1  0.32199129  0.56648678  0.29738469  1.0
  O  O35  1  0.32199129  0.93351322  0.79738469  1.0
  O  O36  1  0.55309587  0.26819827  0.26536402  1.0
  O  O37  1  0.55309587  0.23180173  0.76536402  1.0
  O  O38  1  0.44690413  0.76819827  0.23463598  1.0
  O  O39  1  0.44690413  0.73180173  0.73463598  1.0
  O  O40  1  0.38647588  0.07343072  0.26355838  1.0
  O  O41  1  0.38647588  0.42656928  0.76355838  1.0
  O  O42  1  0.61352412  0.57343072  0.23644162  1.0
  O  O43  1  0.61352412  0.92656928  0.73644162  1.0
