# generated using pymatgen
data_Mg2B2O5
_symmetry_space_group_name_H-M   'P 1'
_cell_length_a   9.28240409
_cell_length_b   3.15975196
_cell_length_c   12.41482763
_cell_angle_alpha   90.00000000
_cell_angle_beta   104.55149373
_cell_angle_gamma   90.00000000
_symmetry_Int_Tables_number   1
_chemical_formula_structural   Mg2B2O5
_chemical_formula_sum   'Mg8 B8 O20'
_cell_volume   352.44764930
_cell_formula_units_Z   4
loop_
 _symmetry_equiv_pos_site_id
 _symmetry_equiv_pos_as_xyz
  1  'x, y, z'
loop_
 _atom_site_type_symbol
 _atom_site_label
 _atom_site_symmetry_multiplicity
 _atom_site_fract_x
 _atom_site_fract_y
 _atom_site_fract_z
 _atom_site_occupancy
  Mg  Mg0  1  0.89779576  0.28633963  0.31425939  1.0
  Mg  Mg1  1  0.89779576  0.21366037  0.81425939  1.0
  Mg  Mg2  1  0.10220424  0.78633963  0.18574061  1.0
  Mg  Mg3  1  0.10220424  0.71366037  0.68574061  1.0
  Mg  Mg4  1  0.35646450  0.29106676  0.10552317  1.0
  Mg  Mg5  1  0.35646450  0.20893324  0.60552317  1.0
  Mg  Mg6  1  0.64353550  0.79106676  0.39447683  1.0
  Mg  Mg7  1  0.64353550  0.70893324  0.89447683  1.0
  B  B8  1  0.83049076  0.35095971  0.06035446  1.0
  B  B9  1  0.83049076  0.14904029  0.56035446  1.0
  B  B10  1  0.16950924  0.85095971  0.43964554  1.0
  B  B11  1  0.16950924  0.64904029  0.93964554  1.0
  B  B12  1  0.35598559  0.22447685  0.34057551  1.0
  B  B13  1  0.35598559  0.27552315  0.84057551  1.0
  B  B14  1  0.64401441  0.72447685  0.15942449  1.0
  B  B15  1  0.64401441  0.77552315  0.65942449  1.0
  O  O16  1  0.94609115  0.28891363  0.15204626  1.0
  O  O17  1  0.94609115  0.21108637  0.65204626  1.0
  O  O18  1  0.05390885  0.78891363  0.34795374  1.0
  O  O19  1  0.05390885  0.71108637  0.84795374  1.0
  O  O20  1  0.81897720  0.27055699  0.45340420  1.0
  O  O21  1  0.81897720  0.22944301  0.95340420  1.0
  O  O22  1  0.18102280  0.77055699  0.04659580  1.0
  O  O23  1  0.18102280  0.72944301  0.54659580  1.0
  O  O24  1  0.74173266  0.77131286  0.26212199  1.0
  O  O25  1  0.74173266  0.72868714  0.76212199  1.0
  O  O26  1  0.25826734  0.27131286  0.23787801  1.0
  O  O27  1  0.25826734  0.22868714  0.73787801  1.0
  O  O28  1  0.50362330  0.29948773  0.36262828  1.0
  O  O29  1  0.50362330  0.20051227  0.86262828  1.0
  O  O30  1  0.49637670  0.79948773  0.13737172  1.0
  O  O31  1  0.49637670  0.70051227  0.63737172  1.0
  O  O32  1  0.29974221  0.07858228  0.43069534  1.0
  O  O33  1  0.29974221  0.42141772  0.93069534  1.0
  O  O34  1  0.70025779  0.57858228  0.06930466  1.0
  O  O35  1  0.70025779  0.92141772  0.56930466  1.0
