# generated using pymatgen
data_Na2CuSbS3
_symmetry_space_group_name_H-M   'P 1'
_cell_length_a   5.87491140
_cell_length_b   17.22499691
_cell_length_c   7.10979237
_cell_angle_alpha   90.00000000
_cell_angle_beta   116.97242875
_cell_angle_gamma   90.00000000
_symmetry_Int_Tables_number   1
_chemical_formula_structural   Na2CuSbS3
_chemical_formula_sum   'Na8 Cu4 Sb4 S12'
_cell_volume   641.21651076
_cell_formula_units_Z   4
loop_
 _symmetry_equiv_pos_site_id
 _symmetry_equiv_pos_as_xyz
  1  'x, y, z'
loop_
 _atom_site_type_symbol
 _atom_site_label
 _atom_site_symmetry_multiplicity
 _atom_site_fract_x
 _atom_site_fract_y
 _atom_site_fract_z
 _atom_site_occupancy
  Na  Na0  1  0.92881029  0.11398636  0.38431323  1.0
  Na  Na1  1  0.92881029  0.38601364  0.88431323  1.0
  Na  Na2  1  0.07118971  0.61398636  0.11568677  1.0
  Na  Na3  1  0.07118971  0.88601364  0.61568677  1.0
  Na  Na4  1  0.65715526  0.46152116  0.30854405  1.0
  Na  Na5  1  0.65715526  0.03847884  0.80854405  1.0
  Na  Na6  1  0.34284474  0.96152116  0.19145595  1.0
  Na  Na7  1  0.34284474  0.53847884  0.69145595  1.0
  Cu  Cu8  1  0.61482777  0.28562756  0.08769023  1.0
  Cu  Cu9  1  0.61482777  0.21437244  0.58769023  1.0
  Cu  Cu10  1  0.38517223  0.78562756  0.41230977  1.0
  Cu  Cu11  1  0.38517223  0.71437244  0.91230977  1.0
  Sb  Sb12  1  0.75516926  0.67247828  0.48667840  1.0
  Sb  Sb13  1  0.75516926  0.82752172  0.98667840  1.0
  Sb  Sb14  1  0.24483074  0.17247828  0.01332160  1.0
  Sb  Sb15  1  0.24483074  0.32752172  0.51332160  1.0
  S  S16  1  0.84043669  0.94517105  0.19617165  1.0
  S  S17  1  0.84043669  0.55482895  0.69617165  1.0
  S  S18  1  0.15956331  0.44517105  0.30382835  1.0
  S  S19  1  0.15956331  0.05482895  0.80382835  1.0
  S  S20  1  0.78799298  0.30228051  0.44281765  1.0
  S  S21  1  0.78799298  0.19771949  0.94281765  1.0
  S  S22  1  0.21200702  0.80228051  0.05718235  1.0
  S  S23  1  0.21200702  0.69771949  0.55718235  1.0
  S  S24  1  0.41170925  0.11402837  0.36789025  1.0
  S  S25  1  0.41170925  0.38597163  0.86789025  1.0
  S  S26  1  0.58829075  0.61402837  0.13210975  1.0
  S  S27  1  0.58829075  0.88597163  0.63210975  1.0
