# generated using pymatgen
data_Cu2H2CO5
_symmetry_space_group_name_H-M   'P 1'
_cell_length_a   3.41568266
_cell_length_b   11.95670557
_cell_length_c   11.23231857
_cell_angle_alpha   90.00000000
_cell_angle_beta   117.09520245
_cell_angle_gamma   90.00000000
_symmetry_Int_Tables_number   1
_chemical_formula_structural   Cu2H2CO5
_chemical_formula_sum   'Cu8 H8 C4 O20'
_cell_volume   408.38605677
_cell_formula_units_Z   4
loop_
 _symmetry_equiv_pos_site_id
 _symmetry_equiv_pos_as_xyz
  1  'x, y, z'
loop_
 _atom_site_type_symbol
 _atom_site_label
 _atom_site_symmetry_multiplicity
 _atom_site_fract_x
 _atom_site_fract_y
 _atom_site_fract_z
 _atom_site_occupancy
  C  C0  1  0.46790025  0.12197864  0.25047969  1.0
  C  C1  1  0.46790025  0.37802136  0.75047969  1.0
  C  C2  1  0.53209975  0.62197864  0.24952031  1.0
  C  C3  1  0.53209975  0.87802136  0.74952031  1.0
  O  O4  1  0.57122157  0.04183172  0.33635845  1.0
  O  O5  1  0.57122157  0.45816828  0.83635845  1.0
  O  O6  1  0.42877844  0.54183172  0.16364155  1.0
  O  O7  1  0.42877843  0.95816828  0.66364155  1.0
  O  O8  1  0.19128953  0.10723566  0.12703332  1.0
  O  O9  1  0.19128953  0.39276434  0.62703332  1.0
  O  O10  1  0.80871047  0.60723566  0.37296668  1.0
  O  O11  1  0.80871047  0.89276434  0.87296668  1.0
  O  O12  1  1.09533097  0.39630316  0.36556585  1.0
  O  O13  1  1.09533097  0.10369684  0.86556585  1.0
  O  O14  1  -0.09533097  0.89630316  0.13443415  1.0
  O  O15  1  -0.09533097  0.60369684  0.63443415  1.0
  O  O16  1  0.94672320  0.34035771  0.07269359  1.0
  O  O17  1  0.94672320  0.15964229  0.57269359  1.0
  O  O18  1  0.05327680  0.84035771  0.42730641  1.0
  O  O19  1  0.05327680  0.65964229  0.92730641  1.0
  O  O20  1  0.65735127  0.21904706  0.29146366  1.0
  O  O21  1  0.65735127  0.28095294  0.79146366  1.0
  O  O22  1  0.34264873  0.71904706  0.20853634  1.0
  O  O23  1  0.34264873  0.78095294  0.70853634  1.0
  Cu  Cu24  1  0.52575888  0.37856473  0.21150736  1.0
  Cu  Cu25  1  0.52575888  0.12143527  0.71150736  1.0
  Cu  Cu26  1  0.47424112  0.87856473  0.28849264  1.0
  Cu  Cu27  1  0.47424112  0.62143527  0.78849264  1.0
  Cu  Cu28  1  1.00117053  0.28641781  0.47642410  1.0
  Cu  Cu29  1  1.00117053  0.21358219  0.97642410  1.0
  Cu  Cu30  1  -0.00117053  0.78641781  0.02357590  1.0
  Cu  Cu31  1  -0.00117053  0.71358219  0.52357590  1.0
  H  H32  1  1.08823872  0.47354930  0.39557776  1.0
  H  H33  1  1.08823872  0.02645070  0.89557776  1.0
  H  H34  1  -0.08823872  -0.02645070  0.10442224  1.0
  H  H35  1  -0.08823872  0.52645070  0.60442224  1.0
  H  H36  1  0.83280930  0.39926230  0.00303269  1.0
  H  H37  1  0.83280930  0.10073770  0.50303269  1.0
  H  H38  1  0.16719070  0.89926230  0.49696731  1.0
  H  H39  1  0.16719070  0.60073770  0.99696731  1.0
