# generated using pymatgen
data_Cs2Li3Br5
_symmetry_space_group_name_H-M   'P 1'
_cell_length_a   8.22361291
_cell_length_b   8.22361291
_cell_length_c   10.22079194
_cell_angle_alpha   66.09677572
_cell_angle_beta   113.90322428
_cell_angle_gamma   148.78557961
_symmetry_Int_Tables_number   1
_chemical_formula_structural   Cs2Li3Br5
_chemical_formula_sum   'Cs2 Li3 Br5'
_cell_volume   324.97096093
_cell_formula_units_Z   1
loop_
 _symmetry_equiv_pos_site_id
 _symmetry_equiv_pos_as_xyz
  1  'x, y, z'
loop_
 _atom_site_type_symbol
 _atom_site_label
 _atom_site_symmetry_multiplicity
 _atom_site_fract_x
 _atom_site_fract_y
 _atom_site_fract_z
 _atom_site_occupancy
  Li  Li0  1  0.00000000  0.00000000  0.00000000  1.0
  Li  Li1  1  1.45331489  -0.45331489  0.70852992  1.0
  Li  Li2  1  0.54668511  0.45331489  0.29147008  1.0
  Cs  Cs3  1  0.18754130  -0.18754130  0.72788955  1.0
  Cs  Cs4  1  0.81245870  -0.81245870  0.27211045  1.0
  Br  Br5  1  0.12901692  -0.12901692  0.29255502  1.0
  Br  Br6  1  0.87098308  -0.87098308  0.70744498  1.0
  Br  Br7  1  0.59814257  0.40185743  0.93661586  1.0
  Br  Br8  1  1.40185743  -0.40185743  0.06338414  1.0
  Br  Br9  1  0.50000000  0.50000000  0.50000000  1.0
