# generated using pymatgen
data_NaPrTiO4
_symmetry_space_group_name_H-M   'P 1'
_cell_length_a   3.76184795
_cell_length_b   3.76184795
_cell_length_c   13.08646591
_cell_angle_alpha   90.00000000
_cell_angle_beta   90.00000000
_cell_angle_gamma   90.00000000
_symmetry_Int_Tables_number   1
_chemical_formula_structural   NaPrTiO4
_chemical_formula_sum   'Na2 Pr2 Ti2 O8'
_cell_volume   185.19312196
_cell_formula_units_Z   2
loop_
 _symmetry_equiv_pos_site_id
 _symmetry_equiv_pos_as_xyz
  1  'x, y, z'
loop_
 _atom_site_type_symbol
 _atom_site_label
 _atom_site_symmetry_multiplicity
 _atom_site_fract_x
 _atom_site_fract_y
 _atom_site_fract_z
 _atom_site_occupancy
  Na  Na0  1  0.50000000  0.00000000  0.58313478  1.0
  Na  Na1  1  0.00000000  0.50000000  0.41686522  1.0
  Pr  Pr2  1  0.50000000  0.00000000  0.89308252  1.0
  Pr  Pr3  1  0.00000000  0.50000000  0.10691748  1.0
  Ti  Ti4  1  0.50000000  0.00000000  0.27104132  1.0
  Ti  Ti5  1  0.00000000  0.50000000  0.72895868  1.0
  O  O6  1  0.00000000  0.00000000  0.23394181  1.0
  O  O7  1  0.50000000  0.50000000  0.76605819  1.0
  O  O8  1  0.50000000  0.50000000  0.23394181  1.0
  O  O9  1  0.00000000  0.00000000  0.76605819  1.0
  O  O10  1  0.50000000  0.00000000  0.06649661  1.0
  O  O11  1  0.00000000  0.50000000  0.93350339  1.0
  O  O12  1  0.50000000  0.00000000  0.40530291  1.0
  O  O13  1  0.00000000  0.50000000  0.59469709  1.0
