# generated using pymatgen
data_CsGeIO6
_symmetry_space_group_name_H-M   'P 1'
_cell_length_a   5.17745422
_cell_length_b   5.17745422
_cell_length_c   6.93501310
_cell_angle_alpha   90.00000000
_cell_angle_beta   90.00000000
_cell_angle_gamma   120.00000000
_symmetry_Int_Tables_number   1
_chemical_formula_structural   CsGeIO6
_chemical_formula_sum   'Cs1 Ge1 I1 O6'
_cell_volume   160.99428257
_cell_formula_units_Z   1
loop_
 _symmetry_equiv_pos_site_id
 _symmetry_equiv_pos_as_xyz
  1  'x, y, z'
loop_
 _atom_site_type_symbol
 _atom_site_label
 _atom_site_symmetry_multiplicity
 _atom_site_fract_x
 _atom_site_fract_y
 _atom_site_fract_z
 _atom_site_occupancy
  Cs  Cs0  1  0.33333333  0.66666667  0.50000000  1.0
  Ge  Ge1  1  0.66666667  0.33333333  0.00000000  1.0
  I  I2  1  0.00000000  0.00000000  0.00000000  1.0
  O  O3  1  0.33784149  1.05403958  0.16020789  1.0
  O  O4  1  0.33784149  0.28380190  0.83979211  1.0
  O  O5  1  0.71619810  1.05403958  0.83979211  1.0
  O  O6  1  0.71619810  0.66215851  0.16020789  1.0
  O  O7  1  -0.05403958  0.66215851  0.83979211  1.0
  O  O8  1  -0.05403958  0.28380190  0.16020789  1.0
