# generated using pymatgen
data_K2Mg2Si2O7
_symmetry_space_group_name_H-M   'P 1'
_cell_length_a   5.14002545
_cell_length_b   5.14002545
_cell_length_c   6.64858469
_cell_angle_alpha   90.00000000
_cell_angle_beta   90.00000000
_cell_angle_gamma   120.00000000
_symmetry_Int_Tables_number   1
_chemical_formula_structural   K2Mg2Si2O7
_chemical_formula_sum   'K2 Mg2 Si2 O7'
_cell_volume   152.12142174
_cell_formula_units_Z   1
loop_
 _symmetry_equiv_pos_site_id
 _symmetry_equiv_pos_as_xyz
  1  'x, y, z'
loop_
 _atom_site_type_symbol
 _atom_site_label
 _atom_site_symmetry_multiplicity
 _atom_site_fract_x
 _atom_site_fract_y
 _atom_site_fract_z
 _atom_site_occupancy
  K  K0  1  0.33333333  0.66666667  0.00000000  1.0
  K  K1  1  0.66666667  0.33333333  0.00000000  1.0
  Mg  Mg2  1  0.33333333  0.66666667  0.50000000  1.0
  Mg  Mg3  1  0.66666667  0.33333333  0.50000000  1.0
  Si  Si4  1  0.00000000  0.00000000  0.25803578  1.0
  Si  Si5  1  0.00000000  0.00000000  0.74196422  1.0
  O  O6  1  0.00000000  0.00000000  0.00000000  1.0
  O  O7  1  0.68947082  0.68947082  0.31895504  1.0
  O  O8  1  0.68947082  0.00000000  0.68104496  1.0
  O  O9  1  -0.00000000  0.68947082  0.68104496  1.0
  O  O10  1  -0.00000000  0.31052918  0.31895504  1.0
  O  O11  1  0.31052918  0.31052918  0.68104496  1.0
  O  O12  1  0.31052918  0.00000000  0.31895504  1.0
