# generated using pymatgen
data_CaSbAu
_symmetry_space_group_name_H-M   'P 1'
_cell_length_a   4.70192915
_cell_length_b   4.70192915
_cell_length_c   7.83954411
_cell_angle_alpha   90.00000000
_cell_angle_beta   90.00000000
_cell_angle_gamma   120.00000000
_symmetry_Int_Tables_number   1
_chemical_formula_structural   CaSbAu
_chemical_formula_sum   'Ca2 Sb2 Au2'
_cell_volume   150.09754916
_cell_formula_units_Z   2
loop_
 _symmetry_equiv_pos_site_id
 _symmetry_equiv_pos_as_xyz
  1  'x, y, z'
loop_
 _atom_site_type_symbol
 _atom_site_label
 _atom_site_symmetry_multiplicity
 _atom_site_fract_x
 _atom_site_fract_y
 _atom_site_fract_z
 _atom_site_occupancy
  Ca  Ca0  1  0.00000000  0.00000000  0.00839703  1.0
  Ca  Ca1  1  -0.00000000  -0.00000000  0.50839703  1.0
  Sb  Sb2  1  0.33333333  0.66666667  0.28590244  1.0
  Sb  Sb3  1  0.66666667  0.33333333  0.78590244  1.0
  Au  Au4  1  0.33333333  0.66666667  0.70570053  1.0
  Au  Au5  1  0.66666667  0.33333333  0.20570053  1.0
