# generated using pymatgen
data_TbNiBC
_symmetry_space_group_name_H-M   'P 1'
_cell_length_a   3.57642310
_cell_length_b   3.57642310
_cell_length_c   7.54260194
_cell_angle_alpha   90.00000000
_cell_angle_beta   90.00000000
_cell_angle_gamma   90.00000000
_symmetry_Int_Tables_number   1
_chemical_formula_structural   TbNiBC
_chemical_formula_sum   'Tb2 Ni2 B2 C2'
_cell_volume   96.47592964
_cell_formula_units_Z   2
loop_
 _symmetry_equiv_pos_site_id
 _symmetry_equiv_pos_as_xyz
  1  'x, y, z'
loop_
 _atom_site_type_symbol
 _atom_site_label
 _atom_site_symmetry_multiplicity
 _atom_site_fract_x
 _atom_site_fract_y
 _atom_site_fract_z
 _atom_site_occupancy
  Tb  Tb0  1  0.50000000  0.00000000  0.66689504  1.0
  Tb  Tb1  1  0.00000000  0.50000000  0.33310496  1.0
  Ni  Ni2  1  0.00000000  0.00000000  0.00000000  1.0
  Ni  Ni3  1  0.50000000  0.50000000  0.00000000  1.0
  B  B4  1  0.50000000  0.00000000  0.14675655  1.0
  B  B5  1  0.00000000  0.50000000  0.85324345  1.0
  C  C6  1  0.50000000  0.00000000  0.34606937  1.0
  C  C7  1  0.00000000  0.50000000  0.65393063  1.0
