# generated using pymatgen
data_LiGa(SiO3)2
_symmetry_space_group_name_H-M   'P 1'
_cell_length_a   9.26680393
_cell_length_b   8.73192117
_cell_length_c   5.29957404
_cell_angle_alpha   90.00000000
_cell_angle_beta   101.79674277
_cell_angle_gamma   90.00000000
_symmetry_Int_Tables_number   1
_chemical_formula_structural   LiGa(SiO3)2
_chemical_formula_sum   'Li4 Ga4 Si8 O24'
_cell_volume   419.76841865
_cell_formula_units_Z   4
loop_
 _symmetry_equiv_pos_site_id
 _symmetry_equiv_pos_as_xyz
  1  'x, y, z'
loop_
 _atom_site_type_symbol
 _atom_site_label
 _atom_site_symmetry_multiplicity
 _atom_site_fract_x
 _atom_site_fract_y
 _atom_site_fract_z
 _atom_site_occupancy
  Li  Li0  1  0.75234320  0.99764925  0.48617027  1.0
  Li  Li1  1  0.75234320  0.50235075  0.98617027  1.0
  Li  Li2  1  0.24765680  0.49764925  0.01382973  1.0
  Li  Li3  1  0.24765680  0.00235075  0.51382973  1.0
  Ga  Ga4  1  0.74971282  0.35359150  0.48436739  1.0
  Ga  Ga5  1  0.74971282  0.14640850  0.98436739  1.0
  Ga  Ga6  1  0.25028718  0.85359150  0.01563261  1.0
  Ga  Ga7  1  0.25028718  0.64640850  0.51563261  1.0
  Si  Si8  1  0.95191634  0.84000034  0.22538496  1.0
  Si  Si9  1  0.95191634  0.65999966  0.72538496  1.0
  Si  Si10  1  0.04808366  0.34000034  0.27461504  1.0
  Si  Si11  1  0.04808366  0.15999966  0.77461504  1.0
  Si  Si12  1  0.45089548  0.16072185  0.19925683  1.0
  Si  Si13  1  0.45089548  0.33927815  0.69925683  1.0
  Si  Si14  1  0.54910452  0.66072185  0.30074317  1.0
  Si  Si15  1  0.54910452  0.83927815  0.80074317  1.0
  O  O16  1  0.39602231  0.27988861  0.40102439  1.0
  O  O17  1  0.39602231  0.22011139  0.90102439  1.0
  O  O18  1  0.60397769  0.77988861  0.09897561  1.0
  O  O19  1  0.60397769  0.72011139  0.59897561  1.0
  O  O20  1  0.89132913  0.76544266  0.46935163  1.0
  O  O21  1  0.89132913  0.73455734  0.96935163  1.0
  O  O22  1  0.10867087  0.26544266  0.03064837  1.0
  O  O23  1  0.10867087  0.23455734  0.53064837  1.0
  O  O24  1  0.88386764  0.01034566  0.19937395  1.0
  O  O25  1  0.88386764  0.48965434  0.69937395  1.0
  O  O26  1  0.11613236  0.51034566  0.30062605  1.0
  O  O27  1  0.11613236  0.98965434  0.80062605  1.0
  O  O28  1  0.86503166  0.33243273  0.20725187  1.0
  O  O29  1  0.86503166  0.16756727  0.70725187  1.0
  O  O30  1  0.13496834  0.83243273  0.29274813  1.0
  O  O31  1  0.13496834  0.66756727  0.79274813  1.0
  O  O32  1  0.63455130  0.16593844  0.26332315  1.0
  O  O33  1  0.63455130  0.33406156  0.76332315  1.0
  O  O34  1  0.36544870  0.66593844  0.23667685  1.0
  O  O35  1  0.36544870  0.83406156  0.73667685  1.0
  O  O36  1  0.62439002  0.49728750  0.26564071  1.0
  O  O37  1  0.62439002  0.00271250  0.76564071  1.0
  O  O38  1  0.37560998  0.99728750  0.23435929  1.0
  O  O39  1  0.37560998  0.50271250  0.73435929  1.0
