# generated using pymatgen
data_Pb3O4
_symmetry_space_group_name_H-M   'P 1'
_cell_length_a   8.96932444
_cell_length_b   9.10161974
_cell_length_c   6.79521353
_cell_angle_alpha   90.00000000
_cell_angle_beta   90.00000000
_cell_angle_gamma   90.00000000
_symmetry_Int_Tables_number   1
_chemical_formula_structural   Pb3O4
_chemical_formula_sum   'Pb12 O16'
_cell_volume   554.72984063
_cell_formula_units_Z   4
loop_
 _symmetry_equiv_pos_site_id
 _symmetry_equiv_pos_as_xyz
  1  'x, y, z'
loop_
 _atom_site_type_symbol
 _atom_site_label
 _atom_site_symmetry_multiplicity
 _atom_site_fract_x
 _atom_site_fract_y
 _atom_site_fract_z
 _atom_site_occupancy
  Pb  Pb0  1  0.14283652  0.66803390  0.50000000  1.0
  Pb  Pb1  1  0.64283652  0.83196610  0.50000000  1.0
  Pb  Pb2  1  0.85716348  0.33196610  0.50000000  1.0
  Pb  Pb3  1  0.35716348  0.16803390  0.50000000  1.0
  Pb  Pb4  1  0.33487936  0.85158854  0.00000000  1.0
  Pb  Pb5  1  0.83487936  0.64841146  -0.00000000  1.0
  Pb  Pb6  1  0.66512064  0.14841146  0.00000000  1.0
  Pb  Pb7  1  0.16512064  0.35158854  -0.00000000  1.0
  Pb  Pb8  1  0.50000000  0.50000000  0.75015048  1.0
  Pb  Pb9  1  0.50000000  0.50000000  0.24984952  1.0
  Pb  Pb10  1  0.00000000  0.00000000  0.75015048  1.0
  Pb  Pb11  1  0.00000000  0.00000000  0.24984952  1.0
  O  O12  1  0.17090145  0.82837602  0.75030829  1.0
  O  O13  1  0.17090145  0.82837602  0.24969171  1.0
  O  O14  1  0.67090145  0.67162398  0.75030829  1.0
  O  O15  1  0.67090145  0.67162398  0.24969171  1.0
  O  O16  1  0.82909855  0.17162398  0.75030829  1.0
  O  O17  1  0.82909855  0.17162398  0.24969171  1.0
  O  O18  1  0.32909855  0.32837602  0.75030829  1.0
  O  O19  1  0.32909855  0.32837602  0.24969171  1.0
  O  O20  1  0.40516674  0.63300618  0.50000000  1.0
  O  O21  1  0.90516674  0.86699382  0.50000000  1.0
  O  O22  1  0.59483326  0.36699382  0.50000000  1.0
  O  O23  1  0.09483326  0.13300618  0.50000000  1.0
  O  O24  1  0.36426463  0.59277473  -0.00000000  1.0
  O  O25  1  0.86426463  0.90722527  -0.00000000  1.0
  O  O26  1  0.63573537  0.40722527  0.00000000  1.0
  O  O27  1  0.13573537  0.09277473  -0.00000000  1.0
