# generated using pymatgen
data_FePH12(CBr)4
_symmetry_space_group_name_H-M   'P 1'
_cell_length_a   8.22822714
_cell_length_b   8.22822714
_cell_length_c   8.22822714
_cell_angle_alpha   60.00000000
_cell_angle_beta   60.00000000
_cell_angle_gamma   60.00000000
_symmetry_Int_Tables_number   1
_chemical_formula_structural   FePH12(CBr)4
_chemical_formula_sum   'Fe1 P1 H12 C4 Br4'
_cell_volume   393.91617802
_cell_formula_units_Z   1
loop_
 _symmetry_equiv_pos_site_id
 _symmetry_equiv_pos_as_xyz
  1  'x, y, z'
loop_
 _atom_site_type_symbol
 _atom_site_label
 _atom_site_symmetry_multiplicity
 _atom_site_fract_x
 _atom_site_fract_y
 _atom_site_fract_z
 _atom_site_occupancy
  Fe  Fe0  1  0.75000000  0.75000000  -0.25000000  1.0
  P  P1  1  0.25000000  0.25000000  0.25000000  1.0
  H  H2  1  0.28449934  1.28449934  0.50271008  1.0
  H  H3  1  0.50271008  1.28449934  0.28449934  1.0
  H  H4  1  0.28449934  1.50271008  0.28449934  1.0
  H  H5  1  -0.07170875  0.50271008  0.28449934  1.0
  H  H6  1  -0.07170875  0.28449934  0.28449934  1.0
  H  H7  1  -0.07170875  0.28449934  0.50271008  1.0
  H  H8  1  0.28449934  1.28449934  -0.07170875  1.0
  H  H9  1  0.28449934  1.50271008  -0.07170875  1.0
  H  H10  1  0.50271008  1.28449934  -0.07170875  1.0
  H  H11  1  0.50271008  -0.07170875  0.28449934  1.0
  H  H12  1  0.28449934  -0.07170875  0.50271008  1.0
  H  H13  1  0.28449934  -0.07170875  0.28449934  1.0
  C  C14  1  0.33929278  1.33929278  0.33929278  1.0
  C  C15  1  -0.01787835  0.33929278  0.33929278  1.0
  C  C16  1  0.33929278  1.33929278  -0.01787835  1.0
  C  C17  1  0.33929278  -0.01787835  0.33929278  1.0
  Br  Br18  1  0.86722158  0.86722158  -0.13277842  1.0
  Br  Br19  1  0.39833527  0.86722158  -0.13277842  1.0
  Br  Br20  1  0.86722158  0.86722158  -0.60166473  1.0
  Br  Br21  1  0.86722158  0.39833527  -0.13277842  1.0
