# generated using pymatgen
data_CoAg(N3O4)2
_symmetry_space_group_name_H-M   'P 1'
_cell_length_a   7.79719031
_cell_length_b   7.79719031
_cell_length_c   7.27702405
_cell_angle_alpha   90.00000000
_cell_angle_beta   90.00000000
_cell_angle_gamma   90.00000000
_symmetry_Int_Tables_number   1
_chemical_formula_structural   CoAg(N3O4)2
_chemical_formula_sum   'Co2 Ag2 N12 O16'
_cell_volume   442.41523957
_cell_formula_units_Z   2
loop_
 _symmetry_equiv_pos_site_id
 _symmetry_equiv_pos_as_xyz
  1  'x, y, z'
loop_
 _atom_site_type_symbol
 _atom_site_label
 _atom_site_symmetry_multiplicity
 _atom_site_fract_x
 _atom_site_fract_y
 _atom_site_fract_z
 _atom_site_occupancy
  N  N0  1  0.69457148  0.69457148  0.50000000  1.0
  N  N1  1  0.30542852  0.30542852  0.50000000  1.0
  N  N2  1  0.19457148  0.19457148  0.00000000  1.0
  N  N3  1  0.80542852  0.80542852  -0.00000000  1.0
  N  N4  1  0.69457148  0.30542852  0.50000000  1.0
  N  N5  1  0.30542852  0.69457148  0.50000000  1.0
  N  N6  1  0.19457148  0.80542852  0.00000000  1.0
  N  N7  1  0.80542852  0.19457148  0.00000000  1.0
  N  N8  1  0.50000000  0.50000000  0.72908778  1.0
  N  N9  1  0.00000000  0.00000000  0.77091222  1.0
  N  N10  1  0.50000000  0.50000000  0.27091222  1.0
  N  N11  1  0.00000000  0.00000000  0.22908778  1.0
  O  O12  1  0.66280954  0.82379080  0.58648438  1.0
  O  O13  1  0.33719046  0.17620920  0.58648438  1.0
  O  O14  1  0.16280954  0.32379080  0.91351562  1.0
  O  O15  1  0.83719046  0.67620920  0.91351562  1.0
  O  O16  1  0.66280954  0.17620920  0.41351562  1.0
  O  O17  1  0.33719046  0.82379080  0.41351562  1.0
  O  O18  1  0.16280954  0.67620920  0.08648438  1.0
  O  O19  1  0.83719046  0.32379080  0.08648438  1.0
  O  O20  1  0.82379080  0.33719046  0.58648438  1.0
  O  O21  1  0.17620920  0.66280954  0.58648438  1.0
  O  O22  1  0.32379080  0.83719046  0.91351562  1.0
  O  O23  1  0.67620920  0.16280954  0.91351562  1.0
  O  O24  1  0.17620920  0.33719046  0.41351562  1.0
  O  O25  1  0.82379080  0.66280954  0.41351562  1.0
  O  O26  1  0.67620920  0.83719046  0.08648438  1.0
  O  O27  1  0.32379080  0.16280954  0.08648438  1.0
  Co  Co28  1  0.50000000  0.50000000  0.50000000  1.0
  Co  Co29  1  0.00000000  0.00000000  0.00000000  1.0
  Ag  Ag30  1  0.50000000  0.50000000  0.00000000  1.0
  Ag  Ag31  1  0.00000000  0.00000000  0.50000000  1.0
