# generated using pymatgen
data_H4PtC4(N2O)2
_symmetry_space_group_name_H-M   'P 1'
_cell_length_a   6.40000466
_cell_length_b   6.40000466
_cell_length_c   11.75527724
_cell_angle_alpha   84.31775800
_cell_angle_beta   95.68224200
_cell_angle_gamma   115.71122213
_symmetry_Int_Tables_number   1
_chemical_formula_structural   H4PtC4(N2O)2
_chemical_formula_sum   'H8 Pt2 C8 N8 O4'
_cell_volume   430.84854450
_cell_formula_units_Z   2
loop_
 _symmetry_equiv_pos_site_id
 _symmetry_equiv_pos_as_xyz
  1  'x, y, z'
loop_
 _atom_site_type_symbol
 _atom_site_label
 _atom_site_symmetry_multiplicity
 _atom_site_fract_x
 _atom_site_fract_y
 _atom_site_fract_z
 _atom_site_occupancy
  H  H0  1  0.70152701  -0.23763065  0.42419076  1.0
  H  H1  1  1.23763065  0.29847299  0.92419076  1.0
  H  H2  1  0.76236935  -0.29847299  0.07580924  1.0
  H  H3  1  1.29847299  0.23763065  0.57580924  1.0
  H  H4  1  0.44247679  -0.30186253  0.35093004  1.0
  H  H5  1  1.30186253  0.55752321  0.85093004  1.0
  H  H6  1  0.69813747  -0.55752321  0.14906996  1.0
  H  H7  1  1.55752321  0.30186253  0.64906996  1.0
  Pt  Pt8  1  1.50000000  0.00000000  0.50000000  1.0
  Pt  Pt9  1  1.00000000  -0.50000000  0.00000000  1.0
  C  C10  1  1.86513816  0.16039676  0.05267794  1.0
  C  C11  1  0.83960324  -0.86513816  0.55267794  1.0
  C  C12  1  1.16039676  0.86513816  0.44732206  1.0
  C  C13  1  0.13486184  -0.16039676  0.94732206  1.0
  C  C14  1  1.58186770  0.19239606  0.35106506  1.0
  C  C15  1  0.80760394  -0.58186770  0.85106506  1.0
  C  C16  1  1.19239606  0.58186770  0.14893494  1.0
  C  C17  1  0.41813230  -0.19239606  0.64893494  1.0
  N  N18  1  0.79533522  -0.03690415  0.07898298  1.0
  N  N19  1  1.03690415  0.20466478  0.57898298  1.0
  N  N20  1  0.96309585  -0.20466478  0.42101702  1.0
  N  N21  1  1.20466478  0.03690415  0.92101702  1.0
  N  N22  1  1.63092599  0.30127666  0.26472744  1.0
  N  N23  1  0.69872334  -0.63092599  0.76472744  1.0
  N  N24  1  1.30127666  0.63092599  0.23527256  1.0
  N  N25  1  0.36907401  -0.30127666  0.73527256  1.0
  O  O26  1  0.53127646  -0.26663866  0.43124104  1.0
  O  O27  1  1.26663866  0.46872354  0.93124104  1.0
  O  O28  1  0.73336134  -0.46872354  0.06875896  1.0
  O  O29  1  1.46872354  0.26663866  0.56875896  1.0
