# generated using pymatgen
data_HfSbPd
_symmetry_space_group_name_H-M   'P 1'
_cell_length_a   6.60698572
_cell_length_b   4.44922127
_cell_length_c   8.01813341
_cell_angle_alpha   90.00000000
_cell_angle_beta   90.00000000
_cell_angle_gamma   90.00000000
_symmetry_Int_Tables_number   1
_chemical_formula_structural   HfSbPd
_chemical_formula_sum   'Hf4 Sb4 Pd4'
_cell_volume   235.70057977
_cell_formula_units_Z   4
loop_
 _symmetry_equiv_pos_site_id
 _symmetry_equiv_pos_as_xyz
  1  'x, y, z'
loop_
 _atom_site_type_symbol
 _atom_site_label
 _atom_site_symmetry_multiplicity
 _atom_site_fract_x
 _atom_site_fract_y
 _atom_site_fract_z
 _atom_site_occupancy
  Hf  Hf0  1  0.98356725  0.75000000  0.71155359  1.0
  Hf  Hf1  1  0.48356725  0.75000000  0.78844641  1.0
  Hf  Hf2  1  0.01643275  0.25000000  0.28844641  1.0
  Hf  Hf3  1  0.51643275  0.25000000  0.21155359  1.0
  Sb  Sb4  1  0.74451414  0.75000000  0.40176028  1.0
  Sb  Sb5  1  0.24451414  0.75000000  0.09823972  1.0
  Sb  Sb6  1  0.25548586  0.25000000  0.59823972  1.0
  Sb  Sb7  1  0.75548586  0.25000000  0.90176028  1.0
  Pd  Pd8  1  0.82995325  0.75000000  0.07544231  1.0
  Pd  Pd9  1  0.32995325  0.75000000  0.42455769  1.0
  Pd  Pd10  1  0.17004675  0.25000000  0.92455769  1.0
  Pd  Pd11  1  0.67004675  0.25000000  0.57544231  1.0
