# generated using pymatgen
data_KSrI3
_symmetry_space_group_name_H-M   'P 1'
_cell_length_a   8.23799134
_cell_length_b   8.23799134
_cell_length_c   12.06628853
_cell_angle_alpha   90.00000000
_cell_angle_beta   90.00000000
_cell_angle_gamma   146.29714296
_symmetry_Int_Tables_number   1
_chemical_formula_structural   KSrI3
_chemical_formula_sum   'K2 Sr2 I6'
_cell_volume   454.38089912
_cell_formula_units_Z   2
loop_
 _symmetry_equiv_pos_site_id
 _symmetry_equiv_pos_as_xyz
  1  'x, y, z'
loop_
 _atom_site_type_symbol
 _atom_site_label
 _atom_site_symmetry_multiplicity
 _atom_site_fract_x
 _atom_site_fract_y
 _atom_site_fract_z
 _atom_site_occupancy
  K  K0  1  -0.25213592  0.25213592  0.75000000  1.0
  K  K1  1  0.25213592  0.74786408  0.25000000  1.0
  Sr  Sr2  1  0.00000000  0.00000000  0.00000000  1.0
  Sr  Sr3  1  0.00000000  0.00000000  0.50000000  1.0
  I  I4  1  0.36253271  0.63746729  0.93730084  1.0
  I  I5  1  0.36253271  0.63746729  0.56269916  1.0
  I  I6  1  -0.36253271  0.36253271  0.43730084  1.0
  I  I7  1  -0.36253271  0.36253271  0.06269916  1.0
  I  I8  1  0.08285467  0.91714533  0.75000000  1.0
  I  I9  1  -0.08285467  0.08285467  0.25000000  1.0
