# generated using pymatgen
data_NaMnPO4
_symmetry_space_group_name_H-M   'P 1'
_cell_length_a   9.21246447
_cell_length_b   6.98412711
_cell_length_c   5.15840545
_cell_angle_alpha   90.00000000
_cell_angle_beta   90.00000000
_cell_angle_gamma   90.00000000
_symmetry_Int_Tables_number   1
_chemical_formula_structural   NaMnPO4
_chemical_formula_sum   'Na4 Mn4 P4 O16'
_cell_volume   331.89708299
_cell_formula_units_Z   4
loop_
 _symmetry_equiv_pos_site_id
 _symmetry_equiv_pos_as_xyz
  1  'x, y, z'
loop_
 _atom_site_type_symbol
 _atom_site_label
 _atom_site_symmetry_multiplicity
 _atom_site_fract_x
 _atom_site_fract_y
 _atom_site_fract_z
 _atom_site_occupancy
  Na  Na0  1  0.84942013  0.25000000  0.53111363  1.0
  Na  Na1  1  0.34942013  0.25000000  0.96888637  1.0
  Na  Na2  1  0.15057987  0.75000000  0.46888637  1.0
  Na  Na3  1  0.65057987  0.75000000  0.03111363  1.0
  Mn  Mn4  1  0.00000000  0.50000000  0.00000000  1.0
  Mn  Mn5  1  0.00000000  0.00000000  0.00000000  1.0
  Mn  Mn6  1  0.50000000  0.50000000  0.50000000  1.0
  Mn  Mn7  1  0.50000000  0.00000000  0.50000000  1.0
  P  P8  1  0.67502078  0.25000000  0.03506499  1.0
  P  P9  1  0.17502078  0.25000000  0.46493501  1.0
  P  P10  1  0.32497922  0.75000000  0.96493501  1.0
  P  P11  1  0.82497922  0.75000000  0.53506499  1.0
  O  O12  1  0.62020626  0.43165408  0.17822881  1.0
  O  O13  1  0.62020626  0.06834592  0.17822881  1.0
  O  O14  1  0.12020626  0.43165408  0.32177119  1.0
  O  O15  1  0.12020626  0.06834592  0.32177119  1.0
  O  O16  1  0.37979374  0.93165408  0.82177119  1.0
  O  O17  1  0.37979374  0.56834592  0.82177119  1.0
  O  O18  1  0.87979374  0.93165408  0.67822881  1.0
  O  O19  1  0.87979374  0.56834592  0.67822881  1.0
  O  O20  1  0.61862237  0.25000000  0.74857331  1.0
  O  O21  1  0.11862237  0.25000000  0.75142669  1.0
  O  O22  1  0.38137763  0.75000000  0.25142669  1.0
  O  O23  1  0.88137763  0.75000000  0.24857331  1.0
  O  O24  1  0.84651325  0.25000000  0.04790675  1.0
  O  O25  1  0.34651325  0.25000000  0.45209325  1.0
  O  O26  1  0.15348675  0.75000000  0.95209325  1.0
  O  O27  1  0.65348675  0.75000000  0.54790675  1.0
