# generated using pymatgen
data_CsH3AuN
_symmetry_space_group_name_H-M   'P 1'
_cell_length_a   5.28553328
_cell_length_b   5.28553328
_cell_length_c   16.91462822
_cell_angle_alpha   79.90882486
_cell_angle_beta   100.09117514
_cell_angle_gamma   96.07500456
_symmetry_Int_Tables_number   1
_chemical_formula_structural   CsH3AuN
_chemical_formula_sum   'Cs4 H12 Au4 N4'
_cell_volume   456.65650627
_cell_formula_units_Z   4
loop_
 _symmetry_equiv_pos_site_id
 _symmetry_equiv_pos_as_xyz
  1  'x, y, z'
loop_
 _atom_site_type_symbol
 _atom_site_label
 _atom_site_symmetry_multiplicity
 _atom_site_fract_x
 _atom_site_fract_y
 _atom_site_fract_z
 _atom_site_occupancy
  Cs  Cs0  1  0.55390628  -0.30367869  0.10467466  1.0
  Cs  Cs1  1  1.30367869  -0.55390628  0.60467466  1.0
  Cs  Cs2  1  0.69632131  -0.44609372  0.39532534  1.0
  Cs  Cs3  1  0.44609372  0.30367869  0.89532534  1.0
  H  H4  1  1.65679433  0.13634369  0.25089831  1.0
  H  H5  1  0.86365631  0.34320567  0.75089831  1.0
  H  H6  1  1.13634369  0.65679433  0.24910169  1.0
  H  H7  1  1.34320567  -0.13634369  0.74910169  1.0
  H  H8  1  0.18508167  -0.05393379  0.19762882  1.0
  H  H9  1  1.05393379  -0.18508167  0.69762882  1.0
  H  H10  1  0.94606621  -0.81491833  0.30237118  1.0
  H  H11  1  0.81491833  0.05393379  0.80237118  1.0
  H  H12  1  0.23664580  -0.10094660  0.29852038  1.0
  H  H13  1  1.10094660  0.76335420  0.79852038  1.0
  H  H14  1  0.89905340  0.23664580  0.20147962  1.0
  H  H15  1  0.76335420  0.10094660  0.70147962  1.0
  Au  Au16  1  1.22686977  0.02201432  0.45174052  1.0
  Au  Au17  1  0.97798568  0.77313023  0.95174052  1.0
  Au  Au18  1  1.02201432  0.22686977  0.04825948  1.0
  Au  Au19  1  1.77313023  -0.02201432  0.54825948  1.0
  N  N20  1  0.82066332  0.25943864  0.25143800  1.0
  N  N21  1  0.74056136  0.17933668  0.75143800  1.0
  N  N22  1  1.25943864  0.82066332  0.24856200  1.0
  N  N23  1  0.17933668  -0.25943864  0.74856200  1.0
