# generated using pymatgen
data_Lu2PdO4
_symmetry_space_group_name_H-M   'P 1'
_cell_length_a   5.55223584
_cell_length_b   5.54817178
_cell_length_c   11.79620125
_cell_angle_alpha   90.00000000
_cell_angle_beta   90.00000000
_cell_angle_gamma   90.00000000
_symmetry_Int_Tables_number   1
_chemical_formula_structural   Lu2PdO4
_chemical_formula_sum   'Lu8 Pd4 O16'
_cell_volume   363.37912693
_cell_formula_units_Z   4
loop_
 _symmetry_equiv_pos_site_id
 _symmetry_equiv_pos_as_xyz
  1  'x, y, z'
loop_
 _atom_site_type_symbol
 _atom_site_label
 _atom_site_symmetry_multiplicity
 _atom_site_fract_x
 _atom_site_fract_y
 _atom_site_fract_z
 _atom_site_occupancy
  Lu  Lu0  1  0.49981618  0.50106648  0.66086715  1.0
  Lu  Lu1  1  0.49981618  0.99893352  0.16086715  1.0
  Lu  Lu2  1  0.99981618  0.50106648  0.83913285  1.0
  Lu  Lu3  1  0.99981618  0.99893352  0.33913285  1.0
  Lu  Lu4  1  0.50018382  0.00106648  0.83913285  1.0
  Lu  Lu5  1  0.50018382  0.49893352  0.33913285  1.0
  Lu  Lu6  1  0.00018382  0.00106648  0.66086715  1.0
  Lu  Lu7  1  0.00018382  0.49893352  0.16086715  1.0
  Pd  Pd8  1  0.50000000  0.00000000  0.50000000  1.0
  Pd  Pd9  1  0.50000000  0.50000000  0.00000000  1.0
  Pd  Pd10  1  0.00000000  0.00000000  0.00000000  1.0
  Pd  Pd11  1  0.00000000  0.50000000  0.50000000  1.0
  O  O12  1  0.25996448  0.75111898  0.75013248  1.0
  O  O13  1  0.25996448  0.74888102  0.25013248  1.0
  O  O14  1  0.75996448  0.75111898  0.74986752  1.0
  O  O15  1  0.75996448  0.74888102  0.24986752  1.0
  O  O16  1  0.74003552  0.25111898  0.74986752  1.0
  O  O17  1  0.74003552  0.24888102  0.24986752  1.0
  O  O18  1  0.24003552  0.25111898  0.75013248  1.0
  O  O19  1  0.24003552  0.24888102  0.25013248  1.0
  O  O20  1  0.17039328  0.82957686  0.50020977  1.0
  O  O21  1  0.17039328  0.67042314  0.00020977  1.0
  O  O22  1  0.67039328  0.82957686  0.99979023  1.0
  O  O23  1  0.67039328  0.67042314  0.49979023  1.0
  O  O24  1  0.82960672  0.32957686  0.99979023  1.0
  O  O25  1  0.82960672  0.17042314  0.49979023  1.0
  O  O26  1  0.32960672  0.32957686  0.50020977  1.0
  O  O27  1  0.32960672  0.17042314  0.00020977  1.0
