# generated using pymatgen
data_CrB4
_symmetry_space_group_name_H-M   'P 1'
_cell_length_a   3.89497042
_cell_length_b   3.89497042
_cell_length_c   3.89497042
_cell_angle_alpha   137.07621063
_cell_angle_beta   104.95360239
_cell_angle_gamma   90.55595193
_symmetry_Int_Tables_number   1
_chemical_formula_structural   CrB4
_chemical_formula_sum   'Cr1 B4'
_cell_volume   37.06447678
_cell_formula_units_Z   1
loop_
 _symmetry_equiv_pos_site_id
 _symmetry_equiv_pos_as_xyz
  1  'x, y, z'
loop_
 _atom_site_type_symbol
 _atom_site_label
 _atom_site_symmetry_multiplicity
 _atom_site_fract_x
 _atom_site_fract_y
 _atom_site_fract_z
 _atom_site_occupancy
  Cr  Cr0  1  0.00000000  0.00000000  0.00000000  1.0
  B  B1  1  0.46223750  0.65775923  0.80447827  1.0
  B  B2  1  1.14671904  1.34224077  0.80447827  1.0
  B  B3  1  0.85328096  0.65775923  1.19552173  1.0
  B  B4  1  1.53776250  1.34224077  1.19552173  1.0
