# generated using pymatgen
data_YMgZn
_symmetry_space_group_name_H-M   'P 1'
_cell_length_a   7.58163605
_cell_length_b   7.58163605
_cell_length_c   4.12390422
_cell_angle_alpha   90.00000000
_cell_angle_beta   90.00000000
_cell_angle_gamma   120.00000000
_symmetry_Int_Tables_number   1
_chemical_formula_structural   YMgZn
_chemical_formula_sum   'Y3 Mg3 Zn3'
_cell_volume   205.28871093
_cell_formula_units_Z   3
loop_
 _symmetry_equiv_pos_site_id
 _symmetry_equiv_pos_as_xyz
  1  'x, y, z'
loop_
 _atom_site_type_symbol
 _atom_site_label
 _atom_site_symmetry_multiplicity
 _atom_site_fract_x
 _atom_site_fract_y
 _atom_site_fract_z
 _atom_site_occupancy
  Y  Y0  1  0.41215345  0.41215345  0.00000000  1.0
  Y  Y1  1  -0.00000000  0.58784655  0.00000000  1.0
  Y  Y2  1  0.58784655  0.00000000  0.00000000  1.0
  Mg  Mg3  1  0.75262096  0.75262096  0.50000000  1.0
  Mg  Mg4  1  -0.00000000  0.24737904  0.50000000  1.0
  Mg  Mg5  1  0.24737904  0.00000000  0.50000000  1.0
  Zn  Zn6  1  0.33333333  0.66666667  0.50000000  1.0
  Zn  Zn7  1  0.66666667  0.33333333  0.50000000  1.0
  Zn  Zn8  1  0.00000000  0.00000000  0.00000000  1.0
