# generated using pymatgen
data_CsSbO2
_symmetry_space_group_name_H-M   'P 1'
_cell_length_a   6.60110656
_cell_length_b   6.60110656
_cell_length_c   5.69596140
_cell_angle_alpha   70.14250684
_cell_angle_beta   109.85749316
_cell_angle_gamma   77.70312184
_symmetry_Int_Tables_number   1
_chemical_formula_structural   CsSbO2
_chemical_formula_sum   'Cs2 Sb2 O4'
_cell_volume   203.87497250
_cell_formula_units_Z   2
loop_
 _symmetry_equiv_pos_site_id
 _symmetry_equiv_pos_as_xyz
  1  'x, y, z'
loop_
 _atom_site_type_symbol
 _atom_site_label
 _atom_site_symmetry_multiplicity
 _atom_site_fract_x
 _atom_site_fract_y
 _atom_site_fract_z
 _atom_site_occupancy
  Cs  Cs0  1  0.85264567  -0.14735433  0.75000000  1.0
  Cs  Cs1  1  1.14735433  0.14735433  0.25000000  1.0
  Sb  Sb2  1  1.42319791  0.42319791  0.75000000  1.0
  Sb  Sb3  1  0.57680209  -0.42319791  0.25000000  1.0
  O  O4  1  0.36931725  -0.28444938  0.79296520  1.0
  O  O5  1  1.28444938  0.63068275  0.29296520  1.0
  O  O6  1  0.71555062  -0.63068275  0.70703480  1.0
  O  O7  1  1.63068275  0.28444938  0.20703480  1.0
