# generated using pymatgen
data_Tl2CuAsO4
_symmetry_space_group_name_H-M   'P 1'
_cell_length_a   8.81159982
_cell_length_b   5.53870455
_cell_length_c   12.40442480
_cell_angle_alpha   90.00000000
_cell_angle_beta   99.33026445
_cell_angle_gamma   90.00000000
_symmetry_Int_Tables_number   1
_chemical_formula_structural   Tl2CuAsO4
_chemical_formula_sum   'Tl8 Cu4 As4 O16'
_cell_volume   597.38680808
_cell_formula_units_Z   4
loop_
 _symmetry_equiv_pos_site_id
 _symmetry_equiv_pos_as_xyz
  1  'x, y, z'
loop_
 _atom_site_type_symbol
 _atom_site_label
 _atom_site_symmetry_multiplicity
 _atom_site_fract_x
 _atom_site_fract_y
 _atom_site_fract_z
 _atom_site_occupancy
  Tl  Tl0  1  0.81600701  0.23283619  0.14559707  1.0
  Tl  Tl1  1  0.81600701  0.26716381  0.64559707  1.0
  Tl  Tl2  1  0.18399299  0.73283619  0.35440293  1.0
  Tl  Tl3  1  0.18399299  0.76716381  0.85440293  1.0
  Tl  Tl4  1  0.50854064  0.26302298  0.38060648  1.0
  Tl  Tl5  1  0.50854064  0.23697702  0.88060648  1.0
  Tl  Tl6  1  0.49145936  0.76302298  0.11939352  1.0
  Tl  Tl7  1  0.49145936  0.73697702  0.61939352  1.0
  Cu  Cu8  1  0.98789879  0.31358501  0.41987080  1.0
  Cu  Cu9  1  0.98789879  0.18641499  0.91987080  1.0
  Cu  Cu10  1  0.01210121  0.81358501  0.08012920  1.0
  Cu  Cu11  1  0.01210121  0.68641499  0.58012920  1.0
  As  As12  1  0.78349762  0.75820508  0.37500270  1.0
  As  As13  1  0.78349762  0.74179492  0.87500270  1.0
  As  As14  1  0.21650238  0.25820508  0.12499730  1.0
  As  As15  1  0.21650238  0.24179492  0.62499730  1.0
  O  O16  1  0.91296386  0.91673454  0.31044878  1.0
  O  O17  1  0.91296386  0.58326546  0.81044878  1.0
  O  O18  1  0.08703614  0.41673454  0.18955122  1.0
  O  O19  1  0.08703614  0.08326546  0.68955122  1.0
  O  O20  1  0.79918195  0.44255812  0.35158207  1.0
  O  O21  1  0.79918195  0.05744188  0.85158207  1.0
  O  O22  1  0.20081805  0.94255812  0.14841793  1.0
  O  O23  1  0.20081805  0.55744188  0.64841793  1.0
  O  O24  1  0.40599727  0.33536403  0.17428978  1.0
  O  O25  1  0.40599727  0.16463597  0.67428978  1.0
  O  O26  1  0.59400273  0.83536403  0.32571022  1.0
  O  O27  1  0.59400273  0.66463597  0.82571022  1.0
  O  O28  1  0.18028336  0.19093081  0.48291721  1.0
  O  O29  1  0.18028336  0.30906919  0.98291721  1.0
  O  O30  1  0.81971664  0.69093081  0.01708279  1.0
  O  O31  1  0.81971664  0.80906919  0.51708279  1.0
