# generated using pymatgen
data_Sr4MgSi2(NO3)2
_symmetry_space_group_name_H-M   'P 1'
_cell_length_a   6.26767858
_cell_length_b   7.49603547
_cell_length_c   11.10887899
_cell_angle_alpha   90.00000000
_cell_angle_beta   108.98868144
_cell_angle_gamma   90.00000000
_symmetry_Int_Tables_number   1
_chemical_formula_structural   Sr4MgSi2(NO3)2
_chemical_formula_sum   'Sr8 Mg2 Si4 N4 O12'
_cell_volume   493.52389286
_cell_formula_units_Z   2
loop_
 _symmetry_equiv_pos_site_id
 _symmetry_equiv_pos_as_xyz
  1  'x, y, z'
loop_
 _atom_site_type_symbol
 _atom_site_label
 _atom_site_symmetry_multiplicity
 _atom_site_fract_x
 _atom_site_fract_y
 _atom_site_fract_z
 _atom_site_occupancy
  Sr  Sr0  1  0.45797710  0.23794626  0.13615085  1.0
  Sr  Sr1  1  0.45797710  0.26205374  0.63615085  1.0
  Sr  Sr2  1  0.54202290  0.76205374  0.86384915  1.0
  Sr  Sr3  1  0.54202290  0.73794626  0.36384915  1.0
  Sr  Sr4  1  0.01433276  0.51089223  0.77807075  1.0
  Sr  Sr5  1  0.01433276  0.98910777  0.27807075  1.0
  Sr  Sr6  1  0.98566724  0.48910777  0.22192925  1.0
  Sr  Sr7  1  0.98566724  0.01089223  0.72192925  1.0
  Mg  Mg8  1  0.00000000  0.00000000  0.00000000  1.0
  Mg  Mg9  1  0.00000000  0.50000000  0.50000000  1.0
  Si  Si10  1  0.19501710  0.73517775  0.06668848  1.0
  Si  Si11  1  0.19501710  0.76482225  0.56668848  1.0
  Si  Si12  1  0.80498290  0.26482225  0.93331152  1.0
  Si  Si13  1  0.80498290  0.23517775  0.43331152  1.0
  N  N14  1  0.16907773  0.78713866  0.91326190  1.0
  N  N15  1  0.16907773  0.71286134  0.41326190  1.0
  N  N16  1  0.83092227  0.21286134  0.08673810  1.0
  N  N17  1  0.83092227  0.28713866  0.58673810  1.0
  O  O18  1  0.29397359  -0.07552264  0.15452087  1.0
  O  O19  1  0.29397359  0.57552264  0.65452087  1.0
  O  O20  1  0.70602641  1.07552264  0.84547913  1.0
  O  O21  1  0.70602641  0.42447736  0.34547913  1.0
  O  O22  1  0.31938383  0.56021938  0.14705045  1.0
  O  O23  1  0.31938383  0.93978062  0.64705045  1.0
  O  O24  1  0.68061617  0.43978062  0.85294955  1.0
  O  O25  1  0.68061617  0.06021938  0.35294955  1.0
  O  O26  1  0.92282499  0.75383650  0.07518195  1.0
  O  O27  1  0.92282499  0.74616351  0.57518195  1.0
  O  O28  1  0.07717501  0.24616351  0.92481805  1.0
  O  O29  1  0.07717501  0.25383649  0.42481805  1.0
