# generated using pymatgen
data_TlB(CN)2
_symmetry_space_group_name_H-M   'P 1'
_cell_length_a   8.84125556
_cell_length_b   8.84125556
_cell_length_c   8.84125556
_cell_angle_alpha   124.67672227
_cell_angle_beta   124.67672227
_cell_angle_gamma   82.07417862
_symmetry_Int_Tables_number   1
_chemical_formula_structural   TlB(CN)2
_chemical_formula_sum   'Tl4 B4 C8 N8'
_cell_volume   449.40651951
_cell_formula_units_Z   4
loop_
 _symmetry_equiv_pos_site_id
 _symmetry_equiv_pos_as_xyz
  1  'x, y, z'
loop_
 _atom_site_type_symbol
 _atom_site_label
 _atom_site_symmetry_multiplicity
 _atom_site_fract_x
 _atom_site_fract_y
 _atom_site_fract_z
 _atom_site_occupancy
  Tl  Tl0  1  0.37500000  0.62500000  0.75000000  1.0
  Tl  Tl1  1  0.87500000  0.62500000  1.25000000  1.0
  Tl  Tl2  1  0.37500000  1.12500000  0.75000000  1.0
  Tl  Tl3  1  0.37500000  0.62500000  0.25000000  1.0
  B  B4  1  0.87500000  0.12500000  0.75000000  1.0
  B  B5  1  0.37500000  0.12500000  0.25000000  1.0
  B  B6  1  0.87500000  0.62500000  0.75000000  1.0
  B  B7  1  0.87500000  1.12500000  1.25000000  1.0
  C  C8  1  0.82277127  0.93155956  1.67165978  1.0
  C  C9  1  0.49010022  1.09888851  1.17165978  1.0
  C  C10  1  1.06844044  0.74010022  0.89121171  1.0
  C  C11  1  0.90111149  1.07277127  1.39121171  1.0
  C  C12  1  0.25989978  0.15111149  0.32834022  1.0
  C  C13  1  0.92722873  0.31844044  0.82834022  1.0
  C  C14  1  0.84888851  1.17722873  1.10878829  1.0
  C  C15  1  0.68155956  0.50989978  0.60878829  1.0
  N  N16  1  0.77276567  0.77247862  1.60207833  1.0
  N  N17  1  0.57959971  1.07931266  1.10207833  1.0
  N  N18  1  1.22752138  0.82959971  1.00028705  1.0
  N  N19  1  0.92068734  1.02276567  1.50028705  1.0
  N  N20  1  0.17040029  0.17068734  0.39792167  1.0
  N  N21  1  0.97723433  0.47752138  0.89792167  1.0
  N  N22  1  0.82931266  1.22723433  0.99971295  1.0
  N  N23  1  0.52247862  0.42040029  0.49971295  1.0
