# generated using pymatgen
data_Ni(BO2)2
_symmetry_space_group_name_H-M   'P 1'
_cell_length_a   5.44937628
_cell_length_b   5.44937628
_cell_length_c   4.44132071
_cell_angle_alpha   74.44476166
_cell_angle_beta   105.55523834
_cell_angle_gamma   118.56446618
_symmetry_Int_Tables_number   1
_chemical_formula_structural   Ni(BO2)2
_chemical_formula_sum   'Ni2 B4 O8'
_cell_volume   110.05497821
_cell_formula_units_Z   2
loop_
 _symmetry_equiv_pos_site_id
 _symmetry_equiv_pos_as_xyz
  1  'x, y, z'
loop_
 _atom_site_type_symbol
 _atom_site_label
 _atom_site_symmetry_multiplicity
 _atom_site_fract_x
 _atom_site_fract_y
 _atom_site_fract_z
 _atom_site_occupancy
  Ni  Ni0  1  0.84930020  -0.15069980  0.75000000  1.0
  Ni  Ni1  1  1.15069980  0.15069980  0.25000000  1.0
  B  B2  1  1.57704972  0.20771031  0.87069696  1.0
  B  B3  1  0.79228969  -0.57704972  0.37069696  1.0
  B  B4  1  1.20771031  0.57704972  0.62930304  1.0
  B  B5  1  0.42295028  -0.20771031  0.12930304  1.0
  O  O6  1  1.54661959  0.27266145  0.52849094  1.0
  O  O7  1  0.72733855  -0.54661959  0.02849094  1.0
  O  O8  1  1.27266145  0.54661959  0.97150906  1.0
  O  O9  1  0.45338041  -0.27266145  0.47150906  1.0
  O  O10  1  1.29581185  0.00490907  0.98214090  1.0
  O  O11  1  0.99509093  -0.29581185  0.48214090  1.0
  O  O12  1  1.00490907  0.29581185  0.51785910  1.0
  O  O13  1  0.70418815  -0.00490907  0.01785910  1.0
