# generated using pymatgen
data_CS2N
_symmetry_space_group_name_H-M   'P 1'
_cell_length_a   9.04685951
_cell_length_b   8.83607612
_cell_length_c   11.42655819
_cell_angle_alpha   90.00000000
_cell_angle_beta   110.93825445
_cell_angle_gamma   90.00000000
_symmetry_Int_Tables_number   1
_chemical_formula_structural   CS2N
_chemical_formula_sum   'C8 S16 N8'
_cell_volume   853.10764934
_cell_formula_units_Z   8
loop_
 _symmetry_equiv_pos_site_id
 _symmetry_equiv_pos_as_xyz
  1  'x, y, z'
loop_
 _atom_site_type_symbol
 _atom_site_label
 _atom_site_symmetry_multiplicity
 _atom_site_fract_x
 _atom_site_fract_y
 _atom_site_fract_z
 _atom_site_occupancy
  C  C0  1  0.87486368  0.66278827  0.60688434  1.0
  C  C1  1  0.12513632  0.16278827  0.89311566  1.0
  C  C2  1  0.12513632  0.33721173  0.39311566  1.0
  C  C3  1  0.87486368  0.83721173  0.10688434  1.0
  C  C4  1  0.62089616  0.56036187  0.81116245  1.0
  C  C5  1  0.37910384  0.06036187  0.68883755  1.0
  C  C6  1  0.37910384  0.43963813  0.18883755  1.0
  C  C7  1  0.62089616  0.93963813  0.31116245  1.0
  S  S8  1  0.02462712  0.78253801  0.61810198  1.0
  S  S9  1  0.97537288  0.28253801  0.88189802  1.0
  S  S10  1  0.97537288  0.21746199  0.38189802  1.0
  S  S11  1  0.02462712  0.71746199  0.11810198  1.0
  S  S12  1  0.19914458  0.69655791  0.78272261  1.0
  S  S13  1  0.80085542  0.19655791  0.71727739  1.0
  S  S14  1  0.80085542  0.30344209  0.21727739  1.0
  S  S15  1  0.19914458  0.80344209  0.28272261  1.0
  S  S16  1  0.71703478  0.99837687  0.75810839  1.0
  S  S17  1  0.28296522  0.49837687  0.74189161  1.0
  S  S18  1  0.28296522  0.00162313  0.24189161  1.0
  S  S19  1  0.71703478  0.50162313  0.25810839  1.0
  S  S20  1  0.46770050  0.95824372  0.17388042  1.0
  S  S21  1  0.53229950  0.45824372  0.32611958  1.0
  S  S22  1  0.53229950  0.04175628  0.82611958  1.0
  S  S23  1  0.46770050  0.54175628  0.67388042  1.0
  N  N24  1  0.77047738  0.57884443  0.59570940  1.0
  N  N25  1  0.22952262  0.07884443  0.90429060  1.0
  N  N26  1  0.22952262  0.42115557  0.40429060  1.0
  N  N27  1  0.77047738  0.92115557  0.09570940  1.0
  N  N28  1  0.73073904  0.57301541  0.90401770  1.0
  N  N29  1  0.26926096  0.07301541  0.59598230  1.0
  N  N30  1  0.26926096  0.42698459  0.09598230  1.0
  N  N31  1  0.73073904  0.92698459  0.40401770  1.0
