# generated using pymatgen
data_Na2SbSO4F3
_symmetry_space_group_name_H-M   'P 1'
_cell_length_a   8.45818754
_cell_length_b   8.45818754
_cell_length_c   11.44736852
_cell_angle_alpha   90.00000000
_cell_angle_beta   90.00000000
_cell_angle_gamma   51.29992209
_symmetry_Int_Tables_number   1
_chemical_formula_structural   Na2SbSO4F3
_chemical_formula_sum   'Na8 Sb4 S4 O16 F12'
_cell_volume   639.13705022
_cell_formula_units_Z   4
loop_
 _symmetry_equiv_pos_site_id
 _symmetry_equiv_pos_as_xyz
  1  'x, y, z'
loop_
 _atom_site_type_symbol
 _atom_site_label
 _atom_site_symmetry_multiplicity
 _atom_site_fract_x
 _atom_site_fract_y
 _atom_site_fract_z
 _atom_site_occupancy
  Na  Na0  1  0.02675760  0.47324240  0.75000000  1.0
  Na  Na1  1  -0.47324240  0.97324240  0.75000000  1.0
  Na  Na2  1  -0.52675760  1.02675760  0.25000000  1.0
  Na  Na3  1  -0.02675760  0.52675760  0.25000000  1.0
  Na  Na4  1  -0.11902383  0.88097617  0.00000000  1.0
  Na  Na5  1  0.38097617  0.38097617  0.50000000  1.0
  Na  Na6  1  0.11902383  0.11902383  0.00000000  1.0
  Na  Na7  1  -0.38097617  0.61902383  0.50000000  1.0
  Sb  Sb8  1  -0.61876688  0.61876688  0.83747303  1.0
  Sb  Sb9  1  -0.11876688  0.11876688  0.66252697  1.0
  Sb  Sb10  1  -0.38123312  0.38123312  0.16252697  1.0
  Sb  Sb11  1  -0.88123312  0.88123312  0.33747303  1.0
  S  S12  1  -0.31854369  0.68145631  0.00000000  1.0
  S  S13  1  0.18145631  0.18145631  0.50000000  1.0
  S  S14  1  0.31854369  0.31854369  0.00000000  1.0
  S  S15  1  -0.18145631  0.81854369  0.50000000  1.0
  O  O16  1  0.21399667  0.54011452  0.97889619  1.0
  O  O17  1  -0.28600333  1.04011452  0.52110381  1.0
  O  O18  1  -0.45988548  1.21399667  0.02110381  1.0
  O  O19  1  0.04011452  0.71399667  0.47889619  1.0
  O  O20  1  -0.54011452  0.78600333  0.97889619  1.0
  O  O21  1  -0.04011452  0.28600333  0.52110381  1.0
  O  O22  1  -0.21399667  0.45988548  0.02110381  1.0
  O  O23  1  -0.71399667  0.95988548  0.47889619  1.0
  O  O24  1  -0.23066339  0.70617047  0.89534822  1.0
  O  O25  1  -0.73066339  1.20617047  0.60465178  1.0
  O  O26  1  -0.29382953  0.76933661  0.10465178  1.0
  O  O27  1  0.20617047  0.26933661  0.39534822  1.0
  O  O28  1  -0.70617047  1.23066339  0.89534822  1.0
  O  O29  1  -0.20617047  0.73066339  0.60465178  1.0
  O  O30  1  0.23066339  0.29382953  0.10465178  1.0
  O  O31  1  -0.26933661  0.79382953  0.39534822  1.0
  F  F32  1  0.20874587  0.60470731  0.72312540  1.0
  F  F33  1  -0.29125413  1.10470731  0.77687460  1.0
  F  F34  1  -0.39529269  1.20874587  0.27687460  1.0
  F  F35  1  0.10470731  0.70874587  0.22312540  1.0
  F  F36  1  -0.60470731  0.79125413  0.72312540  1.0
  F  F37  1  -0.10470731  0.29125413  0.77687460  1.0
  F  F38  1  -0.20874587  0.39529269  0.27687460  1.0
  F  F39  1  -0.70874587  0.89529269  0.22312540  1.0
  F  F40  1  -0.88391564  0.88391564  0.88521118  1.0
  F  F41  1  -0.38391564  0.38391564  0.61478882  1.0
  F  F42  1  -0.11608436  0.11608436  0.11478882  1.0
  F  F43  1  -0.61608436  0.61608436  0.38521118  1.0
