# generated using pymatgen
data_TaCoAs
_symmetry_space_group_name_H-M   'P 1'
_cell_length_a   6.27040387
_cell_length_b   3.74854591
_cell_length_c   7.16207798
_cell_angle_alpha   90.00000000
_cell_angle_beta   90.00000000
_cell_angle_gamma   90.00000000
_symmetry_Int_Tables_number   1
_chemical_formula_structural   TaCoAs
_chemical_formula_sum   'Ta4 Co4 As4'
_cell_volume   168.34390381
_cell_formula_units_Z   4
loop_
 _symmetry_equiv_pos_site_id
 _symmetry_equiv_pos_as_xyz
  1  'x, y, z'
loop_
 _atom_site_type_symbol
 _atom_site_label
 _atom_site_symmetry_multiplicity
 _atom_site_fract_x
 _atom_site_fract_y
 _atom_site_fract_z
 _atom_site_occupancy
  Ta  Ta0  1  0.97800868  0.75000000  0.67093410  1.0
  Ta  Ta1  1  0.47800868  0.75000000  0.82906590  1.0
  Ta  Ta2  1  0.02199132  0.25000000  0.32906590  1.0
  Ta  Ta3  1  0.52199132  0.25000000  0.17093410  1.0
  Co  Co4  1  0.84332357  0.75000000  0.06763748  1.0
  Co  Co5  1  0.34332357  0.75000000  0.43236252  1.0
  Co  Co6  1  0.15667643  0.25000000  0.93236252  1.0
  Co  Co7  1  0.65667643  0.25000000  0.56763748  1.0
  As  As8  1  0.71775587  0.75000000  0.37935870  1.0
  As  As9  1  0.21775587  0.75000000  0.12064130  1.0
  As  As10  1  0.28224413  0.25000000  0.62064130  1.0
  As  As11  1  0.78224413  0.25000000  0.87935870  1.0
