# generated using pymatgen
data_Ti2B
_symmetry_space_group_name_H-M   'P 1'
_cell_length_a   4.91725363
_cell_length_b   4.91725363
_cell_length_c   4.91725363
_cell_angle_alpha   97.77530324
_cell_angle_beta   97.77530324
_cell_angle_gamma   136.83804254
_symmetry_Int_Tables_number   1
_chemical_formula_structural   Ti2B
_chemical_formula_sum   'Ti4 B2'
_cell_volume   75.63094189
_cell_formula_units_Z   2
loop_
 _symmetry_equiv_pos_site_id
 _symmetry_equiv_pos_as_xyz
  1  'x, y, z'
loop_
 _atom_site_type_symbol
 _atom_site_label
 _atom_site_symmetry_multiplicity
 _atom_site_fract_x
 _atom_site_fract_y
 _atom_site_fract_z
 _atom_site_occupancy
  Ti  Ti0  1  1.15731816  0.65731816  0.81463632  1.0
  Ti  Ti1  1  0.84268184  0.34268184  1.18536368  1.0
  Ti  Ti2  1  0.65731816  0.84268184  0.50000000  1.0
  Ti  Ti3  1  0.34268184  0.15731816  0.50000000  1.0
  B  B4  1  0.00000000  0.00000000  0.00000000  1.0
  B  B5  1  0.50000000  0.50000000  -0.00000000  1.0
