# generated using pymatgen
data_NdTeCl
_symmetry_space_group_name_H-M   'P 1'
_cell_length_a   4.50244168
_cell_length_b   4.50244168
_cell_length_c   8.18976538
_cell_angle_alpha   90.00000000
_cell_angle_beta   90.00000000
_cell_angle_gamma   90.00000000
_symmetry_Int_Tables_number   1
_chemical_formula_structural   NdTeCl
_chemical_formula_sum   'Nd2 Te2 Cl2'
_cell_volume   166.02276926
_cell_formula_units_Z   2
loop_
 _symmetry_equiv_pos_site_id
 _symmetry_equiv_pos_as_xyz
  1  'x, y, z'
loop_
 _atom_site_type_symbol
 _atom_site_label
 _atom_site_symmetry_multiplicity
 _atom_site_fract_x
 _atom_site_fract_y
 _atom_site_fract_z
 _atom_site_occupancy
  Nd  Nd0  1  0.50000000  0.00000000  0.23827015  1.0
  Nd  Nd1  1  0.00000000  0.50000000  0.76172985  1.0
  Te  Te2  1  0.50000000  0.00000000  0.63483529  1.0
  Te  Te3  1  0.00000000  0.50000000  0.36516471  1.0
  Cl  Cl4  1  0.00000000  0.00000000  0.00000000  1.0
  Cl  Cl5  1  0.50000000  0.50000000  0.00000000  1.0
