# generated using pymatgen
data_SrCrF4
_symmetry_space_group_name_H-M   'P 1'
_cell_length_a   6.90118390
_cell_length_b   6.90118390
_cell_length_c   6.90118390
_cell_angle_alpha   131.17577405
_cell_angle_beta   131.17577405
_cell_angle_gamma   71.53395938
_symmetry_Int_Tables_number   1
_chemical_formula_structural   SrCrF4
_chemical_formula_sum   'Sr2 Cr2 F8'
_cell_volume   182.21772683
_cell_formula_units_Z   2
loop_
 _symmetry_equiv_pos_site_id
 _symmetry_equiv_pos_as_xyz
  1  'x, y, z'
loop_
 _atom_site_type_symbol
 _atom_site_label
 _atom_site_symmetry_multiplicity
 _atom_site_fract_x
 _atom_site_fract_y
 _atom_site_fract_z
 _atom_site_occupancy
  Sr  Sr0  1  0.00000000  0.00000000  0.00000000  1.0
  Sr  Sr1  1  0.50000000  0.50000000  1.00000000  1.0
  Cr  Cr2  1  0.25000000  0.75000000  0.50000000  1.0
  Cr  Cr3  1  0.75000000  0.25000000  0.50000000  1.0
  F  F4  1  1.18323386  0.68323386  1.12284456  1.0
  F  F5  1  0.43961069  0.93961069  1.12284456  1.0
  F  F6  1  1.06038931  1.18323386  1.50000000  1.0
  F  F7  1  0.31676614  0.43961069  0.50000000  1.0
  F  F8  1  0.68323386  0.56038931  0.50000000  1.0
  F  F9  1  0.93961069  0.81676614  1.50000000  1.0
  F  F10  1  0.56038931  1.06038931  0.87715544  1.0
  F  F11  1  0.81676614  0.31676614  0.87715544  1.0
