# generated using pymatgen
data_GaReSi
_symmetry_space_group_name_H-M   'P 1'
_cell_length_a   3.20946186
_cell_length_b   3.20946186
_cell_length_c   8.11440289
_cell_angle_alpha   90.00000000
_cell_angle_beta   90.00000000
_cell_angle_gamma   90.00000000
_symmetry_Int_Tables_number   1
_chemical_formula_structural   GaReSi
_chemical_formula_sum   'Ga2 Re2 Si2'
_cell_volume   83.58358694
_cell_formula_units_Z   2
loop_
 _symmetry_equiv_pos_site_id
 _symmetry_equiv_pos_as_xyz
  1  'x, y, z'
loop_
 _atom_site_type_symbol
 _atom_site_label
 _atom_site_symmetry_multiplicity
 _atom_site_fract_x
 _atom_site_fract_y
 _atom_site_fract_z
 _atom_site_occupancy
  Ga  Ga0  1  0.50000000  0.00000000  0.91369524  1.0
  Ga  Ga1  1  0.00000000  0.50000000  0.08630476  1.0
  Re  Re2  1  0.00000000  0.50000000  0.72878249  1.0
  Re  Re3  1  0.50000000  0.00000000  0.27121751  1.0
  Si  Si4  1  0.00000000  0.50000000  0.41555747  1.0
  Si  Si5  1  0.50000000  0.00000000  0.58444253  1.0
