# generated using pymatgen
data_SiO2
_symmetry_space_group_name_H-M   'P 1'
_cell_length_a   12.65582557
_cell_length_b   12.65582557
_cell_length_c   12.65582557
_cell_angle_alpha   133.13344518
_cell_angle_beta   133.13344518
_cell_angle_gamma   68.44465791
_symmetry_Int_Tables_number   1
_chemical_formula_structural   SiO2
_chemical_formula_sum   'Si16 O32'
_cell_volume   1060.31169648
_cell_formula_units_Z   16
loop_
 _symmetry_equiv_pos_site_id
 _symmetry_equiv_pos_as_xyz
  1  'x, y, z'
loop_
 _atom_site_type_symbol
 _atom_site_label
 _atom_site_symmetry_multiplicity
 _atom_site_fract_x
 _atom_site_fract_y
 _atom_site_fract_z
 _atom_site_occupancy
  Si  Si0  1  0.32959081  0.84033934  0.81175519  1.0
  Si  Si1  1  1.02858415  0.51783561  1.18824481  1.0
  Si  Si2  1  0.72141585  0.73216439  1.31175519  1.0
  Si  Si3  1  0.42040919  0.40966066  0.68824481  1.0
  Si  Si4  1  0.32959081  0.51783561  0.48925146  1.0
  Si  Si5  1  1.02858415  0.84033934  1.51074854  1.0
  Si  Si6  1  0.72141585  0.40966066  0.98925146  1.0
  Si  Si7  1  0.42040919  0.73216439  1.01074854  1.0
  Si  Si8  1  1.15966066  0.67040919  1.18824481  1.0
  Si  Si9  1  0.48216439  0.97141585  0.81175519  1.0
  Si  Si10  1  1.26783561  1.27858415  1.68824481  1.0
  Si  Si11  1  0.59033934  0.57959081  0.31175519  1.0
  Si  Si12  1  1.15966066  0.97141585  1.48925146  1.0
  Si  Si13  1  0.48216439  0.67040919  0.51074854  1.0
  Si  Si14  1  1.26783561  0.57959081  0.98925146  1.0
  Si  Si15  1  0.59033934  1.27858415  1.01074854  1.0
  O  O16  1  0.45416818  0.95416818  0.90833636  1.0
  O  O17  1  1.04583182  0.54583182  1.09166364  1.0
  O  O18  1  0.70416818  0.70416818  1.40833636  1.0
  O  O19  1  0.29583182  0.29583182  0.59166364  1.0
  O  O20  1  0.45416818  0.54583182  0.50000000  1.0
  O  O21  1  1.04583182  0.95416818  1.50000000  1.0
  O  O22  1  0.70416818  0.29583182  1.00000000  1.0
  O  O23  1  0.29583182  0.70416818  1.00000000  1.0
  O  O24  1  0.42759091  0.57524423  0.85234668  1.0
  O  O25  1  0.72289754  0.57524423  1.14765332  1.0
  O  O26  1  1.02710246  0.67475577  1.35234668  1.0
  O  O27  1  0.32240909  0.67475577  0.64765332  1.0
  O  O28  1  0.42475577  0.57240909  0.14765332  1.0
  O  O29  1  0.42475577  1.27710246  0.85234668  1.0
  O  O30  1  0.32524423  0.97289754  0.64765332  1.0
  O  O31  1  0.32524423  0.67759091  0.35234668  1.0
  O  O32  1  0.58272105  0.36520481  0.78248377  1.0
  O  O33  1  0.58272105  0.80023728  1.21751623  1.0
  O  O34  1  0.16727895  0.44976272  0.28248377  1.0
  O  O35  1  0.16727895  0.88479519  0.71751623  1.0
  O  O36  1  0.63479519  0.41727895  0.21751623  1.0
  O  O37  1  1.19976272  0.41727895  0.78248377  1.0
  O  O38  1  0.55023728  0.83272105  0.71751623  1.0
  O  O39  1  1.11520481  0.83272105  1.28248377  1.0
  O  O40  1  0.37500000  0.84623675  0.97123675  1.0
  O  O41  1  0.87500000  0.40376325  1.02876325  1.0
  O  O42  1  0.87500000  0.84623675  1.47123675  1.0
  O  O43  1  0.37500000  0.40376325  0.52876325  1.0
  O  O44  1  1.15376325  0.62500000  1.02876325  1.0
  O  O45  1  0.59623675  1.12500000  0.97123675  1.0
  O  O46  1  1.15376325  1.12500000  1.52876325  1.0
  O  O47  1  0.59623675  0.62500000  0.47123675  1.0
