# generated using pymatgen
data_Fe2O3
_symmetry_space_group_name_H-M   'P 1'
_cell_length_a   5.17289346
_cell_length_b   7.29101175
_cell_length_c   4.86841503
_cell_angle_alpha   90.00000000
_cell_angle_beta   90.00000000
_cell_angle_gamma   90.00000000
_symmetry_Int_Tables_number   1
_chemical_formula_structural   Fe2O3
_chemical_formula_sum   'Fe8 O12'
_cell_volume   183.61532558
_cell_formula_units_Z   4
loop_
 _symmetry_equiv_pos_site_id
 _symmetry_equiv_pos_as_xyz
  1  'x, y, z'
loop_
 _atom_site_type_symbol
 _atom_site_label
 _atom_site_symmetry_multiplicity
 _atom_site_fract_x
 _atom_site_fract_y
 _atom_site_fract_z
 _atom_site_occupancy
  Fe  Fe0  1  0.06494091  0.75000000  0.52645362  1.0
  Fe  Fe1  1  0.56494091  0.75000000  0.97354638  1.0
  Fe  Fe2  1  0.93505909  0.25000000  0.47354638  1.0
  Fe  Fe3  1  0.43505909  0.25000000  0.02645362  1.0
  Fe  Fe4  1  0.50000000  0.00000000  0.50000000  1.0
  Fe  Fe5  1  0.50000000  0.50000000  0.50000000  1.0
  Fe  Fe6  1  -0.00000000  0.00000000  -0.00000000  1.0
  Fe  Fe7  1  -0.00000000  0.50000000  -0.00000000  1.0
  O  O8  1  0.30979467  0.92954356  0.81773404  1.0
  O  O9  1  0.30979467  0.57045644  0.81773404  1.0
  O  O10  1  0.80979468  0.92954356  0.68226596  1.0
  O  O11  1  0.80979468  0.57045644  0.68226596  1.0
  O  O12  1  0.69020533  0.42954356  0.18226596  1.0
  O  O13  1  0.69020533  0.07045644  0.18226596  1.0
  O  O14  1  0.19020533  0.42954356  0.31773404  1.0
  O  O15  1  0.19020533  0.07045644  0.31773404  1.0
  O  O16  1  0.93881018  0.75000000  0.13673028  1.0
  O  O17  1  0.43881018  0.75000000  0.36326972  1.0
  O  O18  1  0.06118982  0.25000000  0.86326972  1.0
  O  O19  1  0.56118982  0.25000000  0.63673028  1.0
