# generated using pymatgen
data_PdSeO3
_symmetry_space_group_name_H-M   'P 1'
_cell_length_a   4.06121063
_cell_length_b   6.56672184
_cell_length_c   6.34255664
_cell_angle_alpha   90.00000000
_cell_angle_beta   96.35459888
_cell_angle_gamma   90.00000000
_symmetry_Int_Tables_number   1
_chemical_formula_structural   PdSeO3
_chemical_formula_sum   'Pd2 Se2 O6'
_cell_volume   168.10937127
_cell_formula_units_Z   2
loop_
 _symmetry_equiv_pos_site_id
 _symmetry_equiv_pos_as_xyz
  1  'x, y, z'
loop_
 _atom_site_type_symbol
 _atom_site_label
 _atom_site_symmetry_multiplicity
 _atom_site_fract_x
 _atom_site_fract_y
 _atom_site_fract_z
 _atom_site_occupancy
  Pd  Pd0  1  0.00000000  0.50000000  0.00000000  1.0
  Pd  Pd1  1  0.00000000  -0.00000000  0.00000000  1.0
  Se  Se2  1  0.44265192  0.25000000  0.68555945  1.0
  Se  Se3  1  0.55734808  0.75000000  0.31444055  1.0
  O  O4  1  0.69288598  0.45889194  0.72647823  1.0
  O  O5  1  0.69288598  0.04110806  0.72647823  1.0
  O  O6  1  0.30711402  0.95889194  0.27352177  1.0
  O  O7  1  0.30711402  0.54110806  0.27352177  1.0
  O  O8  1  0.27256308  0.25000000  0.94362179  1.0
  O  O9  1  0.72743692  0.75000000  0.05637821  1.0
