# generated using pymatgen
data_NaGdH2S2O9
_symmetry_space_group_name_H-M   'P 1'
_cell_length_a   6.98503930
_cell_length_b   6.98503930
_cell_length_c   12.92669044
_cell_angle_alpha   90.00000000
_cell_angle_beta   90.00000000
_cell_angle_gamma   120.00000000
_symmetry_Int_Tables_number   1
_chemical_formula_structural   NaGdH2S2O9
_chemical_formula_sum   'Na3 Gd3 H6 S6 O27'
_cell_volume   546.20502210
_cell_formula_units_Z   3
loop_
 _symmetry_equiv_pos_site_id
 _symmetry_equiv_pos_as_xyz
  1  'x, y, z'
loop_
 _atom_site_type_symbol
 _atom_site_label
 _atom_site_symmetry_multiplicity
 _atom_site_fract_x
 _atom_site_fract_y
 _atom_site_fract_z
 _atom_site_occupancy
  Na  Na0  1  0.52455260  0.52455260  0.50000000  1.0
  Na  Na1  1  -0.00000000  0.47544740  0.16666667  1.0
  Na  Na2  1  0.47544740  0.00000000  0.83333333  1.0
  Gd  Gd3  1  0.56289543  0.56289543  -0.00000000  1.0
  Gd  Gd4  1  -0.00000000  0.43710457  0.66666667  1.0
  Gd  Gd5  1  0.43710457  -0.00000000  0.33333333  1.0
  H  H6  1  0.04596936  0.94907892  0.03969795  1.0
  H  H7  1  0.94907892  0.04596936  0.96030205  1.0
  H  H8  1  0.90310957  0.95403064  0.70636462  1.0
  H  H9  1  0.05092108  0.09689043  0.37303128  1.0
  H  H10  1  0.95403064  0.90310957  0.29363538  1.0
  H  H11  1  0.09689043  0.05092108  0.62696872  1.0
  S  S12  1  0.55641017  0.54207961  0.75943361  1.0
  S  S13  1  0.54207961  0.55641017  0.24056639  1.0
  S  S14  1  0.98566944  0.44358983  0.42610028  1.0
  S  S15  1  0.45792039  0.01433056  0.09276694  1.0
  S  S16  1  0.44358983  0.98566944  0.57389972  1.0
  S  S17  1  0.01433056  0.45792039  0.90723306  1.0
  O  O18  1  0.26176867  0.87419641  0.16073050  1.0
  O  O19  1  0.87419641  0.26176867  0.83926950  1.0
  O  O20  1  0.61242774  0.73823133  0.82739717  1.0
  O  O21  1  0.12580359  0.38757226  0.49406384  1.0
  O  O22  1  0.73823133  0.61242774  0.17260283  1.0
  O  O23  1  0.38757226  0.12580359  0.50593616  1.0
  O  O24  1  0.13365921  0.64795664  0.83410504  1.0
  O  O25  1  0.64795664  0.13365921  0.16589496  1.0
  O  O26  1  0.51429742  0.86634079  0.50077171  1.0
  O  O27  1  0.35204336  0.48570258  0.16743837  1.0
  O  O28  1  0.86634079  0.51429742  0.49922829  1.0
  O  O29  1  0.48570258  0.35204336  0.83256163  1.0
  O  O30  1  0.75602710  0.58522755  0.69899375  1.0
  O  O31  1  0.58522755  0.75602710  0.30100625  1.0
  O  O32  1  0.82920045  0.24397290  0.36566042  1.0
  O  O33  1  0.41477245  0.17079955  0.03232708  1.0
  O  O34  1  0.24397290  0.82920045  0.63433958  1.0
  O  O35  1  0.17079955  0.41477245  0.96767292  1.0
  O  O36  1  0.87633210  0.49744291  0.98229839  1.0
  O  O37  1  0.49744291  0.87633210  0.01770161  1.0
  O  O38  1  0.62111080  0.12366790  0.64896506  1.0
  O  O39  1  0.50255709  0.37888920  0.31563173  1.0
  O  O40  1  0.12366790  0.62111080  0.35103494  1.0
  O  O41  1  0.37888920  0.50255709  0.68436827  1.0
  O  O42  1  0.91372561  0.91372561  0.00000000  1.0
  O  O43  1  -0.00000000  0.08627439  0.66666667  1.0
  O  O44  1  0.08627439  0.00000000  0.33333333  1.0
