# generated using pymatgen
data_TmVO4
_symmetry_space_group_name_H-M   'P 1'
_cell_length_a   5.95544855
_cell_length_b   5.95544855
_cell_length_c   5.95544855
_cell_angle_alpha   106.14425510
_cell_angle_beta   106.14425510
_cell_angle_gamma   116.35212912
_symmetry_Int_Tables_number   1
_chemical_formula_structural   TmVO4
_chemical_formula_sum   'Tm2 V2 O8'
_cell_volume   160.82116145
_cell_formula_units_Z   2
loop_
 _symmetry_equiv_pos_site_id
 _symmetry_equiv_pos_as_xyz
  1  'x, y, z'
loop_
 _atom_site_type_symbol
 _atom_site_label
 _atom_site_symmetry_multiplicity
 _atom_site_fract_x
 _atom_site_fract_y
 _atom_site_fract_z
 _atom_site_occupancy
  Tm  Tm0  1  0.75000000  1.25000000  0.50000000  1.0
  Tm  Tm1  1  0.00000000  0.00000000  0.00000000  1.0
  V  V2  1  1.25000000  0.75000000  0.50000000  1.0
  V  V3  1  0.50000000  0.50000000  0.00000000  1.0
  O  O4  1  1.07542947  0.76038195  0.68495248  1.0
  O  O5  1  1.07542947  1.39047699  1.31504752  1.0
  O  O6  1  0.67457053  0.85952301  0.18495248  1.0
  O  O7  1  0.67457053  0.48961805  0.81504752  1.0
  O  O8  1  1.23961805  0.92457053  0.31504752  1.0
  O  O9  1  1.60952301  0.92457053  0.68495248  1.0
  O  O10  1  1.14047699  1.32542947  0.81504752  1.0
  O  O11  1  0.51038195  0.32542947  0.18495248  1.0
