# generated using pymatgen
data_Ba(GaP)2
_symmetry_space_group_name_H-M   'P 1'
_cell_length_a   7.42298422
_cell_length_b   9.79752963
_cell_length_c   7.46854885
_cell_angle_alpha   90.00000000
_cell_angle_beta   115.38453410
_cell_angle_gamma   90.00000000
_symmetry_Int_Tables_number   1
_chemical_formula_structural   Ba(GaP)2
_chemical_formula_sum   'Ba4 Ga8 P8'
_cell_volume   490.72250105
_cell_formula_units_Z   4
loop_
 _symmetry_equiv_pos_site_id
 _symmetry_equiv_pos_as_xyz
  1  'x, y, z'
loop_
 _atom_site_type_symbol
 _atom_site_label
 _atom_site_symmetry_multiplicity
 _atom_site_fract_x
 _atom_site_fract_y
 _atom_site_fract_z
 _atom_site_occupancy
  Ba  Ba0  1  0.57898583  0.10550336  0.27686877  1.0
  Ba  Ba1  1  0.57898583  0.39449664  0.77686877  1.0
  Ba  Ba2  1  0.42101417  0.60550336  0.22313123  1.0
  Ba  Ba3  1  0.42101417  0.89449664  0.72313123  1.0
  Ga  Ga4  1  0.93877094  0.48699399  0.26162773  1.0
  Ga  Ga5  1  0.93877094  0.01300601  0.76162773  1.0
  Ga  Ga6  1  0.06122906  0.98699399  0.23837227  1.0
  Ga  Ga7  1  0.06122906  0.51300601  0.73837227  1.0
  Ga  Ga8  1  0.94237776  0.78703108  0.37252182  1.0
  Ga  Ga9  1  0.94237776  0.71296892  0.87252182  1.0
  Ga  Ga10  1  0.05762224  0.28703108  0.12747818  1.0
  Ga  Ga11  1  0.05762224  0.21296892  0.62747818  1.0
  P  P12  1  0.79361832  0.38908395  0.47042254  1.0
  P  P13  1  0.79361832  0.11091605  0.97042254  1.0
  P  P14  1  0.20638168  0.88908395  0.02957746  1.0
  P  P15  1  0.20638168  0.61091605  0.52957746  1.0
  P  P16  1  0.25987688  0.17762145  0.44684095  1.0
  P  P17  1  0.25987688  0.32237855  0.94684095  1.0
  P  P18  1  0.74012312  0.67762145  0.05315905  1.0
  P  P19  1  0.74012312  0.82237855  0.55315905  1.0
