# generated using pymatgen
data_K2VPO6
_symmetry_space_group_name_H-M   'P 1'
_cell_length_a   6.98545624
_cell_length_b   13.39600042
_cell_length_c   8.46336379
_cell_angle_alpha   90.00000000
_cell_angle_beta   118.54934069
_cell_angle_gamma   90.00000000
_symmetry_Int_Tables_number   1
_chemical_formula_structural   K2VPO6
_chemical_formula_sum   'K8 V4 P4 O24'
_cell_volume   695.67784214
_cell_formula_units_Z   4
loop_
 _symmetry_equiv_pos_site_id
 _symmetry_equiv_pos_as_xyz
  1  'x, y, z'
loop_
 _atom_site_type_symbol
 _atom_site_label
 _atom_site_symmetry_multiplicity
 _atom_site_fract_x
 _atom_site_fract_y
 _atom_site_fract_z
 _atom_site_occupancy
  K  K0  1  0.37845066  0.13670871  0.04332963  1.0
  K  K1  1  0.37845066  0.36329129  0.54332963  1.0
  K  K2  1  0.62154934  0.63670871  0.45667037  1.0
  K  K3  1  0.62154934  0.86329129  0.95667037  1.0
  K  K4  1  0.22183258  0.07178853  0.42898322  1.0
  K  K5  1  0.22183258  0.42821147  0.92898322  1.0
  K  K6  1  0.77816742  0.57178853  0.07101678  1.0
  K  K7  1  0.77816742  0.92821147  0.57101678  1.0
  V  V8  1  0.88925056  0.29150169  0.10963612  1.0
  V  V9  1  0.88925056  0.20849831  0.60963612  1.0
  V  V10  1  0.11074944  0.79150169  0.39036388  1.0
  V  V11  1  0.11074944  0.70849831  0.89036388  1.0
  P  P12  1  0.71577911  0.37661495  0.30265678  1.0
  P  P13  1  0.71577911  0.12338505  0.80265678  1.0
  P  P14  1  0.28422089  0.87661495  0.19734322  1.0
  P  P15  1  0.28422089  0.62338505  0.69734322  1.0
  O  O16  1  0.94495081  0.38984688  0.30906206  1.0
  O  O17  1  0.94495081  0.11015312  0.80906206  1.0
  O  O18  1  0.05504919  0.88984688  0.19093794  1.0
  O  O19  1  0.05504919  0.61015312  0.69093794  1.0
  O  O20  1  0.87117837  0.13184129  0.45268370  1.0
  O  O21  1  0.87117837  0.36815871  0.95268370  1.0
  O  O22  1  0.12882163  0.63184129  0.04731630  1.0
  O  O23  1  0.12882163  0.86815871  0.54731630  1.0
  O  O24  1  0.86070847  0.74556593  0.28475015  1.0
  O  O25  1  0.86070847  0.75443407  0.78475015  1.0
  O  O26  1  0.13929153  0.24556593  0.21524985  1.0
  O  O27  1  0.13929153  0.25443407  0.71524985  1.0
  O  O28  1  0.74087182  0.32819700  0.48008612  1.0
  O  O29  1  0.74087182  0.17180300  0.98008612  1.0
  O  O30  1  0.25912818  0.82819700  0.01991388  1.0
  O  O31  1  0.25912818  0.67180300  0.51991388  1.0
  O  O32  1  0.61480889  0.30006096  0.14213411  1.0
  O  O33  1  0.61480889  0.19993904  0.64213411  1.0
  O  O34  1  0.38519111  0.80006096  0.35786589  1.0
  O  O35  1  0.38519111  0.69993904  0.85786589  1.0
  O  O36  1  0.58604566  0.47286600  0.26390191  1.0
  O  O37  1  0.58604566  0.02713400  0.76390191  1.0
  O  O38  1  0.41395434  0.97286600  0.23609809  1.0
  O  O39  1  0.41395434  0.52713400  0.73609809  1.0
