# generated using pymatgen
data_Sr2IrO3
_symmetry_space_group_name_H-M   'P 1'
_cell_length_a   14.03992955
_cell_length_b   14.03992955
_cell_length_c   14.03992955
_cell_angle_alpha   148.50631302
_cell_angle_beta   148.50631302
_cell_angle_gamma   45.13849853
_symmetry_Int_Tables_number   1
_chemical_formula_structural   Sr2IrO3
_chemical_formula_sum   'Sr16 Ir8 O24'
_cell_volume   752.89042710
_cell_formula_units_Z   8
loop_
 _symmetry_equiv_pos_site_id
 _symmetry_equiv_pos_as_xyz
  1  'x, y, z'
loop_
 _atom_site_type_symbol
 _atom_site_label
 _atom_site_symmetry_multiplicity
 _atom_site_fract_x
 _atom_site_fract_y
 _atom_site_fract_z
 _atom_site_occupancy
  Sr  Sr0  1  1.05060936  0.30061902  0.74996275  1.0
  Sr  Sr1  1  1.19934373  0.94935339  1.24996275  1.0
  Sr  Sr2  1  0.69938098  0.44934373  0.74999034  1.0
  Sr  Sr3  1  0.05064661  0.30060936  0.24999034  1.0
  Sr  Sr4  1  0.55065627  0.30064661  0.25003725  1.0
  Sr  Sr5  1  0.69939064  0.94938098  0.75003725  1.0
  Sr  Sr6  1  0.69935339  0.94939064  1.25000966  1.0
  Sr  Sr7  1  0.05061902  0.80065627  0.75000966  1.0
  Sr  Sr8  1  1.19939195  0.44934813  0.75000539  1.0
  Sr  Sr9  1  1.05065726  0.80061344  1.25000539  1.0
  Sr  Sr10  1  0.55065187  0.30065726  0.75004382  1.0
  Sr  Sr11  1  0.19938656  0.44939195  0.25004382  1.0
  Sr  Sr12  1  0.69934274  0.44938656  0.24999461  1.0
  Sr  Sr13  1  0.55060805  0.80065187  0.74999461  1.0
  Sr  Sr14  1  0.55061344  0.80060805  1.24995618  1.0
  Sr  Sr15  1  0.19934813  0.94934274  0.74995618  1.0
  Ir  Ir16  1  0.37500000  0.62500000  0.75000000  1.0
  Ir  Ir17  1  0.87500000  0.62500000  1.25000000  1.0
  Ir  Ir18  1  0.37500000  1.12500000  0.75000000  1.0
  Ir  Ir19  1  0.37500000  0.62500000  0.25000000  1.0
  Ir  Ir20  1  0.87500000  0.12500000  0.75000000  1.0
  Ir  Ir21  1  0.37500000  0.12500000  0.25000000  1.0
  Ir  Ir22  1  0.87500000  0.62500000  0.75000000  1.0
  Ir  Ir23  1  0.87500000  1.12500000  1.25000000  1.0
  O  O24  1  0.87497174  0.87499425  1.49997799  1.0
  O  O25  1  0.37498374  0.87500624  0.99997799  1.0
  O  O26  1  1.12500575  0.62498374  0.99997750  1.0
  O  O27  1  1.12499376  1.12497174  1.49997750  1.0
  O  O28  1  0.37501626  0.37499376  0.50002201  1.0
  O  O29  1  0.87502826  0.37500575  1.00002201  1.0
  O  O30  1  0.62500624  1.12502826  1.00002250  1.0
  O  O31  1  0.62499425  0.62501626  0.50002250  1.0
  O  O32  1  0.79392352  0.04388627  0.75007555  1.0
  O  O33  1  0.45618928  0.20615203  0.25007555  1.0
  O  O34  1  0.95611373  0.70618928  0.75003725  1.0
  O  O35  1  0.79384797  1.04392352  1.25003725  1.0
  O  O36  1  0.29381072  0.04384797  0.24992445  1.0
  O  O37  1  0.95607648  0.20611373  0.74992445  1.0
  O  O38  1  0.95615203  1.20607648  1.24996275  1.0
  O  O39  1  0.79388627  0.54381072  0.74996275  1.0
  O  O40  1  0.29392204  0.54387827  0.75006604  1.0
  O  O41  1  0.95618778  0.70614400  1.25006604  1.0
  O  O42  1  0.45612173  1.20618778  0.75004378  1.0
  O  O43  1  0.29385600  0.54392204  0.25004378  1.0
  O  O44  1  0.79381222  0.54385600  1.24993396  1.0
  O  O45  1  0.45607796  0.70612173  0.74993396  1.0
  O  O46  1  0.45614400  0.70607796  0.24995622  1.0
  O  O47  1  0.29387827  1.04381222  0.74995622  1.0
