# generated using pymatgen
data_Lu(CoB)4
_symmetry_space_group_name_H-M   'P 1'
_cell_length_a   4.97528910
_cell_length_b   4.97528910
_cell_length_c   6.92032925
_cell_angle_alpha   90.00000000
_cell_angle_beta   90.00000000
_cell_angle_gamma   90.00000000
_symmetry_Int_Tables_number   1
_chemical_formula_structural   Lu(CoB)4
_chemical_formula_sum   'Lu2 Co8 B8'
_cell_volume   171.30238124
_cell_formula_units_Z   2
loop_
 _symmetry_equiv_pos_site_id
 _symmetry_equiv_pos_as_xyz
  1  'x, y, z'
loop_
 _atom_site_type_symbol
 _atom_site_label
 _atom_site_symmetry_multiplicity
 _atom_site_fract_x
 _atom_site_fract_y
 _atom_site_fract_z
 _atom_site_occupancy
  Lu  Lu0  1  0.00000000  0.00000000  0.00000000  1.0
  Lu  Lu1  1  0.50000000  0.50000000  0.50000000  1.0
  Co  Co2  1  0.25349461  0.50000000  0.86283843  1.0
  Co  Co3  1  0.74650539  0.50000000  0.86283843  1.0
  Co  Co4  1  0.00000000  0.75349461  0.36283843  1.0
  Co  Co5  1  0.00000000  0.24650539  0.36283843  1.0
  Co  Co6  1  0.24650539  0.00000000  0.63716157  1.0
  Co  Co7  1  0.75349461  0.00000000  0.63716157  1.0
  Co  Co8  1  0.50000000  0.74650539  0.13716157  1.0
  Co  Co9  1  0.50000000  0.25349461  0.13716157  1.0
  B  B10  1  0.82431689  0.50000000  0.15896065  1.0
  B  B11  1  0.17568311  0.50000000  0.15896065  1.0
  B  B12  1  0.00000000  0.32431689  0.65896065  1.0
  B  B13  1  0.00000000  0.67568311  0.65896065  1.0
  B  B14  1  0.67568311  0.00000000  0.34103935  1.0
  B  B15  1  0.32431689  0.00000000  0.34103935  1.0
  B  B16  1  0.50000000  0.17568311  0.84103935  1.0
  B  B17  1  0.50000000  0.82431689  0.84103935  1.0
