# generated using pymatgen
data_Co22B6Sb
_symmetry_space_group_name_H-M   'P 1'
_cell_length_a   7.43243293
_cell_length_b   7.43243293
_cell_length_c   7.43243293
_cell_angle_alpha   60.00000000
_cell_angle_beta   60.00000000
_cell_angle_gamma   60.00000000
_symmetry_Int_Tables_number   1
_chemical_formula_structural   Co22B6Sb
_chemical_formula_sum   'Co22 B6 Sb1'
_cell_volume   290.32069801
_cell_formula_units_Z   1
loop_
 _symmetry_equiv_pos_site_id
 _symmetry_equiv_pos_as_xyz
  1  'x, y, z'
loop_
 _atom_site_type_symbol
 _atom_site_label
 _atom_site_symmetry_multiplicity
 _atom_site_fract_x
 _atom_site_fract_y
 _atom_site_fract_z
 _atom_site_occupancy
  Co  Co0  1  0.75000000  0.75000000  -0.25000000  1.0
  Co  Co1  1  1.25000000  0.25000000  0.25000000  1.0
  Co  Co2  1  0.61945615  0.61945615  1.14163155  1.0
  Co  Co3  1  0.61945615  1.14163155  -0.38054385  1.0
  Co  Co4  1  1.14163155  0.61945615  0.61945615  1.0
  Co  Co5  1  0.61945615  0.61945615  -0.38054385  1.0
  Co  Co6  1  0.38054385  1.38054385  -0.14163155  1.0
  Co  Co7  1  1.38054385  -0.14163155  0.38054385  1.0
  Co  Co8  1  -0.14163155  1.38054385  0.38054385  1.0
  Co  Co9  1  1.38054385  0.38054385  0.38054385  1.0
  Co  Co10  1  0.00000000  -0.00000000  0.34568376  1.0
  Co  Co11  1  0.65431624  1.00000000  -0.65431624  1.0
  Co  Co12  1  1.00000000  0.65431624  -0.65431624  1.0
  Co  Co13  1  0.65431624  -0.65431624  1.00000000  1.0
  Co  Co14  1  0.00000000  1.34568376  -0.00000000  1.0
  Co  Co15  1  1.00000000  0.34568376  -0.34568376  1.0
  Co  Co16  1  0.34568376  -0.34568376  1.00000000  1.0
  Co  Co17  1  0.34568376  1.00000000  -0.34568376  1.0
  Co  Co18  1  1.34568376  0.00000000  -0.00000000  1.0
  Co  Co19  1  -0.00000000  0.00000000  0.65431624  1.0
  Co  Co20  1  -0.00000000  1.65431624  0.00000000  1.0
  Co  Co21  1  1.65431624  -0.00000000  0.00000000  1.0
  B  B22  1  0.72002373  0.72002373  -0.72002373  1.0
  B  B23  1  0.27997627  -0.27997627  1.27997627  1.0
  B  B24  1  -0.27997627  0.27997627  0.27997627  1.0
  B  B25  1  0.27997627  1.27997627  -0.27997627  1.0
  B  B26  1  -0.27997627  0.27997627  0.72002373  1.0
  B  B27  1  -0.72002373  0.72002373  0.72002373  1.0
  Sb  Sb28  1  0.00000000  0.00000000  0.00000000  1.0
