# generated using pymatgen
data_Rb2CuCl4
_symmetry_space_group_name_H-M   'P 1'
_cell_length_a   8.69846648
_cell_length_b   8.69846648
_cell_length_c   7.28972680
_cell_angle_alpha   90.00000000
_cell_angle_beta   90.00000000
_cell_angle_gamma   49.53424950
_symmetry_Int_Tables_number   1
_chemical_formula_structural   Rb2CuCl4
_chemical_formula_sum   'Rb4 Cu2 Cl8'
_cell_volume   419.62731215
_cell_formula_units_Z   2
loop_
 _symmetry_equiv_pos_site_id
 _symmetry_equiv_pos_as_xyz
  1  'x, y, z'
loop_
 _atom_site_type_symbol
 _atom_site_label
 _atom_site_symmetry_multiplicity
 _atom_site_fract_x
 _atom_site_fract_y
 _atom_site_fract_z
 _atom_site_occupancy
  Rb  Rb0  1  -0.36188844  0.63811156  0.00000000  1.0
  Rb  Rb1  1  0.13811156  0.13811156  0.50000000  1.0
  Rb  Rb2  1  0.36188844  0.36188844  0.00000000  1.0
  Rb  Rb3  1  -0.13811156  0.86188844  0.50000000  1.0
  Cu  Cu4  1  0.00000000  0.00000000  0.00000000  1.0
  Cu  Cu5  1  -0.50000000  0.50000000  0.50000000  1.0
  Cl  Cl6  1  -0.77805366  0.77805366  0.77825800  1.0
  Cl  Cl7  1  -0.27805366  0.27805366  0.72174200  1.0
  Cl  Cl8  1  -0.22194634  0.22194634  0.22174200  1.0
  Cl  Cl9  1  -0.72194634  0.72194634  0.27825800  1.0
  Cl  Cl10  1  -0.15066327  0.84933673  0.00000000  1.0
  Cl  Cl11  1  0.34933673  0.34933673  0.50000000  1.0
  Cl  Cl12  1  0.15066327  0.15066327  0.00000000  1.0
  Cl  Cl13  1  -0.34933673  0.65066327  0.50000000  1.0
