# generated using pymatgen
data_Sb4Te3
_symmetry_space_group_name_H-M   'P 1'
_cell_length_a   14.20550376
_cell_length_b   14.20550376
_cell_length_c   14.20550376
_cell_angle_alpha   17.66678412
_cell_angle_beta   17.66678412
_cell_angle_gamma   17.66678412
_symmetry_Int_Tables_number   1
_chemical_formula_structural   Sb4Te3
_chemical_formula_sum   'Sb4 Te3'
_cell_volume   230.45681508
_cell_formula_units_Z   1
loop_
 _symmetry_equiv_pos_site_id
 _symmetry_equiv_pos_as_xyz
  1  'x, y, z'
loop_
 _atom_site_type_symbol
 _atom_site_label
 _atom_site_symmetry_multiplicity
 _atom_site_fract_x
 _atom_site_fract_y
 _atom_site_fract_z
 _atom_site_occupancy
  Sb  Sb0  1  0.85173539  0.85173539  0.85173539  1.0
  Sb  Sb1  1  1.14826461  1.14826461  0.14826461  1.0
  Sb  Sb2  1  0.71361316  0.71361316  0.71361316  1.0
  Sb  Sb3  1  1.28638684  1.28638684  0.28638684  1.0
  Te  Te4  1  1.57914040  0.57914040  0.57914040  1.0
  Te  Te5  1  1.42085960  0.42085960  0.42085960  1.0
  Te  Te6  1  0.00000000  0.00000000  0.00000000  1.0
