# generated using pymatgen
data_Y(CuGe)2
_symmetry_space_group_name_H-M   'P 1'
_cell_length_a   5.91664905
_cell_length_b   5.91664905
_cell_length_c   5.91664905
_cell_angle_alpha   139.86674491
_cell_angle_beta   139.86674491
_cell_angle_gamma   58.05568338
_symmetry_Int_Tables_number   1
_chemical_formula_structural   Y(CuGe)2
_chemical_formula_sum   'Y1 Cu2 Ge2'
_cell_volume   85.28312349
_cell_formula_units_Z   1
loop_
 _symmetry_equiv_pos_site_id
 _symmetry_equiv_pos_as_xyz
  1  'x, y, z'
loop_
 _atom_site_type_symbol
 _atom_site_label
 _atom_site_symmetry_multiplicity
 _atom_site_fract_x
 _atom_site_fract_y
 _atom_site_fract_z
 _atom_site_occupancy
  Y  Y0  1  0.00000000  0.00000000  0.00000000  1.0
  Cu  Cu1  1  0.25000000  0.75000000  0.50000000  1.0
  Cu  Cu2  1  0.75000000  0.25000000  0.50000000  1.0
  Ge  Ge3  1  0.61933602  0.61933602  1.00000000  1.0
  Ge  Ge4  1  0.38066398  0.38066398  -0.00000000  1.0
