# generated using pymatgen
data_SrSnAu
_symmetry_space_group_name_H-M   'P 1'
_cell_length_a   23.76703538
_cell_length_b   4.88435168
_cell_length_c   8.39501923
_cell_angle_alpha   90.00000000
_cell_angle_beta   90.00000000
_cell_angle_gamma   90.00000000
_symmetry_Int_Tables_number   1
_chemical_formula_structural   SrSnAu
_chemical_formula_sum   'Sr12 Sn12 Au12'
_cell_volume   974.54889580
_cell_formula_units_Z   12
loop_
 _symmetry_equiv_pos_site_id
 _symmetry_equiv_pos_as_xyz
  1  'x, y, z'
loop_
 _atom_site_type_symbol
 _atom_site_label
 _atom_site_symmetry_multiplicity
 _atom_site_fract_x
 _atom_site_fract_y
 _atom_site_fract_z
 _atom_site_occupancy
  Sr  Sr0  1  0.49771451  0.75000000  0.21313933  1.0
  Sr  Sr1  1  0.99771451  0.75000000  0.28686067  1.0
  Sr  Sr2  1  0.50228549  0.25000000  0.78686067  1.0
  Sr  Sr3  1  0.00228549  0.25000000  0.71313933  1.0
  Sr  Sr4  1  0.33392745  0.75000000  0.29184838  1.0
  Sr  Sr5  1  0.83392745  0.75000000  0.20815162  1.0
  Sr  Sr6  1  0.66607255  0.25000000  0.70815162  1.0
  Sr  Sr7  1  0.16607255  0.25000000  0.79184838  1.0
  Sr  Sr8  1  0.16645013  0.75000000  0.20790834  1.0
  Sr  Sr9  1  0.66645013  0.75000000  0.29209166  1.0
  Sr  Sr10  1  0.83354987  0.25000000  0.79209166  1.0
  Sr  Sr11  1  0.33354987  0.25000000  0.70790834  1.0
  Sn  Sn12  1  0.43411794  0.75000000  0.58745309  1.0
  Sn  Sn13  1  0.93411794  0.75000000  0.91254691  1.0
  Sn  Sn14  1  0.56588206  0.25000000  0.41254691  1.0
  Sn  Sn15  1  0.06588206  0.25000000  0.08745309  1.0
  Sn  Sn16  1  0.23144242  0.75000000  0.58261818  1.0
  Sn  Sn17  1  0.73144242  0.75000000  0.91738182  1.0
  Sn  Sn18  1  0.76855758  0.25000000  0.41738182  1.0
  Sn  Sn19  1  0.26855758  0.25000000  0.08261818  1.0
  Sn  Sn20  1  0.10158944  0.75000000  0.58393253  1.0
  Sn  Sn21  1  0.60158944  0.75000000  0.91606747  1.0
  Sn  Sn22  1  0.89841056  0.25000000  0.41606747  1.0
  Sn  Sn23  1  0.39841056  0.25000000  0.08393253  1.0
  Au  Au24  1  0.40702392  0.75000000  0.91387670  1.0
  Au  Au25  1  0.90702392  0.75000000  0.58612330  1.0
  Au  Au26  1  0.59297608  0.25000000  0.08612330  1.0
  Au  Au27  1  0.09297608  0.25000000  0.41387670  1.0
  Au  Au28  1  0.26023455  0.75000000  0.91337803  1.0
  Au  Au29  1  0.76023455  0.75000000  0.58662197  1.0
  Au  Au30  1  0.73976545  0.25000000  0.08662197  1.0
  Au  Au31  1  0.23976545  0.25000000  0.41337803  1.0
  Au  Au32  1  0.06696260  0.75000000  0.91531413  1.0
  Au  Au33  1  0.56696260  0.75000000  0.58468587  1.0
  Au  Au34  1  0.93303740  0.25000000  0.08468587  1.0
  Au  Au35  1  0.43303740  0.25000000  0.41531413  1.0
