# generated using pymatgen
data_NbSe3
_symmetry_space_group_name_H-M   'P 1'
_cell_length_a   10.63559760
_cell_length_b   3.50727791
_cell_length_c   15.96617514
_cell_angle_alpha   90.00000000
_cell_angle_beta   110.42093769
_cell_angle_gamma   90.00000000
_symmetry_Int_Tables_number   1
_chemical_formula_structural   NbSe3
_chemical_formula_sum   'Nb6 Se18'
_cell_volume   558.14132991
_cell_formula_units_Z   6
loop_
 _symmetry_equiv_pos_site_id
 _symmetry_equiv_pos_as_xyz
  1  'x, y, z'
loop_
 _atom_site_type_symbol
 _atom_site_label
 _atom_site_symmetry_multiplicity
 _atom_site_fract_x
 _atom_site_fract_y
 _atom_site_fract_z
 _atom_site_occupancy
  Nb  Nb0  1  0.37718424  0.25000000  0.71058307  1.0
  Nb  Nb1  1  0.62281576  0.75000000  0.28941693  1.0
  Nb  Nb2  1  0.34161630  0.25000000  0.03728805  1.0
  Nb  Nb3  1  0.65838370  0.75000000  0.96271195  1.0
  Nb  Nb4  1  0.03254798  0.25000000  0.38428233  1.0
  Nb  Nb5  1  0.96745202  0.75000000  0.61571767  1.0
  Se  Se6  1  0.94067443  0.25000000  0.73317952  1.0
  Se  Se7  1  0.05932557  0.75000000  0.26682048  1.0
  Se  Se8  1  0.82069757  0.25000000  0.92579417  1.0
  Se  Se9  1  0.17930243  0.75000000  0.07420583  1.0
  Se  Se10  1  0.82015436  0.25000000  0.07647709  1.0
  Se  Se11  1  0.17984564  0.75000000  0.92352291  1.0
  Se  Se12  1  0.78269123  0.25000000  0.25057454  1.0
  Se  Se13  1  0.21730877  0.75000000  0.74942546  1.0
  Se  Se14  1  0.76526244  0.25000000  0.57932919  1.0
  Se  Se15  1  0.23473756  0.75000000  0.42067081  1.0
  Se  Se16  1  0.59592916  0.25000000  0.40599801  1.0
  Se  Se17  1  0.40407084  0.75000000  0.59400199  1.0
  Se  Se18  1  0.45916757  0.25000000  0.90702432  1.0
  Se  Se19  1  0.54083243  0.75000000  0.09297568  1.0
  Se  Se20  1  0.42239641  0.25000000  0.22036637  1.0
  Se  Se21  1  0.57760359  0.75000000  0.77963363  1.0
  Se  Se22  1  0.11960726  0.25000000  0.56875880  1.0
  Se  Se23  1  0.88039274  0.75000000  0.43124120  1.0
