# generated using pymatgen
data_Sr5Tl3
_symmetry_space_group_name_H-M   'P 1'
_cell_length_a   10.38542367
_cell_length_b   10.38542367
_cell_length_c   10.38542367
_cell_angle_alpha   129.93288115
_cell_angle_beta   129.93288115
_cell_angle_gamma   73.51408798
_symmetry_Int_Tables_number   1
_chemical_formula_structural   Sr5Tl3
_chemical_formula_sum   'Sr10 Tl6'
_cell_volume   642.76110286
_cell_formula_units_Z   2
loop_
 _symmetry_equiv_pos_site_id
 _symmetry_equiv_pos_as_xyz
  1  'x, y, z'
loop_
 _atom_site_type_symbol
 _atom_site_label
 _atom_site_symmetry_multiplicity
 _atom_site_fract_x
 _atom_site_fract_y
 _atom_site_fract_z
 _atom_site_occupancy
  Sr  Sr0  1  1.18144448  0.68144448  1.15642872  1.0
  Sr  Sr1  1  0.47498424  0.97498424  1.15642872  1.0
  Sr  Sr2  1  1.02501576  1.18144448  1.50000000  1.0
  Sr  Sr3  1  0.31855552  0.47498424  0.50000000  1.0
  Sr  Sr4  1  0.68144448  0.52501576  0.50000000  1.0
  Sr  Sr5  1  0.97498424  0.81855552  1.50000000  1.0
  Sr  Sr6  1  0.52501576  1.02501576  0.84357128  1.0
  Sr  Sr7  1  0.81855552  0.31855552  0.84357128  1.0
  Sr  Sr8  1  0.00000000  0.00000000  0.00000000  1.0
  Sr  Sr9  1  0.50000000  0.50000000  1.00000000  1.0
  Tl  Tl10  1  0.87712138  0.37712138  1.25424277  1.0
  Tl  Tl11  1  0.62287862  0.87712138  1.50000000  1.0
  Tl  Tl12  1  0.37712138  0.12287862  0.50000000  1.0
  Tl  Tl13  1  0.12287862  0.62287862  0.74575723  1.0
  Tl  Tl14  1  0.75000000  0.75000000  1.00000000  1.0
  Tl  Tl15  1  0.25000000  0.25000000  0.00000000  1.0
