# generated using pymatgen
data_ZrCuSn2
_symmetry_space_group_name_H-M   'P 1'
_cell_length_a   4.19018670
_cell_length_b   4.19018670
_cell_length_c   9.30846407
_cell_angle_alpha   90.00000000
_cell_angle_beta   90.00000000
_cell_angle_gamma   90.00000000
_symmetry_Int_Tables_number   1
_chemical_formula_structural   ZrCuSn2
_chemical_formula_sum   'Zr2 Cu2 Sn4'
_cell_volume   163.43489021
_cell_formula_units_Z   2
loop_
 _symmetry_equiv_pos_site_id
 _symmetry_equiv_pos_as_xyz
  1  'x, y, z'
loop_
 _atom_site_type_symbol
 _atom_site_label
 _atom_site_symmetry_multiplicity
 _atom_site_fract_x
 _atom_site_fract_y
 _atom_site_fract_z
 _atom_site_occupancy
  Zr  Zr0  1  0.50000000  0.00000000  0.25125712  1.0
  Zr  Zr1  1  0.00000000  0.50000000  0.74874288  1.0
  Cu  Cu2  1  0.00000000  0.00000000  0.50000000  1.0
  Cu  Cu3  1  0.50000000  0.50000000  0.50000000  1.0
  Sn  Sn4  1  0.50000000  0.00000000  0.67491786  1.0
  Sn  Sn5  1  0.00000000  0.50000000  0.32508214  1.0
  Sn  Sn6  1  0.00000000  0.00000000  0.00000000  1.0
  Sn  Sn7  1  0.50000000  0.50000000  0.00000000  1.0
