# generated using pymatgen
data_WO16
_symmetry_space_group_name_H-M   'P 1'
_cell_length_a   10.33872280
_cell_length_b   10.33872280
_cell_length_c   10.33872280
_cell_angle_alpha   60.00000000
_cell_angle_beta   60.00000000
_cell_angle_gamma   60.00000000
_symmetry_Int_Tables_number   1
_chemical_formula_structural   WO16
_chemical_formula_sum   'W2 O32'
_cell_volume   781.42207440
_cell_formula_units_Z   2
loop_
 _symmetry_equiv_pos_site_id
 _symmetry_equiv_pos_as_xyz
  1  'x, y, z'
loop_
 _atom_site_type_symbol
 _atom_site_label
 _atom_site_symmetry_multiplicity
 _atom_site_fract_x
 _atom_site_fract_y
 _atom_site_fract_z
 _atom_site_occupancy
  W  W0  1  0.50000000  0.50000000  -0.50000000  1.0
  W  W1  1  0.75000000  -0.25000000  0.75000000  1.0
  O  O2  1  0.76099376  -0.51603615  0.99404863  1.0
  O  O3  1  -0.23900624  0.99404863  0.48396385  1.0
  O  O4  1  -0.23396385  0.48900624  0.48900624  1.0
  O  O5  1  0.25595137  0.48900624  0.48900624  1.0
  O  O6  1  -0.51603615  0.76099376  0.99404863  1.0
  O  O7  1  0.76099376  -0.23900624  0.99404863  1.0
  O  O8  1  0.76099376  -0.00595137  0.76099376  1.0
  O  O9  1  -0.51603615  0.99404863  0.76099376  1.0
  O  O10  1  0.48900624  -0.23396385  0.48900624  1.0
  O  O11  1  0.48900624  0.48900624  -0.23396385  1.0
  O  O12  1  0.25595137  0.48900624  -0.23396385  1.0
  O  O13  1  0.25595137  -0.23396385  0.48900624  1.0
  O  O14  1  0.99404863  -0.23900624  0.76099376  1.0
  O  O15  1  -0.51603615  0.76099376  0.76099376  1.0
  O  O16  1  0.48900624  0.25595137  -0.23396385  1.0
  O  O17  1  0.48900624  -0.23396385  0.25595137  1.0
  O  O18  1  -0.00595137  0.76099376  0.48396385  1.0
  O  O19  1  0.99404863  -0.51603615  0.76099376  1.0
  O  O20  1  0.76099376  -0.51603615  0.76099376  1.0
  O  O21  1  -0.23900624  0.76099376  0.48396385  1.0
  O  O22  1  0.48900624  0.25595137  0.48900624  1.0
  O  O23  1  -0.23396385  0.25595137  0.48900624  1.0
  O  O24  1  -0.23396385  0.48900624  0.25595137  1.0
  O  O25  1  0.48900624  0.48900624  0.25595137  1.0
  O  O26  1  -0.17071777  0.82928223  0.51215332  1.0
  O  O27  1  0.82928223  -0.48784668  0.82928223  1.0
  O  O28  1  0.42071777  0.42071777  0.42071777  1.0
  O  O29  1  -0.26215332  0.42071777  0.42071777  1.0
  O  O30  1  -0.48784668  0.82928223  0.82928223  1.0
  O  O31  1  0.82928223  -0.17071777  0.82928223  1.0
  O  O32  1  0.42071777  -0.26215332  0.42071777  1.0
  O  O33  1  0.42071777  0.42071777  -0.26215332  1.0
