# generated using pymatgen
data_KNa(BH4)2
_symmetry_space_group_name_H-M   'P 1'
_cell_length_a   7.49607944
_cell_length_b   7.49607944
_cell_length_c   7.49607944
_cell_angle_alpha   35.85349255
_cell_angle_beta   35.85349255
_cell_angle_gamma   35.85349255
_symmetry_Int_Tables_number   1
_chemical_formula_structural   KNa(BH4)2
_chemical_formula_sum   'K1 Na1 B2 H8'
_cell_volume   129.21365322
_cell_formula_units_Z   1
loop_
 _symmetry_equiv_pos_site_id
 _symmetry_equiv_pos_as_xyz
  1  'x, y, z'
loop_
 _atom_site_type_symbol
 _atom_site_label
 _atom_site_symmetry_multiplicity
 _atom_site_fract_x
 _atom_site_fract_y
 _atom_site_fract_z
 _atom_site_occupancy
  K  K0  1  0.50000000  0.50000000  -0.50000000  1.0
  Na  Na1  1  0.00000000  0.00000000  0.00000000  1.0
  B  B2  1  0.26055189  0.26055189  0.26055189  1.0
  B  B3  1  0.73944811  -0.26055189  -0.26055189  1.0
  H  H4  1  0.31873375  0.31873375  0.31873375  1.0
  H  H5  1  0.68126625  -0.31873375  -0.31873375  1.0
  H  H6  1  1.09599308  -0.47024374  0.09599308  1.0
  H  H7  1  0.52975626  0.09599308  0.09599308  1.0
  H  H8  1  1.09599308  0.09599308  -0.47024374  1.0
  H  H9  1  0.90400692  -0.52975626  -0.09599308  1.0
  H  H10  1  0.47024374  -0.09599308  -0.09599308  1.0
  H  H11  1  0.90400692  -0.09599308  -0.52975626  1.0
