# generated using pymatgen
data_Pr(BOs)4
_symmetry_space_group_name_H-M   'P 1'
_cell_length_a   7.58285116
_cell_length_b   7.58285116
_cell_length_c   4.01345229
_cell_angle_alpha   90.00000000
_cell_angle_beta   90.00000000
_cell_angle_gamma   90.00000000
_symmetry_Int_Tables_number   1
_chemical_formula_structural   Pr(BOs)4
_chemical_formula_sum   'Pr2 B8 Os8'
_cell_volume   230.77202826
_cell_formula_units_Z   2
loop_
 _symmetry_equiv_pos_site_id
 _symmetry_equiv_pos_as_xyz
  1  'x, y, z'
loop_
 _atom_site_type_symbol
 _atom_site_label
 _atom_site_symmetry_multiplicity
 _atom_site_fract_x
 _atom_site_fract_y
 _atom_site_fract_z
 _atom_site_occupancy
  Pr  Pr0  1  0.00000000  0.00000000  0.00000000  1.0
  Pr  Pr1  1  0.50000000  0.50000000  0.50000000  1.0
  B  B2  1  0.66379491  0.78188044  0.11230552  1.0
  B  B3  1  0.33620509  0.21811956  0.11230552  1.0
  B  B4  1  0.28188044  0.83620509  0.61230552  1.0
  B  B5  1  0.71811956  0.16379491  0.61230552  1.0
  B  B6  1  0.83620509  0.71811956  0.38769448  1.0
  B  B7  1  0.16379491  0.28188044  0.38769448  1.0
  B  B8  1  0.21811956  0.66379491  0.88769448  1.0
  B  B9  1  0.78188044  0.33620509  0.88769448  1.0
  Os  Os10  1  0.14451333  0.39147564  0.88742046  1.0
  Os  Os11  1  0.85548667  0.60852436  0.88742046  1.0
  Os  Os12  1  0.89147564  0.35548667  0.38742046  1.0
  Os  Os13  1  0.10852436  0.64451333  0.38742046  1.0
  Os  Os14  1  0.35548667  0.10852436  0.61257954  1.0
  Os  Os15  1  0.64451333  0.89147564  0.61257954  1.0
  Os  Os16  1  0.60852436  0.14451333  0.11257954  1.0
  Os  Os17  1  0.39147564  0.85548667  0.11257954  1.0
