# generated using pymatgen
data_SrTa2Bi2O9
_symmetry_space_group_name_H-M   'P 1'
_cell_length_a   12.85077965
_cell_length_b   12.85077965
_cell_length_c   12.85077965
_cell_angle_alpha   162.38685148
_cell_angle_beta   162.38685148
_cell_angle_gamma   25.00884881
_symmetry_Int_Tables_number   1
_chemical_formula_structural   SrTa2Bi2O9
_chemical_formula_sum   'Sr1 Ta2 Bi2 O9'
_cell_volume   194.25333997
_cell_formula_units_Z   1
loop_
 _symmetry_equiv_pos_site_id
 _symmetry_equiv_pos_as_xyz
  1  'x, y, z'
loop_
 _atom_site_type_symbol
 _atom_site_label
 _atom_site_symmetry_multiplicity
 _atom_site_fract_x
 _atom_site_fract_y
 _atom_site_fract_z
 _atom_site_occupancy
  Sr  Sr0  1  0.50000000  0.50000000  1.00000000  1.0
  Ta  Ta1  1  0.91471151  0.91471151  1.00000000  1.0
  Ta  Ta2  1  0.08528849  0.08528849  0.00000000  1.0
  Bi  Bi3  1  0.70044081  0.70044081  1.00000000  1.0
  Bi  Bi4  1  0.29955919  0.29955919  0.00000000  1.0
  O  O5  1  0.42328201  0.92328201  0.50000000  1.0
  O  O6  1  0.57671799  0.07671799  0.50000000  1.0
  O  O7  1  0.92328201  0.42328201  0.50000000  1.0
  O  O8  1  0.07671799  0.57671799  0.50000000  1.0
  O  O9  1  0.83906951  0.83906951  1.00000000  1.0
  O  O10  1  0.16093049  0.16093049  0.00000000  1.0
  O  O11  1  0.25000000  0.75000000  0.50000000  1.0
  O  O12  1  0.75000000  0.25000000  0.50000000  1.0
  O  O13  1  0.00000000  0.00000000  0.00000000  1.0
