# generated using pymatgen
data_CrF2
_symmetry_space_group_name_H-M   'P 1'
_cell_length_a   3.66933044
_cell_length_b   4.72612784
_cell_length_c   5.54085241
_cell_angle_alpha   90.00000000
_cell_angle_beta   120.68594095
_cell_angle_gamma   90.00000000
_symmetry_Int_Tables_number   1
_chemical_formula_structural   CrF2
_chemical_formula_sum   'Cr2 F4'
_cell_volume   82.63346595
_cell_formula_units_Z   2
loop_
 _symmetry_equiv_pos_site_id
 _symmetry_equiv_pos_as_xyz
  1  'x, y, z'
loop_
 _atom_site_type_symbol
 _atom_site_label
 _atom_site_symmetry_multiplicity
 _atom_site_fract_x
 _atom_site_fract_y
 _atom_site_fract_z
 _atom_site_occupancy
  Cr  Cr0  1  0.00000000  0.50000000  0.50000000  1.0
  Cr  Cr1  1  -0.00000000  0.00000000  -0.00000000  1.0
  F  F2  1  0.76484573  0.20061638  0.20709953  1.0
  F  F3  1  0.76484573  0.29938362  0.70709953  1.0
  F  F4  1  0.23515427  0.70061638  0.29290047  1.0
  F  F5  1  0.23515427  0.79938362  0.79290047  1.0
