# generated using pymatgen
data_Cs2Na(C2N3)3
_symmetry_space_group_name_H-M   'P 1'
_cell_length_a   7.30749509
_cell_length_b   7.30749509
_cell_length_c   14.89240943
_cell_angle_alpha   90.00000000
_cell_angle_beta   90.00000000
_cell_angle_gamma   120.00000000
_symmetry_Int_Tables_number   1
_chemical_formula_structural   Cs2Na(C2N3)3
_chemical_formula_sum   'Cs4 Na2 C12 N18'
_cell_volume   688.70409267
_cell_formula_units_Z   2
loop_
 _symmetry_equiv_pos_site_id
 _symmetry_equiv_pos_as_xyz
  1  'x, y, z'
loop_
 _atom_site_type_symbol
 _atom_site_label
 _atom_site_symmetry_multiplicity
 _atom_site_fract_x
 _atom_site_fract_y
 _atom_site_fract_z
 _atom_site_occupancy
  Cs  Cs0  1  0.33333333  0.66666667  0.43788381  1.0
  Cs  Cs1  1  0.33333333  0.66666667  0.06211619  1.0
  Cs  Cs2  1  0.66666667  0.33333333  0.93788381  1.0
  Cs  Cs3  1  0.66666667  0.33333333  0.56211619  1.0
  Na  Na4  1  0.00000000  0.00000000  0.50000000  1.0
  Na  Na5  1  -0.00000000  -0.00000000  0.00000000  1.0
  C  C6  1  0.82942206  0.66610622  0.32741836  1.0
  C  C7  1  0.82942206  0.66610622  0.17258164  1.0
  C  C8  1  0.66610622  0.83668416  0.82741836  1.0
  C  C9  1  0.66610622  0.83668416  0.67258164  1.0
  C  C10  1  0.83668416  0.17057794  0.32741836  1.0
  C  C11  1  0.83668416  0.17057794  0.17258164  1.0
  C  C12  1  0.33389378  0.16331584  0.32741836  1.0
  C  C13  1  0.33389378  0.16331584  0.17258164  1.0
  C  C14  1  0.17057794  0.33389378  0.82741836  1.0
  C  C15  1  0.17057794  0.33389378  0.67258164  1.0
  C  C16  1  0.16331584  0.82942206  0.82741836  1.0
  C  C17  1  0.16331584  0.82942206  0.67258164  1.0
  N  N18  1  0.89132588  0.67724157  0.40170076  1.0
  N  N19  1  0.89132588  0.67724157  0.09829924  1.0
  N  N20  1  0.67724157  0.78591569  0.90170076  1.0
  N  N21  1  0.67724157  0.78591569  0.59829924  1.0
  N  N22  1  0.78591569  0.10867412  0.40170076  1.0
  N  N23  1  0.78591569  0.10867412  0.09829924  1.0
  N  N24  1  0.32275843  0.21408431  0.40170076  1.0
  N  N25  1  0.32275843  0.21408431  0.09829924  1.0
  N  N26  1  0.10867412  0.32275843  0.90170076  1.0
  N  N27  1  0.10867412  0.32275843  0.59829924  1.0
  N  N28  1  0.21408431  0.89132588  0.90170076  1.0
  N  N29  1  0.21408431  0.89132588  0.59829924  1.0
  N  N30  1  0.74239963  0.65192074  0.25000000  1.0
  N  N31  1  0.65192074  0.90952110  0.75000000  1.0
  N  N32  1  0.90952110  0.25760037  0.25000000  1.0
  N  N33  1  0.34807926  0.09047890  0.25000000  1.0
  N  N34  1  0.25760037  0.34807926  0.75000000  1.0
  N  N35  1  0.09047890  0.74239963  0.75000000  1.0
