# generated using pymatgen
data_AgNO2
_symmetry_space_group_name_H-M   'P 1'
_cell_length_a   4.62675590
_cell_length_b   4.62675590
_cell_length_c   7.54264813
_cell_angle_alpha   66.43932214
_cell_angle_beta   113.56067786
_cell_angle_gamma   113.97557451
_symmetry_Int_Tables_number   1
_chemical_formula_structural   AgNO2
_chemical_formula_sum   'Ag2 N2 O4'
_cell_volume   129.69316921
_cell_formula_units_Z   2
loop_
 _symmetry_equiv_pos_site_id
 _symmetry_equiv_pos_as_xyz
  1  'x, y, z'
loop_
 _atom_site_type_symbol
 _atom_site_label
 _atom_site_symmetry_multiplicity
 _atom_site_fract_x
 _atom_site_fract_y
 _atom_site_fract_z
 _atom_site_occupancy
  Ag  Ag0  1  0.96216570  0.56146312  0.71073411  1.0
  Ag  Ag1  1  1.56146312  -0.03783430  0.28926589  1.0
  N  N2  1  1.00867437  0.36298480  0.25590729  1.0
  N  N3  1  1.36298480  0.00867437  0.74409271  1.0
  O  O4  1  1.10171926  0.58115768  0.34605852  1.0
  O  O5  1  1.58115768  0.10171926  0.65394148  1.0
  O  O6  1  1.18105821  0.39403687  0.15564005  1.0
  O  O7  1  0.39403687  0.18105821  0.84435995  1.0
