# generated using pymatgen
data_Rb4P2PbSe8
_symmetry_space_group_name_H-M   'P 1'
_cell_length_a   12.08797652
_cell_length_b   12.08797652
_cell_length_c   12.08797652
_cell_angle_alpha   133.51272247
_cell_angle_beta   72.35096448
_cell_angle_gamma   127.92794021
_symmetry_Int_Tables_number   1
_chemical_formula_structural   Rb4P2PbSe8
_chemical_formula_sum   'Rb8 P4 Pb2 Se16'
_cell_volume   987.90124979
_cell_formula_units_Z   2
loop_
 _symmetry_equiv_pos_site_id
 _symmetry_equiv_pos_as_xyz
  1  'x, y, z'
loop_
 _atom_site_type_symbol
 _atom_site_label
 _atom_site_symmetry_multiplicity
 _atom_site_fract_x
 _atom_site_fract_y
 _atom_site_fract_z
 _atom_site_occupancy
  Rb  Rb0  1  1.41197089  1.11409583  1.52606672  1.0
  Rb  Rb1  1  1.08802911  0.61409583  0.70212494  1.0
  Rb  Rb2  1  0.91197089  0.38590417  1.29787506  1.0
  Rb  Rb3  1  0.58802911  0.88590417  1.47393328  1.0
  Rb  Rb4  1  1.01848012  0.25000000  0.76848012  1.0
  Rb  Rb5  1  1.51848012  0.75000000  0.76848012  1.0
  Rb  Rb6  1  0.98151988  0.75000000  1.23151988  1.0
  Rb  Rb7  1  1.48151988  1.25000000  1.23151988  1.0
  P  P8  1  1.12388300  1.20238932  1.32627232  1.0
  P  P9  1  1.37611700  0.70238932  1.07850632  1.0
  P  P10  1  0.62388300  0.29761068  0.92149368  1.0
  P  P11  1  0.87611700  0.79761068  1.67372768  1.0
  Pb  Pb12  1  0.25000000  0.25000000  -0.00000000  1.0
  Pb  Pb13  1  0.75000000  0.75000000  -0.00000000  1.0
  Se  Se14  1  1.09889459  0.88257173  1.63858139  1.0
  Se  Se15  1  1.75600966  1.53968680  1.63858139  1.0
  Se  Se16  1  0.74399034  0.38257173  0.78367714  1.0
  Se  Se17  1  1.40110541  1.03968680  0.78367714  1.0
  Se  Se18  1  1.59889459  0.96031320  1.21632286  1.0
  Se  Se19  1  1.25600966  0.61742827  1.21632286  1.0
  Se  Se20  1  1.24399034  1.46031320  1.36141861  1.0
  Se  Se21  1  0.90110541  1.11742827  1.36141861  1.0
  Se  Se22  1  1.39587279  1.47086392  1.86673671  1.0
  Se  Se23  1  1.10412721  0.97086392  1.07499113  1.0
  Se  Se24  1  0.89587279  0.02913608  0.92500887  1.0
  Se  Se25  1  0.60412721  0.52913608  1.13326329  1.0
  Se  Se26  1  1.23450447  1.25802579  1.49253026  1.0
  Se  Se27  1  1.26549553  0.75802579  1.02352133  1.0
  Se  Se28  1  0.73450447  0.24197421  0.97647867  1.0
  Se  Se29  1  0.76549553  0.74197421  1.50746974  1.0
