# generated using pymatgen
data_Gd(Mo3Se4)2
_symmetry_space_group_name_H-M   'P 1'
_cell_length_a   6.78355528
_cell_length_b   6.78355528
_cell_length_c   6.78355528
_cell_angle_alpha   89.08942858
_cell_angle_beta   89.08942858
_cell_angle_gamma   89.08942858
_symmetry_Int_Tables_number   1
_chemical_formula_structural   Gd(Mo3Se4)2
_chemical_formula_sum   'Gd1 Mo6 Se8'
_cell_volume   312.03927999
_cell_formula_units_Z   1
loop_
 _symmetry_equiv_pos_site_id
 _symmetry_equiv_pos_as_xyz
  1  'x, y, z'
loop_
 _atom_site_type_symbol
 _atom_site_label
 _atom_site_symmetry_multiplicity
 _atom_site_fract_x
 _atom_site_fract_y
 _atom_site_fract_z
 _atom_site_occupancy
  Gd  Gd0  1  0.00000000  0.00000000  0.00000000  1.0
  Mo  Mo1  1  0.57602109  0.76507135  -0.55907075  1.0
  Mo  Mo2  1  0.76507135  0.44092925  -0.42397891  1.0
  Mo  Mo3  1  0.44092925  0.57602109  -0.23492865  1.0
  Mo  Mo4  1  0.42397891  0.23492865  -0.44092925  1.0
  Mo  Mo5  1  0.23492865  0.55907075  -0.57602109  1.0
  Mo  Mo6  1  0.55907075  0.42397891  -0.76507135  1.0
  Se  Se7  1  0.76126429  0.76126429  -0.23873571  1.0
  Se  Se8  1  1.23873571  1.23873571  0.23873571  1.0
  Se  Se9  1  0.62823037  0.24519310  -0.12290454  1.0
  Se  Se10  1  0.24519310  0.87709546  -0.37176963  1.0
  Se  Se11  1  0.87709546  0.62823037  -0.75480690  1.0
  Se  Se12  1  0.37176963  0.75480690  -0.87709546  1.0
  Se  Se13  1  0.75480690  0.12290454  -0.62823037  1.0
  Se  Se14  1  0.12290454  0.37176963  -0.24519310  1.0
