# generated using pymatgen
data_Gd2Si4CN6
_symmetry_space_group_name_H-M   'P 1'
_cell_length_a   5.99124902
_cell_length_b   10.03962317
_cell_length_c   12.01900042
_cell_angle_alpha   90.00000000
_cell_angle_beta   119.62443751
_cell_angle_gamma   90.00000000
_symmetry_Int_Tables_number   1
_chemical_formula_structural   Gd2Si4CN6
_chemical_formula_sum   'Gd8 Si16 C4 N24'
_cell_volume   628.44157440
_cell_formula_units_Z   4
loop_
 _symmetry_equiv_pos_site_id
 _symmetry_equiv_pos_as_xyz
  1  'x, y, z'
loop_
 _atom_site_type_symbol
 _atom_site_label
 _atom_site_symmetry_multiplicity
 _atom_site_fract_x
 _atom_site_fract_y
 _atom_site_fract_z
 _atom_site_occupancy
  Gd  Gd0  1  0.33186262  0.43589214  0.09611613  1.0
  Gd  Gd1  1  0.66813738  0.93589214  0.40388387  1.0
  Gd  Gd2  1  0.66813738  0.56410786  0.90388387  1.0
  Gd  Gd3  1  0.33186262  0.06410786  0.59611613  1.0
  Gd  Gd4  1  0.65971501  0.58741393  0.41992426  1.0
  Gd  Gd5  1  0.34028499  0.08741393  0.08007574  1.0
  Gd  Gd6  1  0.34028499  0.41258607  0.58007574  1.0
  Gd  Gd7  1  0.65971501  0.91258607  0.91992426  1.0
  Si  Si8  1  0.00715337  0.51925340  0.25176553  1.0
  Si  Si9  1  0.99284663  0.01925340  0.24823447  1.0
  Si  Si10  1  0.99284663  0.48074660  0.74823447  1.0
  Si  Si11  1  0.00715337  0.98074660  0.75176553  1.0
  Si  Si12  1  0.16344363  0.78941744  0.42084436  1.0
  Si  Si13  1  0.83655637  0.28941744  0.07915564  1.0
  Si  Si14  1  0.83655637  0.21058256  0.57915564  1.0
  Si  Si15  1  0.16344363  0.71058256  0.92084436  1.0
  Si  Si16  1  0.19652801  0.79075543  0.17548636  1.0
  Si  Si17  1  0.80347199  0.29075543  0.32451364  1.0
  Si  Si18  1  0.80347199  0.20924457  0.82451364  1.0
  Si  Si19  1  0.19652801  0.70924457  0.67548636  1.0
  Si  Si20  1  0.67538806  0.77090604  0.15974742  1.0
  Si  Si21  1  0.32461194  0.27090604  0.34025258  1.0
  Si  Si22  1  0.32461194  0.22909396  0.84025258  1.0
  Si  Si23  1  0.67538806  0.72909396  0.65974742  1.0
  C  C24  1  0.02236901  0.70714077  0.25468376  1.0
  C  C25  1  0.97763099  0.20714077  0.24531624  1.0
  C  C26  1  0.97763099  0.29285923  0.74531624  1.0
  C  C27  1  0.02236901  0.79285923  0.75468376  1.0
  N  N28  1  0.03486690  0.77739021  0.01004710  1.0
  N  N29  1  0.96513310  0.27739021  0.48995290  1.0
  N  N30  1  0.96513310  0.22260979  0.98995290  1.0
  N  N31  1  0.03486690  0.72260979  0.51004710  1.0
  N  N32  1  0.06197333  0.95681197  0.39753363  1.0
  N  N33  1  0.93802667  0.45681197  0.10246637  1.0
  N  N34  1  0.93802667  0.04318803  0.60246637  1.0
  N  N35  1  0.06197333  0.54318803  0.89753363  1.0
  N  N36  1  0.23047536  0.96105973  0.21637003  1.0
  N  N37  1  0.76952464  0.46105973  0.28362997  1.0
  N  N38  1  0.76952464  0.03894027  0.78362997  1.0
  N  N39  1  0.23047536  0.53894027  0.71637003  1.0
  N  N40  1  0.50233528  0.70896259  0.00270072  1.0
  N  N41  1  0.49766472  0.20896259  0.49729928  1.0
  N  N42  1  0.49766472  0.29103741  0.99729928  1.0
  N  N43  1  0.50233528  0.79103741  0.50270072  1.0
  N  N44  1  0.51385430  0.73521709  0.24431230  1.0
  N  N45  1  0.48614570  0.23521709  0.25568770  1.0
  N  N46  1  0.48614570  0.26478291  0.75568770  1.0
  N  N47  1  0.51385430  0.76478291  0.74431230  1.0
  N  N48  1  0.69890659  0.94413917  0.13924081  1.0
  N  N49  1  0.30109341  0.44413917  0.36075919  1.0
  N  N50  1  0.30109341  0.05586083  0.86075919  1.0
  N  N51  1  0.69890659  0.55586083  0.63924081  1.0
