# generated using pymatgen
data_C2SN2
_symmetry_space_group_name_H-M   'P 1'
_cell_length_a   14.71911487
_cell_length_b   4.10558581
_cell_length_c   8.10800338
_cell_angle_alpha   90.00000000
_cell_angle_beta   90.00000000
_cell_angle_gamma   90.00000000
_symmetry_Int_Tables_number   1
_chemical_formula_structural   C2SN2
_chemical_formula_sum   'C12 S6 N12'
_cell_volume   489.97142130
_cell_formula_units_Z   6
loop_
 _symmetry_equiv_pos_site_id
 _symmetry_equiv_pos_as_xyz
  1  'x, y, z'
loop_
 _atom_site_type_symbol
 _atom_site_label
 _atom_site_symmetry_multiplicity
 _atom_site_fract_x
 _atom_site_fract_y
 _atom_site_fract_z
 _atom_site_occupancy
  C  C0  1  0.45121721  0.90530502  0.75827293  1.0
  C  C1  1  0.04878279  0.09469498  0.25827293  1.0
  C  C2  1  0.95121721  0.09469498  0.25827293  1.0
  C  C3  1  0.54878279  0.90530502  0.75827293  1.0
  C  C4  1  0.45094179  0.66740487  0.04301412  1.0
  C  C5  1  0.04905821  0.33259513  0.54301412  1.0
  C  C6  1  0.95094179  0.33259513  0.54301412  1.0
  C  C7  1  0.54905821  0.66740487  0.04301412  1.0
  C  C8  1  0.40191645  0.79001267  0.90193562  1.0
  C  C9  1  0.09808355  0.20998733  0.40193562  1.0
  C  C10  1  0.90191645  0.20998733  0.40193562  1.0
  C  C11  1  0.59808355  0.79001267  0.90193562  1.0
  S  S12  1  0.50000000  0.11396236  0.49799873  1.0
  S  S13  1  0.00000000  0.88603764  0.99799873  1.0
  S  S14  1  0.29275679  0.63009686  0.10407098  1.0
  S  S15  1  0.20724321  0.36990314  0.60407098  1.0
  S  S16  1  0.79275679  0.36990314  0.60407098  1.0
  S  S17  1  0.70724321  0.63009686  0.10407098  1.0
  N  N18  1  0.41504226  0.01832891  0.61818057  1.0
  N  N19  1  0.08495774  0.98167109  0.11818057  1.0
  N  N20  1  0.91504226  0.98167109  0.11818057  1.0
  N  N21  1  0.58495774  0.01832891  0.61818057  1.0
  N  N22  1  0.39651559  0.56645506  0.16534113  1.0
  N  N23  1  0.10348441  0.43354494  0.66534113  1.0
  N  N24  1  0.89651559  0.43354494  0.66534113  1.0
  N  N25  1  0.60348441  0.56645506  0.16534113  1.0
  N  N26  1  0.31183416  0.78271911  0.92085029  1.0
  N  N27  1  0.18816584  0.21728089  0.42085029  1.0
  N  N28  1  0.81183416  0.21728089  0.42085029  1.0
  N  N29  1  0.68816584  0.78271911  0.92085029  1.0
