# generated using pymatgen
data_H6CN5ClO6
_symmetry_space_group_name_H-M   'P 1'
_cell_length_a   8.30564236
_cell_length_b   7.99730575
_cell_length_c   7.19172890
_cell_angle_alpha   63.45333732
_cell_angle_beta   70.62181887
_cell_angle_gamma   73.50539434
_symmetry_Int_Tables_number   1
_chemical_formula_structural   H6CN5ClO6
_chemical_formula_sum   'H12 C2 N10 Cl2 O12'
_cell_volume   397.88190286
_cell_formula_units_Z   2
loop_
 _symmetry_equiv_pos_site_id
 _symmetry_equiv_pos_as_xyz
  1  'x, y, z'
loop_
 _atom_site_type_symbol
 _atom_site_label
 _atom_site_symmetry_multiplicity
 _atom_site_fract_x
 _atom_site_fract_y
 _atom_site_fract_z
 _atom_site_occupancy
  H  H0  1  -0.98118460  -0.33903371  -0.78827284  1.0
  H  H1  1  -0.01881540  -0.66096629  -0.21172716  1.0
  H  H2  1  -0.30882733  -0.80490455  -0.78711257  1.0
  H  H3  1  -0.69117267  -0.19509545  -0.21288743  1.0
  H  H4  1  -0.27654054  -0.86514228  -0.53231716  1.0
  H  H5  1  -0.72345946  -0.13485772  -0.46768284  1.0
  H  H6  1  -0.82034993  -0.59024854  -0.33381949  1.0
  H  H7  1  -0.17965007  -0.40975146  -0.66618051  1.0
  H  H8  1  -0.77543129  -0.97085784  -0.05939193  1.0
  H  H9  1  -0.22456871  -0.02914216  -0.94060807  1.0
  H  H10  1  -0.88921713  -0.68410599  -0.05930657  1.0
  H  H11  1  -0.11078287  -0.31589401  -0.94069343  1.0
  C  C12  1  -0.80289926  -0.92213145  -0.36060801  1.0
  C  C13  1  -0.19710074  -0.07786855  -0.63939199  1.0
  N  N14  1  -0.86156905  -0.79619445  -0.69494781  1.0
  N  N15  1  -0.13843095  -0.20380555  -0.30505219  1.0
  N  N16  1  -0.26874074  -0.90326854  -0.65312986  1.0
  N  N17  1  -0.73125926  -0.09673146  -0.34687014  1.0
  N  N18  1  -0.86579298  -0.77426447  -0.52091866  1.0
  N  N19  1  -0.13420702  -0.22573553  -0.47908134  1.0
  N  N20  1  -0.88986977  -0.69212699  -0.20335181  1.0
  N  N21  1  -0.11013023  -0.30787301  -0.79664819  1.0
  N  N22  1  -0.81759406  -0.87712719  -0.19367394  1.0
  N  N23  1  -0.18240594  -0.12287281  -0.80632606  1.0
  Cl  Cl24  1  -0.62149363  -0.37802774  -0.75209036  1.0
  Cl  Cl25  1  -0.37850637  -0.62197226  -0.24790964  1.0
  O  O26  1  -0.75209845  -0.28072395  -0.88543978  1.0
  O  O27  1  -0.24790155  -0.71927605  -0.11456022  1.0
  O  O28  1  -0.48611070  -0.26282537  -0.83938021  1.0
  O  O29  1  -0.51388930  -0.73717463  -0.16061979  1.0
  O  O30  1  -0.91739705  -0.64796803  -0.83843947  1.0
  O  O31  1  -0.08260295  -0.35203197  -0.16156053  1.0
  O  O32  1  -0.55452565  -0.56648419  -0.75165268  1.0
  O  O33  1  -0.44547435  -0.43351581  -0.24834732  1.0
  O  O34  1  -0.80954813  -0.94897904  -0.72130348  1.0
  O  O35  1  -0.19045187  -0.05102096  -0.27869652  1.0
  O  O36  1  -0.71093453  -0.39132644  -0.53150301  1.0
  O  O37  1  -0.28906547  -0.60867356  -0.46849699  1.0
