# generated using pymatgen
data_Y3InS6
_symmetry_space_group_name_H-M   'P 1'
_cell_length_a   13.51560589
_cell_length_b   16.52907449
_cell_length_c   3.85653755
_cell_angle_alpha   90.00000000
_cell_angle_beta   90.00000000
_cell_angle_gamma   90.00000000
_symmetry_Int_Tables_number   1
_chemical_formula_structural   Y3InS6
_chemical_formula_sum   'Y12 In4 S24'
_cell_volume   861.55224986
_cell_formula_units_Z   4
loop_
 _symmetry_equiv_pos_site_id
 _symmetry_equiv_pos_as_xyz
  1  'x, y, z'
loop_
 _atom_site_type_symbol
 _atom_site_label
 _atom_site_symmetry_multiplicity
 _atom_site_fract_x
 _atom_site_fract_y
 _atom_site_fract_z
 _atom_site_occupancy
  Y  Y0  1  0.18984677  0.64513808  0.74978441  1.0
  Y  Y1  1  0.68984677  0.85486192  0.25021559  1.0
  Y  Y2  1  0.81015323  0.35486192  0.74978441  1.0
  Y  Y3  1  0.31015323  0.14513808  0.25021559  1.0
  Y  Y4  1  0.96196350  0.77520870  0.74947882  1.0
  Y  Y5  1  0.46196350  0.72479130  0.25052118  1.0
  Y  Y6  1  0.03803650  0.22479130  0.74947882  1.0
  Y  Y7  1  0.53803650  0.27520870  0.25052118  1.0
  Y  Y8  1  0.74916040  0.60818195  0.75040443  1.0
  Y  Y9  1  0.24916040  0.89181805  0.24959557  1.0
  Y  Y10  1  0.25083960  0.39181805  0.75040443  1.0
  Y  Y11  1  0.75083960  0.10818195  0.24959557  1.0
  In  In12  1  0.50000000  0.00000000  0.74990264  1.0
  In  In13  1  0.00000000  0.50000000  0.25009736  1.0
  In  In14  1  0.50000000  0.50000000  0.75198392  1.0
  In  In15  1  0.00000000  0.00000000  0.24801608  1.0
  S  S16  1  0.38922610  0.61898588  0.75070598  1.0
  S  S17  1  0.88922610  0.88101412  0.24929402  1.0
  S  S18  1  0.61077390  0.38101412  0.75070598  1.0
  S  S19  1  0.11077390  0.11898588  0.24929402  1.0
  S  S20  1  0.38627552  0.24558807  0.75034637  1.0
  S  S21  1  0.88627552  0.25441193  0.24965363  1.0
  S  S22  1  0.61372448  0.75441193  0.75034637  1.0
  S  S23  1  0.11372448  0.74558807  0.24965363  1.0
  S  S24  1  0.31860008  0.78621611  0.74975525  1.0
  S  S25  1  0.81860008  0.71378389  0.25024475  1.0
  S  S26  1  0.68139992  0.21378389  0.74975525  1.0
  S  S27  1  0.18139992  0.28621611  0.25024475  1.0
  S  S28  1  0.30662705  0.02021337  0.75005109  1.0
  S  S29  1  0.80662705  0.47978663  0.24994891  1.0
  S  S30  1  0.69337295  0.97978663  0.75005109  1.0
  S  S31  1  0.19337295  0.52021337  0.24994891  1.0
  S  S32  1  0.09695963  0.91185483  0.74916075  1.0
  S  S33  1  0.59695963  0.58814517  0.25083925  1.0
  S  S34  1  0.90304037  0.08814517  0.74916075  1.0
  S  S35  1  0.40304037  0.41185483  0.25083925  1.0
  S  S36  1  0.98000870  0.60525468  0.75003205  1.0
  S  S37  1  0.48000870  0.89474532  0.24996795  1.0
  S  S38  1  0.01999130  0.39474532  0.75003205  1.0
  S  S39  1  0.51999130  0.10525468  0.24996795  1.0
