# generated using pymatgen
data_BaHIO
_symmetry_space_group_name_H-M   'P 1'
_cell_length_a   8.06353198
_cell_length_b   4.52558617
_cell_length_c   11.47333776
_cell_angle_alpha   90.00000000
_cell_angle_beta   90.00000000
_cell_angle_gamma   90.00000000
_symmetry_Int_Tables_number   1
_chemical_formula_structural   BaHIO
_chemical_formula_sum   'Ba4 H4 I4 O4'
_cell_volume   418.68743726
_cell_formula_units_Z   4
loop_
 _symmetry_equiv_pos_site_id
 _symmetry_equiv_pos_as_xyz
  1  'x, y, z'
loop_
 _atom_site_type_symbol
 _atom_site_label
 _atom_site_symmetry_multiplicity
 _atom_site_fract_x
 _atom_site_fract_y
 _atom_site_fract_z
 _atom_site_occupancy
  Ba  Ba0  1  0.68561466  0.75000000  0.41721933  1.0
  Ba  Ba1  1  0.18561466  0.75000000  0.08278067  1.0
  Ba  Ba2  1  0.31438534  0.25000000  0.58278067  1.0
  Ba  Ba3  1  0.81438534  0.25000000  0.91721933  1.0
  H  H4  1  0.78447543  0.75000000  0.09241044  1.0
  H  H5  1  0.28447543  0.75000000  0.40758956  1.0
  H  H6  1  0.21552457  0.25000000  0.90758956  1.0
  H  H7  1  0.71552457  0.25000000  0.59241044  1.0
  I  I8  1  0.96401843  0.75000000  0.67842797  1.0
  I  I9  1  0.46401843  0.75000000  0.82157203  1.0
  I  I10  1  0.03598157  0.25000000  0.32157203  1.0
  I  I11  1  0.53598157  0.25000000  0.17842797  1.0
  O  O12  1  0.86714880  0.75000000  0.03048511  1.0
  O  O13  1  0.36714880  0.75000000  0.46951489  1.0
  O  O14  1  0.13285120  0.25000000  0.96951489  1.0
  O  O15  1  0.63285120  0.25000000  0.53048511  1.0
