# generated using pymatgen
data_CdGePO7
_symmetry_space_group_name_H-M   'P 1'
_cell_length_a   6.53287339
_cell_length_b   6.53287339
_cell_length_c   13.65662274
_cell_angle_alpha   90.00000000
_cell_angle_beta   90.00000000
_cell_angle_gamma   113.73255656
_symmetry_Int_Tables_number   1
_chemical_formula_structural   CdGePO7
_chemical_formula_sum   'Cd4 Ge4 P4 O28'
_cell_volume   533.55458745
_cell_formula_units_Z   4
loop_
 _symmetry_equiv_pos_site_id
 _symmetry_equiv_pos_as_xyz
  1  'x, y, z'
loop_
 _atom_site_type_symbol
 _atom_site_label
 _atom_site_symmetry_multiplicity
 _atom_site_fract_x
 _atom_site_fract_y
 _atom_site_fract_z
 _atom_site_occupancy
  Cd  Cd0  1  0.36684433  1.13315567  0.25000000  1.0
  Cd  Cd1  1  -0.13315567  0.63315567  0.25000000  1.0
  Cd  Cd2  1  0.13315567  1.36684433  0.75000000  1.0
  Cd  Cd3  1  -0.36684433  0.86684433  0.75000000  1.0
  Ge  Ge4  1  0.50000000  1.00000000  0.50000000  1.0
  Ge  Ge5  1  -0.00000000  1.50000000  0.00000000  1.0
  Ge  Ge6  1  -0.00000000  1.50000000  0.50000000  1.0
  Ge  Ge7  1  0.50000000  1.00000000  0.00000000  1.0
  O  O8  1  0.48810532  0.51189468  0.27521754  1.0
  O  O9  1  -0.01189468  1.01189468  0.22478246  1.0
  O  O10  1  -0.48810532  1.48810532  0.72478246  1.0
  O  O11  1  0.01189468  0.98810532  0.77521754  1.0
  O  O12  1  0.32852101  1.09083084  0.41552400  1.0
  O  O13  1  -0.17147899  0.59083084  0.08447600  1.0
  O  O14  1  0.09083084  1.32852101  0.58447600  1.0
  O  O15  1  -0.40916916  0.82852101  0.91552400  1.0
  O  O16  1  -0.09083084  0.67147899  0.41552400  1.0
  O  O17  1  0.40916916  1.17147899  0.08447600  1.0
  O  O18  1  -0.32852101  0.90916916  0.58447600  1.0
  O  O19  1  0.17147899  1.40916916  0.91552400  1.0
  O  O20  1  -0.22804610  1.22804610  0.45898457  1.0
  O  O21  1  0.27195390  0.72804610  0.04101543  1.0
  O  O22  1  0.22804610  0.77195390  0.54101543  1.0
  O  O23  1  -0.27195390  1.27195390  0.95898457  1.0
  O  O24  1  -0.24715319  1.24715319  0.23358563  1.0
  O  O25  1  0.25284681  0.74715319  0.26641437  1.0
  O  O26  1  0.24715319  0.75284681  0.76641437  1.0
  O  O27  1  -0.25284681  1.25284681  0.73358563  1.0
  O  O28  1  -0.45287471  0.81597044  0.39855419  1.0
  O  O29  1  0.04712529  1.31597044  0.10144581  1.0
  O  O30  1  -0.18402956  0.54712529  0.60144581  1.0
  O  O31  1  0.31597044  1.04712529  0.89855419  1.0
  O  O32  1  0.18402956  1.45287471  0.39855419  1.0
  O  O33  1  -0.31597044  0.95287471  0.10144581  1.0
  O  O34  1  0.45287471  1.18402956  0.60144581  1.0
  O  O35  1  -0.04712529  0.68402956  0.89855419  1.0
  P  P36  1  -0.13231590  1.13231590  0.16556435  1.0
  P  P37  1  0.36768410  0.63231590  0.33443565  1.0
  P  P38  1  0.13231590  0.86768410  0.83443565  1.0
  P  P39  1  -0.36768410  1.36768410  0.66556435  1.0
