# generated using pymatgen
data_Ti2In5
_symmetry_space_group_name_H-M   'P 1'
_cell_length_a   10.11474116
_cell_length_b   10.11474116
_cell_length_c   3.01003209
_cell_angle_alpha   90.00000000
_cell_angle_beta   90.00000000
_cell_angle_gamma   90.00000000
_symmetry_Int_Tables_number   1
_chemical_formula_structural   Ti2In5
_chemical_formula_sum   'Ti4 In10'
_cell_volume   307.95032913
_cell_formula_units_Z   2
loop_
 _symmetry_equiv_pos_site_id
 _symmetry_equiv_pos_as_xyz
  1  'x, y, z'
loop_
 _atom_site_type_symbol
 _atom_site_label
 _atom_site_symmetry_multiplicity
 _atom_site_fract_x
 _atom_site_fract_y
 _atom_site_fract_z
 _atom_site_occupancy
  Ti  Ti0  1  0.32144976  0.17855024  0.50000000  1.0
  Ti  Ti1  1  0.82144976  0.32144976  0.50000000  1.0
  Ti  Ti2  1  0.67855024  0.82144976  0.50000000  1.0
  Ti  Ti3  1  0.17855024  0.67855024  0.50000000  1.0
  In  In4  1  0.43570255  0.70754768  0.00000000  1.0
  In  In5  1  0.93570255  0.79245232  0.00000000  1.0
  In  In6  1  0.29245232  0.43570255  0.00000000  1.0
  In  In7  1  0.79245232  0.06429745  0.00000000  1.0
  In  In8  1  0.56429745  0.29245232  0.00000000  1.0
  In  In9  1  0.06429745  0.20754768  0.00000000  1.0
  In  In10  1  0.70754768  0.56429745  0.00000000  1.0
  In  In11  1  0.20754768  0.93570255  0.00000000  1.0
  In  In12  1  0.50000000  0.00000000  0.00000000  1.0
  In  In13  1  0.00000000  0.50000000  0.00000000  1.0
