# generated using pymatgen
data_Y(PO3)3
_symmetry_space_group_name_H-M   'P 1'
_cell_length_a   7.10746600
_cell_length_b   9.80999997
_cell_length_c   11.16918807
_cell_angle_alpha   90.00000000
_cell_angle_beta   92.28596171
_cell_angle_gamma   90.00000000
_symmetry_Int_Tables_number   1
_chemical_formula_structural   Y(PO3)3
_chemical_formula_sum   'Y4 P12 O36'
_cell_volume   778.14342274
_cell_formula_units_Z   4
loop_
 _symmetry_equiv_pos_site_id
 _symmetry_equiv_pos_as_xyz
  1  'x, y, z'
loop_
 _atom_site_type_symbol
 _atom_site_label
 _atom_site_symmetry_multiplicity
 _atom_site_fract_x
 _atom_site_fract_y
 _atom_site_fract_z
 _atom_site_occupancy
  Y  Y0  1  0.80953344  0.25000000  0.97915841  1.0
  Y  Y1  1  0.19046656  0.75000000  0.02084159  1.0
  Y  Y2  1  0.31869719  0.75000000  0.53896892  1.0
  Y  Y3  1  0.68130281  0.25000000  0.46103108  1.0
  P  P4  1  0.76995523  0.48865284  0.23009431  1.0
  P  P5  1  0.23004477  0.98865284  0.76990569  1.0
  P  P6  1  0.23004477  0.51134716  0.76990569  1.0
  P  P7  1  0.76995523  0.01134716  0.23009431  1.0
  P  P8  1  0.17545953  0.53398904  0.28472108  1.0
  P  P9  1  0.82454047  0.03398904  0.71527892  1.0
  P  P10  1  0.82454047  0.46601096  0.71527892  1.0
  P  P11  1  0.17545953  0.96601096  0.28472108  1.0
  P  P12  1  0.19226355  0.25000000  0.37420005  1.0
  P  P13  1  0.80773645  0.75000000  0.62579995  1.0
  P  P14  1  0.68055238  0.75000000  0.10329465  1.0
  P  P15  1  0.31944762  0.25000000  0.89670535  1.0
  O  O16  1  0.22250938  0.59078492  0.16463579  1.0
  O  O17  1  0.77749062  0.09078492  0.83536421  1.0
  O  O18  1  0.77749062  0.40921508  0.83536421  1.0
  O  O19  1  0.22250938  0.90921508  0.16463579  1.0
  O  O20  1  0.82862976  0.41479184  0.11910122  1.0
  O  O21  1  0.17137024  0.91479184  0.88089878  1.0
  O  O22  1  0.17137024  0.58520816  0.88089878  1.0
  O  O23  1  0.82862976  0.08520816  0.11910122  1.0
  O  O24  1  0.27043240  0.59226450  0.39612857  1.0
  O  O25  1  0.72956760  0.09226450  0.60387143  1.0
  O  O26  1  0.72956760  0.40773550  0.60387143  1.0
  O  O27  1  0.27043240  0.90773550  0.39612857  1.0
  O  O28  1  0.95195822  0.54945347  0.30375747  1.0
  O  O29  1  0.04804178  0.04945347  0.69624253  1.0
  O  O30  1  0.04804178  0.45054653  0.69624253  1.0
  O  O31  1  0.95195822  0.95054653  0.30375747  1.0
  O  O32  1  0.65544299  0.41202505  0.31824557  1.0
  O  O33  1  0.34455701  0.91202505  0.68175443  1.0
  O  O34  1  0.34455701  0.58797495  0.68175443  1.0
  O  O35  1  0.65544299  0.08797495  0.31824557  1.0
  O  O36  1  0.63717543  0.75000000  0.54105898  1.0
  O  O37  1  0.36282457  0.25000000  0.45894102  1.0
  O  O38  1  0.48896404  0.25000000  0.98188272  1.0
  O  O39  1  0.51103596  0.75000000  0.01811728  1.0
  O  O40  1  0.00030225  0.75000000  0.57399664  1.0
  O  O41  1  0.99969775  0.25000000  0.42600336  1.0
  O  O42  1  0.12469422  0.25000000  0.94522044  1.0
  O  O43  1  0.87530578  0.75000000  0.05477956  1.0
  O  O44  1  0.20889695  0.37209428  0.27745780  1.0
  O  O45  1  0.79110305  0.87209428  0.72254220  1.0
  O  O46  1  0.79110305  0.62790572  0.72254220  1.0
  O  O47  1  0.20889695  0.12790572  0.27745780  1.0
  O  O48  1  0.65471945  0.62472038  0.19591558  1.0
  O  O49  1  0.34528055  0.12472038  0.80408442  1.0
  O  O50  1  0.34528055  0.37527962  0.80408442  1.0
  O  O51  1  0.65471945  0.87527962  0.19591558  1.0
