# generated using pymatgen
data_Al2BiS4
_symmetry_space_group_name_H-M   'P 1'
_cell_length_a   7.70003810
_cell_length_b   7.70003810
_cell_length_c   12.03237790
_cell_angle_alpha   90.00000000
_cell_angle_beta   90.00000000
_cell_angle_gamma   90.00000000
_symmetry_Int_Tables_number   1
_chemical_formula_structural   Al2BiS4
_chemical_formula_sum   'Al8 Bi4 S16'
_cell_volume   713.40674481
_cell_formula_units_Z   4
loop_
 _symmetry_equiv_pos_site_id
 _symmetry_equiv_pos_as_xyz
  1  'x, y, z'
loop_
 _atom_site_type_symbol
 _atom_site_label
 _atom_site_symmetry_multiplicity
 _atom_site_fract_x
 _atom_site_fract_y
 _atom_site_fract_z
 _atom_site_occupancy
  Al  Al0  1  0.00000000  0.50000000  0.75000000  1.0
  Al  Al1  1  0.00000000  0.50000000  0.25000000  1.0
  Al  Al2  1  0.50000000  0.00000000  0.75000000  1.0
  Al  Al3  1  0.50000000  0.00000000  0.25000000  1.0
  Al  Al4  1  0.00000000  0.50000000  0.00000000  1.0
  Al  Al5  1  0.50000000  0.00000000  0.50000000  1.0
  Al  Al6  1  0.50000000  0.00000000  0.00000000  1.0
  Al  Al7  1  0.00000000  0.50000000  0.50000000  1.0
  Bi  Bi8  1  0.50000000  0.50000000  0.63069729  1.0
  Bi  Bi9  1  0.50000000  0.50000000  0.36930271  1.0
  Bi  Bi10  1  0.00000000  0.00000000  0.86930271  1.0
  Bi  Bi11  1  0.00000000  0.00000000  0.13069729  1.0
  S  S12  1  0.65348918  0.16136080  0.62494866  1.0
  S  S13  1  0.34651082  0.83863920  0.62494866  1.0
  S  S14  1  0.34651082  0.16136080  0.37505134  1.0
  S  S15  1  0.65348918  0.83863920  0.37505134  1.0
  S  S16  1  0.84651082  0.33863920  0.87505134  1.0
  S  S17  1  0.15348918  0.66136080  0.87505134  1.0
  S  S18  1  0.15348918  0.33863920  0.12494866  1.0
  S  S19  1  0.84651082  0.66136080  0.12494866  1.0
  S  S20  1  0.16136080  0.65348918  0.37505134  1.0
  S  S21  1  0.83863920  0.34651082  0.37505134  1.0
  S  S22  1  0.16136080  0.34651082  0.62494866  1.0
  S  S23  1  0.83863920  0.65348918  0.62494866  1.0
  S  S24  1  0.33863920  0.84651082  0.12494866  1.0
  S  S25  1  0.66136080  0.15348918  0.12494866  1.0
  S  S26  1  0.33863920  0.15348918  0.87505134  1.0
  S  S27  1  0.66136080  0.84651082  0.87505134  1.0
