# generated using pymatgen
data_ZnS
_symmetry_space_group_name_H-M   'P 1'
_cell_length_a   3.84996934
_cell_length_b   3.84996934
_cell_length_c   62.92323562
_cell_angle_alpha   90.00000000
_cell_angle_beta   90.00000000
_cell_angle_gamma   120.00000000
_symmetry_Int_Tables_number   1
_chemical_formula_structural   ZnS
_chemical_formula_sum   'Zn20 S20'
_cell_volume   807.71141227
_cell_formula_units_Z   20
loop_
 _symmetry_equiv_pos_site_id
 _symmetry_equiv_pos_as_xyz
  1  'x, y, z'
loop_
 _atom_site_type_symbol
 _atom_site_label
 _atom_site_symmetry_multiplicity
 _atom_site_fract_x
 _atom_site_fract_y
 _atom_site_fract_z
 _atom_site_occupancy
  Zn  Zn0  1  -0.00000000  -0.00000000  0.00001147  1.0
  Zn  Zn1  1  0.33333333  0.66666667  0.05006297  1.0
  Zn  Zn2  1  0.66666667  0.33333333  0.10003034  1.0
  Zn  Zn3  1  -0.00000000  -0.00000000  0.15001130  1.0
  Zn  Zn4  1  0.33333333  0.66666667  0.20000489  1.0
  Zn  Zn5  1  0.66666667  0.33333333  0.24999614  1.0
  Zn  Zn6  1  0.00000000  0.00000000  0.29997306  1.0
  Zn  Zn7  1  0.33333333  0.66666667  0.34995404  1.0
  Zn  Zn8  1  0.66666667  0.33333333  0.40000583  1.0
  Zn  Zn9  1  0.33333333  0.66666667  0.45006312  1.0
  Zn  Zn10  1  -0.00000000  -0.00000000  0.50003098  1.0
  Zn  Zn11  1  0.66666667  0.33333333  0.55001078  1.0
  Zn  Zn12  1  0.33333333  0.66666667  0.59999741  1.0
  Zn  Zn13  1  -0.00000000  -0.00000000  0.64997234  1.0
  Zn  Zn14  1  0.66666667  0.33333333  0.69994430  1.0
  Zn  Zn15  1  0.33333333  0.66666667  0.74997372  1.0
  Zn  Zn16  1  0.66666667  0.33333333  0.80001148  1.0
  Zn  Zn17  1  0.00000000  0.00000000  0.85002372  1.0
  Zn  Zn18  1  0.66666667  0.33333333  0.90003819  1.0
  Zn  Zn19  1  0.33333333  0.66666667  0.94998058  1.0
  S  S20  1  -0.00000000  -0.00000000  0.03755631  1.0
  S  S21  1  0.33333333  0.66666667  0.08753540  1.0
  S  S22  1  0.66666667  0.33333333  0.13751235  1.0
  S  S23  1  -0.00000000  -0.00000000  0.18749850  1.0
  S  S24  1  0.33333333  0.66666667  0.23749324  1.0
  S  S25  1  0.66666667  0.33333333  0.28747854  1.0
  S  S26  1  -0.00000000  -0.00000000  0.33745564  1.0
  S  S27  1  0.33333333  0.66666667  0.38743557  1.0
  S  S28  1  0.66666667  0.33333333  0.43755383  1.0
  S  S29  1  0.33333333  0.66666667  0.48753575  1.0
  S  S30  1  -0.00000000  -0.00000000  0.53751258  1.0
  S  S31  1  0.66666667  0.33333333  0.58749569  1.0
  S  S32  1  0.33333333  0.66666667  0.63747925  1.0
  S  S33  1  0.00000000  0.00000000  0.68745257  1.0
  S  S34  1  0.66666667  0.33333333  0.73741695  1.0
  S  S35  1  0.33333333  0.66666667  0.78751331  1.0
  S  S36  1  0.66666667  0.33333333  0.83747230  1.0
  S  S37  1  -0.00000000  -0.00000000  0.88755402  1.0
  S  S38  1  0.66666667  0.33333333  0.93749883  1.0
  S  S39  1  0.33333333  0.66666667  0.98745271  1.0
