# generated using pymatgen
data_Cs4CaNi3F12
_symmetry_space_group_name_H-M   'P 1'
_cell_length_a   10.81724197
_cell_length_b   10.81724197
_cell_length_c   10.81724197
_cell_angle_alpha   33.90172678
_cell_angle_beta   33.90172678
_cell_angle_gamma   33.90172679
_symmetry_Int_Tables_number   1
_chemical_formula_structural   Cs4CaNi3F12
_chemical_formula_sum   'Cs4 Ca1 Ni3 F12'
_cell_volume   350.95399780
_cell_formula_units_Z   1
loop_
 _symmetry_equiv_pos_site_id
 _symmetry_equiv_pos_as_xyz
  1  'x, y, z'
loop_
 _atom_site_type_symbol
 _atom_site_label
 _atom_site_symmetry_multiplicity
 _atom_site_fract_x
 _atom_site_fract_y
 _atom_site_fract_z
 _atom_site_occupancy
  Cs  Cs0  1  0.78505032  0.78505032  0.78505032  1.0
  Cs  Cs1  1  1.21494968  1.21494968  0.21494968  1.0
  Cs  Cs2  1  1.63055890  0.63055890  0.63055890  1.0
  Cs  Cs3  1  1.36944110  0.36944110  0.36944110  1.0
  Ca  Ca4  1  1.50000000  0.50000000  0.50000000  1.0
  F  F5  1  1.28362980  1.28362980  -0.19267621  1.0
  F  F6  1  1.28362980  0.80732379  0.28362980  1.0
  F  F7  1  1.19267621  0.71637020  0.71637020  1.0
  F  F8  1  1.71637020  0.19267621  0.71637020  1.0
  F  F9  1  1.71637020  0.71637020  0.19267621  1.0
  F  F10  1  0.80732379  1.28362980  0.28362980  1.0
  F  F11  1  1.09689034  1.09689034  0.67506921  1.0
  F  F12  1  1.09689034  1.67506921  0.09689034  1.0
  F  F13  1  1.32493079  0.90310966  -0.09689034  1.0
  F  F14  1  0.90310966  1.32493079  -0.09689034  1.0
  F  F15  1  0.90310966  0.90310966  0.32493079  1.0
  F  F16  1  1.67506921  1.09689034  0.09689034  1.0
  Ni  Ni17  1  -0.00000000  -0.00000000  0.00000000  1.0
  Ni  Ni18  1  0.91023741  0.91023741  0.91023741  1.0
  Ni  Ni19  1  1.08976259  1.08976259  0.08976259  1.0
