# generated using pymatgen
data_V3(CuS2)4
_symmetry_space_group_name_H-M   'P 1'
_cell_length_a   7.33507093
_cell_length_b   7.33507093
_cell_length_c   7.28938647
_cell_angle_alpha   59.90300354
_cell_angle_beta   120.09699646
_cell_angle_gamma   120.05834882
_symmetry_Int_Tables_number   1
_chemical_formula_structural   V3(CuS2)4
_chemical_formula_sum   'V3 Cu4 S8'
_cell_volume   276.79294895
_cell_formula_units_Z   1
loop_
 _symmetry_equiv_pos_site_id
 _symmetry_equiv_pos_as_xyz
  1  'x, y, z'
loop_
 _atom_site_type_symbol
 _atom_site_label
 _atom_site_symmetry_multiplicity
 _atom_site_fract_x
 _atom_site_fract_y
 _atom_site_fract_z
 _atom_site_occupancy
  S  S0  1  0.44596665  0.01987216  0.40611220  1.0
  S  S1  1  0.98012784  0.55403335  0.40611220  1.0
  S  S2  1  0.46572703  0.53427297  0.39762026  1.0
  S  S3  1  -0.01971699  0.01971699  0.40529989  1.0
  S  S4  1  -0.05519881  0.05519881  -0.16804157  1.0
  S  S5  1  0.46695946  0.01176722  0.92055946  1.0
  S  S6  1  0.98823278  0.53304054  0.92055946  1.0
  S  S7  1  1.46696364  -0.46696364  0.92076205  1.0
  Cu  Cu8  1  1.85152779  -0.31144762  1.01302711  1.0
  Cu  Cu9  1  1.31144762  -0.85152779  1.01302711  1.0
  Cu  Cu10  1  0.85154174  0.14845826  1.01258526  1.0
  Cu  Cu11  1  0.23029919  -0.23029919  0.68874998  1.0
  V  V12  1  1.60308854  -0.08038309  0.28582471  1.0
  V  V13  1  1.08038309  -0.60308854  0.28582471  1.0
  V  V14  1  0.60265045  0.39734955  0.28597716  1.0
