# generated using pymatgen
data_K2MnV2O7
_symmetry_space_group_name_H-M   'P 1'
_cell_length_a   8.63299038
_cell_length_b   8.63299038
_cell_length_c   5.64488277
_cell_angle_alpha   90.00000000
_cell_angle_beta   90.00000000
_cell_angle_gamma   90.00000000
_symmetry_Int_Tables_number   1
_chemical_formula_structural   K2MnV2O7
_chemical_formula_sum   'K4 Mn2 V4 O14'
_cell_volume   420.70477424
_cell_formula_units_Z   2
loop_
 _symmetry_equiv_pos_site_id
 _symmetry_equiv_pos_as_xyz
  1  'x, y, z'
loop_
 _atom_site_type_symbol
 _atom_site_label
 _atom_site_symmetry_multiplicity
 _atom_site_fract_x
 _atom_site_fract_y
 _atom_site_fract_z
 _atom_site_occupancy
  K  K0  1  0.83773224  0.33773224  0.48923138  1.0
  K  K1  1  0.66226776  0.83773224  0.51076862  1.0
  K  K2  1  0.16226776  0.66226776  0.48923138  1.0
  K  K3  1  0.33773224  0.16226776  0.51076862  1.0
  Mn  Mn4  1  0.50000000  0.50000000  0.00000000  1.0
  Mn  Mn5  1  0.00000000  0.00000000  0.00000000  1.0
  V  V6  1  0.35961164  0.85961164  0.05192149  1.0
  V  V7  1  0.14038836  0.35961164  0.94807851  1.0
  V  V8  1  0.64038836  0.14038836  0.05192149  1.0
  V  V9  1  0.85961164  0.64038836  0.94807851  1.0
  O  O10  1  0.31753856  0.41175650  0.83093075  1.0
  O  O11  1  0.18246144  0.91175650  0.16906925  1.0
  O  O12  1  0.58824350  0.31753856  0.16906925  1.0
  O  O13  1  0.91175650  0.81753856  0.83093075  1.0
  O  O14  1  0.68246144  0.58824350  0.83093075  1.0
  O  O15  1  0.81753856  0.08824350  0.16906925  1.0
  O  O16  1  0.41175650  0.68246144  0.16906925  1.0
  O  O17  1  0.08824350  0.18246144  0.83093075  1.0
  O  O18  1  0.35596104  0.85596104  0.75765533  1.0
  O  O19  1  0.14403896  0.35596104  0.24234467  1.0
  O  O20  1  0.64403896  0.14403896  0.75765533  1.0
  O  O21  1  0.85596104  0.64403896  0.24234467  1.0
  O  O22  1  0.00000000  0.50000000  0.84270909  1.0
  O  O23  1  0.50000000  0.00000000  0.15729091  1.0
