# generated using pymatgen
data_Rb2MoS3O
_symmetry_space_group_name_H-M   'P 1'
_cell_length_a   9.59843877
_cell_length_b   7.36894771
_cell_length_c   11.86718286
_cell_angle_alpha   90.00000000
_cell_angle_beta   90.00000000
_cell_angle_gamma   90.00000000
_symmetry_Int_Tables_number   1
_chemical_formula_structural   Rb2MoS3O
_chemical_formula_sum   'Rb8 Mo4 S12 O4'
_cell_volume   839.37051308
_cell_formula_units_Z   4
loop_
 _symmetry_equiv_pos_site_id
 _symmetry_equiv_pos_as_xyz
  1  'x, y, z'
loop_
 _atom_site_type_symbol
 _atom_site_label
 _atom_site_symmetry_multiplicity
 _atom_site_fract_x
 _atom_site_fract_y
 _atom_site_fract_z
 _atom_site_occupancy
  Rb  Rb0  1  0.04343634  0.75000000  0.68993854  1.0
  Rb  Rb1  1  0.54343634  0.75000000  0.81006146  1.0
  Rb  Rb2  1  0.95656366  0.25000000  0.31006146  1.0
  Rb  Rb3  1  0.45656366  0.25000000  0.18993854  1.0
  Rb  Rb4  1  0.84008211  0.75000000  0.12069554  1.0
  Rb  Rb5  1  0.34008211  0.75000000  0.37930446  1.0
  Rb  Rb6  1  0.15991789  0.25000000  0.87930446  1.0
  Rb  Rb7  1  0.65991789  0.25000000  0.62069554  1.0
  Mo  Mo8  1  0.76115918  0.75000000  0.44954192  1.0
  Mo  Mo9  1  0.26115918  0.75000000  0.05045808  1.0
  Mo  Mo10  1  0.23884082  0.25000000  0.55045808  1.0
  Mo  Mo11  1  0.73884082  0.25000000  0.94954192  1.0
  S  S12  1  0.65894690  0.99359566  0.37773907  1.0
  S  S13  1  0.65894690  0.50640434  0.37773907  1.0
  S  S14  1  0.15894690  0.99359566  0.12226093  1.0
  S  S15  1  0.15894690  0.50640434  0.12226093  1.0
  S  S16  1  0.34105310  0.49359566  0.62226093  1.0
  S  S17  1  0.34105310  0.00640434  0.62226093  1.0
  S  S18  1  0.84105310  0.49359566  0.87773907  1.0
  S  S19  1  0.84105310  0.00640434  0.87773907  1.0
  S  S20  1  0.98334746  0.75000000  0.40002208  1.0
  S  S21  1  0.48334746  0.75000000  0.09997792  1.0
  S  S22  1  0.01665254  0.25000000  0.59997792  1.0
  S  S23  1  0.51665254  0.25000000  0.90002208  1.0
  O  O24  1  0.74659781  0.75000000  0.59613063  1.0
  O  O25  1  0.24659781  0.75000000  0.90386937  1.0
  O  O26  1  0.25340219  0.25000000  0.40386937  1.0
  O  O27  1  0.75340219  0.25000000  0.09613063  1.0
