# generated using pymatgen
data_InPO4
_symmetry_space_group_name_H-M   'P 1'
_cell_length_a   4.89624645
_cell_length_b   4.89624645
_cell_length_c   6.93409786
_cell_angle_alpha   90.00000000
_cell_angle_beta   90.00000000
_cell_angle_gamma   113.23921354
_symmetry_Int_Tables_number   1
_chemical_formula_structural   InPO4
_chemical_formula_sum   'In2 P2 O8'
_cell_volume   152.74551063
_cell_formula_units_Z   2
loop_
 _symmetry_equiv_pos_site_id
 _symmetry_equiv_pos_as_xyz
  1  'x, y, z'
loop_
 _atom_site_type_symbol
 _atom_site_label
 _atom_site_symmetry_multiplicity
 _atom_site_fract_x
 _atom_site_fract_y
 _atom_site_fract_z
 _atom_site_occupancy
  In  In0  1  0.00000000  0.00000000  0.50000000  1.0
  In  In1  1  0.00000000  0.00000000  0.00000000  1.0
  P  P2  1  0.34947663  0.65052337  0.25000000  1.0
  P  P3  1  -0.34947663  1.34947663  0.75000000  1.0
  O  O4  1  0.22427550  0.29774269  0.25000000  1.0
  O  O5  1  -0.70225731  1.22427550  0.75000000  1.0
  O  O6  1  0.70225731  0.77572450  0.25000000  1.0
  O  O7  1  -0.22427550  1.70225731  0.75000000  1.0
  O  O8  1  0.25137521  0.74862479  0.43823363  1.0
  O  O9  1  0.25137521  0.74862479  0.06176637  1.0
  O  O10  1  -0.25137521  1.25137521  0.93823363  1.0
  O  O11  1  -0.25137521  1.25137521  0.56176637  1.0
