# generated using pymatgen
data_Na2BeF4
_symmetry_space_group_name_H-M   'P 1'
_cell_length_a   11.14786746
_cell_length_b   6.67420705
_cell_length_c   4.97248467
_cell_angle_alpha   90.00000000
_cell_angle_beta   90.00000000
_cell_angle_gamma   90.00000000
_symmetry_Int_Tables_number   1
_chemical_formula_structural   Na2BeF4
_chemical_formula_sum   'Na8 Be4 F16'
_cell_volume   369.96864985
_cell_formula_units_Z   4
loop_
 _symmetry_equiv_pos_site_id
 _symmetry_equiv_pos_as_xyz
  1  'x, y, z'
loop_
 _atom_site_type_symbol
 _atom_site_label
 _atom_site_symmetry_multiplicity
 _atom_site_fract_x
 _atom_site_fract_y
 _atom_site_fract_z
 _atom_site_occupancy
  Na  Na0  1  0.77982968  0.25000000  0.51102390  1.0
  Na  Na1  1  0.27982968  0.25000000  0.98897610  1.0
  Na  Na2  1  0.22017032  0.75000000  0.48897610  1.0
  Na  Na3  1  0.72017032  0.75000000  0.01102390  1.0
  Na  Na4  1  -0.00000000  0.50000000  0.00000000  1.0
  Na  Na5  1  -0.00000000  0.00000000  -0.00000000  1.0
  Na  Na6  1  0.50000000  0.50000000  0.50000000  1.0
  Na  Na7  1  0.50000000  -0.00000000  0.50000000  1.0
  Be  Be8  1  0.59595091  0.25000000  0.07398369  1.0
  Be  Be9  1  0.09595091  0.25000000  0.42601631  1.0
  Be  Be10  1  0.40404909  0.75000000  0.92601631  1.0
  Be  Be11  1  0.90404909  0.75000000  0.57398369  1.0
  F  F12  1  0.66019092  0.44009994  0.19569978  1.0
  F  F13  1  0.66019092  0.05990006  0.19569978  1.0
  F  F14  1  0.16019092  0.44009994  0.30430022  1.0
  F  F15  1  0.16019092  0.05990006  0.30430022  1.0
  F  F16  1  0.33980908  0.94009994  0.80430022  1.0
  F  F17  1  0.33980908  0.55990006  0.80430022  1.0
  F  F18  1  0.83980908  0.94009994  0.69569978  1.0
  F  F19  1  0.83980908  0.55990006  0.69569978  1.0
  F  F20  1  0.96395500  0.25000000  0.30455506  1.0
  F  F21  1  0.46395500  0.25000000  0.19544494  1.0
  F  F22  1  0.03604500  0.75000000  0.69544494  1.0
  F  F23  1  0.53604500  0.75000000  0.80455506  1.0
  F  F24  1  0.59389652  0.25000000  0.76040299  1.0
  F  F25  1  0.09389652  0.25000000  0.73959701  1.0
  F  F26  1  0.40610348  0.75000000  0.23959701  1.0
  F  F27  1  0.90610348  0.75000000  0.26040299  1.0
