# generated using pymatgen
data_FeSeO5
_symmetry_space_group_name_H-M   'P 1'
_cell_length_a   6.13309319
_cell_length_b   8.42275705
_cell_length_c   9.07682266
_cell_angle_alpha   90.00000000
_cell_angle_beta   126.62019811
_cell_angle_gamma   90.00000000
_symmetry_Int_Tables_number   1
_chemical_formula_structural   FeSeO5
_chemical_formula_sum   'Fe4 Se4 O20'
_cell_volume   376.33166542
_cell_formula_units_Z   4
loop_
 _symmetry_equiv_pos_site_id
 _symmetry_equiv_pos_as_xyz
  1  'x, y, z'
loop_
 _atom_site_type_symbol
 _atom_site_label
 _atom_site_symmetry_multiplicity
 _atom_site_fract_x
 _atom_site_fract_y
 _atom_site_fract_z
 _atom_site_occupancy
  Fe  Fe0  1  0.80740853  0.34276894  0.44672510  1.0
  Fe  Fe1  1  0.80740853  0.15723106  0.94672510  1.0
  Fe  Fe2  1  0.19259147  0.84276894  0.05327490  1.0
  Fe  Fe3  1  0.19259147  0.65723106  0.55327490  1.0
  O  O4  1  0.91690637  0.68363144  0.26978921  1.0
  O  O5  1  0.91690637  0.81636856  0.76978921  1.0
  O  O6  1  0.08309363  0.18363144  0.23021079  1.0
  O  O7  1  0.08309363  0.31636856  0.73021079  1.0
  O  O8  1  0.87492269  0.91447238  0.04227715  1.0
  O  O9  1  0.87492269  0.58552762  0.54227715  1.0
  O  O10  1  0.12507731  0.41447238  0.45772285  1.0
  O  O11  1  0.12507731  0.08552762  0.95772285  1.0
  O  O12  1  0.58322942  0.41048929  0.24094796  1.0
  O  O13  1  0.58322942  0.08951071  0.74094796  1.0
  O  O14  1  0.41677058  0.91048929  0.25905204  1.0
  O  O15  1  0.41677058  0.58951071  0.75905204  1.0
  O  O16  1  0.84797075  0.15579375  0.42859078  1.0
  O  O17  1  0.84797075  0.34420625  0.92859078  1.0
  O  O18  1  0.15202925  0.65579375  0.07140922  1.0
  O  O19  1  0.15202925  0.84420625  0.57140922  1.0
  O  O20  1  0.54951523  0.32536553  0.49411925  1.0
  O  O21  1  0.54951523  0.17463447  0.99411925  1.0
  O  O22  1  0.45048477  0.82536553  0.00588075  1.0
  O  O23  1  0.45048477  0.67463447  0.50588075  1.0
  Se  Se24  1  0.78895206  0.86967575  0.19544048  1.0
  Se  Se25  1  0.78895206  0.63032425  0.69544048  1.0
  Se  Se26  1  0.21104794  0.36967575  0.30455952  1.0
  Se  Se27  1  0.21104794  0.13032425  0.80455952  1.0
