# generated using pymatgen
data_Li2MnO3
_symmetry_space_group_name_H-M   'P 1'
_cell_length_a   4.94972830
_cell_length_b   4.94972830
_cell_length_c   9.64677300
_cell_angle_alpha   85.24672337
_cell_angle_beta   94.75327663
_cell_angle_gamma   60.08576281
_symmetry_Int_Tables_number   1
_chemical_formula_structural   Li2MnO3
_chemical_formula_sum   'Li8 Mn4 O12'
_cell_volume   202.03109492
_cell_formula_units_Z   4
loop_
 _symmetry_equiv_pos_site_id
 _symmetry_equiv_pos_as_xyz
  1  'x, y, z'
loop_
 _atom_site_type_symbol
 _atom_site_label
 _atom_site_symmetry_multiplicity
 _atom_site_fract_x
 _atom_site_fract_y
 _atom_site_fract_z
 _atom_site_occupancy
  Li  Li0  1  1.66181143  0.16203512  0.49995944  1.0
  Li  Li1  1  0.83796488  -0.66181143  0.99995944  1.0
  Li  Li2  1  1.16203512  0.66181143  0.00004056  1.0
  Li  Li3  1  0.33818857  -0.16203512  0.50004056  1.0
  Li  Li4  1  1.25003216  0.25003216  0.25000000  1.0
  Li  Li5  1  0.74996784  -0.25003216  0.75000000  1.0
  Li  Li6  1  1.50000000  -0.00000000  -0.00000000  1.0
  Li  Li7  1  1.00000000  -0.50000000  0.50000000  1.0
  Mn  Mn8  1  0.91721187  -0.08278813  0.25000000  1.0
  Mn  Mn9  1  1.08278813  0.08278813  0.75000000  1.0
  Mn  Mn10  1  0.58286605  -0.41713395  0.25000000  1.0
  Mn  Mn11  1  1.41713395  0.41713395  0.75000000  1.0
  O  O12  1  1.78633274  0.07126481  0.86165937  1.0
  O  O13  1  0.92873519  -0.78633274  0.36165937  1.0
  O  O14  1  1.07126481  0.78633274  0.63834063  1.0
  O  O15  1  0.21366726  -0.07126481  0.13834063  1.0
  O  O16  1  0.64506732  -0.14500290  0.36355693  1.0
  O  O17  1  1.14500290  0.35493268  0.86355693  1.0
  O  O18  1  0.85499710  -0.35493268  0.13644307  1.0
  O  O19  1  1.35493268  0.14500290  0.63644307  1.0
  O  O20  1  1.57132249  0.28640704  0.13832332  1.0
  O  O21  1  0.71359296  -0.57132249  0.63832332  1.0
  O  O22  1  1.28640704  0.57132249  0.36167668  1.0
  O  O23  1  0.42867751  -0.28640704  0.86167668  1.0
