# generated using pymatgen
data_FeTe6O13
_symmetry_space_group_name_H-M   'P 1'
_cell_length_a   8.81293934
_cell_length_b   8.81293934
_cell_length_c   8.81293934
_cell_angle_alpha   71.99484649
_cell_angle_beta   71.99484649
_cell_angle_gamma   71.99484649
_symmetry_Int_Tables_number   1
_chemical_formula_structural   FeTe6O13
_chemical_formula_sum   'Fe2 Te12 O26'
_cell_volume   601.57907369
_cell_formula_units_Z   2
loop_
 _symmetry_equiv_pos_site_id
 _symmetry_equiv_pos_as_xyz
  1  'x, y, z'
loop_
 _atom_site_type_symbol
 _atom_site_label
 _atom_site_symmetry_multiplicity
 _atom_site_fract_x
 _atom_site_fract_y
 _atom_site_fract_z
 _atom_site_occupancy
  Fe  Fe0  1  0.74416677  0.74416677  -0.25583323  1.0
  Fe  Fe1  1  1.25583323  1.25583323  0.25583323  1.0
  Te  Te2  1  0.52978612  0.41856674  -0.17242918  1.0
  Te  Te3  1  0.58143326  0.17242918  -0.52978612  1.0
  Te  Te4  1  0.17242918  0.47021388  -0.41856674  1.0
  Te  Te5  1  0.47021388  0.58143326  -0.82757082  1.0
  Te  Te6  1  0.41856674  0.82757082  -0.47021388  1.0
  Te  Te7  1  0.82757082  0.52978612  -0.58143326  1.0
  Te  Te8  1  0.66667962  -0.01169968  0.06397638  1.0
  Te  Te9  1  1.01169968  -0.06397638  -0.66667962  1.0
  Te  Te10  1  0.93602362  -0.66667962  0.01169968  1.0
  Te  Te11  1  0.33332038  0.01169968  -0.06397638  1.0
  Te  Te12  1  0.98830032  0.06397638  -0.33332038  1.0
  Te  Te13  1  1.06397638  -0.33332038  -0.01169968  1.0
  O  O14  1  0.38063718  0.62449076  -0.29438636  1.0
  O  O15  1  0.37550924  0.29438636  -0.38063718  1.0
  O  O16  1  0.29438636  0.61936282  -0.62449076  1.0
  O  O17  1  0.61936282  0.37550924  -0.70561364  1.0
  O  O18  1  0.62449076  0.70561364  -0.61936282  1.0
  O  O19  1  0.70561364  0.38063718  -0.37550924  1.0
  O  O20  1  0.60286189  0.91383112  -0.09983324  1.0
  O  O21  1  1.08616888  1.09983324  0.39713811  1.0
  O  O22  1  1.09983324  1.39713811  0.08616888  1.0
  O  O23  1  1.39713811  1.08616888  0.09983324  1.0
  O  O24  1  0.91383112  0.90016676  -0.39713811  1.0
  O  O25  1  0.90016676  0.60286189  -0.08616888  1.0
  O  O26  1  0.63636081  0.54987465  -0.11214344  1.0
  O  O27  1  1.45012535  1.11214344  0.36363919  1.0
  O  O28  1  1.11214344  1.36363919  0.45012535  1.0
  O  O29  1  1.36363919  1.45012535  0.11214344  1.0
  O  O30  1  0.54987465  0.88785656  -0.36363919  1.0
  O  O31  1  0.88785656  0.63636081  -0.45012535  1.0
  O  O32  1  0.70273864  0.20608849  -0.05236832  1.0
  O  O33  1  0.79391151  0.05236832  -0.70273864  1.0
  O  O34  1  0.05236832  0.29726136  -0.20608849  1.0
  O  O35  1  0.29726136  0.79391151  -0.94763168  1.0
  O  O36  1  1.20608849  -0.05236832  -0.29726136  1.0
  O  O37  1  0.94763168  -0.29726136  0.20608849  1.0
  O  O38  1  0.91513421  0.91513421  -0.08486579  1.0
  O  O39  1  1.08486579  1.08486579  0.08486579  1.0
