# generated using pymatgen
data_SrIrO3
_symmetry_space_group_name_H-M   'P 1'
_cell_length_a   5.52600534
_cell_length_b   5.52600534
_cell_length_c   14.43523408
_cell_angle_alpha   90.00028242
_cell_angle_beta   89.99971758
_cell_angle_gamma   61.81783250
_symmetry_Int_Tables_number   1
_chemical_formula_structural   SrIrO3
_chemical_formula_sum   'Sr6 Ir6 O18'
_cell_volume   388.54770838
_cell_formula_units_Z   6
loop_
 _symmetry_equiv_pos_site_id
 _symmetry_equiv_pos_as_xyz
  1  'x, y, z'
loop_
 _atom_site_type_symbol
 _atom_site_label
 _atom_site_symmetry_multiplicity
 _atom_site_fract_x
 _atom_site_fract_y
 _atom_site_fract_z
 _atom_site_occupancy
  O  O0  1  0.51302171  -0.48697829  0.25000000  1.0
  O  O1  1  1.48697829  0.48697829  0.75000000  1.0
  O  O2  1  0.97576432  -0.48156343  0.25001659  1.0
  O  O3  1  0.51843657  -0.02423568  0.24998341  1.0
  O  O4  1  1.02423568  0.48156343  0.74998341  1.0
  O  O5  1  1.48156343  0.02423568  0.75001659  1.0
  O  O6  1  0.27917922  -0.20127967  0.09816497  1.0
  O  O7  1  0.79872033  -0.72082078  0.40183503  1.0
  O  O8  1  1.72082078  0.20127967  0.90183503  1.0
  O  O9  1  1.20127967  0.72082078  0.59816497  1.0
  O  O10  1  0.79832609  -0.20203519  0.45734905  1.0
  O  O11  1  0.79796481  -0.20167391  0.04265095  1.0
  O  O12  1  1.20167391  0.20203519  0.54265095  1.0
  O  O13  1  1.20203519  0.20167391  0.95734905  1.0
  O  O14  1  0.79919353  -0.72094092  0.09823710  1.0
  O  O15  1  0.27905908  -0.20080647  0.40176290  1.0
  O  O16  1  1.20080647  0.72094092  0.90176290  1.0
  O  O17  1  1.72094092  0.20080647  0.59823710  1.0
  Ir  Ir18  1  0.00000000  0.00000000  0.00000000  1.0
  Ir  Ir19  1  -0.00000000  0.00000000  0.50000000  1.0
  Ir  Ir20  1  1.33921798  0.33922680  0.84808088  1.0
  Ir  Ir21  1  1.33922680  0.33921798  0.65191912  1.0
  Ir  Ir22  1  0.66078202  -0.33922680  0.15191912  1.0
  Ir  Ir23  1  0.66077320  -0.33921798  0.34808088  1.0
  Sr  Sr24  1  0.99160825  -0.00839175  0.25000000  1.0
  Sr  Sr25  1  1.00839175  0.00839175  0.75000000  1.0
  Sr  Sr26  1  1.32351506  0.32316640  0.10835028  1.0
  Sr  Sr27  1  1.32316640  0.32351506  0.39164972  1.0
  Sr  Sr28  1  0.67648494  -0.32316640  0.89164972  1.0
  Sr  Sr29  1  0.67683360  -0.32351506  0.60835028  1.0
