# generated using pymatgen
data_Sm2GaCo2
_symmetry_space_group_name_H-M   'P 1'
_cell_length_a   5.59333233
_cell_length_b   5.59333233
_cell_length_c   5.59333233
_cell_angle_alpha   136.40825955
_cell_angle_beta   123.57667273
_cell_angle_gamma   73.89946308
_symmetry_Int_Tables_number   1
_chemical_formula_structural   Sm2GaCo2
_chemical_formula_sum   'Sm2 Ga1 Co2'
_cell_volume   98.18534468
_cell_formula_units_Z   1
loop_
 _symmetry_equiv_pos_site_id
 _symmetry_equiv_pos_as_xyz
  1  'x, y, z'
loop_
 _atom_site_type_symbol
 _atom_site_label
 _atom_site_symmetry_multiplicity
 _atom_site_fract_x
 _atom_site_fract_y
 _atom_site_fract_z
 _atom_site_occupancy
  Sm  Sm0  1  0.70040163  0.20040163  0.50000000  1.0
  Sm  Sm1  1  0.29959837  0.79959837  0.50000000  1.0
  Ga  Ga2  1  0.00000000  0.00000000  0.00000000  1.0
  Co  Co3  1  0.27624362  0.50000000  0.77624362  1.0
  Co  Co4  1  0.72375638  0.50000000  1.22375638  1.0
