# generated using pymatgen
data_Ba12Na15Li8N6
_symmetry_space_group_name_H-M   'P 1'
_cell_length_a   13.08894683
_cell_length_b   13.08894683
_cell_length_c   13.08894683
_cell_angle_alpha   56.35358143
_cell_angle_beta   56.35358143
_cell_angle_gamma   56.35358143
_symmetry_Int_Tables_number   1
_chemical_formula_structural   Ba12Na15Li8N6
_chemical_formula_sum   'Ba12 Na15 Li8 N6'
_cell_volume   1451.88918803
_cell_formula_units_Z   1
loop_
 _symmetry_equiv_pos_site_id
 _symmetry_equiv_pos_as_xyz
  1  'x, y, z'
loop_
 _atom_site_type_symbol
 _atom_site_label
 _atom_site_symmetry_multiplicity
 _atom_site_fract_x
 _atom_site_fract_y
 _atom_site_fract_z
 _atom_site_occupancy
  Ba  Ba0  1  1.27215506  0.27215506  0.64031648  1.0
  Ba  Ba1  1  1.27215506  0.64031648  0.27215506  1.0
  Ba  Ba2  1  1.35968352  0.72784494  0.72784494  1.0
  Ba  Ba3  1  1.72784494  0.35968352  0.72784494  1.0
  Ba  Ba4  1  1.72784494  0.72784494  0.35968352  1.0
  Ba  Ba5  1  1.64031648  0.27215506  0.27215506  1.0
  Ba  Ba6  1  1.01970722  1.01970722  0.67888239  1.0
  Ba  Ba7  1  1.01970722  1.67888239  0.01970722  1.0
  Ba  Ba8  1  1.32111761  0.98029278  -0.01970722  1.0
  Ba  Ba9  1  0.98029278  1.32111761  -0.01970722  1.0
  Ba  Ba10  1  0.98029278  0.98029278  0.32111761  1.0
  Ba  Ba11  1  1.67888239  1.01970722  0.01970722  1.0
  Na  Na12  1  1.35353133  1.35353133  -0.14478244  1.0
  Na  Na13  1  1.35353133  0.85521756  0.35353133  1.0
  Na  Na14  1  1.14478244  0.64646867  0.64646867  1.0
  Na  Na15  1  1.64646867  0.14478244  0.64646867  1.0
  Na  Na16  1  1.64646867  0.64646867  0.14478244  1.0
  Na  Na17  1  0.85521756  1.35353133  0.35353133  1.0
  Na  Na18  1  1.39781437  1.39781437  0.08447824  1.0
  Na  Na19  1  1.39781437  1.08447824  0.39781437  1.0
  Na  Na20  1  0.91552176  0.60218563  0.60218563  1.0
  Na  Na21  1  1.60218563  -0.08447824  0.60218563  1.0
  Na  Na22  1  1.60218563  0.60218563  -0.08447824  1.0
  Na  Na23  1  1.08447824  1.39781437  0.39781437  1.0
  Na  Na24  1  0.79719114  0.79719114  0.79719114  1.0
  Na  Na25  1  1.20280886  1.20280886  0.20280886  1.0
  Na  Na26  1  1.50000000  0.50000000  0.50000000  1.0
  Li  Li27  1  0.79830051  0.00000000  -0.79830051  1.0
  Li  Li28  1  0.79830051  -0.79830051  0.00000000  1.0
  Li  Li29  1  0.00000000  0.79830051  -0.79830051  1.0
  Li  Li30  1  0.00000000  0.20169949  -0.20169949  1.0
  Li  Li31  1  0.20169949  0.00000000  -0.20169949  1.0
  Li  Li32  1  0.20169949  -0.20169949  0.00000000  1.0
  Li  Li33  1  0.96152753  0.96152753  0.96152753  1.0
  Li  Li34  1  1.03847247  1.03847247  0.03847247  1.0
  N  N35  1  1.14493569  1.14493569  -0.14414255  1.0
  N  N36  1  1.14493569  0.85585745  0.14493569  1.0
  N  N37  1  1.14414255  0.85506431  0.85506431  1.0
  N  N38  1  1.85506431  0.14414255  0.85506431  1.0
  N  N39  1  1.85506431  0.85506431  0.14414255  1.0
  N  N40  1  0.85585745  1.14493569  0.14493569  1.0
