# generated using pymatgen
data_RbHCO3
_symmetry_space_group_name_H-M   'P 1'
_cell_length_a   5.79059658
_cell_length_b   5.79059658
_cell_length_c   11.36141780
_cell_angle_alpha   77.29430236
_cell_angle_beta   102.70569764
_cell_angle_gamma   106.35265346
_symmetry_Int_Tables_number   1
_chemical_formula_structural   RbHCO3
_chemical_formula_sum   'Rb4 H4 C4 O12'
_cell_volume   351.47958390
_cell_formula_units_Z   4
loop_
 _symmetry_equiv_pos_site_id
 _symmetry_equiv_pos_as_xyz
  1  'x, y, z'
loop_
 _atom_site_type_symbol
 _atom_site_label
 _atom_site_symmetry_multiplicity
 _atom_site_fract_x
 _atom_site_fract_y
 _atom_site_fract_z
 _atom_site_occupancy
  Rb  Rb0  1  0.47800773  0.20045409  0.63327264  1.0
  Rb  Rb1  1  0.79954591  0.52199227  0.13327264  1.0
  Rb  Rb2  1  1.20045409  -0.52199227  0.86672736  1.0
  Rb  Rb3  1  1.52199227  -0.20045409  0.36672736  1.0
  H  H4  1  1.86698877  -0.07768035  0.84890732  1.0
  H  H5  1  1.07768035  -0.86698877  0.34890732  1.0
  H  H6  1  0.92231965  0.86698877  0.65109268  1.0
  H  H7  1  0.13301123  0.07768035  0.15109268  1.0
  C  C8  1  0.58633674  0.04092464  0.95000437  1.0
  C  C9  1  0.95907536  0.41366326  0.45000437  1.0
  C  C10  1  1.04092464  -0.41366326  0.54999563  1.0
  C  C11  1  1.41366326  -0.04092464  0.04999563  1.0
  O  O12  1  0.94759603  0.02430572  0.68425614  1.0
  O  O13  1  0.97569428  0.05240397  0.18425614  1.0
  O  O14  1  1.02430572  -0.05240397  0.81574386  1.0
  O  O15  1  1.05240397  -0.02430572  0.31574386  1.0
  O  O16  1  1.63563526  -0.13176235  0.91473577  1.0
  O  O17  1  1.13176235  -0.63563525  0.41473577  1.0
  O  O18  1  0.86823765  0.63563525  0.58526423  1.0
  O  O19  1  0.36436475  0.13176235  0.08526423  1.0
  O  O20  1  0.66029830  0.26558655  0.91170355  1.0
  O  O21  1  0.73441345  0.33970170  0.41170355  1.0
  O  O22  1  1.26558655  -0.33970170  0.58829645  1.0
  O  O23  1  1.33970170  -0.26558655  0.08829645  1.0
