# generated using pymatgen
data_HfPd2
_symmetry_space_group_name_H-M   'P 1'
_cell_length_a   5.00841706
_cell_length_b   5.00841706
_cell_length_c   5.00841706
_cell_angle_alpha   139.94847703
_cell_angle_beta   139.94847703
_cell_angle_gamma   57.93153722
_symmetry_Int_Tables_number   1
_chemical_formula_structural   HfPd2
_chemical_formula_sum   'Hf1 Pd2'
_cell_volume   51.55847303
_cell_formula_units_Z   1
loop_
 _symmetry_equiv_pos_site_id
 _symmetry_equiv_pos_as_xyz
  1  'x, y, z'
loop_
 _atom_site_type_symbol
 _atom_site_label
 _atom_site_symmetry_multiplicity
 _atom_site_fract_x
 _atom_site_fract_y
 _atom_site_fract_z
 _atom_site_occupancy
  Hf  Hf0  1  0.00000000  0.00000000  0.00000000  1.0
  Pd  Pd1  1  0.66117351  0.66117351  1.00000000  1.0
  Pd  Pd2  1  0.33882649  0.33882649  0.00000000  1.0
