# generated using pymatgen
data_Co(IO3)2
_symmetry_space_group_name_H-M   'P 1'
_cell_length_a   10.88574747
_cell_length_b   5.21363687
_cell_length_c   10.92077409
_cell_angle_alpha   90.00000000
_cell_angle_beta   119.15830569
_cell_angle_gamma   90.00000000
_symmetry_Int_Tables_number   1
_chemical_formula_structural   Co(IO3)2
_chemical_formula_sum   'Co4 I8 O24'
_cell_volume   541.25810360
_cell_formula_units_Z   4
loop_
 _symmetry_equiv_pos_site_id
 _symmetry_equiv_pos_as_xyz
  1  'x, y, z'
loop_
 _atom_site_type_symbol
 _atom_site_label
 _atom_site_symmetry_multiplicity
 _atom_site_fract_x
 _atom_site_fract_y
 _atom_site_fract_z
 _atom_site_occupancy
  Co  Co0  1  0.76028147  0.97198739  0.50782201  1.0
  Co  Co1  1  0.23971853  0.47198739  0.49217799  1.0
  Co  Co2  1  0.73969354  0.47208540  0.99214162  1.0
  Co  Co3  1  0.26030646  0.97208540  0.00785838  1.0
  I  I4  1  0.91514639  0.91093747  0.84830650  1.0
  I  I5  1  0.08485361  0.41093747  0.15169350  1.0
  I  I6  1  0.58488731  0.41094363  0.65169542  1.0
  I  I7  1  0.41511269  0.91094363  0.34830458  1.0
  I  I8  1  0.58638741  0.37828951  0.18558235  1.0
  I  I9  1  0.41361259  0.87828951  0.81441765  1.0
  I  I10  1  0.91358916  0.87831357  0.31440870  1.0
  I  I11  1  0.08641084  0.37831357  0.68559130  1.0
  O  O12  1  0.79350749  0.74125065  0.67534562  1.0
  O  O13  1  0.20649251  0.24125065  0.32465438  1.0
  O  O14  1  0.08779720  0.75610877  0.88036685  1.0
  O  O15  1  0.91220280  0.25610877  0.11963315  1.0
  O  O16  1  0.88652899  0.68733342  0.97390982  1.0
  O  O17  1  0.11347101  0.18733342  0.02609018  1.0
  O  O18  1  0.61350871  0.18738323  0.52609644  1.0
  O  O19  1  0.38649129  0.68738323  0.47390356  1.0
  O  O20  1  0.70650074  0.24127227  0.82466277  1.0
  O  O21  1  0.29349926  0.74127227  0.17533723  1.0
  O  O22  1  0.41226091  0.25605046  0.61965400  1.0
  O  O23  1  0.58773909  0.75605046  0.38034600  1.0
  O  O24  1  0.73603505  0.18466208  0.33448201  1.0
  O  O25  1  0.26396495  0.68466208  0.66551799  1.0
  O  O26  1  0.42458569  0.18098755  0.16051393  1.0
  O  O27  1  0.57541431  0.68098755  0.83948607  1.0
  O  O28  1  0.60397590  0.26090235  0.02942453  1.0
  O  O29  1  0.39602410  0.76090235  0.97057547  1.0
  O  O30  1  0.89591817  0.76073619  0.47048420  1.0
  O  O31  1  0.10408183  0.26073619  0.52951580  1.0
  O  O32  1  0.76391043  0.68482282  0.16550840  1.0
  O  O33  1  0.23608957  0.18482282  0.83449160  1.0
  O  O34  1  0.07533221  0.68083327  0.33946998  1.0
  O  O35  1  0.92466779  0.18083327  0.66053002  1.0
