# generated using pymatgen
data_Na2BeH4
_symmetry_space_group_name_H-M   'P 1'
_cell_length_a   5.06260285
_cell_length_b   4.98922108
_cell_length_c   6.81525092
_cell_angle_alpha   90.00000000
_cell_angle_beta   99.63888475
_cell_angle_gamma   90.00000000
_symmetry_Int_Tables_number   1
_chemical_formula_structural   Na2BeH4
_chemical_formula_sum   'Na4 Be2 H8'
_cell_volume   169.71243813
_cell_formula_units_Z   2
loop_
 _symmetry_equiv_pos_site_id
 _symmetry_equiv_pos_as_xyz
  1  'x, y, z'
loop_
 _atom_site_type_symbol
 _atom_site_label
 _atom_site_symmetry_multiplicity
 _atom_site_fract_x
 _atom_site_fract_y
 _atom_site_fract_z
 _atom_site_occupancy
  Na  Na0  1  0.74260482  0.75000000  0.53036575  1.0
  Na  Na1  1  0.25739518  0.25000000  0.46963425  1.0
  Na  Na2  1  0.72710541  0.75000000  0.02743335  1.0
  Na  Na3  1  0.27289459  0.25000000  0.97256665  1.0
  Be  Be4  1  0.28005521  0.75000000  0.22093708  1.0
  Be  Be5  1  0.71994479  0.25000000  0.77906292  1.0
  H  H6  1  0.06719431  0.75000000  0.33906658  1.0
  H  H7  1  0.93280569  0.25000000  0.66093342  1.0
  H  H8  1  0.45135471  0.52054510  0.26513273  1.0
  H  H9  1  0.54864529  0.02054510  0.73486727  1.0
  H  H10  1  0.54864529  0.47945490  0.73486727  1.0
  H  H11  1  0.45135471  0.97945490  0.26513273  1.0
  H  H12  1  0.81812230  0.25000000  0.98987214  1.0
  H  H13  1  0.18187770  0.75000000  0.01012786  1.0
