# generated using pymatgen
data_TlVH6SO9
_symmetry_space_group_name_H-M   'P 1'
_cell_length_a   6.27626036
_cell_length_b   10.06371569
_cell_length_c   6.76273809
_cell_angle_alpha   90.00000000
_cell_angle_beta   107.49990735
_cell_angle_gamma   90.00000000
_symmetry_Int_Tables_number   1
_chemical_formula_structural   TlVH6SO9
_chemical_formula_sum   'Tl2 V2 H12 S2 O18'
_cell_volume   407.38177979
_cell_formula_units_Z   2
loop_
 _symmetry_equiv_pos_site_id
 _symmetry_equiv_pos_as_xyz
  1  'x, y, z'
loop_
 _atom_site_type_symbol
 _atom_site_label
 _atom_site_symmetry_multiplicity
 _atom_site_fract_x
 _atom_site_fract_y
 _atom_site_fract_z
 _atom_site_occupancy
  Tl  Tl0  1  0.82195226  0.79567002  0.82345920  1.0
  Tl  Tl1  1  0.17804774  0.29567002  0.17654080  1.0
  V  V2  1  0.87800453  0.14113346  0.62077795  1.0
  V  V3  1  0.12199547  0.64113346  0.37922205  1.0
  H  H4  1  0.80396501  0.40744017  0.73367365  1.0
  H  H5  1  0.19603499  0.90744017  0.26632635  1.0
  H  H6  1  0.72288469  0.35151414  0.30591533  1.0
  H  H7  1  0.27711531  0.85151414  0.69408467  1.0
  H  H8  1  0.67820205  0.22081792  0.17800692  1.0
  H  H9  1  0.32179795  0.72081792  0.82199308  1.0
  H  H10  1  0.60897149  0.48805091  0.92476169  1.0
  H  H11  1  0.39102851  0.98805091  0.07523831  1.0
  H  H12  1  0.46718145  0.49626001  0.69227798  1.0
  H  H13  1  0.53281855  0.99626001  0.30772202  1.0
  H  H14  1  0.02303959  0.40551945  0.65256287  1.0
  H  H15  1  0.97696041  0.90551945  0.34743713  1.0
  S  S16  1  0.41511241  0.14427068  0.73533266  1.0
  S  S17  1  0.58488759  0.64427068  0.26466734  1.0
  O  O18  1  0.95334973  0.08580382  0.85697508  1.0
  O  O19  1  0.04665027  0.58580382  0.14302492  1.0
  O  O20  1  0.92911714  0.35017585  0.71470516  1.0
  O  O21  1  0.07088286  0.85017585  0.28529484  1.0
  O  O22  1  0.82266296  0.00579486  0.47444859  1.0
  O  O23  1  0.17733704  0.50579486  0.52555141  1.0
  O  O24  1  0.81831110  0.67412197  0.40888656  1.0
  O  O25  1  0.18168890  0.17412197  0.59111344  1.0
  O  O26  1  0.77742886  0.25936582  0.30709786  1.0
  O  O27  1  0.22257114  0.75936582  0.69290214  1.0
  O  O28  1  0.62148504  0.50403049  0.78575963  1.0
  O  O29  1  0.37851496  0.00403049  0.21424037  1.0
  O  O30  1  0.56131194  0.18403666  0.60172142  1.0
  O  O31  1  0.43868806  0.68403666  0.39827858  1.0
  O  O32  1  0.46574158  0.22812572  0.92157321  1.0
  O  O33  1  0.53425842  0.72812572  0.07842679  1.0
  O  O34  1  0.43667786  0.00096805  0.78619726  1.0
  O  O35  1  0.56332214  0.50096805  0.21380274  1.0
