# generated using pymatgen
data_TaP4S4Cl5
_symmetry_space_group_name_H-M   'P 1'
_cell_length_a   7.23263469
_cell_length_b   14.27658747
_cell_length_c   9.75103847
_cell_angle_alpha   104.49272812
_cell_angle_beta   111.12002817
_cell_angle_gamma   86.77913740
_symmetry_Int_Tables_number   1
_chemical_formula_structural   TaP4S4Cl5
_chemical_formula_sum   'Ta2 P8 S8 Cl10'
_cell_volume   908.70161911
_cell_formula_units_Z   2
loop_
 _symmetry_equiv_pos_site_id
 _symmetry_equiv_pos_as_xyz
  1  'x, y, z'
loop_
 _atom_site_type_symbol
 _atom_site_label
 _atom_site_symmetry_multiplicity
 _atom_site_fract_x
 _atom_site_fract_y
 _atom_site_fract_z
 _atom_site_occupancy
  Ta  Ta0  1  0.13728352  0.82876381  0.73650994  1.0
  Ta  Ta1  1  -0.13728352  0.17123619  0.26349006  1.0
  P  P2  1  0.12214326  0.74677233  0.44280584  1.0
  P  P3  1  -0.12214326  0.25322767  0.55719416  1.0
  P  P4  1  -0.06949617  0.66720839  0.08705680  1.0
  P  P5  1  0.06949617  0.33279161  0.91294320  1.0
  P  P6  1  0.11628302  0.57454714  0.37978442  1.0
  P  P7  1  -0.11628302  0.42545286  0.62021558  1.0
  P  P8  1  -0.71301591  0.67092919  0.17790265  1.0
  P  P9  1  0.71301591  0.32907081  0.82209735  1.0
  S  S10  1  -0.11773749  0.77845811  0.26074254  1.0
  S  S11  1  0.11773749  0.22154189  0.73925746  1.0
  S  S12  1  0.35399255  0.78334151  0.38057008  1.0
  S  S13  1  -0.35399255  0.21665849  0.61942992  1.0
  S  S14  1  -0.12468683  0.55013982  0.16869525  1.0
  S  S15  1  0.12468683  0.44986018  0.83130475  1.0
  S  S16  1  -0.65601679  0.55479667  0.28704616  1.0
  S  S17  1  0.65601679  0.44520333  0.71295384  1.0
  Cl  Cl18  1  0.15109922  0.88354704  0.98182328  1.0
  Cl  Cl19  1  -0.15109922  0.11645296  0.01817672  1.0
  Cl  Cl20  1  0.37769712  0.71022729  0.77703584  1.0
  Cl  Cl21  1  -0.37769712  0.28977271  0.22296416  1.0
  Cl  Cl22  1  0.37906859  0.93288641  0.74359998  1.0
  Cl  Cl23  1  -0.37906859  0.06711359  0.25640002  1.0
  Cl  Cl24  1  -0.10655952  0.92781579  0.62345429  1.0
  Cl  Cl25  1  0.10655952  0.07218421  0.37654571  1.0
  Cl  Cl26  1  -0.10905725  0.70575560  0.65755331  1.0
  Cl  Cl27  1  0.10905725  0.29424440  0.34244669  1.0
