# generated using pymatgen
data_H4C7O
_symmetry_space_group_name_H-M   'P 1'
_cell_length_a   7.89522437
_cell_length_b   4.93720314
_cell_length_c   15.64950034
_cell_angle_alpha   90.00000000
_cell_angle_beta   106.15780471
_cell_angle_gamma   90.00000000
_symmetry_Int_Tables_number   1
_chemical_formula_structural   H4C7O
_chemical_formula_sum   'H16 C28 O4'
_cell_volume   585.92606099
_cell_formula_units_Z   4
loop_
 _symmetry_equiv_pos_site_id
 _symmetry_equiv_pos_as_xyz
  1  'x, y, z'
loop_
 _atom_site_type_symbol
 _atom_site_label
 _atom_site_symmetry_multiplicity
 _atom_site_fract_x
 _atom_site_fract_y
 _atom_site_fract_z
 _atom_site_occupancy
  H  H0  1  0.51839804  0.00240513  0.65067716  1.0
  H  H1  1  0.48160196  0.50240513  0.84932284  1.0
  H  H2  1  0.48160196  0.99759487  0.34932284  1.0
  H  H3  1  0.51839804  0.49759487  0.15067716  1.0
  H  H4  1  0.41988260  0.74776740  0.50742025  1.0
  H  H5  1  0.58011740  0.24776740  0.99257975  1.0
  H  H6  1  0.58011740  0.25223260  0.49257975  1.0
  H  H7  1  0.41988260  0.75223260  0.00742025  1.0
  H  H8  1  0.02897187  0.79848905  0.70718458  1.0
  H  H9  1  0.97102813  0.29848905  0.79281542  1.0
  H  H10  1  0.97102813  0.20151095  0.29281542  1.0
  H  H11  1  0.02897187  0.70151095  0.20718458  1.0
  H  H12  1  0.32118368  0.02537456  0.75126308  1.0
  H  H13  1  0.67881632  0.52537456  0.74873692  1.0
  H  H14  1  0.67881632  0.97462544  0.24873692  1.0
  H  H15  1  0.32118368  0.47462544  0.25126308  1.0
  C  C16  1  0.38978571  0.90348046  0.63182890  1.0
  C  C17  1  0.61021429  0.40348046  0.86817110  1.0
  C  C18  1  0.61021429  0.09651954  0.36817110  1.0
  C  C19  1  0.38978571  0.59651954  0.13182890  1.0
  C  C20  1  0.33543872  0.76273496  0.55168283  1.0
  C  C21  1  0.66456128  0.26273496  0.94831717  1.0
  C  C22  1  0.66456128  0.23726504  0.44831717  1.0
  C  C23  1  0.33543872  0.73726504  0.05168283  1.0
  C  C24  1  0.17058183  0.63477216  0.52665624  1.0
  C  C25  1  0.82941817  0.13477216  0.97334376  1.0
  C  C26  1  0.82941817  0.36522784  0.47334376  1.0
  C  C27  1  0.17058183  0.86522784  0.02665624  1.0
  C  C28  1  0.05962405  0.64825351  0.58341676  1.0
  C  C29  1  0.94037595  0.14825351  0.91658324  1.0
  C  C30  1  0.94037595  0.35174649  0.41658324  1.0
  C  C31  1  0.05962405  0.85174649  0.08341676  1.0
  C  C32  1  0.11578360  0.78991401  0.66394727  1.0
  C  C33  1  0.88421640  0.28991401  0.83605273  1.0
  C  C34  1  0.88421640  0.21008599  0.33605273  1.0
  C  C35  1  0.11578360  0.71008599  0.16394727  1.0
  C  C36  1  0.27976120  0.91713941  0.68815036  1.0
  C  C37  1  0.72023880  0.41713941  0.81184964  1.0
  C  C38  1  0.72023880  0.08286059  0.31184964  1.0
  C  C39  1  0.27976120  0.58286059  0.18815036  1.0
  C  C40  1  0.88404639  0.51356846  0.55945572  1.0
  C  C41  1  0.11595361  0.01356846  0.94054428  1.0
  C  C42  1  0.11595361  0.48643154  0.44054428  1.0
  C  C43  1  0.88404639  0.98643154  0.05945572  1.0
  O  O44  1  0.78731407  0.52398540  0.60929723  1.0
  O  O45  1  0.21268593  0.02398540  0.89070277  1.0
  O  O46  1  0.21268593  0.47601460  0.39070277  1.0
  O  O47  1  0.78731407  0.97601460  0.10929723  1.0
