# generated using pymatgen
data_LiH2N
_symmetry_space_group_name_H-M   'P 1'
_cell_length_a   4.42752139
_cell_length_b   4.42752139
_cell_length_c   5.04452418
_cell_angle_alpha   90.00000000
_cell_angle_beta   90.00000000
_cell_angle_gamma   46.64279571
_symmetry_Int_Tables_number   1
_chemical_formula_structural   LiH2N
_chemical_formula_sum   'Li2 H4 N2'
_cell_volume   71.89990649
_cell_formula_units_Z   2
loop_
 _symmetry_equiv_pos_site_id
 _symmetry_equiv_pos_as_xyz
  1  'x, y, z'
loop_
 _atom_site_type_symbol
 _atom_site_label
 _atom_site_symmetry_multiplicity
 _atom_site_fract_x
 _atom_site_fract_y
 _atom_site_fract_z
 _atom_site_occupancy
  Li  Li0  1  -0.16963872  0.16963872  0.00000000  1.0
  Li  Li1  1  -0.16963872  0.16963872  0.50000000  1.0
  H  H2  1  -0.49945323  0.84054539  0.25000000  1.0
  H  H3  1  0.15945461  1.49945323  0.75000000  1.0
  H  H4  1  -0.66964535  0.66964535  0.00000000  1.0
  H  H5  1  -0.66964535  0.66964535  0.50000000  1.0
  N  N6  1  0.28672649  1.62609973  0.75000000  1.0
  N  N7  1  -0.62609973  0.71327351  0.25000000  1.0
