# generated using pymatgen
data_EuSiPt
_symmetry_space_group_name_H-M   'P 1'
_cell_length_a   6.41815931
_cell_length_b   6.41815931
_cell_length_c   6.41815931
_cell_angle_alpha   90.00000000
_cell_angle_beta   90.00000000
_cell_angle_gamma   90.00000000
_symmetry_Int_Tables_number   1
_chemical_formula_structural   EuSiPt
_chemical_formula_sum   'Eu4 Si4 Pt4'
_cell_volume   264.38175297
_cell_formula_units_Z   4
loop_
 _symmetry_equiv_pos_site_id
 _symmetry_equiv_pos_as_xyz
  1  'x, y, z'
loop_
 _atom_site_type_symbol
 _atom_site_label
 _atom_site_symmetry_multiplicity
 _atom_site_fract_x
 _atom_site_fract_y
 _atom_site_fract_z
 _atom_site_occupancy
  Eu  Eu0  1  0.37946073  0.87946073  0.62053927  1.0
  Eu  Eu1  1  0.87946073  0.62053927  0.37946073  1.0
  Eu  Eu2  1  0.62053927  0.37946073  0.87946073  1.0
  Eu  Eu3  1  0.12053927  0.12053927  0.12053927  1.0
  Si  Si4  1  0.66981445  0.16981445  0.33018555  1.0
  Si  Si5  1  0.16981445  0.33018555  0.66981445  1.0
  Si  Si6  1  0.33018555  0.66981445  0.16981445  1.0
  Si  Si7  1  0.83018555  0.83018555  0.83018555  1.0
  Pt  Pt8  1  0.08191122  0.58191122  0.91808878  1.0
  Pt  Pt9  1  0.58191122  0.91808878  0.08191122  1.0
  Pt  Pt10  1  0.91808878  0.08191122  0.58191122  1.0
  Pt  Pt11  1  0.41808878  0.41808878  0.41808878  1.0
