# generated using pymatgen
data_LaNi
_symmetry_space_group_name_H-M   'P 1'
_cell_length_a   5.78394931
_cell_length_b   5.78394931
_cell_length_c   4.38591025
_cell_angle_alpha   90.00000000
_cell_angle_beta   90.00000000
_cell_angle_gamma   140.99139964
_symmetry_Int_Tables_number   1
_chemical_formula_structural   LaNi
_chemical_formula_sum   'La2 Ni2'
_cell_volume   92.35512283
_cell_formula_units_Z   2
loop_
 _symmetry_equiv_pos_site_id
 _symmetry_equiv_pos_as_xyz
  1  'x, y, z'
loop_
 _atom_site_type_symbol
 _atom_site_label
 _atom_site_symmetry_multiplicity
 _atom_site_fract_x
 _atom_site_fract_y
 _atom_site_fract_z
 _atom_site_occupancy
  La  La0  1  -0.63425247  0.63425247  0.25000000  1.0
  La  La1  1  -0.36574753  1.36574753  0.75000000  1.0
  Ni  Ni2  1  -0.92601385  0.92601385  0.25000000  1.0
  Ni  Ni3  1  -0.07398615  1.07398615  0.75000000  1.0
