# generated using pymatgen
data_Nb3TeCl7
_symmetry_space_group_name_H-M   'P 1'
_cell_length_a   6.96550055
_cell_length_b   6.96550055
_cell_length_c   13.91928316
_cell_angle_alpha   90.00000000
_cell_angle_beta   90.00000000
_cell_angle_gamma   120.00000000
_symmetry_Int_Tables_number   1
_chemical_formula_structural   Nb3TeCl7
_chemical_formula_sum   'Nb6 Te2 Cl14'
_cell_volume   584.86032823
_cell_formula_units_Z   2
loop_
 _symmetry_equiv_pos_site_id
 _symmetry_equiv_pos_as_xyz
  1  'x, y, z'
loop_
 _atom_site_type_symbol
 _atom_site_label
 _atom_site_symmetry_multiplicity
 _atom_site_fract_x
 _atom_site_fract_y
 _atom_site_fract_z
 _atom_site_occupancy
  Nb  Nb0  1  0.94632177  0.47316089  0.24346395  1.0
  Nb  Nb1  1  0.47316089  0.94632177  0.75653605  1.0
  Nb  Nb2  1  0.47316089  0.52683911  0.75653605  1.0
  Nb  Nb3  1  0.52683911  0.47316089  0.24346395  1.0
  Nb  Nb4  1  0.52683911  0.05367823  0.24346395  1.0
  Nb  Nb5  1  0.05367823  0.52683911  0.75653605  1.0
  Te  Te6  1  0.33333333  0.66666667  0.60205642  1.0
  Te  Te7  1  0.66666667  0.33333333  0.39794358  1.0
  Cl  Cl8  1  0.66501830  0.83250915  0.33518281  1.0
  Cl  Cl9  1  0.83250915  0.66501830  0.66481719  1.0
  Cl  Cl10  1  0.83250915  0.16749085  0.66481719  1.0
  Cl  Cl11  1  0.16749085  0.83250915  0.33518281  1.0
  Cl  Cl12  1  0.16749085  0.33498170  0.33518281  1.0
  Cl  Cl13  1  0.33498170  0.16749085  0.66481719  1.0
  Cl  Cl14  1  0.33333333  0.66666667  0.14527986  1.0
  Cl  Cl15  1  0.66666667  0.33333333  0.85472014  1.0
  Cl  Cl16  1  0.33933292  0.16966646  0.12996997  1.0
  Cl  Cl17  1  0.16966646  0.33933292  0.87003003  1.0
  Cl  Cl18  1  0.16966646  0.83033354  0.87003003  1.0
  Cl  Cl19  1  0.83033354  0.16966646  0.12996997  1.0
  Cl  Cl20  1  0.83033354  0.66066708  0.12996997  1.0
  Cl  Cl21  1  0.66066708  0.83033354  0.87003003  1.0
