# generated using pymatgen
data_YSnPd
_symmetry_space_group_name_H-M   'P 1'
_cell_length_a   7.23060888
_cell_length_b   4.64389886
_cell_length_c   7.99144839
_cell_angle_alpha   90.00000000
_cell_angle_beta   90.00000000
_cell_angle_gamma   90.00000000
_symmetry_Int_Tables_number   1
_chemical_formula_structural   YSnPd
_chemical_formula_sum   'Y4 Sn4 Pd4'
_cell_volume   268.33858299
_cell_formula_units_Z   4
loop_
 _symmetry_equiv_pos_site_id
 _symmetry_equiv_pos_as_xyz
  1  'x, y, z'
loop_
 _atom_site_type_symbol
 _atom_site_label
 _atom_site_symmetry_multiplicity
 _atom_site_fract_x
 _atom_site_fract_y
 _atom_site_fract_z
 _atom_site_occupancy
  Y  Y0  1  0.99152601  0.75000000  0.70682871  1.0
  Y  Y1  1  0.49152601  0.75000000  0.79317129  1.0
  Y  Y2  1  0.00847399  0.25000000  0.29317129  1.0
  Y  Y3  1  0.50847399  0.25000000  0.20682871  1.0
  Sn  Sn4  1  0.80448671  0.75000000  0.08792424  1.0
  Sn  Sn5  1  0.30448671  0.75000000  0.41207576  1.0
  Sn  Sn6  1  0.19551329  0.25000000  0.91207576  1.0
  Sn  Sn7  1  0.69551329  0.25000000  0.58792424  1.0
  Pd  Pd8  1  0.70434104  0.75000000  0.41625269  1.0
  Pd  Pd9  1  0.20434104  0.75000000  0.08374731  1.0
  Pd  Pd10  1  0.29565896  0.25000000  0.58374731  1.0
  Pd  Pd11  1  0.79565896  0.25000000  0.91625269  1.0
