# generated using pymatgen
data_CaSn2Ir
_symmetry_space_group_name_H-M   'P 1'
_cell_length_a   5.86114399
_cell_length_b   5.86114399
_cell_length_c   7.67431709
_cell_angle_alpha   90.00000000
_cell_angle_beta   90.00000000
_cell_angle_gamma   136.38828355
_symmetry_Int_Tables_number   1
_chemical_formula_structural   CaSn2Ir
_chemical_formula_sum   'Ca2 Sn4 Ir2'
_cell_volume   181.84749456
_cell_formula_units_Z   2
loop_
 _symmetry_equiv_pos_site_id
 _symmetry_equiv_pos_as_xyz
  1  'x, y, z'
loop_
 _atom_site_type_symbol
 _atom_site_label
 _atom_site_symmetry_multiplicity
 _atom_site_fract_x
 _atom_site_fract_y
 _atom_site_fract_z
 _atom_site_occupancy
  Ca  Ca0  1  0.43189385  0.56810615  0.75000000  1.0
  Ca  Ca1  1  -0.43189385  0.43189385  0.25000000  1.0
  Sn  Sn2  1  0.14452382  0.85547618  0.95337604  1.0
  Sn  Sn3  1  0.14452382  0.85547618  0.54662396  1.0
  Sn  Sn4  1  -0.14452382  0.14452382  0.45337604  1.0
  Sn  Sn5  1  -0.14452382  0.14452382  0.04662396  1.0
  Ir  Ir6  1  -0.28830022  0.28830022  0.75000000  1.0
  Ir  Ir7  1  0.28830022  0.71169978  0.25000000  1.0
