# generated using pymatgen
data_H7S(NO2)2
_symmetry_space_group_name_H-M   'P 1'
_cell_length_a   9.06755671
_cell_length_b   5.81847927
_cell_length_c   5.92022842
_cell_angle_alpha   64.62889941
_cell_angle_beta   85.36647038
_cell_angle_gamma   86.75739748
_symmetry_Int_Tables_number   1
_chemical_formula_structural   H7S(NO2)2
_chemical_formula_sum   'H14 S2 N4 O8'
_cell_volume   281.21626051
_cell_formula_units_Z   2
loop_
 _symmetry_equiv_pos_site_id
 _symmetry_equiv_pos_as_xyz
  1  'x, y, z'
loop_
 _atom_site_type_symbol
 _atom_site_label
 _atom_site_symmetry_multiplicity
 _atom_site_fract_x
 _atom_site_fract_y
 _atom_site_fract_z
 _atom_site_occupancy
  H  H0  1  -0.32355641  -0.81381762  -0.92092904  1.0
  H  H1  1  -0.67644359  -0.18618238  -0.07907096  1.0
  H  H2  1  -0.33418905  -0.60276933  -0.79169300  1.0
  H  H3  1  -0.66581095  -0.39723067  -0.20830700  1.0
  H  H4  1  -0.90939676  -0.31977671  -0.71342271  1.0
  H  H5  1  -0.09060324  -0.68022329  -0.28657729  1.0
  H  H6  1  -0.48529773  -0.77723020  -0.76860615  1.0
  H  H7  1  -0.51470227  -0.22276980  -0.23139385  1.0
  H  H8  1  -0.33753758  -0.92293131  -0.60295186  1.0
  H  H9  1  -0.66246242  -0.07706869  -0.39704814  1.0
  H  H10  1  -0.90257559  -0.62278855  -0.29017287  1.0
  H  H11  1  -0.09742441  -0.37721145  -0.70982713  1.0
  H  H12  1  -1.03259277  -0.38841859  -0.31645086  1.0
  H  H13  1  0.03259277  -0.61158141  -0.68354914  1.0
  S  S14  1  -0.78246318  -0.86891001  -0.86489873  1.0
  S  S15  1  -0.21753682  -0.13108999  -0.13510127  1.0
  N  N16  1  -0.36994929  -0.77829430  -0.77109912  1.0
  N  N17  1  -0.63005071  -0.22170570  -0.22890088  1.0
  N  N18  1  -1.00549731  -0.54339951  -0.36616834  1.0
  N  N19  1  0.00549731  -0.45660049  -0.63383166  1.0
  O  O20  1  -0.93970797  -0.81859442  -0.79949731  1.0
  O  O21  1  -0.06029203  -0.18140558  -0.20050269  1.0
  O  O22  1  -0.76311357  -0.14463244  -0.81704595  1.0
  O  O23  1  -0.23688643  -0.85536756  -0.18295405  1.0
  O  O24  1  -0.68116286  -0.81117577  -0.70937431  1.0
  O  O25  1  -0.31883714  -0.18882423  -0.29062569  1.0
  O  O26  1  -0.74379319  -0.70627574  -0.13836736  1.0
  O  O27  1  -0.25620681  -0.29372426  -0.86163264  1.0
