# generated using pymatgen
data_La2MoO6
_symmetry_space_group_name_H-M   'P 1'
_cell_length_a   8.68469323
_cell_length_b   8.68469323
_cell_length_c   8.68469323
_cell_angle_alpha   151.17362467
_cell_angle_beta   151.17362467
_cell_angle_gamma   41.22133032
_symmetry_Int_Tables_number   1
_chemical_formula_structural   La2MoO6
_chemical_formula_sum   'La2 Mo1 O6'
_cell_volume   151.94661805
_cell_formula_units_Z   1
loop_
 _symmetry_equiv_pos_site_id
 _symmetry_equiv_pos_as_xyz
  1  'x, y, z'
loop_
 _atom_site_type_symbol
 _atom_site_label
 _atom_site_symmetry_multiplicity
 _atom_site_fract_x
 _atom_site_fract_y
 _atom_site_fract_z
 _atom_site_occupancy
  La  La0  1  0.31992244  0.31992244  0.00000000  1.0
  La  La1  1  0.68007756  0.68007756  1.00000000  1.0
  Mo  Mo2  1  0.00000000  0.00000000  0.00000000  1.0
  O  O3  1  0.29716881  0.83592905  1.00000000  1.0
  O  O4  1  1.16407095  1.16407095  1.46123975  1.0
  O  O5  1  0.70283119  0.70283119  0.53876025  1.0
  O  O6  1  0.83592905  0.29716881  1.00000000  1.0
  O  O7  1  0.25000000  0.75000000  0.50000000  1.0
  O  O8  1  0.75000000  0.25000000  0.50000000  1.0
