# generated using pymatgen
data_CuN6(ClO4)3
_symmetry_space_group_name_H-M   'P 1'
_cell_length_a   9.16665424
_cell_length_b   9.16665424
_cell_length_c   9.36430896
_cell_angle_alpha   90.00000000
_cell_angle_beta   90.00000000
_cell_angle_gamma   90.00000000
_symmetry_Int_Tables_number   1
_chemical_formula_structural   CuN6(ClO4)3
_chemical_formula_sum   'Cu2 N12 Cl6 O24'
_cell_volume   786.85993855
_cell_formula_units_Z   2
loop_
 _symmetry_equiv_pos_site_id
 _symmetry_equiv_pos_as_xyz
  1  'x, y, z'
loop_
 _atom_site_type_symbol
 _atom_site_label
 _atom_site_symmetry_multiplicity
 _atom_site_fract_x
 _atom_site_fract_y
 _atom_site_fract_z
 _atom_site_occupancy
  Cl  Cl0  1  0.72195923  0.22195923  0.52347276  1.0
  Cl  Cl1  1  0.77804077  0.72195923  0.47652724  1.0
  Cl  Cl2  1  0.27804077  0.77804077  0.52347276  1.0
  Cl  Cl3  1  0.22195923  0.27804077  0.47652724  1.0
  Cl  Cl4  1  0.00000000  0.50000000  0.93592808  1.0
  Cl  Cl5  1  0.50000000  0.00000000  0.06407192  1.0
  N  N6  1  0.00000000  0.50000000  0.41759342  1.0
  N  N7  1  0.50000000  0.00000000  0.58240658  1.0
  N  N8  1  0.50000000  0.50000000  0.50000000  1.0
  N  N9  1  0.00000000  0.00000000  0.50000000  1.0
  N  N10  1  0.35577879  0.34916225  0.98266708  1.0
  N  N11  1  0.14422121  0.84916225  0.01733292  1.0
  N  N12  1  0.65083775  0.35577879  0.01733292  1.0
  N  N13  1  0.84916225  0.85577879  0.98266708  1.0
  N  N14  1  0.64422121  0.65083775  0.98266708  1.0
  N  N15  1  0.85577879  0.15083775  0.01733292  1.0
  N  N16  1  0.34916225  0.64422121  0.01733292  1.0
  N  N17  1  0.15083775  0.14422121  0.98266708  1.0
  O  O18  1  0.36381436  0.86381436  0.63654124  1.0
  O  O19  1  0.13618564  0.36381436  0.36345876  1.0
  O  O20  1  0.63618564  0.13618564  0.63654124  1.0
  O  O21  1  0.86381436  0.63618564  0.36345876  1.0
  O  O22  1  0.32116963  0.82116963  0.38284575  1.0
  O  O23  1  0.17883037  0.32116963  0.61715425  1.0
  O  O24  1  0.67883037  0.17883037  0.38284575  1.0
  O  O25  1  0.82116963  0.67883037  0.61715425  1.0
  O  O26  1  0.41128549  0.91128549  0.96218106  1.0
  O  O27  1  0.08871451  0.41128549  0.03781894  1.0
  O  O28  1  0.58871451  0.08871451  0.96218106  1.0
  O  O29  1  0.91128549  0.58871451  0.03781894  1.0
  O  O30  1  0.90790673  0.40790673  0.84873761  1.0
  O  O31  1  0.59209327  0.90790673  0.15126239  1.0
  O  O32  1  0.09209327  0.59209327  0.84873761  1.0
  O  O33  1  0.40790673  0.09209327  0.15126239  1.0
  O  O34  1  0.37813782  0.30246499  0.44731936  1.0
  O  O35  1  0.12186218  0.80246499  0.55268064  1.0
  O  O36  1  0.69753501  0.37813782  0.55268064  1.0
  O  O37  1  0.80246499  0.87813782  0.44731936  1.0
  O  O38  1  0.62186218  0.69753501  0.44731936  1.0
  O  O39  1  0.87813782  0.19753501  0.55268064  1.0
  O  O40  1  0.30246499  0.62186218  0.55268064  1.0
  O  O41  1  0.19753501  0.12186218  0.44731936  1.0
  Cu  Cu42  1  0.50000000  0.50000000  0.00000000  1.0
  Cu  Cu43  1  0.00000000  0.00000000  0.00000000  1.0
