# generated using pymatgen
data_Cs3LaI6
_symmetry_space_group_name_H-M   'P 1'
_cell_length_a   10.87666225
_cell_length_b   10.87666225
_cell_length_c   8.97241525
_cell_angle_alpha   90.00000000
_cell_angle_beta   90.00000000
_cell_angle_gamma   90.00000000
_symmetry_Int_Tables_number   1
_chemical_formula_structural   Cs3LaI6
_chemical_formula_sum   'Cs6 La2 I12'
_cell_volume   1061.45270969
_cell_formula_units_Z   2
loop_
 _symmetry_equiv_pos_site_id
 _symmetry_equiv_pos_as_xyz
  1  'x, y, z'
loop_
 _atom_site_type_symbol
 _atom_site_label
 _atom_site_symmetry_multiplicity
 _atom_site_fract_x
 _atom_site_fract_y
 _atom_site_fract_z
 _atom_site_occupancy
  Cs  Cs0  1  0.00000000  0.00000000  0.50000000  1.0
  Cs  Cs1  1  0.00000000  0.00000000  0.00000000  1.0
  Cs  Cs2  1  0.57458371  0.23095419  0.50000000  1.0
  Cs  Cs3  1  0.42541629  0.76904581  0.50000000  1.0
  Cs  Cs4  1  0.23095419  0.42541629  0.00000000  1.0
  Cs  Cs5  1  0.76904581  0.57458371  0.00000000  1.0
  La  La6  1  0.00000000  0.50000000  0.50000000  1.0
  La  La7  1  0.50000000  0.00000000  0.00000000  1.0
  I  I8  1  0.05165513  0.70063325  0.75135954  1.0
  I  I9  1  0.94834487  0.29936675  0.75135954  1.0
  I  I10  1  0.70063325  0.94834487  0.25135954  1.0
  I  I11  1  0.29936675  0.05165513  0.25135954  1.0
  I  I12  1  0.94834487  0.29936675  0.24864046  1.0
  I  I13  1  0.05165513  0.70063325  0.24864046  1.0
  I  I14  1  0.29936675  0.05165513  0.74864046  1.0
  I  I15  1  0.70063325  0.94834487  0.74864046  1.0
  I  I16  1  0.71484472  0.55982757  0.50000000  1.0
  I  I17  1  0.28515528  0.44017243  0.50000000  1.0
  I  I18  1  0.55982757  0.28515528  0.00000000  1.0
  I  I19  1  0.44017243  0.71484472  0.00000000  1.0
