# generated using pymatgen
data_MgP3NO9
_symmetry_space_group_name_H-M   'P 1'
_cell_length_a   6.88063971
_cell_length_b   6.88063971
_cell_length_c   9.96918938
_cell_angle_alpha   90.00000000
_cell_angle_beta   90.00000000
_cell_angle_gamma   120.00000000
_symmetry_Int_Tables_number   1
_chemical_formula_structural   MgP3NO9
_chemical_formula_sum   'Mg2 P6 N2 O18'
_cell_volume   408.74091484
_cell_formula_units_Z   2
loop_
 _symmetry_equiv_pos_site_id
 _symmetry_equiv_pos_as_xyz
  1  'x, y, z'
loop_
 _atom_site_type_symbol
 _atom_site_label
 _atom_site_symmetry_multiplicity
 _atom_site_fract_x
 _atom_site_fract_y
 _atom_site_fract_z
 _atom_site_occupancy
  N  N0  1  0.66666667  0.33333333  0.50000000  1.0
  N  N1  1  0.66666667  0.33333333  -0.00000000  1.0
  O  O2  1  0.50741858  0.90383279  0.25000000  1.0
  O  O3  1  0.50741858  0.60358580  0.75000000  1.0
  O  O4  1  0.39641420  0.90383279  0.75000000  1.0
  O  O5  1  0.39641420  0.49258142  0.25000000  1.0
  O  O6  1  0.09616721  0.49258142  0.75000000  1.0
  O  O7  1  0.09616721  0.60358580  0.25000000  1.0
  O  O8  1  0.74087654  0.77227308  0.37827462  1.0
  O  O9  1  0.74087654  0.77227308  0.12172538  1.0
  O  O10  1  0.74087654  -0.03139654  0.87827462  1.0
  O  O11  1  0.74087654  -0.03139654  0.62172538  1.0
  O  O12  1  1.03139654  0.77227308  0.87827462  1.0
  O  O13  1  1.03139654  0.77227308  0.62172538  1.0
  O  O14  1  1.03139654  0.25912346  0.37827462  1.0
  O  O15  1  1.03139654  0.25912346  0.12172538  1.0
  O  O16  1  0.22772692  0.25912346  0.87827462  1.0
  O  O17  1  0.22772692  0.25912346  0.62172538  1.0
  O  O18  1  0.22772692  -0.03139654  0.37827462  1.0
  O  O19  1  0.22772692  -0.03139654  0.12172538  1.0
  P  P20  1  0.25936243  0.87312571  0.25000000  1.0
  P  P21  1  0.25936243  0.38623671  0.75000000  1.0
  P  P22  1  0.61376329  0.87312571  0.75000000  1.0
  P  P23  1  0.61376329  0.74063757  0.25000000  1.0
  P  P24  1  0.12687429  0.74063757  0.75000000  1.0
  P  P25  1  0.12687429  0.38623671  0.25000000  1.0
  Mg  Mg26  1  -0.00000000  -0.00000000  0.50000000  1.0
  Mg  Mg27  1  -0.00000000  -0.00000000  0.00000000  1.0
