# generated using pymatgen
data_RbBiAs6H24C8(S6N)2
_symmetry_space_group_name_H-M   'P 1'
_cell_length_a   11.25630744
_cell_length_b   11.25630744
_cell_length_c   11.25630744
_cell_angle_alpha   53.43037362
_cell_angle_beta   53.43037362
_cell_angle_gamma   53.43037362
_symmetry_Int_Tables_number   1
_chemical_formula_structural   RbBiAs6H24C8(S6N)2
_chemical_formula_sum   'Rb1 Bi1 As6 H24 C8 S12 N2'
_cell_volume   853.42526037
_cell_formula_units_Z   1
loop_
 _symmetry_equiv_pos_site_id
 _symmetry_equiv_pos_as_xyz
  1  'x, y, z'
loop_
 _atom_site_type_symbol
 _atom_site_label
 _atom_site_symmetry_multiplicity
 _atom_site_fract_x
 _atom_site_fract_y
 _atom_site_fract_z
 _atom_site_occupancy
  Rb  Rb0  1  0.50000000  0.50000000  -0.50000000  1.0
  Bi  Bi1  1  0.00000000  0.00000000  0.00000000  1.0
  As  As2  1  0.42020960  0.80117181  -0.30268880  1.0
  As  As3  1  0.80117181  0.69731120  -0.57979040  1.0
  As  As4  1  0.69731120  0.42020960  -0.19882819  1.0
  As  As5  1  0.57979040  0.19882819  -0.69731120  1.0
  As  As6  1  0.19882819  0.30268880  -0.42020960  1.0
  As  As7  1  0.30268880  0.57979040  -0.80117181  1.0
  H  H8  1  0.76949290  -0.37166663  -0.17212855  1.0
  H  H9  1  0.62833337  -0.17212855  -0.23050710  1.0
  H  H10  1  0.82787145  -0.23050710  -0.37166663  1.0
  H  H11  1  1.23050710  -0.62833337  0.17212855  1.0
  H  H12  1  0.37166663  0.17212855  0.23050710  1.0
  H  H13  1  1.17212855  0.23050710  -0.62833337  1.0
  H  H14  1  0.57841116  -0.13587683  -0.01472273  1.0
  H  H15  1  0.86412317  -0.01472273  -0.42158884  1.0
  H  H16  1  0.98527727  -0.42158884  -0.13587683  1.0
  H  H17  1  0.42158884  0.13587683  0.01472273  1.0
  H  H18  1  1.13587683  0.01472273  -0.57841116  1.0
  H  H19  1  1.01472273  -0.57841116  0.13587683  1.0
  H  H20  1  0.74121983  -0.17154953  0.01413184  1.0
  H  H21  1  0.82845047  0.01413184  -0.25878017  1.0
  H  H22  1  1.01413184  -0.25878017  -0.17154953  1.0
  H  H23  1  0.25878017  0.17154953  -0.01413184  1.0
  H  H24  1  0.17154953  0.98586816  -0.74121983  1.0
  H  H25  1  0.98586816  0.25878017  -0.82845047  1.0
  H  H26  1  0.71453499  -0.33390822  0.04889493  1.0
  H  H27  1  0.66609178  0.04889493  -0.28546501  1.0
  H  H28  1  1.04889493  -0.28546501  -0.33390822  1.0
  H  H29  1  0.28546501  0.33390822  -0.04889493  1.0
  H  H30  1  0.33390822  0.95110507  -0.71453499  1.0
  H  H31  1  0.95110507  0.28546501  -0.66609178  1.0
  C  C32  1  0.75398631  -0.24601369  -0.24601369  1.0
  C  C33  1  0.24601369  0.24601369  0.24601369  1.0
  C  C34  1  0.70256048  -0.20895347  -0.02374608  1.0
  C  C35  1  0.79104653  -0.02374608  -0.29743952  1.0
  C  C36  1  0.97625392  -0.29743952  -0.20895347  1.0
  C  C37  1  0.29743952  0.20895347  0.02374608  1.0
  C  C38  1  0.20895347  1.02374608  -0.70256048  1.0
  C  C39  1  1.02374608  0.29743952  -0.79104653  1.0
  S  S40  1  1.16869355  -0.06164403  -0.28562349  1.0
  S  S41  1  0.93835597  -0.28562349  0.16869355  1.0
  S  S42  1  0.71437651  0.16869355  -0.06164403  1.0
  S  S43  1  0.83130645  0.06164403  -0.71437651  1.0
  S  S44  1  1.06164403  -0.71437651  -0.16869355  1.0
  S  S45  1  0.28562349  -0.16869355  0.06164403  1.0
  S  S46  1  0.53901459  0.82708349  -0.56945767  1.0
  S  S47  1  0.82708349  0.43054233  -0.46098541  1.0
  S  S48  1  0.43054233  0.53901459  -0.17291651  1.0
  S  S49  1  0.46098541  0.17291651  -0.43054233  1.0
  S  S50  1  0.17291651  0.56945767  -0.53901459  1.0
  S  S51  1  0.56945767  0.46098541  -0.82708349  1.0
  N  N52  1  0.80604387  -0.19395613  -0.19395613  1.0
  N  N53  1  0.19395613  0.19395613  0.19395613  1.0
