# generated using pymatgen
data_BaMgSi
_symmetry_space_group_name_H-M   'P 1'
_cell_length_a   8.21151304
_cell_length_b   4.78755793
_cell_length_c   8.54000852
_cell_angle_alpha   90.00000000
_cell_angle_beta   90.00000000
_cell_angle_gamma   90.00000000
_symmetry_Int_Tables_number   1
_chemical_formula_structural   BaMgSi
_chemical_formula_sum   'Ba4 Mg4 Si4'
_cell_volume   335.73416040
_cell_formula_units_Z   4
loop_
 _symmetry_equiv_pos_site_id
 _symmetry_equiv_pos_as_xyz
  1  'x, y, z'
loop_
 _atom_site_type_symbol
 _atom_site_label
 _atom_site_symmetry_multiplicity
 _atom_site_fract_x
 _atom_site_fract_y
 _atom_site_fract_z
 _atom_site_occupancy
  Ba  Ba0  1  0.51327082  0.25000000  0.31873023  1.0
  Ba  Ba1  1  0.01327082  0.25000000  0.18126977  1.0
  Ba  Ba2  1  0.48672918  0.75000000  0.68126977  1.0
  Ba  Ba3  1  0.98672918  0.75000000  0.81873023  1.0
  Mg  Mg4  1  0.64291201  0.25000000  0.93256275  1.0
  Mg  Mg5  1  0.14291201  0.25000000  0.56743725  1.0
  Mg  Mg6  1  0.35708799  0.75000000  0.06743725  1.0
  Mg  Mg7  1  0.85708799  0.75000000  0.43256275  1.0
  Si  Si8  1  0.29763801  0.25000000  0.89273462  1.0
  Si  Si9  1  0.79763801  0.25000000  0.60726538  1.0
  Si  Si10  1  0.70236199  0.75000000  0.10726538  1.0
  Si  Si11  1  0.20236199  0.75000000  0.39273462  1.0
