# generated using pymatgen
data_Ag2SnHgS4
_symmetry_space_group_name_H-M   'P 1'
_cell_length_a   8.18202839
_cell_length_b   7.26269188
_cell_length_c   6.84296702
_cell_angle_alpha   90.00000000
_cell_angle_beta   90.00000000
_cell_angle_gamma   90.00000000
_symmetry_Int_Tables_number   1
_chemical_formula_structural   Ag2SnHgS4
_chemical_formula_sum   'Ag4 Sn2 Hg2 S8'
_cell_volume   406.63340063
_cell_formula_units_Z   2
loop_
 _symmetry_equiv_pos_site_id
 _symmetry_equiv_pos_as_xyz
  1  'x, y, z'
loop_
 _atom_site_type_symbol
 _atom_site_label
 _atom_site_symmetry_multiplicity
 _atom_site_fract_x
 _atom_site_fract_y
 _atom_site_fract_z
 _atom_site_occupancy
  Ag  Ag0  1  0.24740358  0.16938197  0.01341728  1.0
  Ag  Ag1  1  0.74740358  0.83061803  0.51341728  1.0
  Ag  Ag2  1  0.75259642  0.16938197  0.01341728  1.0
  Ag  Ag3  1  0.25259642  0.83061803  0.51341728  1.0
  Sn  Sn4  1  0.50000000  0.33308458  0.50357450  1.0
  Sn  Sn5  1  0.00000000  0.66691542  0.00357450  1.0
  Hg  Hg6  1  0.50000000  0.65074081  0.00267727  1.0
  Hg  Hg7  1  0.00000000  0.34925919  0.50267727  1.0
  S  S8  1  0.25816093  0.16494568  0.38674311  1.0
  S  S9  1  0.75816093  0.83505432  0.88674311  1.0
  S  S10  1  0.74183907  0.16494568  0.38674311  1.0
  S  S11  1  0.24183907  0.83505432  0.88674311  1.0
  S  S12  1  0.50000000  0.32223418  0.86200131  1.0
  S  S13  1  0.00000000  0.67776582  0.36200131  1.0
  S  S14  1  0.50000000  0.65031707  0.38392615  1.0
  S  S15  1  0.00000000  0.34968293  0.88392615  1.0
