# generated using pymatgen
data_Zn9(As3O14)2
_symmetry_space_group_name_H-M   'P 1'
_cell_length_a   6.67422904
_cell_length_b   10.35749120
_cell_length_c   9.36782549
_cell_angle_alpha   71.86186597
_cell_angle_beta   76.63205260
_cell_angle_gamma   78.37571218
_symmetry_Int_Tables_number   1
_chemical_formula_structural   Zn9(As3O14)2
_chemical_formula_sum   'Zn9 As6 O28'
_cell_volume   592.82451669
_cell_formula_units_Z   1
loop_
 _symmetry_equiv_pos_site_id
 _symmetry_equiv_pos_as_xyz
  1  'x, y, z'
loop_
 _atom_site_type_symbol
 _atom_site_label
 _atom_site_symmetry_multiplicity
 _atom_site_fract_x
 _atom_site_fract_y
 _atom_site_fract_z
 _atom_site_occupancy
  Zn  Zn0  1  -0.94798038  -0.66361469  -0.74720255  1.0
  Zn  Zn1  1  -0.05201962  -0.33638531  -0.25279745  1.0
  Zn  Zn2  1  -0.56611537  -0.72358829  -0.34025750  1.0
  Zn  Zn3  1  -0.43388463  -0.27641171  -0.65974250  1.0
  Zn  Zn4  1  -0.52576737  -0.70063447  -0.99561598  1.0
  Zn  Zn5  1  -0.47423263  -0.29936553  -0.00438402  1.0
  Zn  Zn6  1  -0.20138668  -0.96994338  -0.87856992  1.0
  Zn  Zn7  1  -0.79861332  -0.03005662  -0.12143008  1.0
  Zn  Zn8  1  -0.00000000  -0.50000000  -0.50000000  1.0
  O  O9  1  -0.99500870  -0.45440042  -0.74490558  1.0
  O  O10  1  -0.00499130  -0.54559958  -0.25509442  1.0
  O  O11  1  -0.87973224  -0.99454087  -0.90834825  1.0
  O  O12  1  -0.12026776  -0.00545913  -0.09165175  1.0
  O  O13  1  -0.85922446  -0.66633641  -0.97381294  1.0
  O  O14  1  -0.14077554  -0.33366359  -0.02618706  1.0
  O  O15  1  -0.80332709  -0.81097439  -0.19745411  1.0
  O  O16  1  -0.19667291  -0.18902561  -0.80254589  1.0
  O  O17  1  -0.79003005  -0.24518600  -0.98978084  1.0
  O  O18  1  -0.20996995  -0.75481400  -0.01021916  1.0
  O  O19  1  -0.65283553  -0.59123910  -0.52425401  1.0
  O  O20  1  -0.34716447  -0.40876090  -0.47574599  1.0
  O  O21  1  -0.62371784  -0.62405006  -0.81736778  1.0
  O  O22  1  -0.37628216  -0.37594994  -0.18263222  1.0
  O  O23  1  -0.51456630  -0.90736435  -0.88583814  1.0
  O  O24  1  -0.48543370  -0.09263566  -0.11416186  1.0
  O  O25  1  -0.48426755  -0.39847486  -0.78013340  1.0
  O  O26  1  -0.51573245  -0.60152514  -0.21986660  1.0
  O  O27  1  -0.20384542  -0.92479896  -0.68018704  1.0
  O  O28  1  -0.79615458  -0.07520104  -0.31981296  1.0
  O  O29  1  -1.03070473  -0.31911292  -0.47983326  1.0
  O  O30  1  0.03070473  -0.68088708  -0.52016674  1.0
  O  O31  1  -0.32940598  -0.86124233  -0.34540654  1.0
  O  O32  1  -0.67059402  -0.13875767  -0.65459346  1.0
  O  O33  1  -0.89958255  -0.87833801  -0.67354333  1.0
  O  O34  1  -0.10041745  -0.12166199  -0.32645667  1.0
  O  O35  1  -0.25986749  -0.67778795  -0.69163290  1.0
  O  O36  1  -0.74013251  -0.32221205  -0.30836710  1.0
  As  As37  1  -0.97765126  -0.69550482  -0.10714446  1.0
  As  As38  1  -0.02234874  -0.30449518  -0.89285554  1.0
  As  As39  1  -0.73544674  -0.98387531  -0.77949829  1.0
  As  As40  1  -0.26455326  -0.01612469  -0.22050171  1.0
  As  As41  1  -0.49490499  -0.57559331  -0.70614280  1.0
  As  As42  1  -0.50509501  -0.42440669  -0.29385720  1.0
