# generated using pymatgen
data_CaSi2
_symmetry_space_group_name_H-M   'P 1'
_cell_length_a   11.00460924
_cell_length_b   11.00460924
_cell_length_c   11.00460924
_cell_angle_alpha   149.39646364
_cell_angle_beta   149.39646364
_cell_angle_gamma   43.82805655
_symmetry_Int_Tables_number   1
_chemical_formula_structural   CaSi2
_chemical_formula_sum   'Ca4 Si8'
_cell_volume   344.42962372
_cell_formula_units_Z   4
loop_
 _symmetry_equiv_pos_site_id
 _symmetry_equiv_pos_as_xyz
  1  'x, y, z'
loop_
 _atom_site_type_symbol
 _atom_site_label
 _atom_site_symmetry_multiplicity
 _atom_site_fract_x
 _atom_site_fract_y
 _atom_site_fract_z
 _atom_site_occupancy
  Ca  Ca0  1  0.37500000  0.12500000  0.25000000  1.0
  Ca  Ca1  1  0.87500000  0.12500000  0.75000000  1.0
  Ca  Ca2  1  0.87500000  1.12500000  1.25000000  1.0
  Ca  Ca3  1  0.87500000  0.62500000  0.75000000  1.0
  Si  Si4  1  1.05639494  0.27518115  0.78121379  1.0
  Si  Si5  1  1.25603264  0.97481885  1.28121379  1.0
  Si  Si6  1  0.49396736  0.27518115  0.21878621  1.0
  Si  Si7  1  0.69360506  0.97481885  0.71878621  1.0
  Si  Si8  1  0.72481885  0.50603264  0.78121379  1.0
  Si  Si9  1  0.02518115  0.30639494  0.28121379  1.0
  Si  Si10  1  0.72481885  0.94360506  1.21878621  1.0
  Si  Si11  1  0.02518115  0.74396736  0.71878621  1.0
