# generated using pymatgen
data_V2FeC
_symmetry_space_group_name_H-M   'P 1'
_cell_length_a   5.09676870
_cell_length_b   6.81797914
_cell_length_c   4.71677588
_cell_angle_alpha   90.00000000
_cell_angle_beta   90.00000000
_cell_angle_gamma   90.00000000
_symmetry_Int_Tables_number   1
_chemical_formula_structural   V2FeC
_chemical_formula_sum   'V8 Fe4 C4'
_cell_volume   163.90637094
_cell_formula_units_Z   4
loop_
 _symmetry_equiv_pos_site_id
 _symmetry_equiv_pos_as_xyz
  1  'x, y, z'
loop_
 _atom_site_type_symbol
 _atom_site_label
 _atom_site_symmetry_multiplicity
 _atom_site_fract_x
 _atom_site_fract_y
 _atom_site_fract_z
 _atom_site_occupancy
  V  V0  1  0.68815997  0.06305491  0.15630385  1.0
  V  V1  1  0.18815997  0.43694509  0.34369615  1.0
  V  V2  1  0.31184003  0.56305491  0.84369615  1.0
  V  V3  1  0.81184003  0.93694509  0.65630385  1.0
  V  V4  1  0.31184003  0.93694509  0.84369615  1.0
  V  V5  1  0.81184003  0.56305491  0.65630385  1.0
  V  V6  1  0.68815997  0.43694509  0.15630385  1.0
  V  V7  1  0.18815997  0.06305491  0.34369615  1.0
  Fe  Fe8  1  0.54119972  0.25000000  0.67588457  1.0
  Fe  Fe9  1  0.04119972  0.25000000  0.82411543  1.0
  Fe  Fe10  1  0.45880028  0.75000000  0.32411543  1.0
  Fe  Fe11  1  0.95880028  0.75000000  0.17588457  1.0
  C  C12  1  0.86486378  0.25000000  0.45347525  1.0
  C  C13  1  0.36486378  0.25000000  0.04652475  1.0
  C  C14  1  0.13513622  0.75000000  0.54652475  1.0
  C  C15  1  0.63513622  0.75000000  0.95347525  1.0
