# generated using pymatgen
data_K2Zn(CN)4
_symmetry_space_group_name_H-M   'P 1'
_cell_length_a   15.50640641
_cell_length_b   15.50640641
_cell_length_c   15.50640641
_cell_angle_alpha   33.57036468
_cell_angle_beta   33.57036468
_cell_angle_gamma   33.57036468
_symmetry_Int_Tables_number   1
_chemical_formula_structural   K2Zn(CN)4
_chemical_formula_sum   'K8 Zn4 C16 N16'
_cell_volume   1015.48663956
_cell_formula_units_Z   4
loop_
 _symmetry_equiv_pos_site_id
 _symmetry_equiv_pos_as_xyz
  1  'x, y, z'
loop_
 _atom_site_type_symbol
 _atom_site_label
 _atom_site_symmetry_multiplicity
 _atom_site_fract_x
 _atom_site_fract_y
 _atom_site_fract_z
 _atom_site_occupancy
  K  K0  1  1.25059456  -0.25000000  0.24940544  1.0
  K  K1  1  0.75059456  -0.25059456  0.25000000  1.0
  K  K2  1  0.25000000  0.75059456  -0.25059456  1.0
  K  K3  1  0.75000000  0.24940544  0.25059456  1.0
  K  K4  1  0.74940544  0.25000000  -0.24940544  1.0
  K  K5  1  1.24940544  0.25059456  -0.25000000  1.0
  K  K6  1  1.00000000  -0.00000000  -0.00000000  1.0
  K  K7  1  0.50000000  0.50000000  0.50000000  1.0
  Zn  Zn8  1  0.81235146  0.81235146  -0.18764854  1.0
  Zn  Zn9  1  0.31235146  0.31235146  0.31235146  1.0
  Zn  Zn10  1  0.68764854  0.68764854  -0.31235146  1.0
  Zn  Zn11  1  0.18764854  0.18764854  0.18764854  1.0
  C  C12  1  0.67462061  1.04133176  -0.32460275  1.0
  C  C13  1  1.17462061  0.17539725  -0.45866824  1.0
  C  C14  1  0.82460275  0.45866824  -0.17462061  1.0
  C  C15  1  0.32460275  0.32537939  -0.04133176  1.0
  C  C16  1  0.95866824  0.32460275  -0.67462061  1.0
  C  C17  1  0.45866824  0.82537939  -0.17539725  1.0
  C  C18  1  0.32537939  0.95866824  -0.67539725  1.0
  C  C19  1  0.82537939  0.82460275  -0.54133176  1.0
  C  C20  1  0.67539725  0.67462061  0.04133176  1.0
  C  C21  1  1.17539725  -0.45866824  0.17462061  1.0
  C  C22  1  0.54133176  0.17462061  0.17539725  1.0
  C  C23  1  1.04133176  0.67539725  -0.32537939  1.0
  C  C24  1  0.85815982  -0.14184018  -0.14184018  1.0
  C  C25  1  0.35815982  0.35815982  0.35815982  1.0
  C  C26  1  0.64184018  0.64184018  -0.35815982  1.0
  C  C27  1  1.14184018  0.14184018  0.14184018  1.0
  N  N28  1  0.67496123  0.09435981  0.09556304  1.0
  N  N29  1  1.17496123  0.59556304  -0.40564019  1.0
  N  N30  1  0.40443696  0.40564019  -0.17496123  1.0
  N  N31  1  0.90443696  0.32503877  -0.09435981  1.0
  N  N32  1  0.90564019  -0.09556304  0.32503877  1.0
  N  N33  1  0.40564019  0.82503877  -0.59556304  1.0
  N  N34  1  1.32503877  -0.09435981  -0.09556304  1.0
  N  N35  1  0.82503877  0.40443696  -0.59435981  1.0
  N  N36  1  1.09556304  -0.32503877  0.09435981  1.0
  N  N37  1  0.59556304  0.59435981  0.17496123  1.0
  N  N38  1  0.59435981  1.17496123  -0.40443696  1.0
  N  N39  1  1.09435981  0.09556304  -0.32503877  1.0
  N  N40  1  0.88485353  -0.11514647  -0.11514647  1.0
  N  N41  1  0.38485353  0.38485353  0.38485353  1.0
  N  N42  1  0.61514647  0.61514647  -0.38485353  1.0
  N  N43  1  1.11514647  0.11514647  0.11514647  1.0
