# generated using pymatgen
data_AlV4N3
_symmetry_space_group_name_H-M   'P 1'
_cell_length_a   2.79130335
_cell_length_b   2.79130335
_cell_length_c   23.74811755
_cell_angle_alpha   90.00000000
_cell_angle_beta   90.00000000
_cell_angle_gamma   120.00000000
_symmetry_Int_Tables_number   1
_chemical_formula_structural   AlV4N3
_chemical_formula_sum   'Al2 V8 N6'
_cell_volume   160.24109157
_cell_formula_units_Z   2
loop_
 _symmetry_equiv_pos_site_id
 _symmetry_equiv_pos_as_xyz
  1  'x, y, z'
loop_
 _atom_site_type_symbol
 _atom_site_label
 _atom_site_symmetry_multiplicity
 _atom_site_fract_x
 _atom_site_fract_y
 _atom_site_fract_z
 _atom_site_occupancy
  Al  Al0  1  0.33333333  0.66666667  0.25000000  1.0
  Al  Al1  1  0.66666667  0.33333333  0.75000000  1.0
  V  V2  1  0.33333333  0.66666667  0.44572827  1.0
  V  V3  1  0.66666667  0.33333333  0.55427173  1.0
  V  V4  1  0.66666667  0.33333333  0.94572827  1.0
  V  V5  1  0.33333333  0.66666667  0.05427173  1.0
  V  V6  1  0.33333333  0.66666667  0.84090059  1.0
  V  V7  1  0.66666667  0.33333333  0.15909941  1.0
  V  V8  1  0.66666667  0.33333333  0.34090059  1.0
  V  V9  1  0.33333333  0.66666667  0.65909941  1.0
  N  N10  1  0.00000000  0.00000000  0.50000000  1.0
  N  N11  1  0.00000000  0.00000000  0.00000000  1.0
  N  N12  1  0.00000000  0.00000000  0.39223067  1.0
  N  N13  1  0.00000000  0.00000000  0.60776933  1.0
  N  N14  1  0.00000000  0.00000000  0.89223067  1.0
  N  N15  1  0.00000000  0.00000000  0.10776933  1.0
