# generated using pymatgen
data_PHF2
_symmetry_space_group_name_H-M   'P 1'
_cell_length_a   4.67070419
_cell_length_b   6.83321571
_cell_length_c   8.46112568
_cell_angle_alpha   90.00000000
_cell_angle_beta   90.00000000
_cell_angle_gamma   90.00000000
_symmetry_Int_Tables_number   1
_chemical_formula_structural   PHF2
_chemical_formula_sum   'P4 H4 F8'
_cell_volume   270.04468825
_cell_formula_units_Z   4
loop_
 _symmetry_equiv_pos_site_id
 _symmetry_equiv_pos_as_xyz
  1  'x, y, z'
loop_
 _atom_site_type_symbol
 _atom_site_label
 _atom_site_symmetry_multiplicity
 _atom_site_fract_x
 _atom_site_fract_y
 _atom_site_fract_z
 _atom_site_occupancy
  P  P0  1  0.26961547  0.90219470  0.56783120  1.0
  P  P1  1  0.76961547  0.59780530  0.43216880  1.0
  P  P2  1  0.73038453  0.40219470  0.93216880  1.0
  P  P3  1  0.23038453  0.09780530  0.06783120  1.0
  H  H4  1  0.01859456  0.97025198  0.00026187  1.0
  H  H5  1  0.51859456  0.52974802  0.99973813  1.0
  H  H6  1  0.98140544  0.47025198  0.49973813  1.0
  H  H7  1  0.48140544  0.02974802  0.50026187  1.0
  F  F8  1  0.43159257  0.86810421  0.73528701  1.0
  F  F9  1  0.93159257  0.63189579  0.26471299  1.0
  F  F10  1  0.56840743  0.36810421  0.76471299  1.0
  F  F11  1  0.06840743  0.13189579  0.23528701  1.0
  F  F12  1  0.44450951  0.92415063  0.12574175  1.0
  F  F13  1  0.94450951  0.57584937  0.87425825  1.0
  F  F14  1  0.55549049  0.42415063  0.37425825  1.0
  F  F15  1  0.05549049  0.07584937  0.62574175  1.0
