# generated using pymatgen
data_KMn3(AsO4)3
_symmetry_space_group_name_H-M   'P 1'
_cell_length_a   8.84989887
_cell_length_b   8.84989887
_cell_length_c   7.26248753
_cell_angle_alpha   71.89696491
_cell_angle_beta   108.10303509
_cell_angle_gamma   89.14550831
_symmetry_Int_Tables_number   1
_chemical_formula_structural   KMn3(AsO4)3
_chemical_formula_sum   'K2 Mn6 As6 O24'
_cell_volume   509.95848367
_cell_formula_units_Z   2
loop_
 _symmetry_equiv_pos_site_id
 _symmetry_equiv_pos_as_xyz
  1  'x, y, z'
loop_
 _atom_site_type_symbol
 _atom_site_label
 _atom_site_symmetry_multiplicity
 _atom_site_fract_x
 _atom_site_fract_y
 _atom_site_fract_z
 _atom_site_occupancy
  K  K0  1  0.98139423  -0.01860577  0.75000000  1.0
  K  K1  1  1.01860577  0.01860577  0.25000000  1.0
  Mn  Mn2  1  0.38436457  -0.06224599  0.63941120  1.0
  Mn  Mn3  1  1.06224599  0.61563543  0.13941120  1.0
  Mn  Mn4  1  0.93775401  -0.61563543  0.86058880  1.0
  Mn  Mn5  1  1.61563543  0.06224599  0.36058880  1.0
  Mn  Mn6  1  1.27119566  0.27119566  0.75000000  1.0
  Mn  Mn7  1  0.72880434  -0.27119566  0.25000000  1.0
  As  As8  1  1.64654534  0.12358638  0.88097172  1.0
  As  As9  1  0.87641362  -0.64654534  0.38097172  1.0
  As  As10  1  1.12358638  0.64654534  0.61902828  1.0
  As  As11  1  0.35345466  -0.12358638  0.11902828  1.0
  As  As12  1  0.70633052  -0.29366948  0.75000000  1.0
  As  As13  1  1.29366948  0.29366948  0.25000000  1.0
  O  O14  1  0.73901569  -0.16380000  0.52751625  1.0
  O  O15  1  1.16380000  0.26098431  0.02751625  1.0
  O  O16  1  0.83620000  -0.26098431  0.97248375  1.0
  O  O17  1  1.26098431  0.16380000  0.47248375  1.0
  O  O18  1  0.50967235  -0.26486725  0.74052943  1.0
  O  O19  1  1.26486725  0.49032765  0.24052943  1.0
  O  O20  1  0.73513275  -0.49032765  0.75947057  1.0
  O  O21  1  1.49032765  0.26486725  0.25947057  1.0
  O  O22  1  1.81155305  0.16862748  0.37772233  1.0
  O  O23  1  0.83137252  -0.81155305  0.87772233  1.0
  O  O24  1  1.16862748  0.81155305  0.12227767  1.0
  O  O25  1  0.18844695  -0.16862748  0.62227767  1.0
  O  O26  1  1.58886891  0.03330930  0.68902788  1.0
  O  O27  1  0.96669070  -0.58886891  0.18902788  1.0
  O  O28  1  1.03330930  0.58886891  0.81097212  1.0
  O  O29  1  0.41113109  -0.03330930  0.31097212  1.0
  O  O30  1  1.31063050  0.02257559  0.87259973  1.0
  O  O31  1  0.97742441  -0.31063050  0.37259973  1.0
  O  O32  1  1.02257559  0.31063050  0.62740027  1.0
  O  O33  1  0.68936950  -0.02257559  0.12740027  1.0
  O  O34  1  1.50221277  0.27047168  0.84660680  1.0
  O  O35  1  0.72952832  -0.50221277  0.34660680  1.0
  O  O36  1  1.27047168  0.50221277  0.65339320  1.0
  O  O37  1  0.49778723  -0.27047168  0.15339320  1.0
