# generated using pymatgen
data_Li4CO4
_symmetry_space_group_name_H-M   'P 1'
_cell_length_a   4.74422435
_cell_length_b   4.74422435
_cell_length_c   4.65207822
_cell_angle_alpha   75.13027976
_cell_angle_beta   104.86972024
_cell_angle_gamma   72.17891534
_symmetry_Int_Tables_number   1
_chemical_formula_structural   Li4CO4
_chemical_formula_sum   'Li4 C1 O4'
_cell_volume   89.72619822
_cell_formula_units_Z   1
loop_
 _symmetry_equiv_pos_site_id
 _symmetry_equiv_pos_as_xyz
  1  'x, y, z'
loop_
 _atom_site_type_symbol
 _atom_site_label
 _atom_site_symmetry_multiplicity
 _atom_site_fract_x
 _atom_site_fract_y
 _atom_site_fract_z
 _atom_site_occupancy
  Li  Li0  1  0.80275187  -0.80275187  0.72447664  1.0
  Li  Li1  1  1.41445971  0.07419470  0.25541177  1.0
  Li  Li2  1  0.92580530  -0.41445971  0.25541177  1.0
  Li  Li3  1  0.27424641  -0.27424641  0.84425345  1.0
  C  C4  1  -0.06270938  0.06270938  0.29248286  1.0
  O  O5  1  1.14019204  0.15621790  0.48891581  1.0
  O  O6  1  0.84378210  -0.14019204  0.48891581  1.0
  O  O7  1  0.10099975  -0.10099975  0.12975430  1.0
  O  O8  1  0.66294221  -0.66294221  0.06216759  1.0
