# generated using pymatgen
data_CsBa2Nb3O10
_symmetry_space_group_name_H-M   'P 1'
_cell_length_a   3.99858324
_cell_length_b   3.99858324
_cell_length_c   16.05176989
_cell_angle_alpha   90.00000000
_cell_angle_beta   90.00000000
_cell_angle_gamma   90.00000000
_symmetry_Int_Tables_number   1
_chemical_formula_structural   CsBa2Nb3O10
_chemical_formula_sum   'Cs1 Ba2 Nb3 O10'
_cell_volume   256.64641883
_cell_formula_units_Z   1
loop_
 _symmetry_equiv_pos_site_id
 _symmetry_equiv_pos_as_xyz
  1  'x, y, z'
loop_
 _atom_site_type_symbol
 _atom_site_label
 _atom_site_symmetry_multiplicity
 _atom_site_fract_x
 _atom_site_fract_y
 _atom_site_fract_z
 _atom_site_occupancy
  Cs  Cs0  1  0.50000000  0.50000000  0.50000000  1.0
  Ba  Ba1  1  0.50000000  0.50000000  0.85702668  1.0
  Ba  Ba2  1  0.50000000  0.50000000  0.14297332  1.0
  Nb  Nb3  1  0.00000000  0.00000000  0.71074927  1.0
  Nb  Nb4  1  0.00000000  0.00000000  0.28925073  1.0
  Nb  Nb5  1  0.00000000  0.00000000  0.00000000  1.0
  O  O6  1  0.00000000  0.50000000  0.73535580  1.0
  O  O7  1  0.00000000  0.50000000  0.26464420  1.0
  O  O8  1  0.50000000  0.00000000  0.73535580  1.0
  O  O9  1  0.50000000  0.00000000  0.26464420  1.0
  O  O10  1  0.00000000  0.00000000  0.87664011  1.0
  O  O11  1  0.00000000  0.00000000  0.12335989  1.0
  O  O12  1  0.00000000  0.00000000  0.60069326  1.0
  O  O13  1  0.00000000  0.00000000  0.39930674  1.0
  O  O14  1  0.00000000  0.50000000  0.00000000  1.0
  O  O15  1  0.50000000  0.00000000  0.00000000  1.0
