# generated using pymatgen
data_RbVH4(OF2)2
_symmetry_space_group_name_H-M   'P 1'
_cell_length_a   6.81872258
_cell_length_b   6.81872258
_cell_length_c   9.31840839
_cell_angle_alpha   60.11673732
_cell_angle_beta   119.88326268
_cell_angle_gamma   123.23505054
_symmetry_Int_Tables_number   1
_chemical_formula_structural   RbVH4(OF2)2
_chemical_formula_sum   'Rb2 V2 H8 O4 F8'
_cell_volume   298.68004823
_cell_formula_units_Z   2
loop_
 _symmetry_equiv_pos_site_id
 _symmetry_equiv_pos_as_xyz
  1  'x, y, z'
loop_
 _atom_site_type_symbol
 _atom_site_label
 _atom_site_symmetry_multiplicity
 _atom_site_fract_x
 _atom_site_fract_y
 _atom_site_fract_z
 _atom_site_occupancy
  Rb  Rb0  1  0.78124521  0.78124521  0.75000000  1.0
  Rb  Rb1  1  0.21875479  0.21875479  0.25000000  1.0
  V  V2  1  0.50000000  -0.00000000  -0.00000000  1.0
  V  V3  1  1.00000000  -0.50000000  0.50000000  1.0
  H  H4  1  0.59591895  0.23014329  0.69198839  1.0
  H  H5  1  0.76985671  -0.59591895  0.19198839  1.0
  H  H6  1  1.23014329  0.59591895  0.80801161  1.0
  H  H7  1  1.40408105  -0.23014329  0.30801161  1.0
  H  H8  1  0.34438965  0.23723327  0.66059244  1.0
  H  H9  1  0.76276673  -0.34438965  0.16059244  1.0
  H  H10  1  1.23723327  0.34438965  0.83940756  1.0
  H  H11  1  1.65561035  -0.23723327  0.33940756  1.0
  O  O12  1  0.50816458  0.23774132  0.74775539  1.0
  O  O13  1  0.76225868  -0.50816458  0.24775539  1.0
  O  O14  1  1.23774132  0.50816458  0.75224461  1.0
  O  O15  1  1.49183542  -0.23774132  0.25224461  1.0
  F  F16  1  0.72467949  0.23893478  0.58459879  1.0
  F  F17  1  0.76106522  -0.72467949  0.08459879  1.0
  F  F18  1  1.23893478  0.72467949  0.91540121  1.0
  F  F19  1  1.27532051  -0.23893478  0.41540121  1.0
  F  F20  1  0.25682656  0.08782759  0.97449057  1.0
  F  F21  1  0.91217241  0.74317344  0.47449057  1.0
  F  F22  1  1.08782759  -0.74317344  0.52550943  1.0
  F  F23  1  1.74317344  -0.08782759  0.02550943  1.0
