# generated using pymatgen
data_CsBiF6
_symmetry_space_group_name_H-M   'P 1'
_cell_length_a   5.57234701
_cell_length_b   5.57234701
_cell_length_c   5.57234701
_cell_angle_alpha   96.31722571
_cell_angle_beta   96.31722571
_cell_angle_gamma   96.31722570
_symmetry_Int_Tables_number   1
_chemical_formula_structural   CsBiF6
_chemical_formula_sum   'Cs1 Bi1 F6'
_cell_volume   169.62085758
_cell_formula_units_Z   1
loop_
 _symmetry_equiv_pos_site_id
 _symmetry_equiv_pos_as_xyz
  1  'x, y, z'
loop_
 _atom_site_type_symbol
 _atom_site_label
 _atom_site_symmetry_multiplicity
 _atom_site_fract_x
 _atom_site_fract_y
 _atom_site_fract_z
 _atom_site_occupancy
  Cs  Cs0  1  0.50000000  0.50000000  0.50000000  1.0
  Bi  Bi1  1  0.00000000  0.00000000  0.00000000  1.0
  F  F2  1  0.78255298  0.70965698  0.08233174  1.0
  F  F3  1  1.29034302  -0.08233174  0.21744702  1.0
  F  F4  1  0.91766826  0.21744702  0.29034302  1.0
  F  F5  1  1.21744702  0.29034302  -0.08233174  1.0
  F  F6  1  0.70965698  1.08233174  -0.21744702  1.0
  F  F7  1  1.08233174  0.78255298  -0.29034302  1.0
