# generated using pymatgen
data_TlFeSe2
_symmetry_space_group_name_H-M   'P 1'
_cell_length_a   7.58004688
_cell_length_b   7.58004688
_cell_length_c   7.58004688
_cell_angle_alpha   150.88318070
_cell_angle_beta   150.88318070
_cell_angle_gamma   41.64651510
_symmetry_Int_Tables_number   1
_chemical_formula_structural   TlFeSe2
_chemical_formula_sum   'Tl1 Fe1 Se2'
_cell_volume   102.88576047
_cell_formula_units_Z   1
loop_
 _symmetry_equiv_pos_site_id
 _symmetry_equiv_pos_as_xyz
  1  'x, y, z'
loop_
 _atom_site_type_symbol
 _atom_site_label
 _atom_site_symmetry_multiplicity
 _atom_site_fract_x
 _atom_site_fract_y
 _atom_site_fract_z
 _atom_site_occupancy
  Tl  Tl0  1  0.00000000  0.00000000  0.00000000  1.0
  Fe  Fe1  1  0.25000000  0.75000000  0.50000000  1.0
  Se  Se2  1  0.35095158  0.35095158  0.00000000  1.0
  Se  Se3  1  0.64904842  0.64904842  1.00000000  1.0
