# generated using pymatgen
data_MgTiO3
_symmetry_space_group_name_H-M   'P 1'
_cell_length_a   5.49065540
_cell_length_b   5.49065540
_cell_length_c   5.49065540
_cell_angle_alpha   55.48527570
_cell_angle_beta   55.48527570
_cell_angle_gamma   55.48527570
_symmetry_Int_Tables_number   1
_chemical_formula_structural   MgTiO3
_chemical_formula_sum   'Mg2 Ti2 O6'
_cell_volume   104.77625667
_cell_formula_units_Z   2
loop_
 _symmetry_equiv_pos_site_id
 _symmetry_equiv_pos_as_xyz
  1  'x, y, z'
loop_
 _atom_site_type_symbol
 _atom_site_label
 _atom_site_symmetry_multiplicity
 _atom_site_fract_x
 _atom_site_fract_y
 _atom_site_fract_z
 _atom_site_occupancy
  Mg  Mg0  1  0.79493027  -0.20506973  -0.20506973  1.0
  Mg  Mg1  1  0.29493027  0.29493027  0.29493027  1.0
  Ti  Ti2  1  0.00983028  0.00983028  0.00983028  1.0
  Ti  Ti3  1  0.50983028  0.50983028  -0.49016972  1.0
  O  O4  1  0.61072198  -0.12897672  0.22299419  1.0
  O  O5  1  0.11072198  0.72299419  -0.62897672  1.0
  O  O6  1  0.72299419  0.37102328  -0.88927802  1.0
  O  O7  1  1.22299419  -0.38927802  -0.12897672  1.0
  O  O8  1  0.37102328  0.11072198  -0.27700581  1.0
  O  O9  1  0.87102328  0.22299419  -0.38927802  1.0
