# generated using pymatgen
data_Hg2BrN
_symmetry_space_group_name_H-M   'P 1'
_cell_length_a   6.73318117
_cell_length_b   6.73318117
_cell_length_c   11.39820435
_cell_angle_alpha   90.00000000
_cell_angle_beta   90.00000000
_cell_angle_gamma   120.00000000
_symmetry_Int_Tables_number   1
_chemical_formula_structural   Hg2BrN
_chemical_formula_sum   'Hg8 Br4 N4'
_cell_volume   447.51507686
_cell_formula_units_Z   4
loop_
 _symmetry_equiv_pos_site_id
 _symmetry_equiv_pos_as_xyz
  1  'x, y, z'
loop_
 _atom_site_type_symbol
 _atom_site_label
 _atom_site_symmetry_multiplicity
 _atom_site_fract_x
 _atom_site_fract_y
 _atom_site_fract_z
 _atom_site_occupancy
  Hg  Hg0  1  0.50000000  0.50000000  0.50000000  1.0
  Hg  Hg1  1  0.50000000  0.50000000  0.00000000  1.0
  Hg  Hg2  1  0.50000000  0.00000000  0.50000000  1.0
  Hg  Hg3  1  0.50000000  0.00000000  0.00000000  1.0
  Hg  Hg4  1  0.00000000  0.50000000  0.50000000  1.0
  Hg  Hg5  1  0.00000000  0.50000000  0.00000000  1.0
  Hg  Hg6  1  0.33333333  0.66666667  0.25000000  1.0
  Hg  Hg7  1  0.66666667  0.33333333  0.75000000  1.0
  Br  Br8  1  0.33333333  0.66666667  0.75000000  1.0
  Br  Br9  1  0.66666667  0.33333333  0.25000000  1.0
  Br  Br10  1  0.00000000  0.00000000  0.50000000  1.0
  Br  Br11  1  0.00000000  0.00000000  0.00000000  1.0
  N  N12  1  0.33333333  0.66666667  0.43093718  1.0
  N  N13  1  0.33333333  0.66666667  0.06906282  1.0
  N  N14  1  0.66666667  0.33333333  0.93093718  1.0
  N  N15  1  0.66666667  0.33333333  0.56906282  1.0
