# generated using pymatgen
data_Ca(BH)2
_symmetry_space_group_name_H-M   'P 1'
_cell_length_a   17.57924779
_cell_length_b   3.24373191
_cell_length_c   3.73790950
_cell_angle_alpha   90.00000000
_cell_angle_beta   90.00000000
_cell_angle_gamma   90.00000000
_symmetry_Int_Tables_number   1
_chemical_formula_structural   Ca(BH)2
_chemical_formula_sum   'Ca4 B8 H8'
_cell_volume   213.14444703
_cell_formula_units_Z   4
loop_
 _symmetry_equiv_pos_site_id
 _symmetry_equiv_pos_as_xyz
  1  'x, y, z'
loop_
 _atom_site_type_symbol
 _atom_site_label
 _atom_site_symmetry_multiplicity
 _atom_site_fract_x
 _atom_site_fract_y
 _atom_site_fract_z
 _atom_site_occupancy
  Ca  Ca0  1  0.12488965  0.75000000  0.73223617  1.0
  Ca  Ca1  1  0.62488965  0.75000000  0.76776383  1.0
  Ca  Ca2  1  0.87511035  0.25000000  0.26776383  1.0
  Ca  Ca3  1  0.37511035  0.25000000  0.23223617  1.0
  B  B4  1  1.00132559  0.75000000  0.39037949  1.0
  B  B5  1  0.50132559  0.75000000  0.10962051  1.0
  B  B6  1  -0.00132559  0.25000000  0.60962051  1.0
  B  B7  1  0.49867441  0.25000000  0.89037949  1.0
  B  B8  1  0.74764083  0.75000000  1.26347592  1.0
  B  B9  1  0.24764083  0.75000000  0.23652408  1.0
  B  B10  1  0.25235917  0.25000000  -0.26347592  1.0
  B  B11  1  0.75235917  0.25000000  0.76347592  1.0
  H  H12  1  0.06339608  0.75000000  0.22620595  1.0
  H  H13  1  0.56339608  0.75000000  0.27379405  1.0
  H  H14  1  0.93660392  0.25000000  0.77379405  1.0
  H  H15  1  0.43660392  0.25000000  0.72620595  1.0
  H  H16  1  0.95680660  0.75000000  0.13420819  1.0
  H  H17  1  0.45680660  0.75000000  0.36579181  1.0
  H  H18  1  0.04319340  0.25000000  0.86579181  1.0
  H  H19  1  0.54319340  0.25000000  0.63420819  1.0
