# generated using pymatgen
data_K3AlAs2
_symmetry_space_group_name_H-M   'P 1'
_cell_length_a   15.61033560
_cell_length_b   12.33010879
_cell_length_c   9.18106222
_cell_angle_alpha   72.26364701
_cell_angle_beta   72.94964593
_cell_angle_gamma   72.67434856
_symmetry_Int_Tables_number   1
_chemical_formula_structural   K3AlAs2
_chemical_formula_sum   'K24 Al8 As16'
_cell_volume   1566.42980573
_cell_formula_units_Z   8
loop_
 _symmetry_equiv_pos_site_id
 _symmetry_equiv_pos_as_xyz
  1  'x, y, z'
loop_
 _atom_site_type_symbol
 _atom_site_label
 _atom_site_symmetry_multiplicity
 _atom_site_fract_x
 _atom_site_fract_y
 _atom_site_fract_z
 _atom_site_occupancy
  K  K0  1  0.18040312  -0.73477744  0.80623358  1.0
  K  K1  1  0.81959688  -0.26522256  -0.80623358  1.0
  K  K2  1  0.80782701  -0.90061498  0.18426586  1.0
  K  K3  1  0.19217299  -0.09938502  -0.18426586  1.0
  K  K4  1  0.91313520  -0.60634859  0.01537696  1.0
  K  K5  1  0.08686480  -0.39365141  -0.01537696  1.0
  K  K6  1  0.52149938  -0.41175421  0.31816333  1.0
  K  K7  1  0.47850062  -0.58824579  -0.31816333  1.0
  K  K8  1  0.34507396  -0.92557795  0.47914279  1.0
  K  K9  1  0.65492604  -0.07442205  -0.47914279  1.0
  K  K10  1  0.88046075  -0.24738071  -0.22345991  1.0
  K  K11  1  0.11953925  -0.75261929  0.22345991  1.0
  K  K12  1  0.64752656  -0.59794752  -0.02487437  1.0
  K  K13  1  0.35247344  -0.40205248  0.02487437  1.0
  K  K14  1  0.74288136  -0.92234472  -0.15728267  1.0
  K  K15  1  0.25711864  -0.07765528  0.15728267  1.0
  K  K16  1  0.80758568  -0.41874034  -0.34448702  1.0
  K  K17  1  0.19241432  -0.58125966  0.34448702  1.0
  K  K18  1  0.91717598  -0.87490840  -0.50886606  1.0
  K  K19  1  0.08282402  -0.12509160  0.50886606  1.0
  K  K20  1  0.47444452  -0.87699150  -0.17064347  1.0
  K  K21  1  0.52555548  -0.12300850  0.17064347  1.0
  K  K22  1  0.75472958  -0.58639922  -0.53202164  1.0
  K  K23  1  0.24527042  -0.41360078  0.53202164  1.0
  Al  Al24  1  0.55366731  -0.76816790  0.36310604  1.0
  Al  Al25  1  0.44633269  -0.23183210  -0.36310604  1.0
  Al  Al26  1  0.99010169  -0.88764140  -0.15447162  1.0
  Al  Al27  1  0.00989831  -0.11235860  0.15447162  1.0
  Al  Al28  1  0.99166647  -0.64186977  -0.40584069  1.0
  Al  Al29  1  0.00833353  -0.35813023  0.40584069  1.0
  Al  Al30  1  0.42453417  -0.71713426  0.14887744  1.0
  Al  Al31  1  0.57546583  -0.28286574  -0.14887744  1.0
  As  As32  1  0.95911471  -0.08990315  -0.09600866  1.0
  As  As33  1  0.04088529  -0.91009685  0.09600866  1.0
  As  As34  1  0.40917862  -0.62178194  0.36031958  1.0
  As  As35  1  0.59082138  -0.37821806  -0.36031958  1.0
  As  As36  1  0.56834586  -0.86986390  0.15899657  1.0
  As  As37  1  0.43165414  -0.13013610  -0.15899657  1.0
  As  As38  1  0.68451917  -0.33381196  0.00831157  1.0
  As  As39  1  0.31548083  -0.66618804  -0.00831157  1.0
  As  As40  1  0.10729630  -0.83817515  0.59078624  1.0
  As  As41  1  0.89270370  -0.16182485  -0.59078624  1.0
  As  As42  1  0.85510356  -0.71905283  -0.21611076  1.0
  As  As43  1  0.14489644  -0.28094717  0.21611076  1.0
  As  As44  1  0.96125745  -0.51520318  -0.67190598  1.0
  As  As45  1  0.03874255  -0.48479682  0.67190598  1.0
  As  As46  1  0.65670426  -0.80043903  -0.47688105  1.0
  As  As47  1  0.34329574  -0.19956097  0.47688105  1.0
