# generated using pymatgen
data_TbInIr
_symmetry_space_group_name_H-M   'P 1'
_cell_length_a   7.52338987
_cell_length_b   7.52338987
_cell_length_c   3.96318581
_cell_angle_alpha   90.00000000
_cell_angle_beta   90.00000000
_cell_angle_gamma   120.00000000
_symmetry_Int_Tables_number   1
_chemical_formula_structural   TbInIr
_chemical_formula_sum   'Tb3 In3 Ir3'
_cell_volume   194.26841764
_cell_formula_units_Z   3
loop_
 _symmetry_equiv_pos_site_id
 _symmetry_equiv_pos_as_xyz
  1  'x, y, z'
loop_
 _atom_site_type_symbol
 _atom_site_label
 _atom_site_symmetry_multiplicity
 _atom_site_fract_x
 _atom_site_fract_y
 _atom_site_fract_z
 _atom_site_occupancy
  Tb  Tb0  1  0.40675567  0.40675567  0.00000000  1.0
  Tb  Tb1  1  0.00000000  0.59324433  0.00000000  1.0
  Tb  Tb2  1  0.59324433  -0.00000000  -0.00000000  1.0
  In  In3  1  0.74286734  0.74286734  0.50000000  1.0
  In  In4  1  0.00000000  0.25713266  0.50000000  1.0
  In  In5  1  0.25713266  0.00000000  0.50000000  1.0
  Ir  Ir6  1  0.33333333  0.66666667  0.50000000  1.0
  Ir  Ir7  1  0.66666667  0.33333333  0.50000000  1.0
  Ir  Ir8  1  -0.00000000  -0.00000000  -0.00000000  1.0
