# generated using pymatgen
data_RbHgSbSe3
_symmetry_space_group_name_H-M   'P 1'
_cell_length_a   8.04661998
_cell_length_b   11.51194114
_cell_length_c   9.07246573
_cell_angle_alpha   90.00000000
_cell_angle_beta   106.18562574
_cell_angle_gamma   90.00000000
_symmetry_Int_Tables_number   1
_chemical_formula_structural   RbHgSbSe3
_chemical_formula_sum   'Rb4 Hg4 Sb4 Se12'
_cell_volume   807.09210818
_cell_formula_units_Z   4
loop_
 _symmetry_equiv_pos_site_id
 _symmetry_equiv_pos_as_xyz
  1  'x, y, z'
loop_
 _atom_site_type_symbol
 _atom_site_label
 _atom_site_symmetry_multiplicity
 _atom_site_fract_x
 _atom_site_fract_y
 _atom_site_fract_z
 _atom_site_occupancy
  Rb  Rb0  1  0.47899254  0.25509432  0.11975368  1.0
  Rb  Rb1  1  0.47899254  0.24490568  0.61975368  1.0
  Rb  Rb2  1  0.52100746  0.75509432  0.38024632  1.0
  Rb  Rb3  1  0.52100746  0.74490568  0.88024632  1.0
  Hg  Hg4  1  0.90831762  0.25098843  0.47763074  1.0
  Hg  Hg5  1  0.90831762  0.24901157  0.97763074  1.0
  Hg  Hg6  1  0.09168238  0.75098843  0.02236926  1.0
  Hg  Hg7  1  0.09168238  0.74901157  0.52236926  1.0
  Sb  Sb8  1  0.94565442  0.50013166  0.23588406  1.0
  Sb  Sb9  1  0.94565442  -0.00013166  0.73588406  1.0
  Sb  Sb10  1  0.05434558  0.00013166  0.26411594  1.0
  Sb  Sb11  1  0.05434558  0.49986834  0.76411594  1.0
  Se  Se12  1  0.87472614  0.72621491  0.21874201  1.0
  Se  Se13  1  0.87472614  0.77378509  0.71874201  1.0
  Se  Se14  1  0.12527386  0.22621491  0.28125799  1.0
  Se  Se15  1  0.12527386  0.27378509  0.78125799  1.0
  Se  Se16  1  0.73854308  0.05162892  0.46309121  1.0
  Se  Se17  1  0.73854308  0.44837108  0.96309121  1.0
  Se  Se18  1  0.26145692  0.55162892  0.03690879  1.0
  Se  Se19  1  0.26145692  0.94837108  0.53690879  1.0
  Se  Se20  1  0.73595493  0.44958768  0.40555020  1.0
  Se  Se21  1  0.73595493  0.05041232  0.90555020  1.0
  Se  Se22  1  0.26404507  0.94958768  0.09444980  1.0
  Se  Se23  1  0.26404507  0.55041232  0.59444980  1.0
