# generated using pymatgen
data_CaMnP2O7
_symmetry_space_group_name_H-M   'P 1'
_cell_length_a   6.59755176
_cell_length_b   6.83838097
_cell_length_c   6.64762502
_cell_angle_alpha   113.86936914
_cell_angle_beta   97.40532661
_cell_angle_gamma   86.43269574
_symmetry_Int_Tables_number   1
_chemical_formula_structural   CaMnP2O7
_chemical_formula_sum   'Ca2 Mn2 P4 O14'
_cell_volume   271.96182941
_cell_formula_units_Z   2
loop_
 _symmetry_equiv_pos_site_id
 _symmetry_equiv_pos_as_xyz
  1  'x, y, z'
loop_
 _atom_site_type_symbol
 _atom_site_label
 _atom_site_symmetry_multiplicity
 _atom_site_fract_x
 _atom_site_fract_y
 _atom_site_fract_z
 _atom_site_occupancy
  Ca  Ca0  1  -0.14214561  -0.33326831  0.72893402  1.0
  Ca  Ca1  1  -0.85785439  -0.66673169  0.27106598  1.0
  Mn  Mn2  1  -0.65286458  -0.26182958  0.10515998  1.0
  Mn  Mn3  1  -0.34713542  -0.73817042  0.89484002  1.0
  P  P4  1  -0.63465757  -0.17397449  0.64059079  1.0
  P  P5  1  -0.36534243  -0.82602551  0.35940921  1.0
  P  P6  1  -0.15053997  -0.24880857  0.23136477  1.0
  P  P7  1  -0.84946003  -0.75119143  0.76863523  1.0
  O  O8  1  -0.23054483  -0.02053606  0.39649847  1.0
  O  O9  1  -0.76945517  -0.97946394  0.60350153  1.0
  O  O10  1  -0.41853841  -0.08398388  0.74364766  1.0
  O  O11  1  -0.58146159  -0.91601612  0.25635234  1.0
  O  O12  1  -0.98308840  -0.21741980  0.10488322  1.0
  O  O13  1  -0.01691160  -0.78258020  0.89511678  1.0
  O  O14  1  -0.63655949  -0.34490047  0.40210507  1.0
  O  O15  1  -0.36344051  -0.65509953  0.59789493  1.0
  O  O16  1  -0.07532662  -0.36109980  0.38378721  1.0
  O  O17  1  -0.92467338  -0.63890020  0.61621279  1.0
  O  O18  1  -0.33224678  -0.36069516  0.05466253  1.0
  O  O19  1  -0.66775322  -0.63930484  0.94533747  1.0
  O  O20  1  -0.25473311  -0.76317605  0.20600153  1.0
  O  O21  1  -0.74526689  -0.23682395  0.79399847  1.0
