# generated using pymatgen
data_P2S3
_symmetry_space_group_name_H-M   'P 1'
_cell_length_a   7.67761181
_cell_length_b   13.62250074
_cell_length_c   12.47728394
_cell_angle_alpha   90.00000000
_cell_angle_beta   99.03026756
_cell_angle_gamma   90.00000000
_symmetry_Int_Tables_number   1
_chemical_formula_structural   P2S3
_chemical_formula_sum   'P16 S24'
_cell_volume   1288.80311208
_cell_formula_units_Z   8
loop_
 _symmetry_equiv_pos_site_id
 _symmetry_equiv_pos_as_xyz
  1  'x, y, z'
loop_
 _atom_site_type_symbol
 _atom_site_label
 _atom_site_symmetry_multiplicity
 _atom_site_fract_x
 _atom_site_fract_y
 _atom_site_fract_z
 _atom_site_occupancy
  P  P0  1  0.85478299  0.44994137  0.25123236  1.0
  P  P1  1  0.85478299  0.05005863  0.75123236  1.0
  P  P2  1  0.14521701  0.94994137  0.24876764  1.0
  P  P3  1  0.14521701  0.55005863  0.74876764  1.0
  P  P4  1  0.78146552  0.08660747  0.15705071  1.0
  P  P5  1  0.78146552  0.41339253  0.65705071  1.0
  P  P6  1  0.21853448  0.58660747  0.34294929  1.0
  P  P7  1  0.21853448  0.91339253  0.84294929  1.0
  P  P8  1  0.72273666  0.90831356  0.32833346  1.0
  P  P9  1  0.72273666  0.59168644  0.82833346  1.0
  P  P10  1  0.27726334  0.40831356  0.17166654  1.0
  P  P11  1  0.27726334  0.09168644  0.67166654  1.0
  P  P12  1  0.23674577  0.43396389  0.43130067  1.0
  P  P13  1  0.23674577  0.06603611  0.93130067  1.0
  P  P14  1  0.76325423  0.93396389  0.06869933  1.0
  P  P15  1  0.76325423  0.56603611  0.56869933  1.0
  S  S16  1  1.00194348  0.39101037  0.12963547  1.0
  S  S17  1  1.00194348  0.10898963  0.62963547  1.0
  S  S18  1  -0.00194348  0.89101037  0.37036453  1.0
  S  S19  1  -0.00194348  0.60898963  0.87036453  1.0
  S  S20  1  0.96864454  0.38558359  0.40092974  1.0
  S  S21  1  0.96864454  0.11441641  0.90092974  1.0
  S  S22  1  0.03135546  0.88558359  0.09907026  1.0
  S  S23  1  0.03135546  0.61441641  0.59907026  1.0
  S  S24  1  0.94404411  0.59602689  0.28184118  1.0
  S  S25  1  0.94404411  0.90397311  0.78184118  1.0
  S  S26  1  0.05595589  0.09602689  0.21815882  1.0
  S  S27  1  0.05595589  0.40397311  0.71815882  1.0
  S  S28  1  0.65821069  0.05794318  0.29541469  1.0
  S  S29  1  0.65821069  0.44205682  0.79541469  1.0
  S  S30  1  0.34178931  0.55794318  0.20458531  1.0
  S  S31  1  0.34178931  0.94205682  0.70458531  1.0
  S  S32  1  0.61292354  0.85206347  0.44325949  1.0
  S  S33  1  0.61292354  0.64793653  0.94325949  1.0
  S  S34  1  0.38707646  0.35206347  0.05674051  1.0
  S  S35  1  0.38707646  0.14793653  0.55674051  1.0
  S  S36  1  0.36659453  0.34622638  0.32675579  1.0
  S  S37  1  0.36659453  0.15377362  0.82675579  1.0
  S  S38  1  0.63340547  0.84622638  0.17324421  1.0
  S  S39  1  0.63340547  0.65377362  0.67324421  1.0
