# generated using pymatgen
data_LaRhO3
_symmetry_space_group_name_H-M   'P 1'
_cell_length_a   5.86363032
_cell_length_b   7.92997603
_cell_length_c   5.51405747
_cell_angle_alpha   90.00000000
_cell_angle_beta   90.00000000
_cell_angle_gamma   90.00000000
_symmetry_Int_Tables_number   1
_chemical_formula_structural   LaRhO3
_chemical_formula_sum   'La4 Rh4 O12'
_cell_volume   256.39511371
_cell_formula_units_Z   4
loop_
 _symmetry_equiv_pos_site_id
 _symmetry_equiv_pos_as_xyz
  1  'x, y, z'
loop_
 _atom_site_type_symbol
 _atom_site_label
 _atom_site_symmetry_multiplicity
 _atom_site_fract_x
 _atom_site_fract_y
 _atom_site_fract_z
 _atom_site_occupancy
  La  La0  1  0.06877972  0.75000000  0.51957985  1.0
  La  La1  1  0.56877972  0.75000000  0.98042015  1.0
  La  La2  1  0.93122028  0.25000000  0.48042015  1.0
  La  La3  1  0.43122028  0.25000000  0.01957985  1.0
  Rh  Rh4  1  0.50000000  0.00000000  0.50000000  1.0
  Rh  Rh5  1  0.50000000  0.50000000  0.50000000  1.0
  Rh  Rh6  1  0.00000000  0.00000000  0.00000000  1.0
  Rh  Rh7  1  0.00000000  0.50000000  0.00000000  1.0
  O  O8  1  0.30144947  0.94909523  0.80968482  1.0
  O  O9  1  0.30144947  0.55090477  0.80968482  1.0
  O  O10  1  0.80144947  0.94909523  0.69031518  1.0
  O  O11  1  0.80144947  0.55090477  0.69031518  1.0
  O  O12  1  0.69855053  0.44909523  0.19031518  1.0
  O  O13  1  0.69855053  0.05090477  0.19031518  1.0
  O  O14  1  0.19855053  0.44909523  0.30968482  1.0
  O  O15  1  0.19855053  0.05090477  0.30968482  1.0
  O  O16  1  0.97062906  0.75000000  0.10195234  1.0
  O  O17  1  0.47062906  0.75000000  0.39804766  1.0
  O  O18  1  0.02937094  0.25000000  0.89804766  1.0
  O  O19  1  0.52937094  0.25000000  0.60195234  1.0
