# generated using pymatgen
data_BeSiSb2
_symmetry_space_group_name_H-M   'P 1'
_cell_length_a   7.15876120
_cell_length_b   7.15876120
_cell_length_c   7.15876120
_cell_angle_alpha   131.84288446
_cell_angle_beta   131.84288446
_cell_angle_gamma   70.47728727
_symmetry_Int_Tables_number   1
_chemical_formula_structural   BeSiSb2
_chemical_formula_sum   'Be2 Si2 Sb4'
_cell_volume   199.50897180
_cell_formula_units_Z   2
loop_
 _symmetry_equiv_pos_site_id
 _symmetry_equiv_pos_as_xyz
  1  'x, y, z'
loop_
 _atom_site_type_symbol
 _atom_site_label
 _atom_site_symmetry_multiplicity
 _atom_site_fract_x
 _atom_site_fract_y
 _atom_site_fract_z
 _atom_site_occupancy
  Be  Be0  1  1.00000000  1.00000000  1.00000000  1.0
  Be  Be1  1  0.75000000  0.25000000  0.50000000  1.0
  Si  Si2  1  0.50000000  0.50000000  0.00000000  1.0
  Si  Si3  1  0.25000000  0.75000000  0.50000000  1.0
  Sb  Sb4  1  1.37500000  0.89842840  1.02342840  1.0
  Sb  Sb5  1  0.87500000  1.35157160  0.97657160  1.0
  Sb  Sb6  1  0.64842840  0.62500000  0.52342840  1.0
  Sb  Sb7  1  1.10157160  1.12500000  1.47657160  1.0
