# generated using pymatgen
data_Si3Os2
_symmetry_space_group_name_H-M   'P 1'
_cell_length_a   11.23119244
_cell_length_b   9.02257093
_cell_length_c   5.62179213
_cell_angle_alpha   90.00000000
_cell_angle_beta   90.00000000
_cell_angle_gamma   90.00000000
_symmetry_Int_Tables_number   1
_chemical_formula_structural   Si3Os2
_chemical_formula_sum   'Si24 Os16'
_cell_volume   569.67997947
_cell_formula_units_Z   8
loop_
 _symmetry_equiv_pos_site_id
 _symmetry_equiv_pos_as_xyz
  1  'x, y, z'
loop_
 _atom_site_type_symbol
 _atom_site_label
 _atom_site_symmetry_multiplicity
 _atom_site_fract_x
 _atom_site_fract_y
 _atom_site_fract_z
 _atom_site_occupancy
  Si  Si0  1  0.92639042  0.70545492  0.55621994  1.0
  Si  Si1  1  0.92639042  0.29454508  0.05621994  1.0
  Si  Si2  1  0.42639042  0.20545492  0.94378006  1.0
  Si  Si3  1  0.42639042  0.79454508  0.44378006  1.0
  Si  Si4  1  0.07360958  0.70545492  0.94378006  1.0
  Si  Si5  1  0.07360958  0.29454508  0.44378006  1.0
  Si  Si6  1  0.57360958  0.20545492  0.55621994  1.0
  Si  Si7  1  0.57360958  0.79454508  0.05621994  1.0
  Si  Si8  1  0.81840727  0.56339829  0.90938805  1.0
  Si  Si9  1  0.81840727  0.43660171  0.40938805  1.0
  Si  Si10  1  0.31840727  0.06339829  0.59061195  1.0
  Si  Si11  1  0.31840727  0.93660171  0.09061195  1.0
  Si  Si12  1  0.18159273  0.56339829  0.59061195  1.0
  Si  Si13  1  0.18159273  0.43660171  0.09061195  1.0
  Si  Si14  1  0.68159273  0.06339829  0.90938805  1.0
  Si  Si15  1  0.68159273  0.93660171  0.40938805  1.0
  Si  Si16  1  0.63029012  0.60715293  0.60445507  1.0
  Si  Si17  1  0.63029012  0.39284707  0.10445507  1.0
  Si  Si18  1  0.13029012  0.10715293  0.89554493  1.0
  Si  Si19  1  0.13029012  0.89284707  0.39554493  1.0
  Si  Si20  1  0.36970988  0.60715293  0.89554493  1.0
  Si  Si21  1  0.36970988  0.39284707  0.39554493  1.0
  Si  Si22  1  0.86970988  0.10715293  0.60445507  1.0
  Si  Si23  1  0.86970988  0.89284707  0.10445507  1.0
  Os  Os24  1  0.74516465  0.81325086  0.76247414  1.0
  Os  Os25  1  0.74516465  0.18674914  0.26247414  1.0
  Os  Os26  1  0.24516465  0.31325086  0.73752586  1.0
  Os  Os27  1  0.24516465  0.68674914  0.23752586  1.0
  Os  Os28  1  0.25483535  0.81325086  0.73752586  1.0
  Os  Os29  1  0.25483535  0.18674914  0.23752586  1.0
  Os  Os30  1  0.75483535  0.31325086  0.76247414  1.0
  Os  Os31  1  0.75483535  0.68674914  0.26247414  1.0
  Os  Os32  1  0.00000000  0.92400132  0.75000000  1.0
  Os  Os33  1  0.00000000  0.07599868  0.25000000  1.0
  Os  Os34  1  0.50000000  0.42400132  0.75000000  1.0
  Os  Os35  1  0.50000000  0.57599868  0.25000000  1.0
  Os  Os36  1  0.00000000  0.46226510  0.75000000  1.0
  Os  Os37  1  0.00000000  0.53773490  0.25000000  1.0
  Os  Os38  1  0.50000000  0.96226510  0.75000000  1.0
  Os  Os39  1  0.50000000  0.03773490  0.25000000  1.0
