# generated using pymatgen
data_K2SN2O5
_symmetry_space_group_name_H-M   'P 1'
_cell_length_a   7.22913700
_cell_length_b   8.23530261
_cell_length_c   10.12569589
_cell_angle_alpha   90.00000000
_cell_angle_beta   90.00000000
_cell_angle_gamma   90.00000000
_symmetry_Int_Tables_number   1
_chemical_formula_structural   K2SN2O5
_chemical_formula_sum   'K8 S4 N8 O20'
_cell_volume   602.82450436
_cell_formula_units_Z   4
loop_
 _symmetry_equiv_pos_site_id
 _symmetry_equiv_pos_as_xyz
  1  'x, y, z'
loop_
 _atom_site_type_symbol
 _atom_site_label
 _atom_site_symmetry_multiplicity
 _atom_site_fract_x
 _atom_site_fract_y
 _atom_site_fract_z
 _atom_site_occupancy
  K  K0  1  0.45007399  0.99407091  0.18799556  1.0
  K  K1  1  0.45007399  0.50592909  0.18799556  1.0
  K  K2  1  0.95007399  0.99407091  0.31200444  1.0
  K  K3  1  0.95007399  0.50592909  0.31200444  1.0
  K  K4  1  0.54992601  0.49407091  0.81200444  1.0
  K  K5  1  0.54992601  0.00592909  0.81200444  1.0
  K  K6  1  0.04992601  0.49407091  0.68799556  1.0
  K  K7  1  0.04992601  0.00592909  0.68799556  1.0
  S  S8  1  0.35952709  0.75000000  0.50086814  1.0
  S  S9  1  0.85952709  0.75000000  0.99913186  1.0
  S  S10  1  0.64047291  0.25000000  0.49913186  1.0
  S  S11  1  0.14047291  0.25000000  0.00086814  1.0
  N  N12  1  0.21615553  0.75000000  0.93791226  1.0
  N  N13  1  0.71615553  0.75000000  0.56208774  1.0
  N  N14  1  0.78384447  0.25000000  0.06208774  1.0
  N  N15  1  0.28384447  0.25000000  0.43791226  1.0
  N  N16  1  0.10211068  0.75000000  0.03721801  1.0
  N  N17  1  0.60211068  0.75000000  0.46278199  1.0
  N  N18  1  0.89788932  0.25000000  0.96278199  1.0
  N  N19  1  0.39788932  0.25000000  0.53721801  1.0
  O  O20  1  0.20608567  0.39960214  0.93827752  1.0
  O  O21  1  0.20608567  0.10039786  0.93827752  1.0
  O  O22  1  0.70608567  0.39960214  0.56172248  1.0
  O  O23  1  0.70608567  0.10039786  0.56172248  1.0
  O  O24  1  0.79391433  0.89960214  0.06172248  1.0
  O  O25  1  0.79391433  0.60039786  0.06172248  1.0
  O  O26  1  0.29391433  0.89960214  0.43827752  1.0
  O  O27  1  0.29391433  0.60039786  0.43827752  1.0
  O  O28  1  0.38852939  0.75000000  0.97197164  1.0
  O  O29  1  0.88852939  0.75000000  0.52802836  1.0
  O  O30  1  0.61147061  0.25000000  0.02802836  1.0
  O  O31  1  0.11147061  0.25000000  0.47197164  1.0
  O  O32  1  0.34666650  0.75000000  0.64570491  1.0
  O  O33  1  0.84666650  0.75000000  0.85429509  1.0
  O  O34  1  0.65333350  0.25000000  0.35429509  1.0
  O  O35  1  0.15333350  0.25000000  0.14570491  1.0
  O  O36  1  0.14502632  0.75000000  0.16230629  1.0
  O  O37  1  0.64502632  0.75000000  0.33769371  1.0
  O  O38  1  0.85497368  0.25000000  0.83769371  1.0
  O  O39  1  0.35497368  0.25000000  0.66230629  1.0
