# generated using pymatgen
data_SrRhO3
_symmetry_space_group_name_H-M   'P 1'
_cell_length_a   5.64407597
_cell_length_b   7.91806231
_cell_length_c   5.59373798
_cell_angle_alpha   90.00000000
_cell_angle_beta   90.00000000
_cell_angle_gamma   90.00000000
_symmetry_Int_Tables_number   1
_chemical_formula_structural   SrRhO3
_chemical_formula_sum   'Sr4 Rh4 O12'
_cell_volume   249.98496290
_cell_formula_units_Z   4
loop_
 _symmetry_equiv_pos_site_id
 _symmetry_equiv_pos_as_xyz
  1  'x, y, z'
loop_
 _atom_site_type_symbol
 _atom_site_label
 _atom_site_symmetry_multiplicity
 _atom_site_fract_x
 _atom_site_fract_y
 _atom_site_fract_z
 _atom_site_occupancy
  Rh  Rh0  1  0.50000000  0.00000000  0.50000000  1.0
  Rh  Rh1  1  0.50000000  0.50000000  0.50000000  1.0
  Rh  Rh2  1  0.00000000  0.00000000  0.00000000  1.0
  Rh  Rh3  1  0.00000000  0.50000000  0.00000000  1.0
  O  O4  1  0.98520626  0.75000000  1.07597733  1.0
  O  O5  1  0.48520626  0.75000000  0.42402267  1.0
  O  O6  1  0.01479374  0.25000000  -0.07597733  1.0
  O  O7  1  0.51479374  0.25000000  0.57597733  1.0
  O  O8  1  0.29243510  0.96107835  0.79359267  1.0
  O  O9  1  0.29243510  0.53892165  0.79359267  1.0
  O  O10  1  0.79243510  0.96107835  0.70640733  1.0
  O  O11  1  0.79243510  0.53892165  0.70640733  1.0
  O  O12  1  0.70756490  0.46107835  0.20640733  1.0
  O  O13  1  0.70756490  0.03892165  0.20640733  1.0
  O  O14  1  0.20756490  0.46107835  0.29359267  1.0
  O  O15  1  0.20756490  0.03892165  0.29359267  1.0
  Sr  Sr16  1  0.04164289  0.75000000  0.50779514  1.0
  Sr  Sr17  1  0.54164289  0.75000000  -0.00779514  1.0
  Sr  Sr18  1  0.95835711  0.25000000  0.49220486  1.0
  Sr  Sr19  1  0.45835711  0.25000000  1.00779514  1.0
