# generated using pymatgen
data_SiO2
_symmetry_space_group_name_H-M   'P 1'
_cell_length_a   11.31231270
_cell_length_b   11.31231270
_cell_length_c   5.12577145
_cell_angle_alpha   90.00000000
_cell_angle_beta   90.00000000
_cell_angle_gamma   102.96220531
_symmetry_Int_Tables_number   1
_chemical_formula_structural   SiO2
_chemical_formula_sum   'Si12 O24'
_cell_volume   639.22244002
_cell_formula_units_Z   12
loop_
 _symmetry_equiv_pos_site_id
 _symmetry_equiv_pos_as_xyz
  1  'x, y, z'
loop_
 _atom_site_type_symbol
 _atom_site_label
 _atom_site_symmetry_multiplicity
 _atom_site_fract_x
 _atom_site_fract_y
 _atom_site_fract_z
 _atom_site_occupancy
  Si  Si0  1  -0.15586290  1.74685634  0.02755768  1.0
  Si  Si1  1  0.74685634  0.84413710  0.52755768  1.0
  Si  Si2  1  -0.74685634  1.15586290  0.02755768  1.0
  Si  Si3  1  0.15586290  0.25314366  0.52755768  1.0
  Si  Si4  1  -0.08332082  1.49487347  0.10110628  1.0
  Si  Si5  1  0.49487347  0.91667918  0.60110628  1.0
  Si  Si6  1  -0.49487347  1.08332082  0.10110628  1.0
  Si  Si7  1  0.08332082  0.50512653  0.60110628  1.0
  Si  Si8  1  0.12316736  0.87683264  0.00554040  1.0
  Si  Si9  1  -0.12316736  1.12316736  0.50554040  1.0
  Si  Si10  1  0.22626547  0.77373453  0.50501333  1.0
  Si  Si11  1  -0.22626547  1.22626547  0.00501333  1.0
  O  O12  1  -0.02194803  1.83629685  0.05387542  1.0
  O  O13  1  0.83629685  0.97805197  0.55387542  1.0
  O  O14  1  -0.83629685  1.02194803  0.05387542  1.0
  O  O15  1  0.02194803  0.16370315  0.55387542  1.0
  O  O16  1  -0.15001772  1.60743766  0.08636075  1.0
  O  O17  1  0.60743766  0.84998228  0.58636075  1.0
  O  O18  1  -0.60743766  1.15001772  0.08636075  1.0
  O  O19  1  0.15001772  0.39256234  0.58636075  1.0
  O  O20  1  -0.02733989  1.48790984  0.39159638  1.0
  O  O21  1  0.48790984  0.97266011  0.89159638  1.0
  O  O22  1  -0.48790984  1.02733989  0.39159638  1.0
  O  O23  1  0.02733989  0.51209016  0.89159638  1.0
  O  O24  1  0.20948500  0.24635591  0.23489605  1.0
  O  O25  1  -0.75364409  1.20948500  0.73489605  1.0
  O  O26  1  0.75364409  0.79051500  0.23489605  1.0
  O  O27  1  -0.20948500  1.75364409  0.73489605  1.0
  O  O28  1  -0.18564516  1.37181544  0.04694686  1.0
  O  O29  1  0.37181544  0.81435484  0.54694686  1.0
  O  O30  1  -0.37181544  1.18564516  0.04694686  1.0
  O  O31  1  0.18564516  0.62818456  0.54694686  1.0
  O  O32  1  0.15507442  0.84492558  0.70731193  1.0
  O  O33  1  -0.15507442  1.15507442  0.20731193  1.0
  O  O34  1  0.19413135  0.80586865  0.20745550  1.0
  O  O35  1  -0.19413135  1.19413135  0.70745550  1.0
