# generated using pymatgen
data_BaCr10O15
_symmetry_space_group_name_H-M   'P 1'
_cell_length_a   7.70936372
_cell_length_b   7.70936372
_cell_length_c   9.42819860
_cell_angle_alpha   90.00000000
_cell_angle_beta   90.00000000
_cell_angle_gamma   82.92226933
_symmetry_Int_Tables_number   1
_chemical_formula_structural   BaCr10O15
_chemical_formula_sum   'Ba2 Cr20 O30'
_cell_volume   556.08829595
_cell_formula_units_Z   2
loop_
 _symmetry_equiv_pos_site_id
 _symmetry_equiv_pos_as_xyz
  1  'x, y, z'
loop_
 _atom_site_type_symbol
 _atom_site_label
 _atom_site_symmetry_multiplicity
 _atom_site_fract_x
 _atom_site_fract_y
 _atom_site_fract_z
 _atom_site_occupancy
  Ba  Ba0  1  -0.00000000  1.00000000  0.50000000  1.0
  Ba  Ba1  1  -0.50000000  0.50000000  0.00000000  1.0
  Cr  Cr2  1  -0.21361651  0.95942229  0.14389134  1.0
  Cr  Cr3  1  0.28638349  1.45942229  0.35610866  1.0
  Cr  Cr4  1  -0.04057771  0.78638349  0.85610866  1.0
  Cr  Cr5  1  0.45942229  1.28638349  0.64389134  1.0
  Cr  Cr6  1  0.04057771  1.21361651  0.14389134  1.0
  Cr  Cr7  1  -0.45942229  0.71361651  0.35610866  1.0
  Cr  Cr8  1  0.21361651  1.04057771  0.85610866  1.0
  Cr  Cr9  1  -0.28638349  0.54057771  0.64389134  1.0
  Cr  Cr10  1  0.40787514  1.08212525  0.38414211  1.0
  Cr  Cr11  1  -0.09212486  0.58212525  0.11585789  1.0
  Cr  Cr12  1  0.08212525  1.40787514  0.61585789  1.0
  Cr  Cr13  1  -0.41787475  0.90787514  0.88414211  1.0
  Cr  Cr14  1  -0.08212525  0.59212486  0.38414211  1.0
  Cr  Cr15  1  0.41787475  1.09212486  0.11585789  1.0
  Cr  Cr16  1  -0.40787514  0.91787475  0.61585789  1.0
  Cr  Cr17  1  0.09212486  1.41787475  0.88414211  1.0
  Cr  Cr18  1  -0.31803823  1.31803823  0.36496048  1.0
  Cr  Cr19  1  0.18196177  0.81803823  0.13503952  1.0
  Cr  Cr20  1  0.31803823  0.68196177  0.63503952  1.0
  Cr  Cr21  1  -0.18196177  1.18196177  0.86496048  1.0
  O  O22  1  -0.39296113  1.13679691  0.50460219  1.0
  O  O23  1  0.10703887  0.63679691  0.99539781  1.0
  O  O24  1  0.13679691  0.60703887  0.49539781  1.0
  O  O25  1  -0.36320309  1.10703887  0.00460219  1.0
  O  O26  1  -0.13679691  1.39296113  0.50460219  1.0
  O  O27  1  0.36320309  0.89296113  0.99539781  1.0
  O  O28  1  0.39296113  0.86320309  0.49539781  1.0
  O  O29  1  -0.10703887  1.36320309  0.00460219  1.0
  O  O30  1  0.46090635  1.28107279  0.25903105  1.0
  O  O31  1  -0.03909365  0.78107279  0.24096895  1.0
  O  O32  1  0.28107279  1.46090635  0.74096895  1.0
  O  O33  1  -0.21892721  0.96090635  0.75903105  1.0
  O  O34  1  -0.28107279  0.53909365  0.25903105  1.0
  O  O35  1  0.21892721  1.03909365  0.24096895  1.0
  O  O36  1  -0.46090635  0.71892721  0.74096895  1.0
  O  O37  1  0.03909365  1.21892721  0.75903105  1.0
  O  O38  1  -0.15185292  1.15185292  0.26110114  1.0
  O  O39  1  0.34814708  0.65185292  0.23889886  1.0
  O  O40  1  0.15185292  0.84814708  0.73889886  1.0
  O  O41  1  -0.34814708  1.34814708  0.76110114  1.0
  O  O42  1  -0.43179952  0.93179952  0.25000000  1.0
  O  O43  1  0.06820048  1.43179952  0.25000000  1.0
  O  O44  1  -0.06820048  0.56820048  0.75000000  1.0
  O  O45  1  0.43179952  1.06820048  0.75000000  1.0
  O  O46  1  0.25955376  1.25955376  0.50000000  1.0
  O  O47  1  -0.24044624  0.75955376  -0.00000000  1.0
  O  O48  1  -0.25955376  0.74044624  0.50000000  1.0
  O  O49  1  0.24044624  1.24044624  0.00000000  1.0
  O  O50  1  -0.50000000  0.50000000  0.50000000  1.0
  O  O51  1  -0.00000000  1.00000000  0.00000000  1.0
