# generated using pymatgen
data_La3(BN2)2
_symmetry_space_group_name_H-M   'P 1'
_cell_length_a   6.62947982
_cell_length_b   6.62947982
_cell_length_c   6.62947982
_cell_angle_alpha   148.09085733
_cell_angle_beta   122.00580433
_cell_angle_gamma   67.73489992
_symmetry_Int_Tables_number   1
_chemical_formula_structural   La3(BN2)2
_chemical_formula_sum   'La3 B2 N4'
_cell_volume   128.94826673
_cell_formula_units_Z   1
loop_
 _symmetry_equiv_pos_site_id
 _symmetry_equiv_pos_as_xyz
  1  'x, y, z'
loop_
 _atom_site_type_symbol
 _atom_site_label
 _atom_site_symmetry_multiplicity
 _atom_site_fract_x
 _atom_site_fract_y
 _atom_site_fract_z
 _atom_site_occupancy
  La  La0  1  0.70082702  0.20082702  0.50000000  1.0
  La  La1  1  0.29917298  0.79917298  0.50000000  1.0
  La  La2  1  0.00000000  0.00000000  0.00000000  1.0
  B  B3  1  0.35791230  0.50000000  0.85791230  1.0
  B  B4  1  0.64208770  0.50000000  1.14208770  1.0
  N  N5  1  0.36291165  0.61726370  0.74564795  1.0
  N  N6  1  1.12838425  0.38273630  0.74564795  1.0
  N  N7  1  0.87161575  0.61726370  1.25435205  1.0
  N  N8  1  0.63708835  0.38273630  0.25435205  1.0
