# generated using pymatgen
data_CuP2
_symmetry_space_group_name_H-M   'P 1'
_cell_length_a   5.81158596
_cell_length_b   4.82958159
_cell_length_c   7.55241242
_cell_angle_alpha   90.00000000
_cell_angle_beta   112.60297888
_cell_angle_gamma   90.00000000
_symmetry_Int_Tables_number   1
_chemical_formula_structural   CuP2
_chemical_formula_sum   'Cu4 P8'
_cell_volume   195.69560586
_cell_formula_units_Z   4
loop_
 _symmetry_equiv_pos_site_id
 _symmetry_equiv_pos_as_xyz
  1  'x, y, z'
loop_
 _atom_site_type_symbol
 _atom_site_label
 _atom_site_symmetry_multiplicity
 _atom_site_fract_x
 _atom_site_fract_y
 _atom_site_fract_z
 _atom_site_occupancy
  Cu  Cu0  1  0.64725605  0.46290641  0.41933589  1.0
  Cu  Cu1  1  0.64725605  0.03709359  0.91933589  1.0
  Cu  Cu2  1  0.35274395  0.96290641  0.08066411  1.0
  Cu  Cu3  1  0.35274395  0.53709359  0.58066411  1.0
  P  P4  1  0.90646816  0.38391766  0.08034490  1.0
  P  P5  1  0.90646816  0.11608234  0.58034490  1.0
  P  P6  1  0.09353184  0.88391766  0.41965510  1.0
  P  P7  1  0.09353184  0.61608234  0.91965510  1.0
  P  P8  1  0.25481383  0.22214377  0.30114534  1.0
  P  P9  1  0.25481383  0.27785623  0.80114534  1.0
  P  P10  1  0.74518617  0.72214377  0.19885466  1.0
  P  P11  1  0.74518617  0.77785623  0.69885466  1.0
