# generated using pymatgen
data_ZrI4
_symmetry_space_group_name_H-M   'P 1'
_cell_length_a   9.12167536
_cell_length_b   9.06098198
_cell_length_c   18.37541138
_cell_angle_alpha   90.00000000
_cell_angle_beta   103.24105903
_cell_angle_gamma   90.00000000
_symmetry_Int_Tables_number   1
_chemical_formula_structural   ZrI4
_chemical_formula_sum   'Zr6 I24'
_cell_volume   1478.37629142
_cell_formula_units_Z   6
loop_
 _symmetry_equiv_pos_site_id
 _symmetry_equiv_pos_as_xyz
  1  'x, y, z'
loop_
 _atom_site_type_symbol
 _atom_site_label
 _atom_site_symmetry_multiplicity
 _atom_site_fract_x
 _atom_site_fract_y
 _atom_site_fract_z
 _atom_site_occupancy
  Zr  Zr0  1  0.81509834  0.61723862  0.41736906  1.0
  Zr  Zr1  1  0.81509834  0.38276138  0.91736906  1.0
  Zr  Zr2  1  0.18490166  0.61723862  0.08263094  1.0
  Zr  Zr3  1  0.18490166  0.38276138  0.58263094  1.0
  Zr  Zr4  1  0.00000000  0.87429292  0.25000000  1.0
  Zr  Zr5  1  0.00000000  0.12570708  0.75000000  1.0
  I  I6  1  0.93852027  0.38441315  0.07723807  1.0
  I  I7  1  0.93852027  0.61558685  0.57723807  1.0
  I  I8  1  0.06147973  0.38441315  0.42276193  1.0
  I  I9  1  0.06147973  0.61558685  0.92276193  1.0
  I  I10  1  0.92697757  0.82822417  0.08995020  1.0
  I  I11  1  0.92697757  0.17177583  0.58995020  1.0
  I  I12  1  0.07302243  0.82822417  0.41004980  1.0
  I  I13  1  0.07302243  0.17177583  0.91004980  1.0
  I  I14  1  0.78350322  0.61876846  0.25699552  1.0
  I  I15  1  0.78350322  0.38123154  0.75699552  1.0
  I  I16  1  0.21649678  0.61876846  0.24300448  1.0
  I  I17  1  0.21649678  0.38123154  0.74300448  1.0
  I  I18  1  0.76849603  0.93135522  0.74033240  1.0
  I  I19  1  0.76849603  0.06864478  0.24033240  1.0
  I  I20  1  0.23150397  0.93135522  0.75966760  1.0
  I  I21  1  0.23150397  0.06864478  0.25966760  1.0
  I  I22  1  0.63321433  0.85065713  0.42809553  1.0
  I  I23  1  0.63321433  0.14934287  0.92809553  1.0
  I  I24  1  0.36678567  0.85065713  0.07190447  1.0
  I  I25  1  0.36678567  0.14934287  0.57190447  1.0
  I  I26  1  0.61016049  0.39499411  0.40802475  1.0
  I  I27  1  0.61016049  0.60500589  0.90802475  1.0
  I  I28  1  0.38983951  0.39499411  0.09197525  1.0
  I  I29  1  0.38983951  0.60500589  0.59197525  1.0
