# generated using pymatgen
data_La2CCl
_symmetry_space_group_name_H-M   'P 1'
_cell_length_a   7.69828674
_cell_length_b   7.69828674
_cell_length_c   7.69828674
_cell_angle_alpha   29.08265242
_cell_angle_beta   29.08265242
_cell_angle_gamma   29.08265242
_symmetry_Int_Tables_number   1
_chemical_formula_structural   La2CCl
_chemical_formula_sum   'La2 C1 Cl1'
_cell_volume   95.35117253
_cell_formula_units_Z   1
loop_
 _symmetry_equiv_pos_site_id
 _symmetry_equiv_pos_as_xyz
  1  'x, y, z'
loop_
 _atom_site_type_symbol
 _atom_site_label
 _atom_site_symmetry_multiplicity
 _atom_site_fract_x
 _atom_site_fract_y
 _atom_site_fract_z
 _atom_site_occupancy
  La  La0  1  0.76891557  0.76891557  0.76891557  1.0
  La  La1  1  1.23108443  1.23108443  0.23108443  1.0
  C  C2  1  1.50000000  0.50000000  0.50000000  1.0
  Cl  Cl3  1  0.00000000  0.00000000  0.00000000  1.0
