# generated using pymatgen
data_HS2IO8
_symmetry_space_group_name_H-M   'P 1'
_cell_length_a   12.22974675
_cell_length_b   6.43482551
_cell_length_c   10.40774653
_cell_angle_alpha   90.00000000
_cell_angle_beta   106.73290370
_cell_angle_gamma   90.00000000
_symmetry_Int_Tables_number   1
_chemical_formula_structural   HS2IO8
_chemical_formula_sum   'H4 S8 I4 O32'
_cell_volume   784.37017970
_cell_formula_units_Z   4
loop_
 _symmetry_equiv_pos_site_id
 _symmetry_equiv_pos_as_xyz
  1  'x, y, z'
loop_
 _atom_site_type_symbol
 _atom_site_label
 _atom_site_symmetry_multiplicity
 _atom_site_fract_x
 _atom_site_fract_y
 _atom_site_fract_z
 _atom_site_occupancy
  H  H0  1  0.58111453  0.78079862  0.80699400  1.0
  H  H1  1  0.58111453  0.71920138  0.30699400  1.0
  H  H2  1  0.41888547  0.28079862  0.69300600  1.0
  H  H3  1  0.41888547  0.21920138  0.19300600  1.0
  S  S4  1  0.89750687  0.88065767  0.80783042  1.0
  S  S5  1  0.89750687  0.61934233  0.30783042  1.0
  S  S6  1  0.10249313  0.38065767  0.69216958  1.0
  S  S7  1  0.10249313  0.11934233  0.19216958  1.0
  S  S8  1  0.61687908  0.46080750  0.86400973  1.0
  S  S9  1  0.61687908  0.03919250  0.36400973  1.0
  S  S10  1  0.38312092  0.96080750  0.63599027  1.0
  S  S11  1  0.38312092  0.53919250  0.13599027  1.0
  I  I12  1  0.83500099  0.39981590  0.75754099  1.0
  I  I13  1  0.83500099  0.10018410  0.25754099  1.0
  I  I14  1  0.16499901  0.89981590  0.74245901  1.0
  I  I15  1  0.16499901  0.60018410  0.24245901  1.0
  O  O16  1  0.97526872  0.96357364  0.73061805  1.0
  O  O17  1  0.97526872  0.53642636  0.23061805  1.0
  O  O18  1  0.02473128  0.46357364  0.76938195  1.0
  O  O19  1  0.02473128  0.03642636  0.26938195  1.0
  O  O20  1  0.95241458  0.78636507  0.93558723  1.0
  O  O21  1  0.95241458  0.71363493  0.43558723  1.0
  O  O22  1  0.04758542  0.28636507  0.56441277  1.0
  O  O23  1  0.04758542  0.21363493  0.06441277  1.0
  O  O24  1  0.81924313  0.71584722  0.70827403  1.0
  O  O25  1  0.81924313  0.78415278  0.20827403  1.0
  O  O26  1  0.18075687  0.21584722  0.79172597  1.0
  O  O27  1  0.18075687  0.28415278  0.29172597  1.0
  O  O28  1  0.81504247  0.44824015  0.31185867  1.0
  O  O29  1  0.81504247  0.05175985  0.81185867  1.0
  O  O30  1  0.18495753  0.94824015  0.18814133  1.0
  O  O31  1  0.18495753  0.55175985  0.68814133  1.0
  O  O32  1  0.68622951  0.36238724  0.98317971  1.0
  O  O33  1  0.68622951  0.13761276  0.48317971  1.0
  O  O34  1  0.31377049  0.86238724  0.51682029  1.0
  O  O35  1  0.31377049  0.63761276  0.01682029  1.0
  O  O36  1  0.63480299  0.70000450  0.88352024  1.0
  O  O37  1  0.63480299  0.79999550  0.38352024  1.0
  O  O38  1  0.36519701  0.20000450  0.61647976  1.0
  O  O39  1  0.36519701  0.29999550  0.11647976  1.0
  O  O40  1  0.50473265  0.91506295  0.68495438  1.0
  O  O41  1  0.50473265  0.58493705  0.18495438  1.0
  O  O42  1  0.49526735  0.41506295  0.81504562  1.0
  O  O43  1  0.49526735  0.08493705  0.31504562  1.0
  O  O44  1  0.33863433  0.90605250  0.76307327  1.0
  O  O45  1  0.33863433  0.59394750  0.26307327  1.0
  O  O46  1  0.66136567  0.40605250  0.73692673  1.0
  O  O47  1  0.66136567  0.09394750  0.23692673  1.0
