# generated using pymatgen
data_Mg4Nb2O9
_symmetry_space_group_name_H-M   'P 1'
_cell_length_a   5.20319707
_cell_length_b   5.20319707
_cell_length_c   14.13653143
_cell_angle_alpha   90.00000000
_cell_angle_beta   90.00000000
_cell_angle_gamma   120.00000000
_symmetry_Int_Tables_number   1
_chemical_formula_structural   Mg4Nb2O9
_chemical_formula_sum   'Mg8 Nb4 O18'
_cell_volume   331.44696355
_cell_formula_units_Z   2
loop_
 _symmetry_equiv_pos_site_id
 _symmetry_equiv_pos_as_xyz
  1  'x, y, z'
loop_
 _atom_site_type_symbol
 _atom_site_label
 _atom_site_symmetry_multiplicity
 _atom_site_fract_x
 _atom_site_fract_y
 _atom_site_fract_z
 _atom_site_occupancy
  Mg  Mg0  1  0.33333333  0.66666667  0.30782262  1.0
  Mg  Mg1  1  0.33333333  0.66666667  0.80782262  1.0
  Mg  Mg2  1  0.66666667  0.33333333  0.19217738  1.0
  Mg  Mg3  1  0.66666667  0.33333333  0.69217738  1.0
  Mg  Mg4  1  0.33333333  0.66666667  0.01679539  1.0
  Mg  Mg5  1  0.33333333  0.66666667  0.51679539  1.0
  Mg  Mg6  1  0.66666667  0.33333333  0.48320461  1.0
  Mg  Mg7  1  0.66666667  0.33333333  0.98320461  1.0
  Nb  Nb8  1  0.00000000  0.00000000  0.14229554  1.0
  Nb  Nb9  1  0.00000000  0.00000000  0.64229554  1.0
  Nb  Nb10  1  0.00000000  0.00000000  0.35770446  1.0
  Nb  Nb11  1  0.00000000  0.00000000  0.85770446  1.0
  O  O12  1  0.97113212  0.65432023  0.08469740  1.0
  O  O13  1  0.97113212  0.31681189  0.58469740  1.0
  O  O14  1  0.65432023  0.97113212  0.41530260  1.0
  O  O15  1  0.65432023  0.68318811  0.91530260  1.0
  O  O16  1  0.68318811  0.65432023  0.58469740  1.0
  O  O17  1  0.68318811  0.02886788  0.08469740  1.0
  O  O18  1  0.34567977  0.02886788  0.58469740  1.0
  O  O19  1  0.34567977  0.31681189  0.08469740  1.0
  O  O20  1  0.02886788  0.68318811  0.41530260  1.0
  O  O21  1  0.02886788  0.34567977  0.91530260  1.0
  O  O22  1  0.31681189  0.97113212  0.91530260  1.0
  O  O23  1  0.31681189  0.34567977  0.41530260  1.0
  O  O24  1  0.71093757  0.71093757  0.25000000  1.0
  O  O25  1  0.71093757  0.00000000  0.75000000  1.0
  O  O26  1  0.00000000  0.71093757  0.75000000  1.0
  O  O27  1  -0.00000000  0.28906243  0.25000000  1.0
  O  O28  1  0.28906243  0.28906243  0.75000000  1.0
  O  O29  1  0.28906243  0.00000000  0.25000000  1.0
