# generated using pymatgen
data_Na2CaSiO4
_symmetry_space_group_name_H-M   'P 1'
_cell_length_a   7.53161810
_cell_length_b   7.53161810
_cell_length_c   7.53161810
_cell_angle_alpha   90.00000000
_cell_angle_beta   90.00000000
_cell_angle_gamma   90.00000000
_symmetry_Int_Tables_number   1
_chemical_formula_structural   Na2CaSiO4
_chemical_formula_sum   'Na8 Ca4 Si4 O16'
_cell_volume   427.23308008
_cell_formula_units_Z   4
loop_
 _symmetry_equiv_pos_site_id
 _symmetry_equiv_pos_as_xyz
  1  'x, y, z'
loop_
 _atom_site_type_symbol
 _atom_site_label
 _atom_site_symmetry_multiplicity
 _atom_site_fract_x
 _atom_site_fract_y
 _atom_site_fract_z
 _atom_site_occupancy
  Na  Na0  1  0.52713254  0.02713254  0.47286746  1.0
  Na  Na1  1  0.02713254  0.47286746  0.52713254  1.0
  Na  Na2  1  0.47286746  0.52713254  0.02713254  1.0
  Na  Na3  1  -0.02713254  -0.02713254  -0.02713254  1.0
  Na  Na4  1  0.75941423  0.25941423  0.24058577  1.0
  Na  Na5  1  0.25941423  0.24058577  0.75941423  1.0
  Na  Na6  1  0.24058577  0.75941423  0.25941423  1.0
  Na  Na7  1  0.74058577  0.74058577  0.74058577  1.0
  Ca  Ca8  1  0.28747693  0.78747693  0.71252307  1.0
  Ca  Ca9  1  0.78747693  0.71252307  0.28747693  1.0
  Ca  Ca10  1  0.71252307  0.28747693  0.78747693  1.0
  Ca  Ca11  1  0.21252307  0.21252307  0.21252307  1.0
  Si  Si12  1  0.99163372  0.49163372  0.00836628  1.0
  Si  Si13  1  0.49163372  0.00836628  0.99163372  1.0
  Si  Si14  1  0.00836628  0.99163372  0.49163372  1.0
  Si  Si15  1  0.50836628  0.50836628  0.50836628  1.0
  O  O16  1  0.54091458  0.98665186  0.77842380  1.0
  O  O17  1  1.04091458  0.51334814  0.22157620  1.0
  O  O18  1  0.48665186  0.72157620  0.45908542  1.0
  O  O19  1  0.98665186  0.77842380  0.54091458  1.0
  O  O20  1  0.22157620  1.04091458  0.51334814  1.0
  O  O21  1  0.72157620  0.45908542  0.48665186  1.0
  O  O22  1  0.45908542  0.48665186  0.72157620  1.0
  O  O23  1  -0.04091458  0.01334814  0.27842380  1.0
  O  O24  1  0.51334814  0.22157620  1.04091458  1.0
  O  O25  1  0.01334814  0.27842380  -0.04091458  1.0
  O  O26  1  0.77842380  0.54091458  0.98665186  1.0
  O  O27  1  0.27842380  -0.04091458  0.01334814  1.0
  O  O28  1  0.11621912  0.61621912  0.88378088  1.0
  O  O29  1  0.61621912  0.88378088  0.11621912  1.0
  O  O30  1  0.88378088  0.11621912  0.61621912  1.0
  O  O31  1  0.38378088  0.38378088  0.38378088  1.0
