# generated using pymatgen
data_RbCrCl3
_symmetry_space_group_name_H-M   'P 1'
_cell_length_a   7.18525761
_cell_length_b   7.18525761
_cell_length_c   6.42480190
_cell_angle_alpha   85.82880481
_cell_angle_beta   94.17119519
_cell_angle_gamma   120.49518962
_symmetry_Int_Tables_number   1
_chemical_formula_structural   RbCrCl3
_chemical_formula_sum   'Rb2 Cr2 Cl6'
_cell_volume   284.81096625
_cell_formula_units_Z   2
loop_
 _symmetry_equiv_pos_site_id
 _symmetry_equiv_pos_as_xyz
  1  'x, y, z'
loop_
 _atom_site_type_symbol
 _atom_site_label
 _atom_site_symmetry_multiplicity
 _atom_site_fract_x
 _atom_site_fract_y
 _atom_site_fract_z
 _atom_site_occupancy
  Rb  Rb0  1  0.33297006  -0.33297006  0.76674455  1.0
  Rb  Rb1  1  0.66702994  0.33297006  0.23325545  1.0
  Cr  Cr2  1  -0.00000000  0.00000000  0.50000000  1.0
  Cr  Cr3  1  0.00000000  0.00000000  0.00000000  1.0
  Cl  Cl4  1  0.31052425  0.15723819  0.78872388  1.0
  Cl  Cl5  1  0.84276181  0.68947575  0.78872388  1.0
  Cl  Cl6  1  1.15723819  0.31052425  0.21127612  1.0
  Cl  Cl7  1  0.68947575  -0.15723819  0.21127612  1.0
  Cl  Cl8  1  0.83693042  0.16306958  0.66511180  1.0
  Cl  Cl9  1  0.16306958  -0.16306958  0.33488820  1.0
