# generated using pymatgen
data_Cs2SrV4O12
_symmetry_space_group_name_H-M   'P 1'
_cell_length_a   8.01316244
_cell_length_b   8.01316244
_cell_length_c   5.66995895
_cell_angle_alpha   90.00000000
_cell_angle_beta   90.00000000
_cell_angle_gamma   90.00000000
_symmetry_Int_Tables_number   1
_chemical_formula_structural   Cs2SrV4O12
_chemical_formula_sum   'Cs2 Sr1 V4 O12'
_cell_volume   364.07244290
_cell_formula_units_Z   1
loop_
 _symmetry_equiv_pos_site_id
 _symmetry_equiv_pos_as_xyz
  1  'x, y, z'
loop_
 _atom_site_type_symbol
 _atom_site_label
 _atom_site_symmetry_multiplicity
 _atom_site_fract_x
 _atom_site_fract_y
 _atom_site_fract_z
 _atom_site_occupancy
  Cs  Cs0  1  0.00000000  0.50000000  0.00000000  1.0
  Cs  Cs1  1  0.50000000  0.00000000  0.00000000  1.0
  Sr  Sr2  1  0.00000000  0.00000000  0.00000000  1.0
  V  V3  1  0.72172441  0.72172441  0.50000000  1.0
  V  V4  1  0.72172441  0.27827559  0.50000000  1.0
  V  V5  1  0.27827559  0.72172441  0.50000000  1.0
  V  V6  1  0.27827559  0.27827559  0.50000000  1.0
  O  O7  1  0.80531188  0.80531188  0.73925239  1.0
  O  O8  1  0.80531188  0.80531188  0.26074761  1.0
  O  O9  1  0.80531188  0.19468812  0.73925239  1.0
  O  O10  1  0.80531188  0.19468812  0.26074761  1.0
  O  O11  1  0.19468812  0.80531188  0.73925239  1.0
  O  O12  1  0.19468812  0.80531188  0.26074761  1.0
  O  O13  1  0.19468812  0.19468812  0.73925239  1.0
  O  O14  1  0.19468812  0.19468812  0.26074761  1.0
  O  O15  1  0.76111198  0.50000000  0.50000000  1.0
  O  O16  1  0.50000000  0.76111198  0.50000000  1.0
  O  O17  1  0.50000000  0.23888802  0.50000000  1.0
  O  O18  1  0.23888802  0.50000000  0.50000000  1.0
