# generated using pymatgen
data_Ca11GaSb9
_symmetry_space_group_name_H-M   'P 1'
_cell_length_a   12.04182841
_cell_length_b   12.04182841
_cell_length_c   12.04182841
_cell_angle_alpha   120.95269389
_cell_angle_beta   117.43722554
_cell_angle_gamma   91.42642895
_symmetry_Int_Tables_number   1
_chemical_formula_structural   Ca11GaSb9
_chemical_formula_sum   'Ca22 Ga2 Sb18'
_cell_volume   1247.88145001
_cell_formula_units_Z   2
loop_
 _symmetry_equiv_pos_site_id
 _symmetry_equiv_pos_as_xyz
  1  'x, y, z'
loop_
 _atom_site_type_symbol
 _atom_site_label
 _atom_site_symmetry_multiplicity
 _atom_site_fract_x
 _atom_site_fract_y
 _atom_site_fract_z
 _atom_site_occupancy
  Ca  Ca0  1  1.73737242  1.94259326  1.65137964  1.0
  Ca  Ca1  1  1.79121362  1.44259326  1.20522083  1.0
  Ca  Ca2  1  1.23737242  1.58599278  0.79477917  1.0
  Ca  Ca3  1  1.29121362  1.08599278  0.34862036  1.0
  Ca  Ca4  1  1.06015834  1.24248490  0.63824575  1.0
  Ca  Ca5  1  1.10423915  1.74248490  1.18232656  1.0
  Ca  Ca6  1  1.56015834  0.92191259  0.81767344  1.0
  Ca  Ca7  1  1.60423915  1.42191259  1.36175425  1.0
  Ca  Ca8  1  1.24316370  0.98355859  0.62467724  1.0
  Ca  Ca9  1  0.85888135  0.48355859  0.74039490  1.0
  Ca  Ca10  1  0.74316370  1.11848646  1.25960510  1.0
  Ca  Ca11  1  1.35888135  1.61848646  1.37532276  1.0
  Ca  Ca12  1  0.99236971  0.72843030  1.62999558  1.0
  Ca  Ca13  1  0.59843472  0.22843030  0.73606059  1.0
  Ca  Ca14  1  0.49236971  0.86237413  1.26393941  1.0
  Ca  Ca15  1  0.09843472  0.36237413  0.37000442  1.0
  Ca  Ca16  1  0.84603007  0.83286845  1.33068915  1.0
  Ca  Ca17  1  1.00217929  1.33286845  0.98683838  1.0
  Ca  Ca18  1  1.34603007  1.01534091  1.01316162  1.0
  Ca  Ca19  1  0.50217929  0.51534091  0.66931085  1.0
  Ca  Ca20  1  -0.00557096  -0.00557096  -0.00000000  1.0
  Ca  Ca21  1  0.49442904  0.49442904  1.00000000  1.0
  Ga  Ga22  1  1.28032497  1.28032497  1.00000000  1.0
  Ga  Ga23  1  0.78032497  0.78032497  1.00000000  1.0
  Sb  Sb24  1  0.78608693  1.13997133  1.57414081  1.0
  Sb  Sb25  1  1.06583052  1.63997133  1.35388440  1.0
  Sb  Sb26  1  1.28608693  0.71194612  0.64611560  1.0
  Sb  Sb27  1  0.56583052  0.21194612  0.42585919  1.0
  Sb  Sb28  1  1.05620112  1.04008480  0.75520228  1.0
  Sb  Sb29  1  0.78488253  0.54008480  0.98388368  1.0
  Sb  Sb30  1  0.55620112  0.80099885  1.01611632  1.0
  Sb  Sb31  1  1.28488253  1.30099885  1.24479772  1.0
  Sb  Sb32  1  1.31273034  1.31402885  0.64410284  1.0
  Sb  Sb33  1  1.16992601  1.81402885  1.00129850  1.0
  Sb  Sb34  1  1.81273034  1.16862751  0.99870150  1.0
  Sb  Sb35  1  1.66992601  1.66862751  1.35589716  1.0
  Sb  Sb36  1  1.00048846  1.00911539  0.28485138  1.0
  Sb  Sb37  1  1.22426402  1.50911539  1.00862693  1.0
  Sb  Sb38  1  1.50048846  1.21563709  0.99137307  1.0
  Sb  Sb39  1  1.72426402  1.71563709  1.71514862  1.0
  Sb  Sb40  1  0.92209367  0.42209367  0.50000000  1.0
  Sb  Sb41  1  1.42209367  0.92209367  0.50000000  1.0
