# generated using pymatgen
data_Rb3TaS4
_symmetry_space_group_name_H-M   'P 1'
_cell_length_a   9.69768790
_cell_length_b   11.27599501
_cell_length_c   9.85763277
_cell_angle_alpha   90.00000000
_cell_angle_beta   90.00000000
_cell_angle_gamma   90.00000000
_symmetry_Int_Tables_number   1
_chemical_formula_structural   Rb3TaS4
_chemical_formula_sum   'Rb12 Ta4 S16'
_cell_volume   1077.94279297
_cell_formula_units_Z   4
loop_
 _symmetry_equiv_pos_site_id
 _symmetry_equiv_pos_as_xyz
  1  'x, y, z'
loop_
 _atom_site_type_symbol
 _atom_site_label
 _atom_site_symmetry_multiplicity
 _atom_site_fract_x
 _atom_site_fract_y
 _atom_site_fract_z
 _atom_site_occupancy
  Rb  Rb0  1  0.44542302  0.45630337  0.78842411  1.0
  Rb  Rb1  1  0.44542302  0.04369663  0.78842411  1.0
  Rb  Rb2  1  0.94542302  0.45630337  0.71157589  1.0
  Rb  Rb3  1  0.94542302  0.04369663  0.71157589  1.0
  Rb  Rb4  1  0.55457698  0.95630337  0.21157589  1.0
  Rb  Rb5  1  0.55457698  0.54369663  0.21157589  1.0
  Rb  Rb6  1  0.05457698  0.95630337  0.28842411  1.0
  Rb  Rb7  1  0.05457698  0.54369663  0.28842411  1.0
  Rb  Rb8  1  0.13996193  0.25000000  0.07673302  1.0
  Rb  Rb9  1  0.63996193  0.25000000  0.42326698  1.0
  Rb  Rb10  1  0.86003807  0.75000000  0.92326698  1.0
  Rb  Rb11  1  0.36003807  0.75000000  0.57673302  1.0
  Ta  Ta12  1  0.21761800  0.25000000  0.51304444  1.0
  Ta  Ta13  1  0.71761800  0.25000000  0.98695556  1.0
  Ta  Ta14  1  0.78238200  0.75000000  0.48695556  1.0
  Ta  Ta15  1  0.28238200  0.75000000  0.01304444  1.0
  S  S16  1  0.16677042  0.91750005  0.94934445  1.0
  S  S17  1  0.16677042  0.58249995  0.94934445  1.0
  S  S18  1  0.66677042  0.91750005  0.55065555  1.0
  S  S19  1  0.66677042  0.58249995  0.55065555  1.0
  S  S20  1  0.83322958  0.41750005  0.05065555  1.0
  S  S21  1  0.83322958  0.08249995  0.05065555  1.0
  S  S22  1  0.33322958  0.41750005  0.44934445  1.0
  S  S23  1  0.33322958  0.08249995  0.44934445  1.0
  S  S24  1  0.50172356  0.25000000  0.08136142  1.0
  S  S25  1  1.00172356  0.25000000  0.41863858  1.0
  S  S26  1  0.49827644  0.75000000  0.91863858  1.0
  S  S27  1  -0.00172356  0.75000000  0.58136142  1.0
  S  S28  1  0.19706257  0.25000000  0.74445644  1.0
  S  S29  1  0.69706257  0.25000000  0.75554356  1.0
  S  S30  1  0.80293743  0.75000000  0.25554356  1.0
  S  S31  1  0.30293743  0.75000000  0.24445644  1.0
