# generated using pymatgen
data_K2Ca3Si3O10
_symmetry_space_group_name_H-M   'P 1'
_cell_length_a   7.51704503
_cell_length_b   7.51704503
_cell_length_c   9.91104071
_cell_angle_alpha   71.51165495
_cell_angle_beta   108.48834505
_cell_angle_gamma   87.80991684
_symmetry_Int_Tables_number   1
_chemical_formula_structural   K2Ca3Si3O10
_chemical_formula_sum   'K4 Ca6 Si6 O20'
_cell_volume   497.68439289
_cell_formula_units_Z   2
loop_
 _symmetry_equiv_pos_site_id
 _symmetry_equiv_pos_as_xyz
  1  'x, y, z'
loop_
 _atom_site_type_symbol
 _atom_site_label
 _atom_site_symmetry_multiplicity
 _atom_site_fract_x
 _atom_site_fract_y
 _atom_site_fract_z
 _atom_site_occupancy
  K  K0  1  1.73170048  0.03277669  0.99035622  1.0
  K  K1  1  0.96722331  -0.73170048  0.49035622  1.0
  K  K2  1  1.03277669  0.73170048  0.50964378  1.0
  K  K3  1  0.26829952  -0.03277669  0.00964378  1.0
  Ca  Ca4  1  1.47368911  0.28395949  0.46885163  1.0
  Ca  Ca5  1  0.71604051  -0.47368911  0.96885163  1.0
  Ca  Ca6  1  1.28395949  0.47368911  0.03114837  1.0
  Ca  Ca7  1  0.52631089  -0.28395949  0.53114837  1.0
  Ca  Ca8  1  1.12839713  0.12839713  0.25000000  1.0
  Ca  Ca9  1  0.87160287  -0.12839713  0.75000000  1.0
  Si  Si10  1  1.65026740  0.06833809  0.29674017  1.0
  Si  Si11  1  0.93166191  -0.65026740  0.79674017  1.0
  Si  Si12  1  1.06833809  0.65026740  0.20325983  1.0
  Si  Si13  1  0.34973260  -0.06833809  0.70325983  1.0
  Si  Si14  1  0.65746317  -0.34253683  0.25000000  1.0
  Si  Si15  1  1.34253683  0.34253683  0.75000000  1.0
  O  O16  1  0.52885259  -0.36416235  0.09279267  1.0
  O  O17  1  1.36416235  0.47114741  0.59279267  1.0
  O  O18  1  0.63583765  -0.47114741  0.40720733  1.0
  O  O19  1  1.47114741  0.36416235  0.90720733  1.0
  O  O20  1  0.61483912  -0.11625815  0.23398896  1.0
  O  O21  1  1.11625815  0.38516088  0.73398896  1.0
  O  O22  1  0.88374185  -0.38516088  0.26601104  1.0
  O  O23  1  1.38516088  0.11625815  0.76601104  1.0
  O  O24  1  0.71530805  -0.01809894  0.48434846  1.0
  O  O25  1  1.01809894  0.28469195  0.98434846  1.0
  O  O26  1  0.98190106  -0.28469195  0.01565154  1.0
  O  O27  1  1.28469195  0.01809894  0.51565154  1.0
  O  O28  1  1.81434077  0.16894588  0.23934716  1.0
  O  O29  1  0.83105412  -0.81434077  0.73934716  1.0
  O  O30  1  1.16894588  0.81434077  0.26065284  1.0
  O  O31  1  0.18565923  -0.16894588  0.76065284  1.0
  O  O32  1  1.43998302  0.19435795  0.23506932  1.0
  O  O33  1  0.80564205  -0.43998302  0.73506932  1.0
  O  O34  1  1.19435795  0.43998302  0.26493068  1.0
  O  O35  1  0.56001698  -0.19435795  0.76493068  1.0
