# generated using pymatgen
data_BaTl2O4
_symmetry_space_group_name_H-M   'P 1'
_cell_length_a   10.48965812
_cell_length_b   3.54113805
_cell_length_c   12.14940710
_cell_angle_alpha   90.00000000
_cell_angle_beta   90.00000000
_cell_angle_gamma   90.00000000
_symmetry_Int_Tables_number   1
_chemical_formula_structural   BaTl2O4
_chemical_formula_sum   'Ba4 Tl8 O16'
_cell_volume   451.29370570
_cell_formula_units_Z   4
loop_
 _symmetry_equiv_pos_site_id
 _symmetry_equiv_pos_as_xyz
  1  'x, y, z'
loop_
 _atom_site_type_symbol
 _atom_site_label
 _atom_site_symmetry_multiplicity
 _atom_site_fract_x
 _atom_site_fract_y
 _atom_site_fract_z
 _atom_site_occupancy
  Ba  Ba0  1  0.75469259  0.75000000  0.65087098  1.0
  Ba  Ba1  1  0.25469259  0.75000000  0.84912902  1.0
  Ba  Ba2  1  0.24530741  0.25000000  0.34912902  1.0
  Ba  Ba3  1  0.74530741  0.25000000  0.15087098  1.0
  Tl  Tl4  1  0.92177554  0.75000000  0.39235662  1.0
  Tl  Tl5  1  0.42177554  0.75000000  0.10764338  1.0
  Tl  Tl6  1  0.07822446  0.25000000  0.60764338  1.0
  Tl  Tl7  1  0.57822446  0.25000000  0.89235662  1.0
  Tl  Tl8  1  0.42603600  0.75000000  0.60857065  1.0
  Tl  Tl9  1  0.92603600  0.75000000  0.89142935  1.0
  Tl  Tl10  1  0.57396400  0.25000000  0.39142935  1.0
  Tl  Tl11  1  0.07396400  0.25000000  0.10857065  1.0
  O  O12  1  0.92042540  0.75000000  0.07393808  1.0
  O  O13  1  0.42042540  0.75000000  0.42606192  1.0
  O  O14  1  0.07957460  0.25000000  0.92606192  1.0
  O  O15  1  0.57957460  0.25000000  0.57393808  1.0
  O  O16  1  0.70905960  0.75000000  0.33389988  1.0
  O  O17  1  0.20905960  0.75000000  0.16610012  1.0
  O  O18  1  0.29094040  0.25000000  0.66610012  1.0
  O  O19  1  0.79094040  0.25000000  0.83389988  1.0
  O  O20  1  0.61908260  0.75000000  0.01934165  1.0
  O  O21  1  0.11908260  0.75000000  0.48065835  1.0
  O  O22  1  0.38091740  0.25000000  0.98065835  1.0
  O  O23  1  0.88091740  0.25000000  0.51934165  1.0
  O  O24  1  0.52046629  0.75000000  0.78005469  1.0
  O  O25  1  0.02046629  0.75000000  0.71994531  1.0
  O  O26  1  0.47953371  0.25000000  0.21994531  1.0
  O  O27  1  0.97953371  0.25000000  0.28005469  1.0
