# generated using pymatgen
data_SrTlPS4
_symmetry_space_group_name_H-M   'P 1'
_cell_length_a   12.89341078
_cell_length_b   6.67010275
_cell_length_c   8.79413941
_cell_angle_alpha   90.00000000
_cell_angle_beta   90.00000000
_cell_angle_gamma   90.00000000
_symmetry_Int_Tables_number   1
_chemical_formula_structural   SrTlPS4
_chemical_formula_sum   'Sr4 Tl4 P4 S16'
_cell_volume   756.29928425
_cell_formula_units_Z   4
loop_
 _symmetry_equiv_pos_site_id
 _symmetry_equiv_pos_as_xyz
  1  'x, y, z'
loop_
 _atom_site_type_symbol
 _atom_site_label
 _atom_site_symmetry_multiplicity
 _atom_site_fract_x
 _atom_site_fract_y
 _atom_site_fract_z
 _atom_site_occupancy
  Sr  Sr0  1  0.13547647  0.75000000  0.60720622  1.0
  Sr  Sr1  1  0.63547647  0.75000000  0.89279378  1.0
  Sr  Sr2  1  0.86452353  0.25000000  0.39279378  1.0
  Sr  Sr3  1  0.36452353  0.25000000  0.10720622  1.0
  Tl  Tl4  1  0.11143281  0.75000000  0.12034661  1.0
  Tl  Tl5  1  0.61143281  0.75000000  0.37965339  1.0
  Tl  Tl6  1  0.88856719  0.25000000  0.87965339  1.0
  Tl  Tl7  1  0.38856719  0.25000000  0.62034661  1.0
  P  P8  1  0.35324797  0.75000000  0.87136144  1.0
  P  P9  1  0.85324797  0.75000000  0.62863856  1.0
  P  P10  1  0.64675203  0.25000000  0.12863856  1.0
  P  P11  1  0.14675203  0.25000000  0.37136144  1.0
  S  S12  1  0.25560040  0.99581814  0.85974880  1.0
  S  S13  1  0.25560040  0.50418186  0.85974880  1.0
  S  S14  1  0.75560040  0.99581814  0.64025120  1.0
  S  S15  1  0.75560040  0.50418186  0.64025120  1.0
  S  S16  1  0.74439960  0.49581814  0.14025120  1.0
  S  S17  1  0.74439960  0.00418186  0.14025120  1.0
  S  S18  1  0.24439960  0.49581814  0.35974880  1.0
  S  S19  1  0.24439960  0.00418186  0.35974880  1.0
  S  S20  1  0.45068700  0.75000000  0.68712428  1.0
  S  S21  1  0.95068700  0.75000000  0.81287572  1.0
  S  S22  1  0.54931300  0.25000000  0.31287572  1.0
  S  S23  1  0.04931300  0.25000000  0.18712428  1.0
  S  S24  1  0.43212462  0.75000000  0.07447609  1.0
  S  S25  1  0.93212462  0.75000000  0.42552391  1.0
  S  S26  1  0.56787538  0.25000000  0.92552391  1.0
  S  S27  1  0.06787538  0.25000000  0.57447609  1.0
