# generated using pymatgen
data_KSbO2
_symmetry_space_group_name_H-M   'P 1'
_cell_length_a   5.86770287
_cell_length_b   5.86770287
_cell_length_c   5.70818252
_cell_angle_alpha   67.03605499
_cell_angle_beta   112.96394501
_cell_angle_gamma   85.39159381
_symmetry_Int_Tables_number   1
_chemical_formula_structural   KSbO2
_chemical_formula_sum   'K2 Sb2 O4'
_cell_volume   160.22484366
_cell_formula_units_Z   2
loop_
 _symmetry_equiv_pos_site_id
 _symmetry_equiv_pos_as_xyz
  1  'x, y, z'
loop_
 _atom_site_type_symbol
 _atom_site_label
 _atom_site_symmetry_multiplicity
 _atom_site_fract_x
 _atom_site_fract_y
 _atom_site_fract_z
 _atom_site_occupancy
  K  K0  1  0.86349222  -0.13650778  0.75000000  1.0
  K  K1  1  1.13650778  0.13650778  0.25000000  1.0
  Sb  Sb2  1  1.40680190  0.40680190  0.75000000  1.0
  Sb  Sb3  1  0.59319810  -0.40680190  0.25000000  1.0
  O  O4  1  0.36842776  -0.26424598  0.77828033  1.0
  O  O5  1  1.26424598  0.63157224  0.27828033  1.0
  O  O6  1  0.73575402  -0.63157224  0.72171967  1.0
  O  O7  1  1.63157224  0.26424598  0.22171967  1.0
