# generated using pymatgen
data_Na2HgPb
_symmetry_space_group_name_H-M   'P 1'
_cell_length_a   6.31382225
_cell_length_b   6.31382225
_cell_length_c   6.10593522
_cell_angle_alpha   90.00000000
_cell_angle_beta   90.00000000
_cell_angle_gamma   77.80002439
_symmetry_Int_Tables_number   1
_chemical_formula_structural   Na2HgPb
_chemical_formula_sum   'Na4 Hg2 Pb2'
_cell_volume   237.91199141
_cell_formula_units_Z   2
loop_
 _symmetry_equiv_pos_site_id
 _symmetry_equiv_pos_as_xyz
  1  'x, y, z'
loop_
 _atom_site_type_symbol
 _atom_site_label
 _atom_site_symmetry_multiplicity
 _atom_site_fract_x
 _atom_site_fract_y
 _atom_site_fract_z
 _atom_site_occupancy
  Na  Na0  1  -0.51570968  1.14229593  0.75000000  1.0
  Na  Na1  1  0.14229593  0.48429032  0.25000000  1.0
  Na  Na2  1  0.51570968  0.85770407  0.25000000  1.0
  Na  Na3  1  -0.14229593  1.51570968  0.75000000  1.0
  Hg  Hg4  1  -0.00000000  -0.00000000  0.00000000  1.0
  Hg  Hg5  1  0.00000000  0.00000000  0.50000000  1.0
  Pb  Pb6  1  0.32936899  0.67063101  0.75000000  1.0
  Pb  Pb7  1  -0.32936899  1.32936899  0.25000000  1.0
