# generated using pymatgen
data_NaAlP2O7
_symmetry_space_group_name_H-M   'P 1'
_cell_length_a   7.30670141
_cell_length_b   7.83466187
_cell_length_c   9.42888124
_cell_angle_alpha   90.00000000
_cell_angle_beta   111.64614930
_cell_angle_gamma   90.00000000
_symmetry_Int_Tables_number   1
_chemical_formula_structural   NaAlP2O7
_chemical_formula_sum   'Na4 Al4 P8 O28'
_cell_volume   501.69720518
_cell_formula_units_Z   4
loop_
 _symmetry_equiv_pos_site_id
 _symmetry_equiv_pos_as_xyz
  1  'x, y, z'
loop_
 _atom_site_type_symbol
 _atom_site_label
 _atom_site_symmetry_multiplicity
 _atom_site_fract_x
 _atom_site_fract_y
 _atom_site_fract_z
 _atom_site_occupancy
  Na  Na0  1  0.70928735  0.52679370  0.70264400  1.0
  Na  Na1  1  0.70928735  0.97320630  0.20264400  1.0
  Na  Na2  1  0.29071265  0.02679370  0.79735600  1.0
  Na  Na3  1  0.29071265  0.47320630  0.29735600  1.0
  Al  Al4  1  0.74020946  0.98984413  0.75267068  1.0
  Al  Al5  1  0.74020946  0.51015587  0.25267068  1.0
  Al  Al6  1  0.25979054  0.48984413  0.74732932  1.0
  Al  Al7  1  0.25979054  0.01015587  0.24732932  1.0
  P  P8  1  0.92894992  0.74452501  0.54990658  1.0
  P  P9  1  0.92894992  0.75547499  0.04990658  1.0
  P  P10  1  0.07105008  0.24452501  0.95009342  1.0
  P  P11  1  0.07105008  0.25547499  0.45009342  1.0
  P  P12  1  0.66980684  0.29319229  0.95223398  1.0
  P  P13  1  0.66980684  0.20680771  0.45223398  1.0
  P  P14  1  0.33019316  0.79319229  0.54776602  1.0
  P  P15  1  0.33019316  0.70680771  0.04776602  1.0
  O  O16  1  1.00212123  0.58277804  0.64733535  1.0
  O  O17  1  1.00212123  0.91722196  0.14733535  1.0
  O  O18  1  -0.00212123  0.08277804  0.85266465  1.0
  O  O19  1  -0.00212123  0.41722196  0.35266465  1.0
  O  O20  1  0.87683017  0.35516936  0.93850694  1.0
  O  O21  1  0.87683017  0.14483064  0.43850694  1.0
  O  O22  1  0.12316983  0.85516936  0.56149306  1.0
  O  O23  1  0.12316983  0.64483064  0.06149306  1.0
  O  O24  1  0.81334439  0.86187698  0.61394583  1.0
  O  O25  1  0.81334439  0.63812302  0.11394583  1.0
  O  O26  1  0.18665561  0.36187698  0.88605417  1.0
  O  O27  1  0.18665561  0.13812302  0.38605417  1.0
  O  O28  1  0.81041356  0.79355227  0.88177596  1.0
  O  O29  1  0.81041356  0.70644773  0.38177596  1.0
  O  O30  1  0.18958644  0.29355227  0.61822404  1.0
  O  O31  1  0.18958644  0.20644773  0.11822404  1.0
  O  O32  1  0.47730878  0.91404322  0.65992645  1.0
  O  O33  1  0.47730878  0.58595678  0.15992645  1.0
  O  O34  1  0.52269122  0.41404322  0.84007355  1.0
  O  O35  1  0.52269122  0.08595678  0.34007355  1.0
  O  O36  1  0.35676310  0.60496397  0.60067725  1.0
  O  O37  1  0.35676310  0.89503603  0.10067725  1.0
  O  O38  1  0.64323690  0.10496397  0.89932275  1.0
  O  O39  1  0.64323690  0.39503603  0.39932275  1.0
  O  O40  1  0.31481988  0.69046147  0.88201578  1.0
  O  O41  1  0.31481988  0.80953853  0.38201578  1.0
  O  O42  1  0.68518012  0.19046147  0.61798422  1.0
  O  O43  1  0.68518012  0.30953853  0.11798422  1.0
