# generated using pymatgen
data_AsClOF8
_symmetry_space_group_name_H-M   'P 1'
_cell_length_a   15.31352820
_cell_length_b   5.48379305
_cell_length_c   8.60603916
_cell_angle_alpha   90.00000000
_cell_angle_beta   90.00000000
_cell_angle_gamma   90.00000000
_symmetry_Int_Tables_number   1
_chemical_formula_structural   AsClOF8
_chemical_formula_sum   'As4 Cl4 O4 F32'
_cell_volume   722.70263410
_cell_formula_units_Z   4
loop_
 _symmetry_equiv_pos_site_id
 _symmetry_equiv_pos_as_xyz
  1  'x, y, z'
loop_
 _atom_site_type_symbol
 _atom_site_label
 _atom_site_symmetry_multiplicity
 _atom_site_fract_x
 _atom_site_fract_y
 _atom_site_fract_z
 _atom_site_occupancy
  As  As0  1  0.40548653  0.88558179  0.64485012  1.0
  As  As1  1  0.90548653  0.61441821  0.64485012  1.0
  As  As2  1  0.59451347  0.11441821  0.14485012  1.0
  As  As3  1  0.09451347  0.38558179  0.14485012  1.0
  Cl  Cl4  1  0.39172318  0.66717014  0.08163926  1.0
  Cl  Cl5  1  0.89172318  0.83282986  0.08163926  1.0
  Cl  Cl6  1  0.60827682  0.33282986  0.58163926  1.0
  Cl  Cl7  1  0.10827682  0.16717014  0.58163926  1.0
  O  O8  1  0.34119814  0.88138013  0.09178242  1.0
  O  O9  1  0.84119814  0.61861987  0.09178242  1.0
  O  O10  1  0.65880186  0.11861987  0.59178242  1.0
  O  O11  1  0.15880186  0.38138013  0.59178242  1.0
  F  F12  1  0.49657127  0.73937453  0.55125568  1.0
  F  F13  1  0.99657127  0.76062547  0.55125568  1.0
  F  F14  1  0.50342873  0.26062547  0.05125568  1.0
  F  F15  1  0.00342873  0.23937453  0.05125568  1.0
  F  F16  1  0.47669659  0.14485611  0.68758716  1.0
  F  F17  1  0.97669659  0.35514389  0.68758716  1.0
  F  F18  1  0.52330341  0.85514389  0.18758716  1.0
  F  F19  1  0.02330341  0.64485611  0.18758716  1.0
  F  F20  1  0.44503152  0.74842118  0.82771275  1.0
  F  F21  1  0.94503152  0.75157882  0.82771275  1.0
  F  F22  1  0.55496848  0.25157882  0.32771275  1.0
  F  F23  1  0.05496848  0.24842118  0.32771275  1.0
  F  F24  1  0.33872702  0.62534277  0.61270652  1.0
  F  F25  1  0.83872702  0.87465723  0.61270652  1.0
  F  F26  1  0.66127298  0.37465723  0.11270652  1.0
  F  F27  1  0.16127298  0.12534277  0.11270652  1.0
  F  F28  1  0.32103864  0.03156504  0.75270953  1.0
  F  F29  1  0.82103864  0.46843496  0.75270953  1.0
  F  F30  1  0.67896136  0.96843496  0.25270953  1.0
  F  F31  1  0.17896136  0.53156504  0.25270953  1.0
  F  F32  1  0.17034472  0.96075234  0.49884789  1.0
  F  F33  1  0.67034472  0.53924766  0.49884789  1.0
  F  F34  1  0.82965528  0.03924766  -0.00115211  1.0
  F  F35  1  0.32965528  0.46075234  -0.00115211  1.0
  F  F36  1  0.12745114  0.52336900  0.96821999  1.0
  F  F37  1  0.62745114  0.97663100  0.96821999  1.0
  F  F38  1  0.87254886  0.47663100  0.46821999  1.0
  F  F39  1  0.37254886  0.02336900  0.46821999  1.0
  F  F40  1  0.11518505  1.03651695  0.75248869  1.0
  F  F41  1  0.61518505  0.46348305  0.75248869  1.0
  F  F42  1  0.88481495  -0.03651695  0.25248869  1.0
  F  F43  1  0.38481495  0.53651695  0.25248869  1.0
