# generated using pymatgen
data_Ga2TeSe2
_symmetry_space_group_name_H-M   'P 1'
_cell_length_a   7.59699965
_cell_length_b   7.59699965
_cell_length_c   7.59699965
_cell_angle_alpha   121.52288559
_cell_angle_beta   121.52288559
_cell_angle_gamma   87.38192186
_symmetry_Int_Tables_number   1
_chemical_formula_structural   Ga2TeSe2
_chemical_formula_sum   'Ga4 Te2 Se4'
_cell_volume   302.55560115
_cell_formula_units_Z   2
loop_
 _symmetry_equiv_pos_site_id
 _symmetry_equiv_pos_as_xyz
  1  'x, y, z'
loop_
 _atom_site_type_symbol
 _atom_site_label
 _atom_site_symmetry_multiplicity
 _atom_site_fract_x
 _atom_site_fract_y
 _atom_site_fract_z
 _atom_site_occupancy
  Ga  Ga0  1  1.18003645  0.40531604  0.77472041  1.0
  Ga  Ga1  1  0.63059562  0.40531604  0.22527959  1.0
  Ga  Ga2  1  0.15531604  0.43003645  0.27472041  1.0
  Ga  Ga3  1  0.15531604  0.88059562  0.72527959  1.0
  Te  Te4  1  0.00884473  0.00884473  -0.00000000  1.0
  Te  Te5  1  0.75884473  0.25884473  0.50000000  1.0
  Se  Se6  1  0.37654077  0.62826160  0.74827917  1.0
  Se  Se7  1  0.87998243  0.62826160  1.25172083  1.0
  Se  Se8  1  0.37826160  0.62654077  0.24827917  1.0
  Se  Se9  1  0.37826160  1.12998243  0.75172083  1.0
