# generated using pymatgen
data_NaH4CNO2
_symmetry_space_group_name_H-M   'P 1'
_cell_length_a   5.96057767
_cell_length_b   10.50126170
_cell_length_c   6.76024112
_cell_angle_alpha   90.00000000
_cell_angle_beta   102.63673643
_cell_angle_gamma   90.00000000
_symmetry_Int_Tables_number   1
_chemical_formula_structural   NaH4CNO2
_chemical_formula_sum   'Na4 H16 C4 N4 O8'
_cell_volume   412.89769759
_cell_formula_units_Z   4
loop_
 _symmetry_equiv_pos_site_id
 _symmetry_equiv_pos_as_xyz
  1  'x, y, z'
loop_
 _atom_site_type_symbol
 _atom_site_label
 _atom_site_symmetry_multiplicity
 _atom_site_fract_x
 _atom_site_fract_y
 _atom_site_fract_z
 _atom_site_occupancy
  Na  Na0  1  1.00302194  0.32888550  0.06335633  1.0
  Na  Na1  1  1.00302194  0.17111450  0.56335633  1.0
  Na  Na2  1  -0.00302194  0.82888550  0.43664367  1.0
  Na  Na3  1  -0.00302194  0.67111450  0.93664367  1.0
  H  H4  1  0.80697735  0.05348811  0.17069495  1.0
  H  H5  1  0.80697735  0.44651189  0.67069495  1.0
  H  H6  1  0.19302265  0.55348811  0.32930505  1.0
  H  H7  1  0.19302265  0.94651189  0.82930505  1.0
  H  H8  1  0.63173218  0.00369303  0.28929231  1.0
  H  H9  1  0.63173218  0.49630697  0.78929231  1.0
  H  H10  1  0.36826782  0.50369303  0.21070769  1.0
  H  H11  1  0.36826782  0.99630697  0.71070769  1.0
  H  H12  1  0.40659453  0.24474220  0.35854334  1.0
  H  H13  1  0.40659453  0.25525780  0.85854334  1.0
  H  H14  1  0.59340547  0.74474220  0.14145666  1.0
  H  H15  1  0.59340547  0.75525780  0.64145666  1.0
  H  H16  1  0.29724317  0.11343849  0.28323437  1.0
  H  H17  1  0.29724317  0.38656151  0.78323437  1.0
  H  H18  1  0.70275683  0.61343849  0.21676563  1.0
  H  H19  1  0.70275683  0.88656151  0.71676563  1.0
  C  C20  1  0.67620587  0.43747806  0.30133594  1.0
  C  C21  1  0.67620587  0.06252194  0.80133594  1.0
  C  C22  1  0.32379413  0.93747806  0.19866406  1.0
  C  C23  1  0.32379413  0.56252194  0.69866406  1.0
  N  N24  1  0.76350863  0.34783261  0.39065623  1.0
  N  N25  1  0.76350863  0.15216739  0.89065623  1.0
  N  N26  1  0.23649137  0.84783261  0.10934377  1.0
  N  N27  1  0.23649137  0.65216739  0.60934377  1.0
  O  O28  1  0.79766800  0.02328581  0.30584190  1.0
  O  O29  1  0.79766800  0.47671419  0.80584190  1.0
  O  O30  1  0.20233200  0.52328581  0.19415810  1.0
  O  O31  1  0.20233200  0.97671419  0.69415810  1.0
  O  O32  1  0.25890144  0.20064699  0.32284297  1.0
  O  O33  1  0.25890144  0.29935301  0.82284297  1.0
  O  O34  1  0.74109856  0.70064699  0.17715703  1.0
  O  O35  1  0.74109856  0.79935301  0.67715703  1.0
