# generated using pymatgen
data_ScH2
_symmetry_space_group_name_H-M   'P 1'
_cell_length_a   3.34441915
_cell_length_b   3.34441915
_cell_length_c   11.31861680
_cell_angle_alpha   90.00000000
_cell_angle_beta   90.00000000
_cell_angle_gamma   120.00000000
_symmetry_Int_Tables_number   1
_chemical_formula_structural   ScH2
_chemical_formula_sum   'Sc4 H8'
_cell_volume   109.63908246
_cell_formula_units_Z   4
loop_
 _symmetry_equiv_pos_site_id
 _symmetry_equiv_pos_as_xyz
  1  'x, y, z'
loop_
 _atom_site_type_symbol
 _atom_site_label
 _atom_site_symmetry_multiplicity
 _atom_site_fract_x
 _atom_site_fract_y
 _atom_site_fract_z
 _atom_site_occupancy
  Sc  Sc0  1  0.33333333  0.66666667  0.25673395  1.0
  Sc  Sc1  1  0.66666667  0.33333333  0.74326605  1.0
  Sc  Sc2  1  0.00000000  0.00000000  0.00000000  1.0
  Sc  Sc3  1  0.00000000  0.00000000  0.50000000  1.0
  H  H4  1  0.66666667  0.33333333  0.06015112  1.0
  H  H5  1  0.33333333  0.66666667  0.93984888  1.0
  H  H6  1  0.66666667  0.33333333  0.55905324  1.0
  H  H7  1  0.33333333  0.66666667  0.44094676  1.0
  H  H8  1  0.00000000  0.00000000  0.18704797  1.0
  H  H9  1  0.00000000  0.00000000  0.81295203  1.0
  H  H10  1  0.33333333  0.66666667  0.66745945  1.0
  H  H11  1  0.66666667  0.33333333  0.33254055  1.0
