# generated using pymatgen
data_LiGa2
_symmetry_space_group_name_H-M   'P 1'
_cell_length_a   6.83004877
_cell_length_b   6.83004877
_cell_length_c   6.83004877
_cell_angle_alpha   60.00000000
_cell_angle_beta   60.00000000
_cell_angle_gamma   60.00000000
_symmetry_Int_Tables_number   1
_chemical_formula_structural   LiGa2
_chemical_formula_sum   'Li4 Ga8'
_cell_volume   225.29752227
_cell_formula_units_Z   4
loop_
 _symmetry_equiv_pos_site_id
 _symmetry_equiv_pos_as_xyz
  1  'x, y, z'
loop_
 _atom_site_type_symbol
 _atom_site_label
 _atom_site_symmetry_multiplicity
 _atom_site_fract_x
 _atom_site_fract_y
 _atom_site_fract_z
 _atom_site_occupancy
  Li  Li0  1  0.62500000  -0.37500000  1.12500000  1.0
  Li  Li1  1  0.62500000  0.12500000  0.62500000  1.0
  Li  Li2  1  0.62500000  -0.37500000  0.62500000  1.0
  Li  Li3  1  1.12500000  -0.37500000  0.62500000  1.0
  Ga  Ga4  1  -0.10080443  0.89919557  0.30241328  1.0
  Ga  Ga5  1  0.89919557  -0.69758672  0.89919557  1.0
  Ga  Ga6  1  0.35080443  0.35080443  0.35080443  1.0
  Ga  Ga7  1  -0.05241328  0.35080443  0.35080443  1.0
  Ga  Ga8  1  -0.69758672  0.89919557  0.89919557  1.0
  Ga  Ga9  1  0.89919557  -0.10080443  0.89919557  1.0
  Ga  Ga10  1  0.35080443  -0.05241328  0.35080443  1.0
  Ga  Ga11  1  0.35080443  0.35080443  -0.05241328  1.0
