# generated using pymatgen
data_SbRhS
_symmetry_space_group_name_H-M   'P 1'
_cell_length_a   6.09364611
_cell_length_b   6.09364611
_cell_length_c   6.09364611
_cell_angle_alpha   90.00000000
_cell_angle_beta   90.00000000
_cell_angle_gamma   90.00000000
_symmetry_Int_Tables_number   1
_chemical_formula_structural   SbRhS
_chemical_formula_sum   'Sb4 Rh4 S4'
_cell_volume   226.27245368
_cell_formula_units_Z   4
loop_
 _symmetry_equiv_pos_site_id
 _symmetry_equiv_pos_as_xyz
  1  'x, y, z'
loop_
 _atom_site_type_symbol
 _atom_site_label
 _atom_site_symmetry_multiplicity
 _atom_site_fract_x
 _atom_site_fract_y
 _atom_site_fract_z
 _atom_site_occupancy
  Sb  Sb0  1  0.12163881  0.62163881  0.87836119  1.0
  Sb  Sb1  1  0.62163881  0.87836119  0.12163881  1.0
  Sb  Sb2  1  0.87836119  0.12163881  0.62163881  1.0
  Sb  Sb3  1  0.37836119  0.37836119  0.37836119  1.0
  Rh  Rh4  1  0.48682645  0.98682645  0.51317355  1.0
  Rh  Rh5  1  0.98682645  0.51317355  0.48682645  1.0
  Rh  Rh6  1  0.51317355  0.48682645  0.98682645  1.0
  Rh  Rh7  1  0.01317355  0.01317355  0.01317355  1.0
  S  S8  1  0.88205933  0.38205933  0.11794067  1.0
  S  S9  1  0.38205933  0.11794067  0.88205933  1.0
  S  S10  1  0.11794067  0.88205933  0.38205933  1.0
  S  S11  1  0.61794067  0.61794067  0.61794067  1.0
