# generated using pymatgen
data_SrCu(Si2O5)2
_symmetry_space_group_name_H-M   'P 1'
_cell_length_a   7.44506613
_cell_length_b   7.44506613
_cell_length_c   15.93635710
_cell_angle_alpha   90.00000000
_cell_angle_beta   90.00000000
_cell_angle_gamma   90.00000000
_symmetry_Int_Tables_number   1
_chemical_formula_structural   SrCu(Si2O5)2
_chemical_formula_sum   'Sr4 Cu4 Si16 O40'
_cell_volume   883.33649227
_cell_formula_units_Z   4
loop_
 _symmetry_equiv_pos_site_id
 _symmetry_equiv_pos_as_xyz
  1  'x, y, z'
loop_
 _atom_site_type_symbol
 _atom_site_label
 _atom_site_symmetry_multiplicity
 _atom_site_fract_x
 _atom_site_fract_y
 _atom_site_fract_z
 _atom_site_occupancy
  Sr  Sr0  1  0.50000000  0.50000000  0.50000000  1.0
  Sr  Sr1  1  0.50000000  0.50000000  0.00000000  1.0
  Sr  Sr2  1  0.00000000  0.00000000  -0.00000000  1.0
  Sr  Sr3  1  0.00000000  0.00000000  0.50000000  1.0
  Cu  Cu4  1  0.00000000  0.50000000  0.40950394  1.0
  Cu  Cu5  1  0.00000000  0.50000000  0.90950394  1.0
  Cu  Cu6  1  0.50000000  0.00000000  0.59049606  1.0
  Cu  Cu7  1  0.50000000  0.00000000  0.09049606  1.0
  Si  Si8  1  0.67986403  0.75724383  0.34866886  1.0
  Si  Si9  1  0.32013597  0.75724383  0.84866886  1.0
  Si  Si10  1  0.67986403  0.24275617  0.84866886  1.0
  Si  Si11  1  0.32013597  0.24275617  0.34866886  1.0
  Si  Si12  1  0.25724383  0.17986403  0.84866886  1.0
  Si  Si13  1  0.74275617  0.17986403  0.34866886  1.0
  Si  Si14  1  0.25724383  0.82013597  0.34866886  1.0
  Si  Si15  1  0.74275617  0.82013597  0.84866886  1.0
  Si  Si16  1  0.82013597  0.74275617  0.65133114  1.0
  Si  Si17  1  0.17986403  0.74275617  0.15133114  1.0
  Si  Si18  1  0.82013597  0.25724383  0.15133114  1.0
  Si  Si19  1  0.17986403  0.25724383  0.65133114  1.0
  Si  Si20  1  0.24275617  0.32013597  0.15133114  1.0
  Si  Si21  1  0.75724383  0.32013597  0.65133114  1.0
  Si  Si22  1  0.24275617  0.67986403  0.65133114  1.0
  Si  Si23  1  0.75724383  0.67986403  0.15133114  1.0
  O  O24  1  0.71482991  0.71482991  0.25000000  1.0
  O  O25  1  0.28517009  0.71482991  0.75000000  1.0
  O  O26  1  0.71482991  0.28517009  0.75000000  1.0
  O  O27  1  0.28517009  0.28517009  0.25000000  1.0
  O  O28  1  0.21482991  0.21482991  0.75000000  1.0
  O  O29  1  0.78517009  0.21482991  0.25000000  1.0
  O  O30  1  0.21482991  0.78517009  0.25000000  1.0
  O  O31  1  0.78517009  0.78517009  0.75000000  1.0
  O  O32  1  0.75147629  0.96204653  0.36877571  1.0
  O  O33  1  0.24852371  0.96204653  0.86877571  1.0
  O  O34  1  0.75147629  0.03795347  0.86877571  1.0
  O  O35  1  0.24852371  0.03795347  0.36877571  1.0
  O  O36  1  0.46204653  0.25147629  0.86877571  1.0
  O  O37  1  0.53795347  0.25147629  0.36877571  1.0
  O  O38  1  0.46204653  0.74852371  0.36877571  1.0
  O  O39  1  0.53795347  0.74852371  0.86877571  1.0
  O  O40  1  0.74852371  0.53795347  0.63122429  1.0
  O  O41  1  0.25147629  0.53795347  0.13122429  1.0
  O  O42  1  0.74852371  0.46204653  0.13122429  1.0
  O  O43  1  0.25147629  0.46204653  0.63122429  1.0
  O  O44  1  0.03795347  0.24852371  0.13122429  1.0
  O  O45  1  0.96204653  0.24852371  0.63122429  1.0
  O  O46  1  0.03795347  0.75147629  0.63122429  1.0
  O  O47  1  0.96204653  0.75147629  0.13122429  1.0
  O  O48  1  0.76336942  0.61303879  0.41280235  1.0
  O  O49  1  0.23663058  0.61303879  0.91280235  1.0
  O  O50  1  0.76336942  0.38696121  0.91280235  1.0
  O  O51  1  0.23663058  0.38696121  0.41280235  1.0
  O  O52  1  0.11303879  0.26336942  0.91280235  1.0
  O  O53  1  0.88696121  0.26336942  0.41280235  1.0
  O  O54  1  0.11303879  0.73663058  0.41280235  1.0
  O  O55  1  0.88696121  0.73663058  0.91280235  1.0
  O  O56  1  0.73663058  0.88696121  0.58719765  1.0
  O  O57  1  0.26336942  0.88696121  0.08719765  1.0
  O  O58  1  0.73663058  0.11303879  0.08719765  1.0
  O  O59  1  0.26336942  0.11303879  0.58719765  1.0
  O  O60  1  0.38696121  0.23663058  0.08719765  1.0
  O  O61  1  0.61303879  0.23663058  0.58719765  1.0
  O  O62  1  0.38696121  0.76336942  0.58719765  1.0
  O  O63  1  0.61303879  0.76336942  0.08719765  1.0
