# generated using pymatgen
data_NbO3
_symmetry_space_group_name_H-M   'P 1'
_cell_length_a   6.85428899
_cell_length_b   6.85428899
_cell_length_c   6.85428899
_cell_angle_alpha   109.47122063
_cell_angle_beta   109.47122063
_cell_angle_gamma   109.47122063
_symmetry_Int_Tables_number   1
_chemical_formula_structural   NbO3
_chemical_formula_sum   'Nb4 O12'
_cell_volume   247.89361611
_cell_formula_units_Z   4
loop_
 _symmetry_equiv_pos_site_id
 _symmetry_equiv_pos_as_xyz
  1  'x, y, z'
loop_
 _atom_site_type_symbol
 _atom_site_label
 _atom_site_symmetry_multiplicity
 _atom_site_fract_x
 _atom_site_fract_y
 _atom_site_fract_z
 _atom_site_occupancy
  Nb  Nb0  1  1.00000000  0.50000000  1.00000000  1.0
  Nb  Nb1  1  0.50000000  0.50000000  0.50000000  1.0
  Nb  Nb2  1  1.00000000  1.00000000  0.50000000  1.0
  Nb  Nb3  1  0.50000000  1.00000000  1.00000000  1.0
  O  O4  1  0.74997888  0.49998874  0.75000986  1.0
  O  O5  1  0.25002112  0.50001126  0.24999014  1.0
  O  O6  1  1.25002112  1.00003097  0.75000986  1.0
  O  O7  1  0.74997888  0.99996903  0.24999014  1.0
  O  O8  1  0.99996903  0.24999014  0.74997888  1.0
  O  O9  1  1.00003097  0.75000986  1.25002112  1.0
  O  O10  1  0.50001126  0.24999014  0.25002112  1.0
  O  O11  1  0.49998874  0.75000986  0.74997888  1.0
  O  O12  1  0.24999014  0.25002112  0.50001126  1.0
  O  O13  1  0.75000986  0.74997888  0.49998874  1.0
  O  O14  1  0.24999014  0.74997888  0.99996903  1.0
  O  O15  1  0.75000986  1.25002112  1.00003097  1.0
