# generated using pymatgen
data_HCN
_symmetry_space_group_name_H-M   'P 1'
_cell_length_a   4.07092933
_cell_length_b   4.07092933
_cell_length_c   4.07092933
_cell_angle_alpha   112.57679360
_cell_angle_beta   99.52498156
_cell_angle_gamma   116.78225093
_symmetry_Int_Tables_number   1
_chemical_formula_structural   HCN
_chemical_formula_sum   'H1 C1 N1'
_cell_volume   50.70802324
_cell_formula_units_Z   1
loop_
 _symmetry_equiv_pos_site_id
 _symmetry_equiv_pos_as_xyz
  1  'x, y, z'
loop_
 _atom_site_type_symbol
 _atom_site_label
 _atom_site_symmetry_multiplicity
 _atom_site_fract_x
 _atom_site_fract_y
 _atom_site_fract_z
 _atom_site_occupancy
  H  H0  1  0.74803176  0.74803176  0.00000000  1.0
  C  C1  1  0.00421436  0.00421436  -0.00000000  1.0
  N  N2  1  0.27545389  0.27545389  0.00000000  1.0
