# generated using pymatgen
data_CsGa2P5O16
_symmetry_space_group_name_H-M   'P 1'
_cell_length_a   7.56234498
_cell_length_b   9.38459495
_cell_length_c   10.37315082
_cell_angle_alpha   90.00000000
_cell_angle_beta   112.14573783
_cell_angle_gamma   90.00000000
_symmetry_Int_Tables_number   1
_chemical_formula_structural   CsGa2P5O16
_chemical_formula_sum   'Cs2 Ga4 P10 O32'
_cell_volume   681.86848489
_cell_formula_units_Z   2
loop_
 _symmetry_equiv_pos_site_id
 _symmetry_equiv_pos_as_xyz
  1  'x, y, z'
loop_
 _atom_site_type_symbol
 _atom_site_label
 _atom_site_symmetry_multiplicity
 _atom_site_fract_x
 _atom_site_fract_y
 _atom_site_fract_z
 _atom_site_occupancy
  Cs  Cs0  1  0.37824406  0.30313534  0.11454174  1.0
  Cs  Cs1  1  0.37824406  0.69686466  0.61454174  1.0
  Ga  Ga2  1  0.75776958  0.63924868  0.40274948  1.0
  Ga  Ga3  1  0.75776958  0.36075132  0.90274948  1.0
  Ga  Ga4  1  0.31574305  0.86792219  0.01023555  1.0
  Ga  Ga5  1  0.31574305  0.13207781  0.51023555  1.0
  P  P6  1  -0.00125954  0.36107990  0.49942349  1.0
  P  P7  1  -0.00125954  0.63892010  -0.00057651  1.0
  P  P8  1  0.95589206  0.79655459  0.74565148  1.0
  P  P9  1  0.95589206  0.20344541  0.24565148  1.0
  P  P10  1  0.90313253  0.95537185  0.38407930  1.0
  P  P11  1  0.90313253  0.04462815  0.88407930  1.0
  P  P12  1  0.66364953  0.62556768  0.07126582  1.0
  P  P13  1  0.66364953  0.37443232  0.57126582  1.0
  P  P14  1  0.50517463  0.91538202  0.34427931  1.0
  P  P15  1  0.50517463  0.08461798  0.84427931  1.0
  O  O16  1  0.99226138  0.52124665  0.47174915  1.0
  O  O17  1  0.99226138  0.47875335  0.97174915  1.0
  O  O18  1  0.90512068  0.79716408  0.35495051  1.0
  O  O19  1  0.90512068  0.20283592  0.85495051  1.0
  O  O20  1  0.87714799  0.71771629  0.85323314  1.0
  O  O21  1  0.87714799  0.28228371  0.35323314  1.0
  O  O22  1  0.88160268  0.67942557  0.09277681  1.0
  O  O23  1  0.88160268  0.32057443  0.59277681  1.0
  O  O24  1  0.87297185  0.95677775  0.74123885  1.0
  O  O25  1  0.87297185  0.04322225  0.24123885  1.0
  O  O26  1  0.86063387  0.26842841  0.10524345  1.0
  O  O27  1  0.86063387  0.73157159  0.60524345  1.0
  O  O28  1  0.71506272  0.99442364  0.41308618  1.0
  O  O29  1  0.71506272  0.00557636  0.91308618  1.0
  O  O30  1  0.67838305  0.56515600  0.21227160  1.0
  O  O31  1  0.67838305  0.43484400  0.71227160  1.0
  O  O32  1  0.61316173  0.49068581  0.45858160  1.0
  O  O33  1  0.61316173  0.50931419  0.95858160  1.0
  O  O34  1  0.53490411  0.75430943  0.36574425  1.0
  O  O35  1  0.53490411  0.24569057  0.86574425  1.0
  O  O36  1  0.53900462  0.75728184  0.02194624  1.0
  O  O37  1  0.53900462  0.24271816  0.52194624  1.0
  O  O38  1  0.42691306  0.95919534  0.19100694  1.0
  O  O39  1  0.42691306  0.04080466  0.69100694  1.0
  O  O40  1  0.39287359  0.96844230  0.42926800  1.0
  O  O41  1  0.39287359  0.03155770  0.92926800  1.0
  O  O42  1  0.19862478  0.69807774  0.06632922  1.0
  O  O43  1  0.19862478  0.30192226  0.56632922  1.0
  O  O44  1  0.17254258  0.79714343  0.81048382  1.0
  O  O45  1  0.17254258  0.20285657  0.31048382  1.0
  O  O46  1  0.07424538  0.98196071  0.99906406  1.0
  O  O47  1  0.07424538  0.01803929  0.49906406  1.0
