# generated using pymatgen
data_C3O4
_symmetry_space_group_name_H-M   'P 1'
_cell_length_a   5.53745337
_cell_length_b   5.88781587
_cell_length_c   8.78008828
_cell_angle_alpha   89.61027844
_cell_angle_beta   61.61938701
_cell_angle_gamma   79.95673917
_symmetry_Int_Tables_number   1
_chemical_formula_structural   C3O4
_chemical_formula_sum   'C6 O8'
_cell_volume   247.03794182
_cell_formula_units_Z   2
loop_
 _symmetry_equiv_pos_site_id
 _symmetry_equiv_pos_as_xyz
  1  'x, y, z'
loop_
 _atom_site_type_symbol
 _atom_site_label
 _atom_site_symmetry_multiplicity
 _atom_site_fract_x
 _atom_site_fract_y
 _atom_site_fract_z
 _atom_site_occupancy
  C  C0  1  -0.26102299  -0.27407170  -0.59959165  1.0
  C  C1  1  -0.73897701  -0.72592830  -0.40040835  1.0
  C  C2  1  -0.46739008  -0.24397874  -0.84061121  1.0
  C  C3  1  -0.53260992  -0.75602126  -0.15938879  1.0
  C  C4  1  -0.32309398  -0.28153141  -0.74049232  1.0
  C  C5  1  -0.67690602  -0.71846859  -0.25950768  1.0
  O  O6  1  -0.24353302  -0.19365328  -0.48226814  1.0
  O  O7  1  -0.75646698  -0.80634672  -0.51773186  1.0
  O  O8  1  -0.21131113  -0.48915574  -0.68238580  1.0
  O  O9  1  -0.78868887  -0.51084426  -0.31761420  1.0
  O  O10  1  -0.19047223  -0.22244433  0.07948940  1.0
  O  O11  1  -0.80952777  -0.77755567  -1.07948940  1.0
  O  O12  1  -0.65234141  -0.23243125  -0.87486362  1.0
  O  O13  1  -0.34765859  -0.76756875  -0.12513638  1.0
