# generated using pymatgen
data_TaZn2
_symmetry_space_group_name_H-M   'P 1'
_cell_length_a   5.03044320
_cell_length_b   5.03044320
_cell_length_c   16.26923060
_cell_angle_alpha   90.00000000
_cell_angle_beta   90.00000000
_cell_angle_gamma   120.00000000
_symmetry_Int_Tables_number   1
_chemical_formula_structural   TaZn2
_chemical_formula_sum   'Ta8 Zn16'
_cell_volume   356.54154876
_cell_formula_units_Z   8
loop_
 _symmetry_equiv_pos_site_id
 _symmetry_equiv_pos_as_xyz
  1  'x, y, z'
loop_
 _atom_site_type_symbol
 _atom_site_label
 _atom_site_symmetry_multiplicity
 _atom_site_fract_x
 _atom_site_fract_y
 _atom_site_fract_z
 _atom_site_occupancy
  Ta  Ta0  1  0.33333333  0.66666667  0.84352006  1.0
  Ta  Ta1  1  0.33333333  0.66666667  0.65647994  1.0
  Ta  Ta2  1  0.66666667  0.33333333  0.34352006  1.0
  Ta  Ta3  1  0.66666667  0.33333333  0.15647994  1.0
  Ta  Ta4  1  0.00000000  0.00000000  0.40880188  1.0
  Ta  Ta5  1  -0.00000000  -0.00000000  0.09119812  1.0
  Ta  Ta6  1  0.00000000  0.00000000  0.90880188  1.0
  Ta  Ta7  1  -0.00000000  -0.00000000  0.59119812  1.0
  Zn  Zn8  1  0.16060548  0.83939452  0.25000000  1.0
  Zn  Zn9  1  0.16060548  0.32121096  0.25000000  1.0
  Zn  Zn10  1  0.83939452  0.16060548  0.75000000  1.0
  Zn  Zn11  1  0.83939452  0.67878904  0.75000000  1.0
  Zn  Zn12  1  0.67878904  0.83939452  0.25000000  1.0
  Zn  Zn13  1  0.32121096  0.16060548  0.75000000  1.0
  Zn  Zn14  1  0.50000000  0.50000000  0.50000000  1.0
  Zn  Zn15  1  0.50000000  0.50000000  0.00000000  1.0
  Zn  Zn16  1  0.50000000  0.00000000  0.50000000  1.0
  Zn  Zn17  1  0.50000000  0.00000000  0.00000000  1.0
  Zn  Zn18  1  -0.00000000  0.50000000  0.50000000  1.0
  Zn  Zn19  1  -0.00000000  0.50000000  0.00000000  1.0
  Zn  Zn20  1  0.33333333  0.66666667  0.37313032  1.0
  Zn  Zn21  1  0.33333333  0.66666667  0.12686968  1.0
  Zn  Zn22  1  0.66666667  0.33333333  0.87313032  1.0
  Zn  Zn23  1  0.66666667  0.33333333  0.62686968  1.0
