# generated using pymatgen
data_TaZn2
_symmetry_space_group_name_H-M   'P 1'
_cell_length_a   5.04934365
_cell_length_b   5.04934365
_cell_length_c   8.07783169
_cell_angle_alpha   90.00000000
_cell_angle_beta   90.00000000
_cell_angle_gamma   120.00000000
_symmetry_Int_Tables_number   1
_chemical_formula_structural   TaZn2
_chemical_formula_sum   'Ta4 Zn8'
_cell_volume   178.35910717
_cell_formula_units_Z   4
loop_
 _symmetry_equiv_pos_site_id
 _symmetry_equiv_pos_as_xyz
  1  'x, y, z'
loop_
 _atom_site_type_symbol
 _atom_site_label
 _atom_site_symmetry_multiplicity
 _atom_site_fract_x
 _atom_site_fract_y
 _atom_site_fract_z
 _atom_site_occupancy
  Ta  Ta0  1  0.33333333  0.66666667  0.93151922  1.0
  Ta  Ta1  1  0.33333333  0.66666667  0.56848078  1.0
  Ta  Ta2  1  0.66666667  0.33333333  0.43151922  1.0
  Ta  Ta3  1  0.66666667  0.33333333  0.06848078  1.0
  Zn  Zn4  1  0.17263753  0.82736247  0.25000000  1.0
  Zn  Zn5  1  0.17263753  0.34527505  0.25000000  1.0
  Zn  Zn6  1  0.82736247  0.17263753  0.75000000  1.0
  Zn  Zn7  1  0.82736247  0.65472495  0.75000000  1.0
  Zn  Zn8  1  0.65472495  0.82736247  0.25000000  1.0
  Zn  Zn9  1  0.34527505  0.17263753  0.75000000  1.0
  Zn  Zn10  1  0.00000000  0.00000000  0.50000000  1.0
  Zn  Zn11  1  0.00000000  0.00000000  0.00000000  1.0
