# generated using pymatgen
data_Ca2Al4Si4O17
_symmetry_space_group_name_H-M   'P 1'
_cell_length_a   11.61263383
_cell_length_b   11.61263383
_cell_length_c   8.71154192
_cell_angle_alpha   82.30005242
_cell_angle_beta   97.69994758
_cell_angle_gamma   132.51956680
_symmetry_Int_Tables_number   1
_chemical_formula_structural   Ca2Al4Si4O17
_chemical_formula_sum   'Ca4 Al8 Si8 O34'
_cell_volume   856.54186119
_cell_formula_units_Z   2
loop_
 _symmetry_equiv_pos_site_id
 _symmetry_equiv_pos_as_xyz
  1  'x, y, z'
loop_
 _atom_site_type_symbol
 _atom_site_label
 _atom_site_symmetry_multiplicity
 _atom_site_fract_x
 _atom_site_fract_y
 _atom_site_fract_z
 _atom_site_occupancy
  Al  Al0  1  0.21767071  0.02169859  0.86905458  1.0
  Al  Al1  1  1.02169859  0.21767071  0.63094542  1.0
  Al  Al2  1  0.78232929  -0.02169859  0.13094542  1.0
  Al  Al3  1  0.97830141  0.78232929  0.36905458  1.0
  Al  Al4  1  0.51309817  0.10861382  0.21485221  1.0
  Al  Al5  1  1.10861382  0.51309817  0.28514779  1.0
  Al  Al6  1  0.48690183  -0.10861382  0.78514779  1.0
  Al  Al7  1  0.89138618  0.48690183  0.71485221  1.0
  Si  Si8  1  0.25797489  0.13020687  0.20151638  1.0
  Si  Si9  1  1.13020687  0.25797489  0.29848362  1.0
  Si  Si10  1  0.74202511  -0.13020687  0.79848362  1.0
  Si  Si11  1  0.86979313  0.74202511  0.70151638  1.0
  Si  Si12  1  0.29379330  -0.19352790  0.05025348  1.0
  Si  Si13  1  0.80647210  0.29379330  0.44974652  1.0
  Si  Si14  1  0.70620670  0.19352790  0.94974652  1.0
  Si  Si15  1  1.19352790  0.70620670  0.55025348  1.0
  O  O16  1  0.41052296  0.15244251  0.28514894  1.0
  O  O17  1  1.15244251  0.41052296  0.21485106  1.0
  O  O18  1  0.58947704  -0.15244251  0.71485106  1.0
  O  O19  1  0.84755749  0.58947704  0.78514894  1.0
  O  O20  1  1.10198615  0.75021325  0.44974638  1.0
  O  O21  1  0.75021325  0.10198615  0.05025362  1.0
  O  O22  1  0.89801385  0.24978675  0.55025362  1.0
  O  O23  1  0.24978675  -0.10198615  0.94974638  1.0
  O  O24  1  0.62998281  0.23384845  0.05702719  1.0
  O  O25  1  1.23384845  0.62998281  0.44297281  1.0
  O  O26  1  0.37001719  -0.23384845  0.94297281  1.0
  O  O27  1  0.76615155  0.37001719  0.55702719  1.0
  O  O28  1  0.41317673  -0.09210277  0.19914896  1.0
  O  O29  1  0.90789723  0.41317673  0.30085104  1.0
  O  O30  1  0.58682327  0.09210277  0.80085104  1.0
  O  O31  1  1.09210277  0.58682327  0.69914896  1.0
  O  O32  1  1.13400985  0.62923965  0.11023549  1.0
  O  O33  1  0.62923965  0.13400985  0.38976451  1.0
  O  O34  1  0.86599015  0.37076035  0.88976451  1.0
  O  O35  1  0.37076035  -0.13400985  0.61023549  1.0
  O  O36  1  0.27269636  0.27269636  0.25000000  1.0
  O  O37  1  0.72730364  0.72730364  0.75000000  1.0
  O  O38  1  0.66313264  -0.14105331  0.28981008  1.0
  O  O39  1  0.85894669  0.66313264  0.21018992  1.0
  O  O40  1  0.33686736  0.14105331  0.71018992  1.0
  O  O41  1  1.14105331  0.33686736  0.78981008  1.0
  O  O42  1  0.25581268  0.13289643  0.01591891  1.0
  O  O43  1  1.13289643  0.25581268  0.48408109  1.0
  O  O44  1  0.74418732  -0.13289643  0.98408109  1.0
  O  O45  1  0.86710357  0.74418732  0.51591891  1.0
  O  O46  1  0.10094575  -0.03356621  0.27409693  1.0
  O  O47  1  0.96643379  0.10094575  0.22590307  1.0
  O  O48  1  0.89905425  0.03356621  0.72590307  1.0
  O  O49  1  1.03356621  0.89905425  0.77409693  1.0
  Ca  Ca50  1  0.51904530  -0.14476067  0.43614194  1.0
  Ca  Ca51  1  0.85523933  0.51904530  0.06385806  1.0
  Ca  Ca52  1  0.48095470  0.14476067  0.56385806  1.0
  Ca  Ca53  1  1.14476067  0.48095470  0.93614194  1.0
