# generated using pymatgen
data_Rb2BeF4
_symmetry_space_group_name_H-M   'P 1'
_cell_length_a   7.81032200
_cell_length_b   10.46936591
_cell_length_c   6.00426932
_cell_angle_alpha   90.00000000
_cell_angle_beta   90.00000000
_cell_angle_gamma   90.00000000
_symmetry_Int_Tables_number   1
_chemical_formula_structural   Rb2BeF4
_chemical_formula_sum   'Rb8 Be4 F16'
_cell_volume   490.96381218
_cell_formula_units_Z   4
loop_
 _symmetry_equiv_pos_site_id
 _symmetry_equiv_pos_as_xyz
  1  'x, y, z'
loop_
 _atom_site_type_symbol
 _atom_site_label
 _atom_site_symmetry_multiplicity
 _atom_site_fract_x
 _atom_site_fract_y
 _atom_site_fract_z
 _atom_site_occupancy
  Rb  Rb0  1  0.49041681  0.69204345  0.00011797  1.0
  Rb  Rb1  1  0.99041681  0.80795655  0.00011797  1.0
  Rb  Rb2  1  0.50958319  0.30795655  0.50011797  1.0
  Rb  Rb3  1  0.00958319  0.19204345  0.50011797  1.0
  Rb  Rb4  1  0.33683584  0.90973938  0.50003955  1.0
  Rb  Rb5  1  0.83683584  0.59026062  0.50003955  1.0
  Rb  Rb6  1  0.66316416  0.09026062  0.00003955  1.0
  Rb  Rb7  1  0.16316416  0.40973938  0.00003955  1.0
  Be  Be8  1  0.26485717  0.58196093  0.49998312  1.0
  Be  Be9  1  0.76485717  0.91803907  0.49998312  1.0
  Be  Be10  1  0.73514283  0.41803907  -0.00001688  1.0
  Be  Be11  1  0.23514283  0.08196093  -0.00001688  1.0
  F  F12  1  0.46496570  0.58371826  0.49966937  1.0
  F  F13  1  0.96496570  0.91628174  0.49966937  1.0
  F  F14  1  0.53503430  0.41628174  0.99966937  1.0
  F  F15  1  0.03503430  0.08371826  0.99966937  1.0
  F  F16  1  0.30771674  0.94063150  0.00001218  1.0
  F  F17  1  0.80771674  0.55936850  0.00001218  1.0
  F  F18  1  0.69228326  0.05936850  0.50001218  1.0
  F  F19  1  0.19228326  0.44063150  0.50001218  1.0
  F  F20  1  0.30497227  0.15148050  0.78590914  1.0
  F  F21  1  0.80497227  0.34851950  0.78590914  1.0
  F  F22  1  0.69502773  0.84851950  0.28590914  1.0
  F  F23  1  0.19502773  0.65148050  0.28590914  1.0
  F  F24  1  0.19533946  0.65144352  0.71426865  1.0
  F  F25  1  0.69533946  0.84855648  0.71426865  1.0
  F  F26  1  0.80466054  0.34855648  0.21426865  1.0
  F  F27  1  0.30466054  0.15144352  0.21426865  1.0
