# generated using pymatgen
data_Eu3Al2O7
_symmetry_space_group_name_H-M   'P 1'
_cell_length_a   10.26959039
_cell_length_b   10.26959039
_cell_length_c   10.26959039
_cell_angle_alpha   158.93276769
_cell_angle_beta   158.93276769
_cell_angle_gamma   29.96639293
_symmetry_Int_Tables_number   1
_chemical_formula_structural   Eu3Al2O7
_chemical_formula_sum   'Eu3 Al2 O7'
_cell_volume   139.86480976
_cell_formula_units_Z   1
loop_
 _symmetry_equiv_pos_site_id
 _symmetry_equiv_pos_as_xyz
  1  'x, y, z'
loop_
 _atom_site_type_symbol
 _atom_site_label
 _atom_site_symmetry_multiplicity
 _atom_site_fract_x
 _atom_site_fract_y
 _atom_site_fract_z
 _atom_site_occupancy
  Eu  Eu0  1  0.68243803  0.68243803  1.00000000  1.0
  Eu  Eu1  1  0.31756197  0.31756197  0.00000000  1.0
  Eu  Eu2  1  0.50000000  0.50000000  1.00000000  1.0
  Al  Al3  1  0.90422508  0.90422508  1.00000000  1.0
  Al  Al4  1  0.09577492  0.09577492  -0.00000000  1.0
  O  O5  1  0.40226203  0.90226203  0.50000000  1.0
  O  O6  1  0.59773797  0.09773797  0.50000000  1.0
  O  O7  1  0.90226203  0.40226203  0.50000000  1.0
  O  O8  1  0.09773797  0.59773797  0.50000000  1.0
  O  O9  1  0.80142586  0.80142586  1.00000000  1.0
  O  O10  1  0.19857414  0.19857414  0.00000000  1.0
  O  O11  1  0.00000000  0.00000000  0.00000000  1.0
