# generated using pymatgen
data_PH9C(NO)4
_symmetry_space_group_name_H-M   'P 1'
_cell_length_a   7.45106199
_cell_length_b   7.62681896
_cell_length_c   6.81389248
_cell_angle_alpha   77.17396201
_cell_angle_beta   82.31289603
_cell_angle_gamma   89.06746052
_symmetry_Int_Tables_number   1
_chemical_formula_structural   PH9C(NO)4
_chemical_formula_sum   'P2 H18 C2 N8 O8'
_cell_volume   374.12846773
_cell_formula_units_Z   2
loop_
 _symmetry_equiv_pos_site_id
 _symmetry_equiv_pos_as_xyz
  1  'x, y, z'
loop_
 _atom_site_type_symbol
 _atom_site_label
 _atom_site_symmetry_multiplicity
 _atom_site_fract_x
 _atom_site_fract_y
 _atom_site_fract_z
 _atom_site_occupancy
  P  P0  1  -0.99164811  -0.76363245  -0.31200975  1.0
  P  P1  1  -0.00835189  -0.23636755  -0.68799025  1.0
  H  H2  1  -0.26184916  -0.78685672  -0.94598732  1.0
  H  H3  1  -0.73815084  -0.21314328  -0.05401268  1.0
  H  H4  1  -0.81012659  -0.75308551  -0.92870719  1.0
  H  H5  1  -0.18987341  -0.24691449  -0.07129281  1.0
  H  H6  1  -0.71254796  -0.79302990  -0.70240179  1.0
  H  H7  1  -0.28745204  -0.20697010  -0.29759821  1.0
  H  H8  1  -0.38152434  -0.70238663  -0.24332569  1.0
  H  H9  1  -0.61847566  -0.29761337  -0.75667431  1.0
  H  H10  1  -0.61937895  -0.68043059  -0.24043686  1.0
  H  H11  1  -0.38062105  -0.31956941  -0.75956314  1.0
  H  H12  1  -0.33238517  -0.74138934  -0.59747934  1.0
  H  H13  1  -0.66761483  -0.25861066  -0.40252066  1.0
  H  H14  1  -0.35635198  -0.95085774  -0.61028162  1.0
  H  H15  1  -0.64364802  -0.04914226  -0.38971838  1.0
  H  H16  1  -0.84432226  -0.50083168  -0.45109498  1.0
  H  H17  1  -0.15567774  -0.49916832  -0.54890502  1.0
  H  H18  1  0.00000000  0.00000000  0.00000000  1.0
  H  H19  1  0.00000000  -0.00000000  -0.50000000  1.0
  C  C20  1  -0.53350950  -0.74921761  -0.96202293  1.0
  C  C21  1  -0.46649050  -0.25078239  -0.03797707  1.0
  N  N22  1  -0.40932241  -0.82521378  -0.65189890  1.0
  N  N23  1  -0.59067759  -0.17478622  -0.34810110  1.0
  N  N24  1  -0.38635649  -0.77422111  -0.86461048  1.0
  N  N25  1  -0.61364351  -0.22577889  -0.13538952  1.0
  N  N26  1  -0.69877314  -0.75428880  -0.85670484  1.0
  N  N27  1  -0.30122686  -0.24571120  -0.14329516  1.0
  N  N28  1  -0.51045300  -0.71848391  -0.16447122  1.0
  N  N29  1  -0.48954700  -0.28151609  -0.83552878  1.0
  O  O30  1  -0.16179482  -0.67399685  -0.39053616  1.0
  O  O31  1  -0.83820518  -0.32600315  -0.60946384  1.0
  O  O32  1  -0.83724182  -0.61408661  -0.33637798  1.0
  O  O33  1  -0.16275818  -0.38591339  -0.66362202  1.0
  O  O34  1  -0.90964830  -0.90567474  -0.42903787  1.0
  O  O35  1  -0.09035170  -0.09432526  -0.57096213  1.0
  O  O36  1  -0.02616707  -0.84464991  -0.07777683  1.0
  O  O37  1  -0.97383293  -0.15535009  -0.92222317  1.0
