# generated using pymatgen
data_Pd(Se3Br)2
_symmetry_space_group_name_H-M   'P 1'
_cell_length_a   5.01665285
_cell_length_b   8.25003284
_cell_length_c   7.77803968
_cell_angle_alpha   114.77203782
_cell_angle_beta   94.68092811
_cell_angle_gamma   81.03409307
_symmetry_Int_Tables_number   1
_chemical_formula_structural   Pd(Se3Br)2
_chemical_formula_sum   'Pd1 Se6 Br2'
_cell_volume   288.67299034
_cell_formula_units_Z   1
loop_
 _symmetry_equiv_pos_site_id
 _symmetry_equiv_pos_as_xyz
  1  'x, y, z'
loop_
 _atom_site_type_symbol
 _atom_site_label
 _atom_site_symmetry_multiplicity
 _atom_site_fract_x
 _atom_site_fract_y
 _atom_site_fract_z
 _atom_site_occupancy
  Pd  Pd0  1  0.00000000  0.00000000  0.00000000  1.0
  Se  Se1  1  0.95994667  0.24905284  -0.47706790  1.0
  Se  Se2  1  0.04005333  0.75094716  -0.52293210  1.0
  Se  Se3  1  0.84496311  0.73558806  -0.25385263  1.0
  Se  Se4  1  0.15503689  0.26441194  -0.74614737  1.0
  Se  Se5  1  0.85312978  0.51480478  -0.76846161  1.0
  Se  Se6  1  0.14687022  0.48519522  -0.23153839  1.0
  Br  Br7  1  0.34763272  0.82698072  -0.87680310  1.0
  Br  Br8  1  0.65236728  0.17301928  -0.12319690  1.0
