# generated using pymatgen
data_SrMgPd
_symmetry_space_group_name_H-M   'P 1'
_cell_length_a   7.70460725
_cell_length_b   4.45591432
_cell_length_c   8.81762872
_cell_angle_alpha   90.00000000
_cell_angle_beta   90.00000000
_cell_angle_gamma   90.00000000
_symmetry_Int_Tables_number   1
_chemical_formula_structural   SrMgPd
_chemical_formula_sum   'Sr4 Mg4 Pd4'
_cell_volume   302.71862667
_cell_formula_units_Z   4
loop_
 _symmetry_equiv_pos_site_id
 _symmetry_equiv_pos_as_xyz
  1  'x, y, z'
loop_
 _atom_site_type_symbol
 _atom_site_label
 _atom_site_symmetry_multiplicity
 _atom_site_fract_x
 _atom_site_fract_y
 _atom_site_fract_z
 _atom_site_occupancy
  Sr  Sr0  1  0.97113016  0.75000000  0.67827893  1.0
  Sr  Sr1  1  0.47113016  0.75000000  0.82172107  1.0
  Sr  Sr2  1  0.02886984  0.25000000  0.32172107  1.0
  Sr  Sr3  1  0.52886984  0.25000000  0.17827893  1.0
  Mg  Mg4  1  0.86322654  0.75000000  0.06031087  1.0
  Mg  Mg5  1  0.36322654  0.75000000  0.43968913  1.0
  Mg  Mg6  1  0.13677346  0.25000000  0.93968913  1.0
  Mg  Mg7  1  0.63677346  0.25000000  0.56031087  1.0
  Pd  Pd8  1  0.72063514  0.75000000  0.38080349  1.0
  Pd  Pd9  1  0.22063514  0.75000000  0.11919651  1.0
  Pd  Pd10  1  0.27936486  0.25000000  0.61919651  1.0
  Pd  Pd11  1  0.77936486  0.25000000  0.88080349  1.0
