# generated using pymatgen
data_K3In4B12Se12I
_symmetry_space_group_name_H-M   'P 1'
_cell_length_a   13.85426420
_cell_length_b   13.85426420
_cell_length_c   9.58751959
_cell_angle_alpha   90.00000000
_cell_angle_beta   90.00000000
_cell_angle_gamma   120.00000000
_symmetry_Int_Tables_number   1
_chemical_formula_structural   K3In4B12Se12I
_chemical_formula_sum   'K6 In8 B24 Se24 I2'
_cell_volume   1593.68992349
_cell_formula_units_Z   2
loop_
 _symmetry_equiv_pos_site_id
 _symmetry_equiv_pos_as_xyz
  1  'x, y, z'
loop_
 _atom_site_type_symbol
 _atom_site_label
 _atom_site_symmetry_multiplicity
 _atom_site_fract_x
 _atom_site_fract_y
 _atom_site_fract_z
 _atom_site_occupancy
  K  K0  1  -0.00000000  0.78384553  0.00000000  1.0
  K  K1  1  0.21615447  0.21615447  0.00000000  1.0
  K  K2  1  0.78384553  0.00000000  0.00000000  1.0
  K  K3  1  -0.00000000  0.21615447  0.50000000  1.0
  K  K4  1  0.78384553  0.78384553  0.50000000  1.0
  K  K5  1  0.21615447  0.00000000  0.50000000  1.0
  In  In6  1  0.33333333  0.66666667  0.25000000  1.0
  In  In7  1  0.66666667  0.33333333  0.75000000  1.0
  In  In8  1  -0.00000000  0.46742806  0.00000000  1.0
  In  In9  1  0.53257194  0.53257194  0.00000000  1.0
  In  In10  1  0.46742806  0.00000000  0.00000000  1.0
  In  In11  1  0.00000000  0.53257194  0.50000000  1.0
  In  In12  1  0.46742806  0.46742806  0.50000000  1.0
  In  In13  1  0.53257194  0.00000000  0.50000000  1.0
  B  B14  1  0.21269132  0.54525979  0.78194951  1.0
  B  B15  1  0.45474021  0.66743153  0.78194951  1.0
  B  B16  1  0.33256847  0.78730868  0.78194951  1.0
  B  B17  1  0.54525979  0.21269132  0.21805049  1.0
  B  B18  1  0.66743153  0.45474021  0.21805049  1.0
  B  B19  1  0.78730868  0.33256847  0.21805049  1.0
  B  B20  1  0.78730868  0.45474021  0.28194951  1.0
  B  B21  1  0.54525979  0.33256847  0.28194951  1.0
  B  B22  1  0.66743153  0.21269132  0.28194951  1.0
  B  B23  1  0.45474021  0.78730868  0.71805049  1.0
  B  B24  1  0.33256847  0.54525979  0.71805049  1.0
  B  B25  1  0.21269132  0.66743153  0.71805049  1.0
  B  B26  1  0.25897479  0.66581589  0.88995068  1.0
  B  B27  1  0.33418411  0.59315890  0.88995068  1.0
  B  B28  1  0.40684110  0.74102521  0.88995068  1.0
  B  B29  1  0.66581589  0.25897479  0.11004932  1.0
  B  B30  1  0.59315890  0.33418411  0.11004932  1.0
  B  B31  1  0.74102521  0.40684110  0.11004932  1.0
  B  B32  1  0.74102521  0.33418411  0.38995068  1.0
  B  B33  1  0.66581589  0.40684110  0.38995068  1.0
  B  B34  1  0.59315890  0.25897479  0.38995068  1.0
  B  B35  1  0.33418411  0.74102521  0.61004932  1.0
  B  B36  1  0.40684110  0.66581589  0.61004932  1.0
  B  B37  1  0.25897479  0.59315890  0.61004932  1.0
  Se  Se38  1  0.17499169  0.66752289  0.06105060  1.0
  Se  Se39  1  0.33247711  0.50746880  0.06105060  1.0
  Se  Se40  1  0.49253120  0.82500831  0.06105060  1.0
  Se  Se41  1  0.66752289  0.17499169  0.93894940  1.0
  Se  Se42  1  0.50746880  0.33247711  0.93894940  1.0
  Se  Se43  1  0.82500831  0.49253120  0.93894940  1.0
  Se  Se44  1  0.82500831  0.33247711  0.56105060  1.0
  Se  Se45  1  0.66752289  0.49253120  0.56105060  1.0
  Se  Se46  1  0.50746880  0.17499169  0.56105060  1.0
  Se  Se47  1  0.33247711  0.82500831  0.43894940  1.0
  Se  Se48  1  0.49253120  0.66752289  0.43894940  1.0
  Se  Se49  1  0.17499169  0.50746880  0.43894940  1.0
  Se  Se50  1  0.07575730  0.39545223  0.80610801  1.0
  Se  Se51  1  0.60454777  0.68030508  0.80610801  1.0
  Se  Se52  1  0.31969492  0.92424270  0.80610801  1.0
  Se  Se53  1  0.39545223  0.07575730  0.19389199  1.0
  Se  Se54  1  0.68030508  0.60454777  0.19389199  1.0
  Se  Se55  1  0.92424270  0.31969492  0.19389199  1.0
  Se  Se56  1  0.92424270  0.60454777  0.30610801  1.0
  Se  Se57  1  0.39545223  0.31969492  0.30610801  1.0
  Se  Se58  1  0.68030508  0.07575730  0.30610801  1.0
  Se  Se59  1  0.60454777  0.92424270  0.69389199  1.0
  Se  Se60  1  0.31969492  0.39545223  0.69389199  1.0
  Se  Se61  1  0.07575730  0.68030508  0.69389199  1.0
  I  I62  1  0.00000000  0.00000000  0.75000000  1.0
  I  I63  1  0.00000000  0.00000000  0.25000000  1.0
