# generated using pymatgen
data_Zn2SO6
_symmetry_space_group_name_H-M   'P 1'
_cell_length_a   4.85416585
_cell_length_b   6.45811859
_cell_length_c   13.91356331
_cell_angle_alpha   90.00000000
_cell_angle_beta   90.00000000
_cell_angle_gamma   90.00000000
_symmetry_Int_Tables_number   1
_chemical_formula_structural   Zn2SO6
_chemical_formula_sum   'Zn8 S4 O24'
_cell_volume   436.17321696
_cell_formula_units_Z   4
loop_
 _symmetry_equiv_pos_site_id
 _symmetry_equiv_pos_as_xyz
  1  'x, y, z'
loop_
 _atom_site_type_symbol
 _atom_site_label
 _atom_site_symmetry_multiplicity
 _atom_site_fract_x
 _atom_site_fract_y
 _atom_site_fract_z
 _atom_site_occupancy
  O  O0  1  0.45347777  0.36734535  0.52188500  1.0
  O  O1  1  0.95347777  0.13265465  0.47811500  1.0
  O  O2  1  0.54652223  0.86734535  0.97811500  1.0
  O  O3  1  0.04652223  0.63265465  0.02188500  1.0
  O  O4  1  0.34578597  0.67950938  0.84391581  1.0
  O  O5  1  0.84578597  0.82049062  0.15608419  1.0
  O  O6  1  0.65421403  0.17950938  0.65608419  1.0
  O  O7  1  0.15421403  0.32049062  0.34391581  1.0
  O  O8  1  0.22291353  0.37007370  0.67736877  1.0
  O  O9  1  0.72291353  0.12992630  0.32263123  1.0
  O  O10  1  0.77708647  0.87007370  0.82263123  1.0
  O  O11  1  0.27708647  0.62992630  0.17736877  1.0
  O  O12  1  0.15380739  0.94005494  0.34407719  1.0
  O  O13  1  0.65380739  0.55994506  0.65592281  1.0
  O  O14  1  0.84619261  0.44005494  0.15592281  1.0
  O  O15  1  0.34619261  0.05994506  0.84407719  1.0
  O  O16  1  0.40583215  0.81588854  0.55073366  1.0
  O  O17  1  0.90583215  0.68411146  0.44926634  1.0
  O  O18  1  0.59416785  0.31588854  0.94926634  1.0
  O  O19  1  0.09416785  0.18411146  0.05073366  1.0
  O  O20  1  0.05291537  0.87080324  0.66429403  1.0
  O  O21  1  0.55291537  0.62919676  0.33570597  1.0
  O  O22  1  0.94708463  0.37080324  0.83570597  1.0
  O  O23  1  0.44708463  0.12919676  0.16429403  1.0
  Zn  Zn24  1  -0.00549400  0.62102010  0.74913793  1.0
  Zn  Zn25  1  0.49450600  0.87897990  0.25086207  1.0
  Zn  Zn26  1  1.00549400  0.12102010  0.75086207  1.0
  Zn  Zn27  1  0.50549400  0.37897990  0.24913793  1.0
  Zn  Zn28  1  0.79699834  0.89355175  0.55658766  1.0
  Zn  Zn29  1  0.29699834  0.60644825  0.44341234  1.0
  Zn  Zn30  1  0.20300166  0.39355175  0.94341234  1.0
  Zn  Zn31  1  0.70300166  0.10644825  0.05658766  1.0
  S  S32  1  0.50084823  0.86852415  0.87281856  1.0
  S  S33  1  1.00084823  0.63147585  0.12718144  1.0
  S  S34  1  0.49915177  0.36852415  0.62718144  1.0
  S  S35  1  -0.00084823  0.13147585  0.37281856  1.0
