# generated using pymatgen
data_LuAl3Ni2
_symmetry_space_group_name_H-M   'P 1'
_cell_length_a   8.93776435
_cell_length_b   8.93776435
_cell_length_c   4.06061176
_cell_angle_alpha   90.00000000
_cell_angle_beta   90.00000000
_cell_angle_gamma   120.00000000
_symmetry_Int_Tables_number   1
_chemical_formula_structural   LuAl3Ni2
_chemical_formula_sum   'Lu3 Al9 Ni6'
_cell_volume   280.91821482
_cell_formula_units_Z   3
loop_
 _symmetry_equiv_pos_site_id
 _symmetry_equiv_pos_as_xyz
  1  'x, y, z'
loop_
 _atom_site_type_symbol
 _atom_site_label
 _atom_site_symmetry_multiplicity
 _atom_site_fract_x
 _atom_site_fract_y
 _atom_site_fract_z
 _atom_site_occupancy
  Lu  Lu0  1  0.33333333  0.66666667  0.50000000  1.0
  Lu  Lu1  1  0.66666667  0.33333333  0.50000000  1.0
  Lu  Lu2  1  0.00000000  0.00000000  0.00000000  1.0
  Al  Al3  1  0.70196866  0.70196866  0.50000000  1.0
  Al  Al4  1  0.70196866  0.00000000  0.50000000  1.0
  Al  Al5  1  -0.00000000  0.70196866  0.50000000  1.0
  Al  Al6  1  -0.00000000  0.29803134  0.50000000  1.0
  Al  Al7  1  0.29803134  0.29803134  0.50000000  1.0
  Al  Al8  1  0.29803134  0.00000000  0.50000000  1.0
  Al  Al9  1  0.50000000  0.50000000  0.00000000  1.0
  Al  Al10  1  0.50000000  0.00000000  0.00000000  1.0
  Al  Al11  1  -0.00000000  0.50000000  0.00000000  1.0
  Ni  Ni12  1  0.18177906  0.81822094  0.00000000  1.0
  Ni  Ni13  1  0.18177906  0.36355813  0.00000000  1.0
  Ni  Ni14  1  0.81822094  0.18177906  0.00000000  1.0
  Ni  Ni15  1  0.81822094  0.63644187  0.00000000  1.0
  Ni  Ni16  1  0.63644187  0.81822094  0.00000000  1.0
  Ni  Ni17  1  0.36355813  0.18177906  0.00000000  1.0
