# generated using pymatgen
data_BaLuFeCuO5
_symmetry_space_group_name_H-M   'P 1'
_cell_length_a   3.87490238
_cell_length_b   3.87490238
_cell_length_c   7.83138704
_cell_angle_alpha   90.00000000
_cell_angle_beta   90.00000000
_cell_angle_gamma   90.00000000
_symmetry_Int_Tables_number   1
_chemical_formula_structural   BaLuFeCuO5
_chemical_formula_sum   'Ba1 Lu1 Fe1 Cu1 O5'
_cell_volume   117.58724618
_cell_formula_units_Z   1
loop_
 _symmetry_equiv_pos_site_id
 _symmetry_equiv_pos_as_xyz
  1  'x, y, z'
loop_
 _atom_site_type_symbol
 _atom_site_label
 _atom_site_symmetry_multiplicity
 _atom_site_fract_x
 _atom_site_fract_y
 _atom_site_fract_z
 _atom_site_occupancy
  Fe  Fe0  1  0.00000000  0.00000000  0.45681560  1.0
  Lu  Lu1  1  0.50000000  0.50000000  0.22100422  1.0
  O  O2  1  0.50000000  0.00000000  0.03997255  1.0
  O  O3  1  0.00000000  0.50000000  0.03997255  1.0
  O  O4  1  0.00000000  0.00000000  0.69368198  1.0
  O  O5  1  0.50000000  0.00000000  0.39581929  1.0
  O  O6  1  0.00000000  0.50000000  0.39581929  1.0
  Ba  Ba7  1  0.50000000  0.50000000  0.75482384  1.0
  Cu  Cu8  1  0.00000000  0.00000000  0.02209068  1.0
