# generated using pymatgen
data_Rb
_symmetry_space_group_name_H-M   'P 1'
_cell_length_a   8.76981585
_cell_length_b   8.76981585
_cell_length_c   10.06111432
_cell_angle_alpha   90.00000000
_cell_angle_beta   90.00000000
_cell_angle_gamma   70.15772916
_symmetry_Int_Tables_number   1
_chemical_formula_structural   Rb
_chemical_formula_sum   Rb8
_cell_volume   727.85712317
_cell_formula_units_Z   8
loop_
 _symmetry_equiv_pos_site_id
 _symmetry_equiv_pos_as_xyz
  1  'x, y, z'
loop_
 _atom_site_type_symbol
 _atom_site_label
 _atom_site_symmetry_multiplicity
 _atom_site_fract_x
 _atom_site_fract_y
 _atom_site_fract_z
 _atom_site_occupancy
  Rb  Rb0  1  -0.25033140  1.25033140  0.25175752  1.0
  Rb  Rb1  1  0.24966860  0.75033140  0.24824248  1.0
  Rb  Rb2  1  0.25033140  0.74966860  0.74824248  1.0
  Rb  Rb3  1  -0.24966860  1.24966860  0.75175752  1.0
  Rb  Rb4  1  0.24998850  1.24998850  0.50000000  1.0
  Rb  Rb5  1  -0.25001150  0.74998850  0.00000000  1.0
  Rb  Rb6  1  -0.24998850  0.75001150  0.50000000  1.0
  Rb  Rb7  1  0.25001150  1.25001150  0.00000000  1.0
