# generated using pymatgen
data_Li(Fe3Ge2)2
_symmetry_space_group_name_H-M   'P 1'
_cell_length_a   7.11880606
_cell_length_b   7.11880606
_cell_length_c   7.11880606
_cell_angle_alpha   41.39753851
_cell_angle_beta   41.39753851
_cell_angle_gamma   41.39753851
_symmetry_Int_Tables_number   1
_chemical_formula_structural   Li(Fe3Ge2)2
_chemical_formula_sum   'Li1 Fe6 Ge4'
_cell_volume   142.53232094
_cell_formula_units_Z   1
loop_
 _symmetry_equiv_pos_site_id
 _symmetry_equiv_pos_as_xyz
  1  'x, y, z'
loop_
 _atom_site_type_symbol
 _atom_site_label
 _atom_site_symmetry_multiplicity
 _atom_site_fract_x
 _atom_site_fract_y
 _atom_site_fract_z
 _atom_site_occupancy
  Li  Li0  1  0.00000000  0.00000000  0.00000000  1.0
  Fe  Fe1  1  1.39956089  0.39956089  0.88622441  1.0
  Fe  Fe2  1  1.39956089  0.88622441  0.39956089  1.0
  Fe  Fe3  1  1.11377559  0.60043911  0.60043911  1.0
  Fe  Fe4  1  1.60043911  0.11377559  0.60043911  1.0
  Fe  Fe5  1  1.60043911  0.60043911  0.11377559  1.0
  Fe  Fe6  1  0.88622441  1.39956089  0.39956089  1.0
  Ge  Ge7  1  0.87330005  0.87330005  0.87330005  1.0
  Ge  Ge8  1  1.12669995  1.12669995  0.12669995  1.0
  Ge  Ge9  1  0.66812262  0.66812262  0.66812262  1.0
  Ge  Ge10  1  1.33187738  1.33187738  0.33187738  1.0
