# generated using pymatgen
data_BaLu2CuO5
_symmetry_space_group_name_H-M   'P 1'
_cell_length_a   12.10819307
_cell_length_b   5.64534110
_cell_length_c   7.14396797
_cell_angle_alpha   90.00000000
_cell_angle_beta   90.00000000
_cell_angle_gamma   90.00000000
_symmetry_Int_Tables_number   1
_chemical_formula_structural   BaLu2CuO5
_chemical_formula_sum   'Ba4 Lu8 Cu4 O20'
_cell_volume   488.32507281
_cell_formula_units_Z   4
loop_
 _symmetry_equiv_pos_site_id
 _symmetry_equiv_pos_as_xyz
  1  'x, y, z'
loop_
 _atom_site_type_symbol
 _atom_site_label
 _atom_site_symmetry_multiplicity
 _atom_site_fract_x
 _atom_site_fract_y
 _atom_site_fract_z
 _atom_site_occupancy
  Ba  Ba0  1  0.09628224  0.75000000  0.56981093  1.0
  Ba  Ba1  1  0.59628224  0.75000000  0.93018907  1.0
  Ba  Ba2  1  0.90371776  0.25000000  0.43018907  1.0
  Ba  Ba3  1  0.40371776  0.25000000  0.06981093  1.0
  Lu  Lu4  1  0.21283081  0.75000000  0.11408054  1.0
  Lu  Lu5  1  0.71283081  0.75000000  0.38591946  1.0
  Lu  Lu6  1  0.78716919  0.25000000  0.88591946  1.0
  Lu  Lu7  1  0.28716919  0.25000000  0.61408054  1.0
  Lu  Lu8  1  0.92607894  0.75000000  0.10252194  1.0
  Lu  Lu9  1  0.42607894  0.75000000  0.39747806  1.0
  Lu  Lu10  1  0.07392106  0.25000000  0.89747806  1.0
  Lu  Lu11  1  0.57392106  0.25000000  0.60252194  1.0
  Cu  Cu12  1  0.33959030  0.75000000  0.78257708  1.0
  Cu  Cu13  1  0.83959030  0.75000000  0.71742292  1.0
  Cu  Cu14  1  0.66040970  0.25000000  0.21742292  1.0
  Cu  Cu15  1  0.16040970  0.25000000  0.28257708  1.0
  O  O16  1  0.43194943  0.99649751  0.65944802  1.0
  O  O17  1  0.43194943  0.50350249  0.65944802  1.0
  O  O18  1  0.93194943  0.99649751  0.84055198  1.0
  O  O19  1  0.93194943  0.50350249  0.84055198  1.0
  O  O20  1  0.56805057  0.49649751  0.34055198  1.0
  O  O21  1  0.56805057  0.00350249  0.34055198  1.0
  O  O22  1  0.06805057  0.49649751  0.15944802  1.0
  O  O23  1  0.06805057  0.00350249  0.15944802  1.0
  O  O24  1  0.22816633  0.99814579  0.85866889  1.0
  O  O25  1  0.22816633  0.50185421  0.85866889  1.0
  O  O26  1  0.72816633  0.99814579  0.64133111  1.0
  O  O27  1  0.72816633  0.50185421  0.64133111  1.0
  O  O28  1  0.77183367  0.49814579  0.14133111  1.0
  O  O29  1  0.77183367  0.00185421  0.14133111  1.0
  O  O30  1  0.27183367  0.49814579  0.35866889  1.0
  O  O31  1  0.27183367  0.00185421  0.35866889  1.0
  O  O32  1  0.39951662  0.75000000  0.08753992  1.0
  O  O33  1  0.89951662  0.75000000  0.41246008  1.0
  O  O34  1  0.60048338  0.25000000  0.91246008  1.0
  O  O35  1  0.10048338  0.25000000  0.58753992  1.0
