# generated using pymatgen
data_AlMoP2O9
_symmetry_space_group_name_H-M   'P 1'
_cell_length_a   8.94903352
_cell_length_b   8.94903352
_cell_length_c   8.99530701
_cell_angle_alpha   90.00000000
_cell_angle_beta   90.00000000
_cell_angle_gamma   90.00000000
_symmetry_Int_Tables_number   1
_chemical_formula_structural   AlMoP2O9
_chemical_formula_sum   'Al4 Mo4 P8 O36'
_cell_volume   720.39096984
_cell_formula_units_Z   4
loop_
 _symmetry_equiv_pos_site_id
 _symmetry_equiv_pos_as_xyz
  1  'x, y, z'
loop_
 _atom_site_type_symbol
 _atom_site_label
 _atom_site_symmetry_multiplicity
 _atom_site_fract_x
 _atom_site_fract_y
 _atom_site_fract_z
 _atom_site_occupancy
  Al  Al0  1  0.00000000  0.00000000  0.50000000  1.0
  Al  Al1  1  0.00000000  0.00000000  0.00000000  1.0
  Al  Al2  1  0.50000000  0.50000000  0.00000000  1.0
  Al  Al3  1  0.50000000  0.50000000  0.50000000  1.0
  Mo  Mo4  1  0.00000000  0.50000000  0.31605295  1.0
  Mo  Mo5  1  0.00000000  0.50000000  0.81605295  1.0
  Mo  Mo6  1  0.50000000  0.00000000  0.68394705  1.0
  Mo  Mo7  1  0.50000000  0.00000000  0.18394705  1.0
  P  P8  1  0.18207178  0.81792822  0.25000000  1.0
  P  P9  1  0.81792822  0.81792822  0.75000000  1.0
  P  P10  1  0.18207178  0.18207178  0.75000000  1.0
  P  P11  1  0.81792822  0.18207178  0.25000000  1.0
  P  P12  1  0.31792822  0.68207178  0.75000000  1.0
  P  P13  1  0.68207178  0.68207178  0.25000000  1.0
  P  P14  1  0.31792822  0.31792822  0.25000000  1.0
  P  P15  1  0.68207178  0.31792822  0.75000000  1.0
  O  O16  1  0.16062564  0.64574381  0.26324612  1.0
  O  O17  1  0.83937436  0.64574381  0.76324612  1.0
  O  O18  1  0.16062564  0.35425619  0.76324612  1.0
  O  O19  1  0.83937436  0.35425619  0.26324612  1.0
  O  O20  1  0.14574381  0.66062564  0.76324612  1.0
  O  O21  1  0.85425619  0.66062564  0.26324612  1.0
  O  O22  1  0.14574381  0.33937436  0.26324612  1.0
  O  O23  1  0.85425619  0.33937436  0.76324612  1.0
  O  O24  1  0.33937436  0.85425619  0.73675388  1.0
  O  O25  1  0.66062564  0.85425619  0.23675388  1.0
  O  O26  1  0.33937436  0.14574381  0.23675388  1.0
  O  O27  1  0.66062564  0.14574381  0.73675388  1.0
  O  O28  1  0.35425619  0.83937436  0.23675388  1.0
  O  O29  1  0.64574381  0.83937436  0.73675388  1.0
  O  O30  1  0.35425619  0.16062564  0.73675388  1.0
  O  O31  1  0.64574381  0.16062564  0.23675388  1.0
  O  O32  1  0.00000000  0.50000000  0.50240804  1.0
  O  O33  1  0.00000000  0.50000000  0.00240804  1.0
  O  O34  1  0.50000000  0.00000000  0.49759196  1.0
  O  O35  1  0.50000000  0.00000000  0.99759196  1.0
  O  O36  1  0.12374104  0.89590234  0.39079905  1.0
  O  O37  1  0.87625896  0.89590234  0.89079905  1.0
  O  O38  1  0.12374104  0.10409766  0.89079905  1.0
  O  O39  1  0.87625896  0.10409766  0.39079905  1.0
  O  O40  1  0.39590234  0.62374104  0.89079905  1.0
  O  O41  1  0.60409766  0.62374104  0.39079905  1.0
  O  O42  1  0.39590234  0.37625896  0.39079905  1.0
  O  O43  1  0.60409766  0.37625896  0.89079905  1.0
  O  O44  1  0.37625896  0.60409766  0.60920095  1.0
  O  O45  1  0.62374104  0.60409766  0.10920095  1.0
  O  O46  1  0.37625896  0.39590234  0.10920095  1.0
  O  O47  1  0.62374104  0.39590234  0.60920095  1.0
  O  O48  1  0.10409766  0.87625896  0.10920095  1.0
  O  O49  1  0.89590234  0.87625896  0.60920095  1.0
  O  O50  1  0.10409766  0.12374104  0.60920095  1.0
  O  O51  1  0.89590234  0.12374104  0.10920095  1.0
