# generated using pymatgen
data_Ba2Mn(PO4)2
_symmetry_space_group_name_H-M   'P 1'
_cell_length_a   5.39414946
_cell_length_b   9.10485357
_cell_length_c   17.19498499
_cell_angle_alpha   90.00000000
_cell_angle_beta   107.91253628
_cell_angle_gamma   90.00000000
_symmetry_Int_Tables_number   1
_chemical_formula_structural   Ba2Mn(PO4)2
_chemical_formula_sum   'Ba8 Mn4 P8 O32'
_cell_volume   803.56112547
_cell_formula_units_Z   4
loop_
 _symmetry_equiv_pos_site_id
 _symmetry_equiv_pos_as_xyz
  1  'x, y, z'
loop_
 _atom_site_type_symbol
 _atom_site_label
 _atom_site_symmetry_multiplicity
 _atom_site_fract_x
 _atom_site_fract_y
 _atom_site_fract_z
 _atom_site_occupancy
  Ba  Ba0  1  0.68512404  0.79716532  0.47992678  1.0
  Ba  Ba1  1  0.68512404  0.70283468  0.97992678  1.0
  Ba  Ba2  1  0.31487596  0.29716532  0.02007322  1.0
  Ba  Ba3  1  0.31487596  0.20283468  0.52007322  1.0
  Ba  Ba4  1  0.52820760  0.15659760  0.27032021  1.0
  Ba  Ba5  1  0.52820760  0.34340240  0.77032021  1.0
  Ba  Ba6  1  0.47179240  0.65659760  0.22967979  1.0
  Ba  Ba7  1  0.47179240  0.84340240  0.72967979  1.0
  Mn  Mn8  1  0.90111442  0.02188922  0.13589650  1.0
  Mn  Mn9  1  0.90111442  0.47811078  0.63589650  1.0
  Mn  Mn10  1  0.09888558  0.52188922  0.36410350  1.0
  Mn  Mn11  1  0.09888558  0.97811078  0.86410350  1.0
  P  P12  1  0.92075293  0.39667902  0.16329493  1.0
  P  P13  1  0.92075293  0.10332098  0.66329493  1.0
  P  P14  1  0.07924707  0.89667902  0.33670507  1.0
  P  P15  1  0.07924707  0.60332098  0.83670507  1.0
  P  P16  1  0.68194205  0.40316324  0.42217094  1.0
  P  P17  1  0.68194205  0.09683676  0.92217094  1.0
  P  P18  1  0.31805795  0.90316324  0.07782906  1.0
  P  P19  1  0.31805795  0.59683676  0.57782906  1.0
  O  O20  1  0.90051793  0.49018221  0.23788625  1.0
  O  O21  1  0.90051793  0.00981779  0.73788625  1.0
  O  O22  1  0.09948207  0.99018221  0.26211375  1.0
  O  O23  1  0.09948207  0.50981779  0.76211375  1.0
  O  O24  1  0.87330537  0.29524332  0.39960947  1.0
  O  O25  1  0.87330537  0.20475668  0.89960947  1.0
  O  O26  1  0.12669463  0.79524332  0.10039053  1.0
  O  O27  1  0.12669463  0.70475668  0.60039053  1.0
  O  O28  1  0.80825402  0.23929817  0.16999791  1.0
  O  O29  1  0.80825402  0.26070183  0.66999791  1.0
  O  O30  1  0.19174598  0.73929817  0.33000209  1.0
  O  O31  1  0.19174598  0.76070183  0.83000209  1.0
  O  O32  1  0.78766314  0.88747779  0.33459136  1.0
  O  O33  1  0.78766314  0.61252221  0.83459136  1.0
  O  O34  1  0.21233686  0.38747779  0.16540864  1.0
  O  O35  1  0.21233686  0.11252221  0.66540864  1.0
  O  O36  1  0.72807963  0.94136004  0.88955890  1.0
  O  O37  1  0.72807963  0.55863996  0.38955890  1.0
  O  O38  1  0.27192037  0.44136004  0.61044110  1.0
  O  O39  1  0.27192037  0.05863996  0.11044110  1.0
  O  O40  1  0.74941996  0.46919498  0.08245642  1.0
  O  O41  1  0.74941996  0.03080502  0.58245642  1.0
  O  O42  1  0.25058004  0.96919498  0.41754358  1.0
  O  O43  1  0.25058004  0.53080502  0.91754358  1.0
  O  O44  1  0.72158649  0.09930419  0.01492580  1.0
  O  O45  1  0.72158649  0.40069581  0.51492580  1.0
  O  O46  1  0.27841351  0.59930419  0.48507420  1.0
  O  O47  1  0.27841351  0.90069581  0.98507420  1.0
  O  O48  1  0.39456726  0.35454888  0.37570339  1.0
  O  O49  1  0.39456726  0.14545112  0.87570339  1.0
  O  O50  1  0.60543274  0.85454888  0.12429661  1.0
  O  O51  1  0.60543274  0.64545112  0.62429661  1.0
