# generated using pymatgen
data_Al12Co4Cu
_symmetry_space_group_name_H-M   'P 1'
_cell_length_a   8.61237491
_cell_length_b   8.61237491
_cell_length_c   12.37961715
_cell_angle_alpha   73.94510947
_cell_angle_beta   106.05489053
_cell_angle_gamma   124.40318517
_symmetry_Int_Tables_number   1
_chemical_formula_structural   Al12Co4Cu
_chemical_formula_sum   'Al36 Co12 Cu3'
_cell_volume   719.64016653
_cell_formula_units_Z   3
loop_
 _symmetry_equiv_pos_site_id
 _symmetry_equiv_pos_as_xyz
  1  'x, y, z'
loop_
 _atom_site_type_symbol
 _atom_site_label
 _atom_site_symmetry_multiplicity
 _atom_site_fract_x
 _atom_site_fract_y
 _atom_site_fract_z
 _atom_site_occupancy
  Al  Al0  1  0.79315113  0.63521014  0.91664946  1.0
  Al  Al1  1  0.36478986  0.20684887  0.91664946  1.0
  Al  Al2  1  0.80149826  0.63074302  0.69431260  1.0
  Al  Al3  1  0.36925698  0.19850174  0.69431260  1.0
  Al  Al4  1  0.91293300  0.64212015  0.14194599  1.0
  Al  Al5  1  0.35787985  0.08706700  0.14194599  1.0
  Al  Al6  1  0.92513634  0.65707613  0.51018990  1.0
  Al  Al7  1  0.34292387  0.07486366  0.51018990  1.0
  Al  Al8  1  1.02267250  0.51128715  0.35777518  1.0
  Al  Al9  1  0.48871285  -0.02267250  0.35777518  1.0
  Al  Al10  1  1.01532123  0.48652577  0.03110037  1.0
  Al  Al11  1  0.51347423  -0.01532123  0.03110037  1.0
  Al  Al12  1  1.04020571  0.49397609  0.70430600  1.0
  Al  Al13  1  0.50602391  -0.04020571  0.70430600  1.0
  Al  Al14  1  1.17080874  0.38411890  0.92018111  1.0
  Al  Al15  1  0.61588110  -0.17080874  0.92018111  1.0
  Al  Al16  1  1.18597559  0.39650358  0.55196717  1.0
  Al  Al17  1  0.60349642  -0.18597559  0.55196717  1.0
  Al  Al18  1  1.15956199  0.27273473  0.36782779  1.0
  Al  Al19  1  0.72726527  -0.15956199  0.36782779  1.0
  Al  Al20  1  1.16393721  0.26423041  0.14548897  1.0
  Al  Al21  1  0.73576959  -0.16393721  0.14548897  1.0
  Al  Al22  1  0.00302519  -0.00302519  -0.00747661  1.0
  Al  Al23  1  0.00019510  -0.00019510  0.56423025  1.0
  Al  Al24  1  0.06382984  -0.06382984  0.80017450  1.0
  Al  Al25  1  0.09639479  -0.09639479  0.31169881  1.0
  Al  Al26  1  0.24364021  -0.24364021  0.86260248  1.0
  Al  Al27  1  0.28514362  -0.28514362  0.19952035  1.0
  Al  Al28  1  0.43252482  -0.43252482  0.75064157  1.0
  Al  Al29  1  0.46495174  -0.46495174  0.26189388  1.0
  Al  Al30  1  0.52571196  0.47428804  0.06949605  1.0
  Al  Al31  1  0.52859682  0.47140318  0.49779794  1.0
  Al  Al32  1  0.68887930  0.31112070  0.44327330  1.0
  Al  Al33  1  0.70775984  0.29224016  0.85559360  1.0
  Al  Al34  1  0.82103107  0.17896893  0.20655545  1.0
  Al  Al35  1  0.83993293  0.16006707  0.61883114  1.0
  Co  Co36  1  0.80188926  0.63696738  0.31164010  1.0
  Co  Co37  1  0.36303262  0.19811074  0.31164010  1.0
  Co  Co38  1  1.16577105  0.27311337  0.75048921  1.0
  Co  Co39  1  0.72688663  -0.16577105  0.75048921  1.0
  Co  Co40  1  0.16119055  -0.16119055  0.66154182  1.0
  Co  Co41  1  0.16354222  -0.16354222  0.01377347  1.0
  Co  Co42  1  0.36521427  -0.36521427  0.04834157  1.0
  Co  Co43  1  0.36758484  -0.36758484  0.40055693  1.0
  Co  Co44  1  0.67218232  0.32781768  0.03505427  1.0
  Co  Co45  1  0.67756578  0.32243422  0.64089993  1.0
  Co  Co46  1  0.85121516  0.14878484  0.42121325  1.0
  Co  Co47  1  0.85659528  0.14340472  0.02705454  1.0
  Cu  Cu48  1  0.26431437  -0.26431437  0.53094054  1.0
  Cu  Cu49  1  0.67444434  0.32555566  0.24364910  1.0
  Cu  Cu50  1  0.85427844  0.14572156  0.81839418  1.0
