# generated using pymatgen
data_K(WCl3)3
_symmetry_space_group_name_H-M   'P 1'
_cell_length_a   9.58872415
_cell_length_b   9.58872415
_cell_length_c   8.54855039
_cell_angle_alpha   90.00000000
_cell_angle_beta   90.00000000
_cell_angle_gamma   120.00000000
_symmetry_Int_Tables_number   1
_chemical_formula_structural   K(WCl3)3
_chemical_formula_sum   'K2 W6 Cl18'
_cell_volume   680.68277039
_cell_formula_units_Z   2
loop_
 _symmetry_equiv_pos_site_id
 _symmetry_equiv_pos_as_xyz
  1  'x, y, z'
loop_
 _atom_site_type_symbol
 _atom_site_label
 _atom_site_symmetry_multiplicity
 _atom_site_fract_x
 _atom_site_fract_y
 _atom_site_fract_z
 _atom_site_occupancy
  K  K0  1  0.33333333  0.66666667  0.50000000  1.0
  K  K1  1  0.66666667  0.33333333  0.50000000  1.0
  W  W2  1  0.82020488  0.82020488  0.12260749  1.0
  W  W3  1  0.82020488  0.00000000  0.87739251  1.0
  W  W4  1  -0.00000000  0.82020488  0.87739251  1.0
  W  W5  1  0.00000000  0.17979512  0.12260749  1.0
  W  W6  1  0.17979512  0.17979512  0.87739251  1.0
  W  W7  1  0.17979512  -0.00000000  0.12260749  1.0
  Cl  Cl8  1  0.80175631  0.80175631  0.68721831  1.0
  Cl  Cl9  1  0.80175631  0.00000000  0.31278169  1.0
  Cl  Cl10  1  0.00000000  0.80175631  0.31278169  1.0
  Cl  Cl11  1  -0.00000000  0.19824369  0.68721831  1.0
  Cl  Cl12  1  0.19824369  0.19824369  0.31278169  1.0
  Cl  Cl13  1  0.19824369  -0.00000000  0.68721831  1.0
  Cl  Cl14  1  0.61139673  0.61139673  0.30130593  1.0
  Cl  Cl15  1  0.61139673  0.00000000  0.69869407  1.0
  Cl  Cl16  1  -0.00000000  0.61139673  0.69869407  1.0
  Cl  Cl17  1  0.00000000  0.38860327  0.30130593  1.0
  Cl  Cl18  1  0.38860327  0.38860327  0.69869407  1.0
  Cl  Cl19  1  0.38860327  -0.00000000  0.30130593  1.0
  Cl  Cl20  1  0.58163306  0.79081653  0.00000000  1.0
  Cl  Cl21  1  0.79081653  0.58163306  0.00000000  1.0
  Cl  Cl22  1  0.79081653  0.20918347  -0.00000000  1.0
  Cl  Cl23  1  0.20918347  0.79081653  -0.00000000  1.0
  Cl  Cl24  1  0.20918347  0.41836694  -0.00000000  1.0
  Cl  Cl25  1  0.41836694  0.20918347  -0.00000000  1.0
