# generated using pymatgen
data_KTe2F9
_symmetry_space_group_name_H-M   'P 1'
_cell_length_a   5.24951045
_cell_length_b   9.55842738
_cell_length_c   9.60780439
_cell_angle_alpha   110.98732073
_cell_angle_beta   95.01462845
_cell_angle_gamma   97.58767447
_symmetry_Int_Tables_number   1
_chemical_formula_structural   KTe2F9
_chemical_formula_sum   'K2 Te4 F18'
_cell_volume   441.41697502
_cell_formula_units_Z   2
loop_
 _symmetry_equiv_pos_site_id
 _symmetry_equiv_pos_as_xyz
  1  'x, y, z'
loop_
 _atom_site_type_symbol
 _atom_site_label
 _atom_site_symmetry_multiplicity
 _atom_site_fract_x
 _atom_site_fract_y
 _atom_site_fract_z
 _atom_site_occupancy
  K  K0  1  -0.88193496  -0.95239987  -0.74810798  1.0
  K  K1  1  -0.11806504  -0.04760013  -0.25189202  1.0
  Te  Te2  1  -0.85844087  -0.32834312  -0.60072159  1.0
  Te  Te3  1  -0.14155913  -0.67165688  -0.39927841  1.0
  Te  Te4  1  -0.39785726  -0.68922910  -0.96598711  1.0
  Te  Te5  1  -0.60214274  -0.31077090  -0.03401289  1.0
  F  F6  1  -0.95592655  -0.65498725  -0.57045266  1.0
  F  F7  1  -0.04407345  -0.34501275  -0.42954734  1.0
  F  F8  1  -0.92100821  -0.82532888  -0.41490162  1.0
  F  F9  1  -0.07899179  -0.17467112  -0.58509838  1.0
  F  F10  1  -0.80884629  -0.52970834  -0.25008115  1.0
  F  F11  1  -0.19115371  -0.47029166  -0.74991885  1.0
  F  F12  1  -0.74546744  -0.25229552  -0.76753244  1.0
  F  F13  1  -0.25453256  -0.74770448  -0.23246756  1.0
  F  F14  1  -0.70558563  -0.57555224  -0.94849245  1.0
  F  F15  1  -0.29441437  -0.42444776  -0.05150755  1.0
  F  F16  1  -0.64542146  -0.86739773  -0.10779898  1.0
  F  F17  1  -0.35457854  -0.13260227  -0.89220102  1.0
  F  F18  1  -0.52858267  -0.73672143  -0.79984964  1.0
  F  F19  1  -0.47141733  -0.26327857  -0.20015036  1.0
  F  F20  1  -0.38973846  -0.84729228  -0.55362657  1.0
  F  F21  1  -0.61026154  -0.15270772  -0.44637343  1.0
  F  F22  1  -0.16455345  -0.84373665  -0.96317967  1.0
  F  F23  1  -0.83544655  -0.15626335  -0.03682033  1.0
