# generated using pymatgen
data_InRhO3
_symmetry_space_group_name_H-M   'P 1'
_cell_length_a   7.69802505
_cell_length_b   7.68476916
_cell_length_c   10.76124135
_cell_angle_alpha   90.00000000
_cell_angle_beta   134.34737844
_cell_angle_gamma   90.00000000
_symmetry_Int_Tables_number   1
_chemical_formula_structural   InRhO3
_chemical_formula_sum   'In8 Rh8 O24'
_cell_volume   455.24835286
_cell_formula_units_Z   8
loop_
 _symmetry_equiv_pos_site_id
 _symmetry_equiv_pos_as_xyz
  1  'x, y, z'
loop_
 _atom_site_type_symbol
 _atom_site_label
 _atom_site_symmetry_multiplicity
 _atom_site_fract_x
 _atom_site_fract_y
 _atom_site_fract_z
 _atom_site_occupancy
  In  In0  1  0.95524166  0.76512664  0.23128068  1.0
  In  In1  1  0.95524166  0.73487336  0.73128068  1.0
  In  In2  1  0.04475834  0.26512664  0.26871932  1.0
  In  In3  1  0.04475834  0.23487336  0.76871932  1.0
  In  In4  1  0.54773846  0.24525306  0.77785472  1.0
  In  In5  1  0.54773846  0.25474694  0.27785472  1.0
  In  In6  1  0.45226154  0.74525306  0.72214528  1.0
  In  In7  1  0.45226154  0.75474694  0.22214528  1.0
  Rh  Rh8  1  0.50000000  0.00000000  -0.00000000  1.0
  Rh  Rh9  1  0.50000000  0.50000000  0.50000000  1.0
  Rh  Rh10  1  0.00000000  0.00000000  0.50000000  1.0
  Rh  Rh11  1  0.00000000  0.50000000  0.00000000  1.0
  Rh  Rh12  1  0.50000000  0.00000000  0.50000000  1.0
  Rh  Rh13  1  0.50000000  0.50000000  -0.00000000  1.0
  Rh  Rh14  1  0.00000000  0.00000000  0.00000000  1.0
  Rh  Rh15  1  0.00000000  0.50000000  0.50000000  1.0
  O  O16  1  0.92895494  0.24752995  0.40141893  1.0
  O  O17  1  0.92895494  0.25247005  0.90141893  1.0
  O  O18  1  0.07104506  0.74752995  0.09858107  1.0
  O  O19  1  0.07104506  0.75247005  0.59858107  1.0
  O  O20  1  0.85303373  0.03819200  0.10162640  1.0
  O  O21  1  0.85303373  0.46180800  0.60162640  1.0
  O  O22  1  0.14696627  0.53819200  0.39837360  1.0
  O  O23  1  0.14696627  0.96180800  0.89837360  1.0
  O  O24  1  0.77598567  0.40490372  0.02749985  1.0
  O  O25  1  0.77598567  0.09509628  0.52749985  1.0
  O  O26  1  0.22401433  0.90490372  0.47250015  1.0
  O  O27  1  0.22401433  0.59509628  0.97250015  1.0
  O  O28  1  0.71746241  0.59579413  0.75259370  1.0
  O  O29  1  0.71746241  0.90420587  0.25259370  1.0
  O  O30  1  0.28253759  0.09579413  0.74740630  1.0
  O  O31  1  0.28253759  0.40420587  0.24740630  1.0
  O  O32  1  0.65656909  0.52754965  0.25600579  1.0
  O  O33  1  0.65656909  0.97245035  0.75600579  1.0
  O  O34  1  0.34343091  0.02754965  0.24399421  1.0
  O  O35  1  0.34343091  0.47245035  0.74399421  1.0
  O  O36  1  0.42411742  0.24897244  0.52459205  1.0
  O  O37  1  0.42411742  0.25102756  0.02459205  1.0
  O  O38  1  0.57588258  0.74897244  0.97540795  1.0
  O  O39  1  0.57588258  0.75102756  0.47540795  1.0
