# generated using pymatgen
data_LiLa(MoO4)2
_symmetry_space_group_name_H-M   'P 1'
_cell_length_a   5.04631907
_cell_length_b   6.24376201
_cell_length_c   11.19547144
_cell_angle_alpha   90.00000000
_cell_angle_beta   112.48243950
_cell_angle_gamma   90.00000000
_symmetry_Int_Tables_number   1
_chemical_formula_structural   LiLa(MoO4)2
_chemical_formula_sum   'Li2 La2 Mo4 O16'
_cell_volume   325.93717012
_cell_formula_units_Z   2
loop_
 _symmetry_equiv_pos_site_id
 _symmetry_equiv_pos_as_xyz
  1  'x, y, z'
loop_
 _atom_site_type_symbol
 _atom_site_label
 _atom_site_symmetry_multiplicity
 _atom_site_fract_x
 _atom_site_fract_y
 _atom_site_fract_z
 _atom_site_occupancy
  Li  Li0  1  0.00000000  0.79693032  0.25000000  1.0
  Li  Li1  1  0.00000000  0.20306968  0.75000000  1.0
  La  La2  1  0.50000000  0.29961702  0.25000000  1.0
  La  La3  1  0.50000000  0.70038298  0.75000000  1.0
  Mo  Mo4  1  0.73412224  0.82376199  0.46932280  1.0
  Mo  Mo5  1  0.73412224  0.17623801  0.96932280  1.0
  Mo  Mo6  1  0.26587776  0.82376199  0.03067720  1.0
  Mo  Mo7  1  0.26587776  0.17623801  0.53067720  1.0
  O  O8  1  0.86526793  0.89820574  0.90710019  1.0
  O  O9  1  0.86526793  0.10179426  0.40710019  1.0
  O  O10  1  0.13473207  0.89820574  0.59289981  1.0
  O  O11  1  0.13473207  0.10179426  0.09289981  1.0
  O  O12  1  0.79067636  0.64682057  0.35782334  1.0
  O  O13  1  0.79067636  0.35317943  0.85782334  1.0
  O  O14  1  0.20932364  0.64682057  0.14217666  1.0
  O  O15  1  0.20932364  0.35317943  0.64217666  1.0
  O  O16  1  0.70652164  0.34994992  0.09025496  1.0
  O  O17  1  0.70652164  0.65005008  0.59025496  1.0
  O  O18  1  0.29347836  0.34994992  0.40974504  1.0
  O  O19  1  0.29347836  0.65005008  0.90974504  1.0
  O  O20  1  0.62882151  0.91919070  0.11833891  1.0
  O  O21  1  0.62882151  0.08080930  0.61833891  1.0
  O  O22  1  0.37117849  0.91919070  0.38166109  1.0
  O  O23  1  0.37117849  0.08080930  0.88166109  1.0
