# generated using pymatgen
data_Ba(BrO3)2
_symmetry_space_group_name_H-M   'P 1'
_cell_length_a   7.96871969
_cell_length_b   7.44285321
_cell_length_c   9.28526668
_cell_angle_alpha   55.58830469
_cell_angle_beta   50.40379185
_cell_angle_gamma   74.00790346
_symmetry_Int_Tables_number   1
_chemical_formula_structural   Ba(BrO3)2
_chemical_formula_sum   'Ba2 Br4 O12'
_cell_volume   346.96847966
_cell_formula_units_Z   2
loop_
 _symmetry_equiv_pos_site_id
 _symmetry_equiv_pos_as_xyz
  1  'x, y, z'
loop_
 _atom_site_type_symbol
 _atom_site_label
 _atom_site_symmetry_multiplicity
 _atom_site_fract_x
 _atom_site_fract_y
 _atom_site_fract_z
 _atom_site_occupancy
  Ba  Ba0  1  1.00245454  0.00245454  -0.00245454  1.0
  Ba  Ba1  1  0.25245454  0.25245454  1.24754546  1.0
  Br  Br2  1  0.65606028  1.22333345  0.38637820  1.0
  Br  Br3  1  0.86362180  -0.48422807  0.59393972  1.0
  Br  Br4  1  1.22333345  -0.34393972  0.73422807  1.0
  Br  Br5  1  0.51577193  0.86362180  1.02666655  1.0
  O  O6  1  -0.11561115  0.58858919  1.37369833  1.0
  O  O7  1  0.87630167  1.09667637  0.36561115  1.0
  O  O8  1  1.58858919  -0.11561115  0.15332363  1.0
  O  O9  1  1.09667637  -0.12369833  0.66141081  1.0
  O  O10  1  0.44727077  1.09316538  0.65717444  1.0
  O  O11  1  0.59282556  -0.55238941  0.80272923  1.0
  O  O12  1  1.09316538  -0.55272923  0.80238941  1.0
  O  O13  1  0.44761059  0.59282556  1.15683462  1.0
  O  O14  1  1.13758505  0.60575248  -0.02324358  1.0
  O  O15  1  1.27324358  -0.02990605  0.11241495  1.0
  O  O16  1  0.60575248  0.13758505  1.27990605  1.0
  O  O17  1  -0.02990605  0.27324358  1.64424752  1.0
