# generated using pymatgen
data_KZr6CI14
_symmetry_space_group_name_H-M   'P 1'
_cell_length_a   11.26619061
_cell_length_b   11.26619061
_cell_length_c   12.82643248
_cell_angle_alpha   90.00000000
_cell_angle_beta   90.00000000
_cell_angle_gamma   89.22960909
_symmetry_Int_Tables_number   1
_chemical_formula_structural   KZr6CI14
_chemical_formula_sum   'K2 Zr12 C2 I28'
_cell_volume   1627.87408421
_cell_formula_units_Z   2
loop_
 _symmetry_equiv_pos_site_id
 _symmetry_equiv_pos_as_xyz
  1  'x, y, z'
loop_
 _atom_site_type_symbol
 _atom_site_label
 _atom_site_symmetry_multiplicity
 _atom_site_fract_x
 _atom_site_fract_y
 _atom_site_fract_z
 _atom_site_occupancy
  K  K0  1  0.00000000  1.00000000  0.50000000  1.0
  K  K1  1  -0.50000000  0.50000000  0.00000000  1.0
  Zr  Zr2  1  0.45235659  1.33995226  0.39066055  1.0
  Zr  Zr3  1  -0.04764341  0.83995226  0.10933945  1.0
  Zr  Zr4  1  0.33995226  1.45235659  0.60933945  1.0
  Zr  Zr5  1  -0.16004774  0.95235659  0.89066055  1.0
  Zr  Zr6  1  -0.33995226  0.54764341  0.39066055  1.0
  Zr  Zr7  1  0.16004774  1.04764341  0.10933945  1.0
  Zr  Zr8  1  -0.45235659  0.66004774  0.60933945  1.0
  Zr  Zr9  1  0.04764341  1.16004774  0.89066055  1.0
  Zr  Zr10  1  -0.11987987  1.11987987  0.09337510  1.0
  Zr  Zr11  1  0.38012013  0.61987987  0.40662490  1.0
  Zr  Zr12  1  0.11987987  0.88012013  0.90662490  1.0
  Zr  Zr13  1  -0.38012013  1.38012013  0.59337510  1.0
  C  C14  1  -0.50000000  0.50000000  0.50000000  1.0
  C  C15  1  0.00000000  1.00000000  0.00000000  1.0
  I  I16  1  -0.20946048  0.96392421  0.25268715  1.0
  I  I17  1  0.29053952  1.46392421  0.24731285  1.0
  I  I18  1  -0.03607579  0.79053952  0.74731285  1.0
  I  I19  1  0.46392421  1.29053952  0.75268715  1.0
  I  I20  1  0.03607579  1.20946048  0.25268715  1.0
  I  I21  1  -0.46392421  0.70946048  0.24731285  1.0
  I  I22  1  0.20946048  1.03607579  0.74731285  1.0
  I  I23  1  -0.29053952  0.53607579  0.75268715  1.0
  I  I24  1  -0.40313287  1.15474819  0.49035418  1.0
  I  I25  1  0.09686713  0.65474819  0.00964582  1.0
  I  I26  1  0.15474819  0.59686713  0.50964582  1.0
  I  I27  1  -0.34525181  1.09686713  0.99035418  1.0
  I  I28  1  -0.15474819  1.40313287  0.49035418  1.0
  I  I29  1  0.34525181  0.90313287  0.00964582  1.0
  I  I30  1  0.40313287  0.84525181  0.50964582  1.0
  I  I31  1  -0.09686713  1.34525181  0.99035418  1.0
  I  I32  1  -0.36051859  1.36051859  0.23264505  1.0
  I  I33  1  0.13948141  0.86051859  0.26735495  1.0
  I  I34  1  0.36051859  0.63948141  0.76735495  1.0
  I  I35  1  -0.13948141  1.13948141  0.73264505  1.0
  I  I36  1  0.38728517  1.11271483  0.25000000  1.0
  I  I37  1  -0.11271483  0.61271483  0.25000000  1.0
  I  I38  1  0.11271483  1.38728517  0.75000000  1.0
  I  I39  1  -0.38728517  0.88728517  0.75000000  1.0
  I  I40  1  0.24959606  1.24959606  0.50000000  1.0
  I  I41  1  -0.25040394  0.74959606  0.00000000  1.0
  I  I42  1  -0.24959606  0.75040394  0.50000000  1.0
  I  I43  1  0.25040394  1.25040394  0.00000000  1.0
