# generated using pymatgen
data_ScSiPd
_symmetry_space_group_name_H-M   'P 1'
_cell_length_a   6.58874821
_cell_length_b   4.02966171
_cell_length_c   7.53611160
_cell_angle_alpha   90.00000000
_cell_angle_beta   90.00000000
_cell_angle_gamma   90.00000000
_symmetry_Int_Tables_number   1
_chemical_formula_structural   ScSiPd
_chemical_formula_sum   'Sc4 Si4 Pd4'
_cell_volume   200.08697651
_cell_formula_units_Z   4
loop_
 _symmetry_equiv_pos_site_id
 _symmetry_equiv_pos_as_xyz
  1  'x, y, z'
loop_
 _atom_site_type_symbol
 _atom_site_label
 _atom_site_symmetry_multiplicity
 _atom_site_fract_x
 _atom_site_fract_y
 _atom_site_fract_z
 _atom_site_occupancy
  Sc  Sc0  1  0.98405929  0.75000000  0.68733836  1.0
  Sc  Sc1  1  0.48405929  0.75000000  0.81266164  1.0
  Sc  Sc2  1  0.01594071  0.25000000  0.31266164  1.0
  Sc  Sc3  1  0.51594071  0.25000000  0.18733836  1.0
  Si  Si4  1  0.72343564  0.75000000  0.38610711  1.0
  Si  Si5  1  0.22343564  0.75000000  0.11389289  1.0
  Si  Si6  1  0.27656436  0.25000000  0.61389289  1.0
  Si  Si7  1  0.77656436  0.25000000  0.88610711  1.0
  Pd  Pd8  1  0.83828375  0.75000000  0.06889414  1.0
  Pd  Pd9  1  0.33828375  0.75000000  0.43110586  1.0
  Pd  Pd10  1  0.16171625  0.25000000  0.93110586  1.0
  Pd  Pd11  1  0.66171625  0.25000000  0.56889414  1.0
