# generated using pymatgen
data_La2CuS4
_symmetry_space_group_name_H-M   'P 1'
_cell_length_a   7.75755768
_cell_length_b   7.59990158
_cell_length_c   10.99068243
_cell_angle_alpha   90.00000000
_cell_angle_beta   104.90128624
_cell_angle_gamma   90.00000000
_symmetry_Int_Tables_number   1
_chemical_formula_structural   La2CuS4
_chemical_formula_sum   'La8 Cu4 S16'
_cell_volume   626.18292077
_cell_formula_units_Z   4
loop_
 _symmetry_equiv_pos_site_id
 _symmetry_equiv_pos_as_xyz
  1  'x, y, z'
loop_
 _atom_site_type_symbol
 _atom_site_label
 _atom_site_symmetry_multiplicity
 _atom_site_fract_x
 _atom_site_fract_y
 _atom_site_fract_z
 _atom_site_occupancy
  La  La0  1  0.97062741  0.37276731  0.17549494  1.0
  La  La1  1  0.97062741  0.12723269  0.67549494  1.0
  La  La2  1  0.02937259  0.87276731  0.32450506  1.0
  La  La3  1  0.02937259  0.62723269  0.82450506  1.0
  La  La4  1  0.55963922  0.29845242  0.36418560  1.0
  La  La5  1  0.55963922  0.20154758  0.86418560  1.0
  La  La6  1  0.44036078  0.79845242  0.13581440  1.0
  La  La7  1  0.44036078  0.70154758  0.63581440  1.0
  Cu  Cu8  1  0.82273789  0.88206670  0.00319112  1.0
  Cu  Cu9  1  0.82273789  0.61793330  0.50319112  1.0
  Cu  Cu10  1  0.17726211  0.38206670  0.49680888  1.0
  Cu  Cu11  1  0.17726211  0.11793330  0.99680888  1.0
  S  S12  1  0.94450141  0.20941821  0.41253773  1.0
  S  S13  1  0.94450141  0.29058179  0.91253773  1.0
  S  S14  1  0.05549859  0.70941821  0.08746227  1.0
  S  S15  1  0.05549859  0.79058179  0.58746227  1.0
  S  S16  1  0.71074488  0.06675129  0.12478481  1.0
  S  S17  1  0.71074488  0.43324871  0.62478481  1.0
  S  S18  1  0.28925512  0.56675129  0.37521519  1.0
  S  S19  1  0.28925512  0.93324871  0.87521519  1.0
  S  S20  1  0.61397194  0.94774318  0.47664746  1.0
  S  S21  1  0.61397194  0.55225682  0.97664746  1.0
  S  S22  1  0.38602806  0.44774318  0.02335254  1.0
  S  S23  1  0.38602806  0.05225682  0.52335254  1.0
  S  S24  1  0.25365531  0.10328991  0.20814912  1.0
  S  S25  1  0.25365531  0.39671009  0.70814912  1.0
  S  S26  1  0.74634469  0.60328991  0.29185088  1.0
  S  S27  1  0.74634469  0.89671009  0.79185088  1.0
