# generated using pymatgen
data_BiAsO4
_symmetry_space_group_name_H-M   'P 1'
_cell_length_a   6.98424569
_cell_length_b   6.98424569
_cell_length_c   6.98424569
_cell_angle_alpha   136.54822664
_cell_angle_beta   136.54822664
_cell_angle_gamma   63.13389746
_symmetry_Int_Tables_number   1
_chemical_formula_structural   BiAsO4
_chemical_formula_sum   'Bi2 As2 O8'
_cell_volume   159.09889685
_cell_formula_units_Z   2
loop_
 _symmetry_equiv_pos_site_id
 _symmetry_equiv_pos_as_xyz
  1  'x, y, z'
loop_
 _atom_site_type_symbol
 _atom_site_label
 _atom_site_symmetry_multiplicity
 _atom_site_fract_x
 _atom_site_fract_y
 _atom_site_fract_z
 _atom_site_occupancy
  Bi  Bi0  1  0.25000000  0.75000000  0.50000000  1.0
  Bi  Bi1  1  0.50000000  0.50000000  1.00000000  1.0
  As  As2  1  0.75000000  0.25000000  0.50000000  1.0
  As  As3  1  0.00000000  0.00000000  0.00000000  1.0
  O  O4  1  0.57974819  0.47255774  0.39642779  1.0
  O  O5  1  1.07612995  1.18332040  1.60357221  1.0
  O  O6  1  0.67387005  1.06667960  0.89642779  1.0
  O  O7  1  1.17025181  0.77744226  1.10357221  1.0
  O  O8  1  0.52744226  0.92387005  1.10719045  1.0
  O  O9  1  0.81667960  0.42025181  0.89280955  1.0
  O  O10  1  0.93332040  0.82974819  1.60719045  1.0
  O  O11  1  0.22255774  0.32612995  0.39280955  1.0
