# generated using pymatgen
data_Cs2NaNiF6
_symmetry_space_group_name_H-M   'P 1'
_cell_length_a   10.98716915
_cell_length_b   10.98716915
_cell_length_c   10.98716915
_cell_angle_alpha   33.44481073
_cell_angle_beta   33.44481073
_cell_angle_gamma   33.44481073
_symmetry_Int_Tables_number   1
_chemical_formula_structural   Cs2NaNiF6
_chemical_formula_sum   'Cs4 Na2 Ni2 F12'
_cell_volume   358.78457436
_cell_formula_units_Z   2
loop_
 _symmetry_equiv_pos_site_id
 _symmetry_equiv_pos_as_xyz
  1  'x, y, z'
loop_
 _atom_site_type_symbol
 _atom_site_label
 _atom_site_symmetry_multiplicity
 _atom_site_fract_x
 _atom_site_fract_y
 _atom_site_fract_z
 _atom_site_occupancy
  Cs  Cs0  1  0.78850049  0.78850049  0.78850049  1.0
  Cs  Cs1  1  1.21149951  1.21149951  0.21149951  1.0
  Cs  Cs2  1  1.62462338  0.62462338  0.62462338  1.0
  Cs  Cs3  1  1.37537662  0.37537662  0.37537662  1.0
  Na  Na4  1  0.90420509  0.90420509  0.90420509  1.0
  Na  Na5  1  1.09579491  1.09579491  0.09579491  1.0
  Ni  Ni6  1  1.50000000  0.50000000  0.50000000  1.0
  Ni  Ni7  1  0.00000000  0.00000000  0.00000000  1.0
  F  F8  1  1.31439438  0.31439438  0.76140079  1.0
  F  F9  1  1.31439438  0.76140079  0.31439438  1.0
  F  F10  1  1.23859921  0.68560562  0.68560562  1.0
  F  F11  1  1.68560562  0.23859921  0.68560562  1.0
  F  F12  1  1.68560562  0.68560562  0.23859921  1.0
  F  F13  1  1.76140079  0.31439438  0.31439438  1.0
  F  F14  1  1.10207775  1.10207775  0.68897668  1.0
  F  F15  1  1.10207775  1.68897668  0.10207775  1.0
  F  F16  1  1.31102332  0.89792225  -0.10207775  1.0
  F  F17  1  0.89792225  1.31102332  -0.10207775  1.0
  F  F18  1  0.89792225  0.89792225  0.31102332  1.0
  F  F19  1  1.68897668  1.10207775  0.10207775  1.0
