# generated using pymatgen
data_SrLiAs
_symmetry_space_group_name_H-M   'P 1'
_cell_length_a   7.64651577
_cell_length_b   4.51734551
_cell_length_c   8.15565588
_cell_angle_alpha   90.00000000
_cell_angle_beta   90.00000000
_cell_angle_gamma   90.00000000
_symmetry_Int_Tables_number   1
_chemical_formula_structural   SrLiAs
_chemical_formula_sum   'Sr4 Li4 As4'
_cell_volume   281.71228767
_cell_formula_units_Z   4
loop_
 _symmetry_equiv_pos_site_id
 _symmetry_equiv_pos_as_xyz
  1  'x, y, z'
loop_
 _atom_site_type_symbol
 _atom_site_label
 _atom_site_symmetry_multiplicity
 _atom_site_fract_x
 _atom_site_fract_y
 _atom_site_fract_z
 _atom_site_occupancy
  Sr  Sr0  1  0.99116109  0.75000000  0.70176955  1.0
  Sr  Sr1  1  0.49116109  0.75000000  0.79823045  1.0
  Sr  Sr2  1  0.00883891  0.25000000  0.29823045  1.0
  Sr  Sr3  1  0.50883891  0.25000000  0.20176955  1.0
  Li  Li4  1  0.84817073  0.75000000  0.06880565  1.0
  Li  Li5  1  0.34817073  0.75000000  0.43119435  1.0
  Li  Li6  1  0.15182927  0.25000000  0.93119435  1.0
  Li  Li7  1  0.65182927  0.25000000  0.56880565  1.0
  As  As8  1  0.72337471  0.75000000  0.40339990  1.0
  As  As9  1  0.22337471  0.75000000  0.09660010  1.0
  As  As10  1  0.27662529  0.25000000  0.59660010  1.0
  As  As11  1  0.77662529  0.25000000  0.90339990  1.0
