# generated using pymatgen
data_EuCl3
_symmetry_space_group_name_H-M   'P 1'
_cell_length_a   7.56007654
_cell_length_b   7.56007654
_cell_length_c   4.20927453
_cell_angle_alpha   90.00000000
_cell_angle_beta   90.00000000
_cell_angle_gamma   120.00000000
_symmetry_Int_Tables_number   1
_chemical_formula_structural   EuCl3
_chemical_formula_sum   'Eu2 Cl6'
_cell_volume   208.34844706
_cell_formula_units_Z   2
loop_
 _symmetry_equiv_pos_site_id
 _symmetry_equiv_pos_as_xyz
  1  'x, y, z'
loop_
 _atom_site_type_symbol
 _atom_site_label
 _atom_site_symmetry_multiplicity
 _atom_site_fract_x
 _atom_site_fract_y
 _atom_site_fract_z
 _atom_site_occupancy
  Eu  Eu0  1  0.33333333  0.66666667  0.25000000  1.0
  Eu  Eu1  1  0.66666667  0.33333333  0.75000000  1.0
  Cl  Cl2  1  0.69481879  0.60781338  0.25000000  1.0
  Cl  Cl3  1  0.60781338  0.91299459  0.75000000  1.0
  Cl  Cl4  1  0.91299459  0.30518121  0.25000000  1.0
  Cl  Cl5  1  0.39218662  0.08700541  0.25000000  1.0
  Cl  Cl6  1  0.30518121  0.39218662  0.75000000  1.0
  Cl  Cl7  1  0.08700541  0.69481879  0.75000000  1.0
