# generated using pymatgen
data_La3(Si3Pd10)2
_symmetry_space_group_name_H-M   'P 1'
_cell_length_a   8.79474725
_cell_length_b   8.79474725
_cell_length_c   8.79474725
_cell_angle_alpha   60.00000000
_cell_angle_beta   60.00000000
_cell_angle_gamma   60.00000000
_symmetry_Int_Tables_number   1
_chemical_formula_structural   La3(Si3Pd10)2
_chemical_formula_sum   'La3 Si6 Pd20'
_cell_volume   481.01109143
_cell_formula_units_Z   1
loop_
 _symmetry_equiv_pos_site_id
 _symmetry_equiv_pos_as_xyz
  1  'x, y, z'
loop_
 _atom_site_type_symbol
 _atom_site_label
 _atom_site_symmetry_multiplicity
 _atom_site_fract_x
 _atom_site_fract_y
 _atom_site_fract_z
 _atom_site_occupancy
  La  La0  1  0.75000000  0.75000000  -0.25000000  1.0
  La  La1  1  1.25000000  0.25000000  0.25000000  1.0
  La  La2  1  0.00000000  0.00000000  -0.00000000  1.0
  Si  Si3  1  -0.73243799  0.73243799  0.73243799  1.0
  Si  Si4  1  -0.26756201  0.26756201  0.73243799  1.0
  Si  Si5  1  0.73243799  0.73243799  -0.73243799  1.0
  Si  Si6  1  0.26756201  1.26756201  -0.26756201  1.0
  Si  Si7  1  0.26756201  -0.26756201  1.26756201  1.0
  Si  Si8  1  -0.26756201  0.26756201  0.26756201  1.0
  Pd  Pd9  1  1.65297698  -0.00000000  0.00000000  1.0
  Pd  Pd10  1  1.00000000  0.34702302  -0.34702302  1.0
  Pd  Pd11  1  1.00000000  0.65297698  -0.65297698  1.0
  Pd  Pd12  1  1.34702302  -0.00000000  0.00000000  1.0
  Pd  Pd13  1  -0.00000000  1.65297698  0.00000000  1.0
  Pd  Pd14  1  0.34702302  1.00000000  -0.34702302  1.0
  Pd  Pd15  1  -0.00000000  -0.00000000  0.65297698  1.0
  Pd  Pd16  1  0.34702302  -0.34702302  1.00000000  1.0
  Pd  Pd17  1  0.65297698  1.00000000  -0.65297698  1.0
  Pd  Pd18  1  -0.00000000  1.34702302  0.00000000  1.0
  Pd  Pd19  1  0.65297698  -0.65297698  1.00000000  1.0
  Pd  Pd20  1  0.00000000  0.00000000  0.34702302  1.0
  Pd  Pd21  1  0.61425357  0.61425357  -0.38574643  1.0
  Pd  Pd22  1  0.38574643  1.38574643  -0.15723929  1.0
  Pd  Pd23  1  1.38574643  -0.15723929  0.38574643  1.0
  Pd  Pd24  1  1.15723929  0.61425357  0.61425357  1.0
  Pd  Pd25  1  -0.15723929  1.38574643  0.38574643  1.0
  Pd  Pd26  1  0.61425357  1.15723929  -0.38574643  1.0
  Pd  Pd27  1  0.61425357  0.61425357  1.15723929  1.0
  Pd  Pd28  1  1.38574643  0.38574643  0.38574643  1.0
