# generated using pymatgen
data_Na5Cu3(AsO4)4
_symmetry_space_group_name_H-M   'P 1'
_cell_length_a   5.40702994
_cell_length_b   9.53643263
_cell_length_c   8.73656167
_cell_angle_alpha   62.78525711
_cell_angle_beta   75.03352471
_cell_angle_gamma   77.24872885
_symmetry_Int_Tables_number   1
_chemical_formula_structural   Na5Cu3(AsO4)4
_chemical_formula_sum   'Na5 Cu3 As4 O16'
_cell_volume   384.25960342
_cell_formula_units_Z   1
loop_
 _symmetry_equiv_pos_site_id
 _symmetry_equiv_pos_as_xyz
  1  'x, y, z'
loop_
 _atom_site_type_symbol
 _atom_site_label
 _atom_site_symmetry_multiplicity
 _atom_site_fract_x
 _atom_site_fract_y
 _atom_site_fract_z
 _atom_site_occupancy
  O  O0  1  0.25278666  -0.92869642  1.08406952  1.0
  O  O1  1  0.74721334  -0.07130358  0.91593048  1.0
  O  O2  1  0.47513059  -0.25336473  1.23794060  1.0
  O  O3  1  0.52486941  -0.74663527  0.76205940  1.0
  O  O4  1  0.73834307  0.00017866  0.20164823  1.0
  O  O5  1  0.26165693  -1.00017866  1.79835177  1.0
  O  O6  1  0.28305361  -0.09167288  0.45123595  1.0
  O  O7  1  0.71694639  -0.90832712  1.54876405  1.0
  O  O8  1  0.58009274  -0.49989830  1.16158956  1.0
  O  O9  1  0.41990726  -0.50010170  0.83841044  1.0
  O  O10  1  0.23794389  -0.69612529  1.18124213  1.0
  O  O11  1  0.76205611  -0.30387471  0.81875787  1.0
  O  O12  1  0.07515783  -0.35142853  1.09112356  1.0
  O  O13  1  0.92484217  -0.64857147  0.90887644  1.0
  O  O14  1  0.17213371  -0.60360610  1.43576698  1.0
  O  O15  1  0.82786629  -0.39639390  0.56423302  1.0
  As  As16  1  0.44263024  -0.07136420  0.24643249  1.0
  As  As17  1  0.55736976  -0.92863580  1.75356751  1.0
  As  As18  1  0.24560798  -0.52255896  1.21263933  1.0
  As  As19  1  0.75439202  -0.47744104  0.78736067  1.0
  Cu  Cu20  1  0.00000000  0.00000000  0.00000000  1.0
  Cu  Cu21  1  0.65542682  -0.28751962  1.03485499  1.0
  Cu  Cu22  1  0.34457318  -0.71248038  0.96514501  1.0
  Na  Na23  1  0.50000000  -0.50000000  0.50000000  1.0
  Na  Na24  1  0.20195158  -0.24464331  0.78987597  1.0
  Na  Na25  1  0.79804842  -0.75535669  1.21012403  1.0
  Na  Na26  1  0.84436720  -0.13680927  0.49123015  1.0
  Na  Na27  1  0.15563280  -0.86319073  1.50876985  1.0
