# generated using pymatgen
data_KBiN(ClO)3
_symmetry_space_group_name_H-M   'P 1'
_cell_length_a   9.37649776
_cell_length_b   8.95158278
_cell_length_c   9.78665709
_cell_angle_alpha   90.00000000
_cell_angle_beta   104.75037508
_cell_angle_gamma   90.00000000
_symmetry_Int_Tables_number   1
_chemical_formula_structural   KBiN(ClO)3
_chemical_formula_sum   'K4 Bi4 N4 Cl12 O12'
_cell_volume   794.36703785
_cell_formula_units_Z   4
loop_
 _symmetry_equiv_pos_site_id
 _symmetry_equiv_pos_as_xyz
  1  'x, y, z'
loop_
 _atom_site_type_symbol
 _atom_site_label
 _atom_site_symmetry_multiplicity
 _atom_site_fract_x
 _atom_site_fract_y
 _atom_site_fract_z
 _atom_site_occupancy
  K  K0  1  0.85994723  0.59951732  0.20163521  1.0
  K  K1  1  0.85994723  0.90048268  0.70163521  1.0
  K  K2  1  0.14005277  0.09951732  0.29836479  1.0
  K  K3  1  0.14005277  0.40048268  0.79836479  1.0
  Bi  Bi4  1  0.64753671  0.08142947  0.20209181  1.0
  Bi  Bi5  1  0.64753671  0.41857053  0.70209181  1.0
  Bi  Bi6  1  0.35246329  0.58142947  0.29790819  1.0
  Bi  Bi7  1  0.35246329  0.91857053  0.79790819  1.0
  N  N8  1  0.82098376  0.29510953  0.45750702  1.0
  N  N9  1  0.82098376  0.20489047  0.95750702  1.0
  N  N10  1  0.17901624  0.79510953  0.04249298  1.0
  N  N11  1  0.17901624  0.70489047  0.54249298  1.0
  Cl  Cl12  1  0.85977131  0.91820821  0.35549105  1.0
  Cl  Cl13  1  0.85977131  0.58179179  0.85549105  1.0
  Cl  Cl14  1  0.14022869  0.41820821  0.14450895  1.0
  Cl  Cl15  1  0.14022869  0.08179179  0.64450895  1.0
  Cl  Cl16  1  0.54000974  0.45068792  0.18880519  1.0
  Cl  Cl17  1  0.54000974  0.04931208  0.68880519  1.0
  Cl  Cl18  1  0.45999026  0.95068792  0.31119481  1.0
  Cl  Cl19  1  0.45999026  0.54931208  0.81119481  1.0
  Cl  Cl20  1  0.37111498  0.35611991  0.47625589  1.0
  Cl  Cl21  1  0.37111498  0.14388009  0.97625589  1.0
  Cl  Cl22  1  0.62888502  0.85611991  0.02374411  1.0
  Cl  Cl23  1  0.62888502  0.64388009  0.52374411  1.0
  O  O24  1  0.87243656  0.12749513  0.06663155  1.0
  O  O25  1  0.87243656  0.37250487  0.56663155  1.0
  O  O26  1  0.12756344  0.62749513  0.43336845  1.0
  O  O27  1  0.12756344  0.87250487  0.93336845  1.0
  O  O28  1  0.87676209  0.29928180  0.35374937  1.0
  O  O29  1  0.87676209  0.20071820  0.85374937  1.0
  O  O30  1  0.12323791  0.79928180  0.14625063  1.0
  O  O31  1  0.12323791  0.70071820  0.64625063  1.0
  O  O32  1  0.70910568  0.21263829  0.45324137  1.0
  O  O33  1  0.70910568  0.28736171  0.95324137  1.0
  O  O34  1  0.29089432  0.71263829  0.04675863  1.0
  O  O35  1  0.29089432  0.78736171  0.54675863  1.0
