# generated using pymatgen
data_La2Ga12Ni
_symmetry_space_group_name_H-M   'P 1'
_cell_length_a   6.11258270
_cell_length_b   6.11258270
_cell_length_c   15.63262685
_cell_angle_alpha   90.00000000
_cell_angle_beta   90.00000000
_cell_angle_gamma   90.00000000
_symmetry_Int_Tables_number   1
_chemical_formula_structural   La2Ga12Ni
_chemical_formula_sum   'La4 Ga24 Ni2'
_cell_volume   584.09226848
_cell_formula_units_Z   2
loop_
 _symmetry_equiv_pos_site_id
 _symmetry_equiv_pos_as_xyz
  1  'x, y, z'
loop_
 _atom_site_type_symbol
 _atom_site_label
 _atom_site_symmetry_multiplicity
 _atom_site_fract_x
 _atom_site_fract_y
 _atom_site_fract_z
 _atom_site_occupancy
  La  La0  1  0.50000000  0.00000000  0.24313979  1.0
  La  La1  1  0.50000000  0.00000000  0.75686021  1.0
  La  La2  1  0.00000000  0.50000000  0.75686021  1.0
  La  La3  1  0.00000000  0.50000000  0.24313979  1.0
  Ga  Ga4  1  0.82312043  0.67687957  0.42850102  1.0
  Ga  Ga5  1  0.82312043  0.32312043  0.57149898  1.0
  Ga  Ga6  1  0.32312043  0.17687957  0.57149898  1.0
  Ga  Ga7  1  0.32312043  0.82312043  0.42850102  1.0
  Ga  Ga8  1  0.67687957  0.82312043  0.57149898  1.0
  Ga  Ga9  1  0.67687957  0.17687957  0.42850102  1.0
  Ga  Ga10  1  0.17687957  0.32312043  0.42850102  1.0
  Ga  Ga11  1  0.17687957  0.67687957  0.57149898  1.0
  Ga  Ga12  1  0.74964306  0.75035694  0.08288679  1.0
  Ga  Ga13  1  0.74964306  0.24964306  0.91711321  1.0
  Ga  Ga14  1  0.24964306  0.25035694  0.91711321  1.0
  Ga  Ga15  1  0.24964306  0.74964306  0.08288679  1.0
  Ga  Ga16  1  0.75035694  0.74964306  0.91711321  1.0
  Ga  Ga17  1  0.75035694  0.25035694  0.08288679  1.0
  Ga  Ga18  1  0.25035694  0.24964306  0.08288679  1.0
  Ga  Ga19  1  0.25035694  0.75035694  0.91711321  1.0
  Ga  Ga20  1  0.00000000  0.00000000  0.18066258  1.0
  Ga  Ga21  1  0.00000000  0.00000000  0.81933742  1.0
  Ga  Ga22  1  0.50000000  0.50000000  0.81933742  1.0
  Ga  Ga23  1  0.50000000  0.50000000  0.18066258  1.0
  Ga  Ga24  1  0.00000000  0.00000000  0.34008765  1.0
  Ga  Ga25  1  0.00000000  0.00000000  0.65991235  1.0
  Ga  Ga26  1  0.50000000  0.50000000  0.65991235  1.0
  Ga  Ga27  1  0.50000000  0.50000000  0.34008765  1.0
  Ni  Ni28  1  0.50000000  0.00000000  0.00000000  1.0
  Ni  Ni29  1  0.00000000  0.50000000  0.00000000  1.0
