# generated using pymatgen
data_CsHF2
_symmetry_space_group_name_H-M   'P 1'
_cell_length_a   5.94170819
_cell_length_b   5.94170819
_cell_length_c   5.94170819
_cell_angle_alpha   116.30302686
_cell_angle_beta   116.30302686
_cell_angle_gamma   96.53227613
_symmetry_Int_Tables_number   1
_chemical_formula_structural   CsHF2
_chemical_formula_sum   'Cs2 H2 F4'
_cell_volume   155.52015085
_cell_formula_units_Z   2
loop_
 _symmetry_equiv_pos_site_id
 _symmetry_equiv_pos_as_xyz
  1  'x, y, z'
loop_
 _atom_site_type_symbol
 _atom_site_label
 _atom_site_symmetry_multiplicity
 _atom_site_fract_x
 _atom_site_fract_y
 _atom_site_fract_z
 _atom_site_occupancy
  Cs  Cs0  1  0.75000000  0.75000000  -0.00000000  1.0
  Cs  Cs1  1  0.25000000  0.25000000  -0.00000000  1.0
  H  H2  1  1.00000000  0.50000000  0.50000000  1.0
  H  H3  1  0.50000000  1.00000000  0.50000000  1.0
  F  F4  1  1.12996612  0.62996612  0.75993225  1.0
  F  F5  1  0.87003388  0.37003388  1.24006775  1.0
  F  F6  1  0.62996612  0.87003388  0.50000000  1.0
  F  F7  1  0.37003388  0.12996612  0.50000000  1.0
