# generated using pymatgen
data_PH6NO4
_symmetry_space_group_name_H-M   'P 1'
_cell_length_a   6.95078705
_cell_length_b   8.84109206
_cell_length_c   7.91890497
_cell_angle_alpha   90.00000000
_cell_angle_beta   90.00000000
_cell_angle_gamma   90.00000000
_symmetry_Int_Tables_number   1
_chemical_formula_structural   PH6NO4
_chemical_formula_sum   'P4 H24 N4 O16'
_cell_volume   486.63688883
_cell_formula_units_Z   4
loop_
 _symmetry_equiv_pos_site_id
 _symmetry_equiv_pos_as_xyz
  1  'x, y, z'
loop_
 _atom_site_type_symbol
 _atom_site_label
 _atom_site_symmetry_multiplicity
 _atom_site_fract_x
 _atom_site_fract_y
 _atom_site_fract_z
 _atom_site_occupancy
  P  P0  1  0.59355934  0.05800043  0.52607345  1.0
  P  P1  1  1.09355934  0.44199957  0.47392655  1.0
  P  P2  1  0.40644066  0.55800043  0.97392655  1.0
  P  P3  1  -0.09355934  -0.05800043  0.02607345  1.0
  H  H4  1  0.98025681  0.96788490  0.54448012  1.0
  H  H5  1  0.48025681  0.53211510  0.45551988  1.0
  H  H6  1  0.01974319  0.46788490  0.95551988  1.0
  H  H7  1  0.51974319  0.03211510  0.04448012  1.0
  H  H8  1  1.09633858  -0.06864838  0.36143956  1.0
  H  H9  1  0.59633858  0.56864838  0.63856044  1.0
  H  H10  1  -0.09633858  0.43135162  0.13856044  1.0
  H  H11  1  0.40366142  0.06864838  0.86143956  1.0
  H  H12  1  0.22427109  -0.04020881  0.54726571  1.0
  H  H13  1  0.72427109  0.54020881  0.45273429  1.0
  H  H14  1  0.77572891  0.45979119  0.95273429  1.0
  H  H15  1  0.27572891  1.04020881  0.04726571  1.0
  H  H16  1  0.09440853  0.79941955  0.51867227  1.0
  H  H17  1  0.59440853  0.70058045  0.48132773  1.0
  H  H18  1  0.90559147  0.29941955  -0.01867227  1.0
  H  H19  1  0.40559147  0.20058045  1.01867227  1.0
  H  H20  1  0.43490308  0.25023227  0.40544633  1.0
  H  H21  1  0.93490308  0.24976773  0.59455367  1.0
  H  H22  1  0.56509692  0.75023227  0.09455367  1.0
  H  H23  1  0.06509692  0.74976773  0.90544633  1.0
  H  H24  1  0.67366202  0.91230211  0.29946577  1.0
  H  H25  1  0.17366202  0.58769789  0.70053423  1.0
  H  H26  1  0.32633798  0.41230211  0.20053423  1.0
  H  H27  1  0.82633798  0.08769789  0.79946577  1.0
  N  N28  1  1.09910187  0.91410308  0.49266800  1.0
  N  N29  1  0.59910187  0.58589692  0.50733200  1.0
  N  N30  1  -0.09910187  0.41410308  0.00733200  1.0
  N  N31  1  0.40089813  0.08589692  0.99266800  1.0
  O  O32  1  0.42838334  1.03106033  0.64747197  1.0
  O  O33  1  0.92838334  0.46893967  0.35252803  1.0
  O  O34  1  0.57161666  0.53106033  0.85252803  1.0
  O  O35  1  0.07161666  -0.03106033  0.14747197  1.0
  O  O36  1  0.54102688  0.17572479  0.38100977  1.0
  O  O37  1  1.04102688  0.32427521  0.61899023  1.0
  O  O38  1  0.45897312  0.67572479  0.11899023  1.0
  O  O39  1  -0.04102688  0.82427521  0.88100977  1.0
  O  O40  1  0.78519441  0.10514588  0.61012668  1.0
  O  O41  1  0.28519441  0.39485412  0.38987332  1.0
  O  O42  1  0.21480559  0.60514588  0.88987332  1.0
  O  O43  1  0.71480559  0.89485412  0.11012668  1.0
  O  O44  1  0.63256837  0.90461634  0.42398026  1.0
  O  O45  1  0.13256837  0.59538366  0.57601974  1.0
  O  O46  1  0.36743163  0.40461634  0.07601974  1.0
  O  O47  1  0.86743163  0.09538366  0.92398026  1.0
