# generated using pymatgen
data_TlNO2
_symmetry_space_group_name_H-M   'P 1'
_cell_length_a   5.67271742
_cell_length_b   5.67271742
_cell_length_c   7.54352489
_cell_angle_alpha   90.00000000
_cell_angle_beta   90.00000000
_cell_angle_gamma   120.00000000
_symmetry_Int_Tables_number   1
_chemical_formula_structural   TlNO2
_chemical_formula_sum   'Tl3 N3 O6'
_cell_volume   210.22640334
_cell_formula_units_Z   3
loop_
 _symmetry_equiv_pos_site_id
 _symmetry_equiv_pos_as_xyz
  1  'x, y, z'
loop_
 _atom_site_type_symbol
 _atom_site_label
 _atom_site_symmetry_multiplicity
 _atom_site_fract_x
 _atom_site_fract_y
 _atom_site_fract_z
 _atom_site_occupancy
  Tl  Tl0  1  0.70426250  0.70426250  0.00000000  1.0
  Tl  Tl1  1  -0.00000000  0.29573750  0.66666667  1.0
  Tl  Tl2  1  0.29573750  -0.00000000  0.33333333  1.0
  N  N3  1  0.69448371  0.69448371  0.50000000  1.0
  N  N4  1  -0.00000000  0.30551629  0.16666667  1.0
  N  N5  1  0.30551629  0.00000000  0.83333333  1.0
  O  O6  1  0.36629142  0.88286268  0.71424857  1.0
  O  O7  1  0.88286268  0.36629142  0.28575143  1.0
  O  O8  1  0.51657126  0.63370858  0.38091524  1.0
  O  O9  1  0.11713732  0.48342874  0.04758191  1.0
  O  O10  1  0.63370858  0.51657126  0.61908476  1.0
  O  O11  1  0.48342874  0.11713732  0.95241809  1.0
