# generated using pymatgen
data_KRuO2
_symmetry_space_group_name_H-M   'P 1'
_cell_length_a   7.77435850
_cell_length_b   7.77435850
_cell_length_c   7.77435850
_cell_angle_alpha   131.77260937
_cell_angle_beta   131.77260937
_cell_angle_gamma   70.58840362
_symmetry_Int_Tables_number   1
_chemical_formula_structural   KRuO2
_chemical_formula_sum   'K4 Ru4 O8'
_cell_volume   256.05644963
_cell_formula_units_Z   4
loop_
 _symmetry_equiv_pos_site_id
 _symmetry_equiv_pos_as_xyz
  1  'x, y, z'
loop_
 _atom_site_type_symbol
 _atom_site_label
 _atom_site_symmetry_multiplicity
 _atom_site_fract_x
 _atom_site_fract_y
 _atom_site_fract_z
 _atom_site_occupancy
  K  K0  1  0.37500000  0.62500000  0.75000000  1.0
  K  K1  1  0.87500000  0.62500000  1.25000000  1.0
  K  K2  1  0.37500000  1.12500000  0.75000000  1.0
  K  K3  1  0.37500000  0.62500000  0.25000000  1.0
  Ru  Ru4  1  0.87500000  0.12500000  0.75000000  1.0
  Ru  Ru5  1  0.37500000  0.12500000  0.25000000  1.0
  Ru  Ru6  1  0.87500000  0.62500000  0.75000000  1.0
  Ru  Ru7  1  0.87500000  1.12500000  1.25000000  1.0
  O  O8  1  1.14306174  0.96060700  1.81781150  1.0
  O  O9  1  0.60720450  0.92474976  1.31781150  1.0
  O  O10  1  1.03939300  0.85720450  1.18245474  1.0
  O  O11  1  1.07525024  1.39306174  1.68245474  1.0
  O  O12  1  0.14279550  0.32525024  0.18218850  1.0
  O  O13  1  0.60693826  0.28939300  0.68218850  1.0
  O  O14  1  0.67474976  0.85693826  0.81754526  1.0
  O  O15  1  0.71060700  0.39279550  0.31754526  1.0
