# generated using pymatgen
data_Sr2LiSiO4F
_symmetry_space_group_name_H-M   'P 1'
_cell_length_a   6.62728481
_cell_length_b   5.46961629
_cell_length_c   6.99008066
_cell_angle_alpha   90.00000000
_cell_angle_beta   112.10318529
_cell_angle_gamma   90.00000000
_symmetry_Int_Tables_number   1
_chemical_formula_structural   Sr2LiSiO4F
_chemical_formula_sum   'Sr4 Li2 Si2 O8 F2'
_cell_volume   234.75979489
_cell_formula_units_Z   2
loop_
 _symmetry_equiv_pos_site_id
 _symmetry_equiv_pos_as_xyz
  1  'x, y, z'
loop_
 _atom_site_type_symbol
 _atom_site_label
 _atom_site_symmetry_multiplicity
 _atom_site_fract_x
 _atom_site_fract_y
 _atom_site_fract_z
 _atom_site_occupancy
  Sr  Sr0  1  0.84011640  0.25000000  0.62396129  1.0
  Sr  Sr1  1  0.15988360  0.75000000  0.37603871  1.0
  Sr  Sr2  1  0.36148149  0.25000000  0.10081882  1.0
  Sr  Sr3  1  0.63851851  0.75000000  0.89918118  1.0
  Li  Li4  1  0.84811565  0.25000000  0.11698657  1.0
  Li  Li5  1  0.15188435  0.75000000  0.88301343  1.0
  Si  Si6  1  0.34614005  0.25000000  0.66520933  1.0
  Si  Si7  1  0.65385995  0.75000000  0.33479067  1.0
  O  O8  1  0.22322754  0.49273047  0.71069711  1.0
  O  O9  1  0.22322754  0.00726953  0.71069711  1.0
  O  O10  1  0.77677246  0.99273047  0.28930289  1.0
  O  O11  1  0.77677246  0.50726953  0.28930289  1.0
  O  O12  1  0.59618163  0.25000000  0.84295613  1.0
  O  O13  1  0.40381837  0.75000000  0.15704387  1.0
  O  O14  1  0.34131737  0.25000000  0.43030801  1.0
  O  O15  1  0.65868263  0.75000000  0.56969199  1.0
  F  F16  1  0.00000000  0.50000000  0.00000000  1.0
  F  F17  1  0.00000000  0.00000000  0.00000000  1.0
