# generated using pymatgen
data_Na2CaH4(CO4)2
_symmetry_space_group_name_H-M   'P 1'
_cell_length_a   10.51926856
_cell_length_b   6.52229094
_cell_length_c   11.60089975
_cell_angle_alpha   63.94609893
_cell_angle_beta   33.85035989
_cell_angle_gamma   82.20354119
_symmetry_Int_Tables_number   1
_chemical_formula_structural   Na2CaH4(CO4)2
_chemical_formula_sum   'Na4 Ca2 H8 C4 O16'
_cell_volume   354.10503821
_cell_formula_units_Z   2
loop_
 _symmetry_equiv_pos_site_id
 _symmetry_equiv_pos_as_xyz
  1  'x, y, z'
loop_
 _atom_site_type_symbol
 _atom_site_label
 _atom_site_symmetry_multiplicity
 _atom_site_fract_x
 _atom_site_fract_y
 _atom_site_fract_z
 _atom_site_occupancy
  Na  Na0  1  -0.30957547  0.32924002  0.54422571  1.0
  Na  Na1  1  0.70577429  0.81389026  -0.44042453  1.0
  Na  Na2  1  0.32924002  -0.30957547  0.43610974  1.0
  Na  Na3  1  0.81389026  0.70577429  -0.07924002  1.0
  Ca  Ca4  1  1.00006092  0.00006092  -0.00006092  1.0
  Ca  Ca5  1  0.25006092  0.25006092  0.24993908  1.0
  H  H6  1  0.64298239  0.41043678  0.31320890  1.0
  H  H7  1  0.93679110  0.61662807  -0.39298239  1.0
  H  H8  1  0.41043678  0.64298239  -0.36662807  1.0
  H  H9  1  0.61662807  0.93679110  -0.16043678  1.0
  H  H10  1  0.46529946  -0.06675286  0.51064752  1.0
  H  H11  1  0.73935248  1.15919413  -0.21529946  1.0
  H  H12  1  -0.06675286  0.46529946  0.09080587  1.0
  H  H13  1  1.15919413  0.73935248  -0.68324714  1.0
  C  C14  1  0.31638493  0.20124475  0.45694443  1.0
  C  C15  1  0.79305557  0.22457411  -0.06638493  1.0
  C  C16  1  0.20124475  0.31638493  0.02542589  1.0
  C  C17  1  0.22457411  0.79305557  0.04875525  1.0
  O  O18  1  0.37094221  0.42665121  0.32083300  1.0
  O  O19  1  0.92916700  0.36842642  -0.12094221  1.0
  O  O20  1  0.42665121  0.37094221  -0.11842642  1.0
  O  O21  1  0.36842642  0.92916700  -0.17665121  1.0
  O  O22  1  0.34880130  0.16748056  0.55038214  1.0
  O  O23  1  0.69961786  0.31666400  -0.09880130  1.0
  O  O24  1  0.16748056  0.34880130  -0.06666400  1.0
  O  O25  1  0.31666400  0.69961786  0.08251944  1.0
  O  O26  1  0.81848041  0.54726100  0.16747753  1.0
  O  O27  1  1.08252247  0.78321894  -0.56848041  1.0
  O  O28  1  0.54726100  0.81848041  -0.53321894  1.0
  O  O29  1  0.78321894  1.08252247  -0.29726100  1.0
  O  O30  1  0.23178608  0.00927631  0.49771063  1.0
  O  O31  1  0.75228937  -0.01122699  0.01821392  1.0
  O  O32  1  0.00927631  0.23178608  0.26122699  1.0
  O  O33  1  -0.01122699  0.75228937  0.24072369  1.0
