# generated using pymatgen
data_ZnP4
_symmetry_space_group_name_H-M   'P 1'
_cell_length_a   5.04861705
_cell_length_b   5.04861705
_cell_length_c   14.63709923
_cell_angle_alpha   90.00000000
_cell_angle_beta   90.00000000
_cell_angle_gamma   90.00000000
_symmetry_Int_Tables_number   1
_chemical_formula_structural   ZnP4
_chemical_formula_sum   'Zn4 P16'
_cell_volume   373.07820377
_cell_formula_units_Z   4
loop_
 _symmetry_equiv_pos_site_id
 _symmetry_equiv_pos_as_xyz
  1  'x, y, z'
loop_
 _atom_site_type_symbol
 _atom_site_label
 _atom_site_symmetry_multiplicity
 _atom_site_fract_x
 _atom_site_fract_y
 _atom_site_fract_z
 _atom_site_occupancy
  Zn  Zn0  1  0.19772984  0.80227016  0.25000000  1.0
  Zn  Zn1  1  0.69772984  0.69772984  0.50000000  1.0
  Zn  Zn2  1  0.80227016  0.19772984  0.75000000  1.0
  Zn  Zn3  1  0.30227016  0.30227016  0.00000000  1.0
  P  P4  1  0.48709759  0.59843095  0.12520216  1.0
  P  P5  1  0.98709759  0.90156905  0.62479784  1.0
  P  P6  1  0.40156905  0.51290241  0.37479784  1.0
  P  P7  1  0.90156905  0.98709759  0.37520216  1.0
  P  P8  1  0.51290241  0.40156905  0.62520216  1.0
  P  P9  1  0.01290241  0.09843095  0.12479784  1.0
  P  P10  1  0.59843095  0.48709759  0.87479784  1.0
  P  P11  1  0.09843095  0.01290241  0.87520216  1.0
  P  P12  1  0.42436538  0.82011563  0.79894172  1.0
  P  P13  1  0.92436538  0.67988437  0.95105828  1.0
  P  P14  1  0.17988437  0.57563462  0.70105828  1.0
  P  P15  1  0.67988437  0.92436538  0.04894172  1.0
  P  P16  1  0.57563462  0.17988437  0.29894172  1.0
  P  P17  1  0.07563462  0.32011563  0.45105828  1.0
  P  P18  1  0.82011563  0.42436538  0.20105828  1.0
  P  P19  1  0.32011563  0.07563462  0.54894172  1.0
