# generated using pymatgen
data_Tl2SnTe3
_symmetry_space_group_name_H-M   'P 1'
_cell_length_a   8.59634490
_cell_length_b   22.60792397
_cell_length_c   8.81583026
_cell_angle_alpha   90.00000000
_cell_angle_beta   90.00000000
_cell_angle_gamma   90.00000000
_symmetry_Int_Tables_number   1
_chemical_formula_structural   Tl2SnTe3
_chemical_formula_sum   'Tl16 Sn8 Te24'
_cell_volume   1713.31704497
_cell_formula_units_Z   8
loop_
 _symmetry_equiv_pos_site_id
 _symmetry_equiv_pos_as_xyz
  1  'x, y, z'
loop_
 _atom_site_type_symbol
 _atom_site_label
 _atom_site_symmetry_multiplicity
 _atom_site_fract_x
 _atom_site_fract_y
 _atom_site_fract_z
 _atom_site_occupancy
  Tl  Tl0  1  0.23597438  0.99282451  0.95648965  1.0
  Tl  Tl1  1  0.23597438  0.50717549  0.95648965  1.0
  Tl  Tl2  1  0.73597438  0.99282451  0.54351035  1.0
  Tl  Tl3  1  0.73597438  0.50717549  0.54351035  1.0
  Tl  Tl4  1  0.76402562  0.49282451  0.04351035  1.0
  Tl  Tl5  1  0.76402562  0.00717549  0.04351035  1.0
  Tl  Tl6  1  0.26402562  0.49282451  0.45648965  1.0
  Tl  Tl7  1  0.26402562  0.00717549  0.45648965  1.0
  Tl  Tl8  1  0.32194680  0.33311636  0.51939441  1.0
  Tl  Tl9  1  0.32194680  0.16688364  0.51939441  1.0
  Tl  Tl10  1  0.82194680  0.33311636  0.98060559  1.0
  Tl  Tl11  1  0.82194680  0.16688364  0.98060559  1.0
  Tl  Tl12  1  0.67805320  0.83311636  0.48060559  1.0
  Tl  Tl13  1  0.67805320  0.66688364  0.48060559  1.0
  Tl  Tl14  1  0.17805320  0.83311636  0.01939441  1.0
  Tl  Tl15  1  0.17805320  0.66688364  0.01939441  1.0
  Sn  Sn16  1  0.32782758  0.33459272  0.01160303  1.0
  Sn  Sn17  1  0.32782758  0.16540728  0.01160303  1.0
  Sn  Sn18  1  0.82782758  0.33459272  0.48839697  1.0
  Sn  Sn19  1  0.82782758  0.16540728  0.48839697  1.0
  Sn  Sn20  1  0.67217242  0.83459272  0.98839697  1.0
  Sn  Sn21  1  0.67217242  0.66540728  0.98839697  1.0
  Sn  Sn22  1  0.17217242  0.83459272  0.51160303  1.0
  Sn  Sn23  1  0.17217242  0.66540728  0.51160303  1.0
  Te  Te24  1  0.38615061  0.89511376  0.69274760  1.0
  Te  Te25  1  0.38615061  0.60488624  0.69274760  1.0
  Te  Te26  1  0.88615061  0.89511376  0.80725240  1.0
  Te  Te27  1  0.88615061  0.60488624  0.80725240  1.0
  Te  Te28  1  0.61384939  0.39511376  0.30725240  1.0
  Te  Te29  1  0.61384939  0.10488624  0.30725240  1.0
  Te  Te30  1  0.11384939  0.39511376  0.19274760  1.0
  Te  Te31  1  0.11384939  0.10488624  0.19274760  1.0
  Te  Te32  1  0.49690780  0.41168038  0.82394047  1.0
  Te  Te33  1  0.49690780  0.08831962  0.82394047  1.0
  Te  Te34  1  0.99690780  0.41168038  0.67605953  1.0
  Te  Te35  1  0.99690780  0.08831962  0.67605953  1.0
  Te  Te36  1  0.50309220  0.91168038  0.17605953  1.0
  Te  Te37  1  0.50309220  0.58831962  0.17605953  1.0
  Te  Te38  1  0.00309220  0.91168038  0.32394047  1.0
  Te  Te39  1  0.00309220  0.58831962  0.32394047  1.0
  Te  Te40  1  0.15797568  0.25000000  0.83307623  1.0
  Te  Te41  1  0.65797568  0.25000000  0.66692377  1.0
  Te  Te42  1  0.84202432  0.75000000  0.16692377  1.0
  Te  Te43  1  0.34202432  0.75000000  0.33307623  1.0
  Te  Te44  1  0.50501796  0.25000000  0.17990452  1.0
  Te  Te45  1  1.00501796  0.25000000  0.32009548  1.0
  Te  Te46  1  0.49498204  0.75000000  0.82009548  1.0
  Te  Te47  1  -0.00501796  0.75000000  0.67990452  1.0
