# generated using pymatgen
data_Hf3Si3Ni2
_symmetry_space_group_name_H-M   'P 1'
_cell_length_a   5.29802158
_cell_length_b   5.29802158
_cell_length_c   12.92131115
_cell_angle_alpha   90.00000000
_cell_angle_beta   90.00000000
_cell_angle_gamma   137.43431405
_symmetry_Int_Tables_number   1
_chemical_formula_structural   Hf3Si3Ni2
_chemical_formula_sum   'Hf6 Si6 Ni4'
_cell_volume   245.33533587
_cell_formula_units_Z   2
loop_
 _symmetry_equiv_pos_site_id
 _symmetry_equiv_pos_as_xyz
  1  'x, y, z'
loop_
 _atom_site_type_symbol
 _atom_site_label
 _atom_site_symmetry_multiplicity
 _atom_site_fract_x
 _atom_site_fract_y
 _atom_site_fract_z
 _atom_site_occupancy
  Hf  Hf0  1  0.07261150  0.92738850  0.88181693  1.0
  Hf  Hf1  1  0.07261150  0.92738850  0.61818307  1.0
  Hf  Hf2  1  -0.07261150  0.07261150  0.38181693  1.0
  Hf  Hf3  1  -0.07261150  0.07261150  0.11818307  1.0
  Hf  Hf4  1  0.36595496  0.63404504  0.75000000  1.0
  Hf  Hf5  1  -0.36595496  0.36595496  0.25000000  1.0
  Si  Si6  1  0.38892674  0.61107326  0.95933548  1.0
  Si  Si7  1  0.38892674  0.61107326  0.54066452  1.0
  Si  Si8  1  -0.38892674  0.38892674  0.45933548  1.0
  Si  Si9  1  -0.38892674  0.38892674  0.04066452  1.0
  Si  Si10  1  -0.33943655  0.33943655  0.75000000  1.0
  Si  Si11  1  0.33943655  0.66056345  0.25000000  1.0
  Ni  Ni12  1  0.21903744  0.78096256  0.41178079  1.0
  Ni  Ni13  1  0.21903744  0.78096256  0.08821921  1.0
  Ni  Ni14  1  -0.21903744  0.21903744  0.91178079  1.0
  Ni  Ni15  1  -0.21903744  0.21903744  0.58821921  1.0
