# generated using pymatgen
data_Gd2(Ga3Ru)3
_symmetry_space_group_name_H-M   'P 1'
_cell_length_a   7.49353774
_cell_length_b   7.49353774
_cell_length_c   9.76421025
_cell_angle_alpha   90.00000000
_cell_angle_beta   90.00000000
_cell_angle_gamma   60.90807375
_symmetry_Int_Tables_number   1
_chemical_formula_structural   Gd2(Ga3Ru)3
_chemical_formula_sum   'Gd4 Ga18 Ru6'
_cell_volume   479.11879936
_cell_formula_units_Z   2
loop_
 _symmetry_equiv_pos_site_id
 _symmetry_equiv_pos_as_xyz
  1  'x, y, z'
loop_
 _atom_site_type_symbol
 _atom_site_label
 _atom_site_symmetry_multiplicity
 _atom_site_fract_x
 _atom_site_fract_y
 _atom_site_fract_z
 _atom_site_occupancy
  Gd  Gd0  1  -0.00210902  1.32536474  0.25000000  1.0
  Gd  Gd1  1  0.32536474  0.99789098  0.75000000  1.0
  Gd  Gd2  1  -0.32536474  1.00210902  0.25000000  1.0
  Gd  Gd3  1  0.00210902  0.67463526  0.75000000  1.0
  Ga  Ga4  1  0.00944207  0.66244084  0.42449858  1.0
  Ga  Ga5  1  0.00944207  0.66244084  0.07550142  1.0
  Ga  Ga6  1  -0.33755916  1.00944207  0.92449858  1.0
  Ga  Ga7  1  -0.33755916  1.00944207  0.57550142  1.0
  Ga  Ga8  1  0.33755916  0.99055793  0.42449858  1.0
  Ga  Ga9  1  0.33755916  0.99055793  0.07550142  1.0
  Ga  Ga10  1  -0.00944207  1.33755916  0.92449858  1.0
  Ga  Ga11  1  -0.00944207  1.33755916  0.57550142  1.0
  Ga  Ga12  1  0.33929863  0.44640759  0.25000000  1.0
  Ga  Ga13  1  -0.55359241  1.33929863  0.75000000  1.0
  Ga  Ga14  1  0.55359241  0.66070137  0.25000000  1.0
  Ga  Ga15  1  -0.33929863  1.55359241  0.75000000  1.0
  Ga  Ga16  1  0.33867857  0.66132143  0.93954233  1.0
  Ga  Ga17  1  0.33867857  0.66132143  0.56045767  1.0
  Ga  Ga18  1  -0.33867857  1.33867857  0.43954233  1.0
  Ga  Ga19  1  -0.33867857  1.33867857  0.06045767  1.0
  Ga  Ga20  1  0.13307472  0.86692528  0.25000000  1.0
  Ga  Ga21  1  -0.13307472  1.13307472  0.75000000  1.0
  Ru  Ru22  1  0.00000000  0.00000000  0.50000000  1.0
  Ru  Ru23  1  0.00000000  0.00000000  0.00000000  1.0
  Ru  Ru24  1  0.67588956  0.67588956  0.50000000  1.0
  Ru  Ru25  1  0.67588956  0.67588956  0.00000000  1.0
  Ru  Ru26  1  0.32411044  0.32411044  0.50000000  1.0
  Ru  Ru27  1  0.32411044  0.32411044  0.00000000  1.0
