# generated using pymatgen
data_SmMgPb
_symmetry_space_group_name_H-M   'P 1'
_cell_length_a   8.84399317
_cell_length_b   8.84399317
_cell_length_c   8.84399317
_cell_angle_alpha   149.84626504
_cell_angle_beta   149.84626504
_cell_angle_gamma   43.16711580
_symmetry_Int_Tables_number   1
_chemical_formula_structural   SmMgPb
_chemical_formula_sum   'Sm2 Mg2 Pb2'
_cell_volume   174.08559022
_cell_formula_units_Z   2
loop_
 _symmetry_equiv_pos_site_id
 _symmetry_equiv_pos_as_xyz
  1  'x, y, z'
loop_
 _atom_site_type_symbol
 _atom_site_label
 _atom_site_symmetry_multiplicity
 _atom_site_fract_x
 _atom_site_fract_y
 _atom_site_fract_z
 _atom_site_occupancy
  Sm  Sm0  1  0.50000000  0.00000000  0.50000000  1.0
  Sm  Sm1  1  -0.00000000  0.50000000  0.50000000  1.0
  Mg  Mg2  1  0.67319774  0.67319774  1.00000000  1.0
  Mg  Mg3  1  0.32680226  0.32680226  0.00000000  1.0
  Pb  Pb4  1  0.85162366  0.85162366  1.00000000  1.0
  Pb  Pb5  1  0.14837634  0.14837634  0.00000000  1.0
