# generated using pymatgen
data_CaGa4O7
_symmetry_space_group_name_H-M   'P 1'
_cell_length_a   8.07016356
_cell_length_b   8.07016356
_cell_length_c   5.67541410
_cell_angle_alpha   78.17330417
_cell_angle_beta   101.82669583
_cell_angle_gamma   110.40072813
_symmetry_Int_Tables_number   1
_chemical_formula_structural   CaGa4O7
_chemical_formula_sum   'Ca2 Ga8 O14'
_cell_volume   335.47753481
_cell_formula_units_Z   2
loop_
 _symmetry_equiv_pos_site_id
 _symmetry_equiv_pos_as_xyz
  1  'x, y, z'
loop_
 _atom_site_type_symbol
 _atom_site_label
 _atom_site_symmetry_multiplicity
 _atom_site_fract_x
 _atom_site_fract_y
 _atom_site_fract_z
 _atom_site_occupancy
  Ca  Ca0  1  0.70890406  -0.29109594  0.75000000  1.0
  Ca  Ca1  1  1.29109594  0.29109594  0.25000000  1.0
  Ga  Ga2  1  0.18570318  -0.05652727  0.74479120  1.0
  Ga  Ga3  1  1.05652727  0.81429682  0.24479120  1.0
  Ga  Ga4  1  0.94347273  -0.81429682  0.75520880  1.0
  Ga  Ga5  1  1.81429682  0.05652727  0.25520880  1.0
  Ga  Ga6  1  1.57495161  0.25575716  0.81562509  1.0
  Ga  Ga7  1  0.74424284  -0.57495161  0.31562509  1.0
  Ga  Ga8  1  1.25575716  0.57495161  0.68437491  1.0
  Ga  Ga9  1  0.42504839  -0.25575716  0.18437491  1.0
  O  O10  1  0.45404673  -0.31816574  0.90197572  1.0
  O  O11  1  1.31816574  0.54595327  0.40197572  1.0
  O  O12  1  0.68183426  -0.54595327  0.59802428  1.0
  O  O13  1  1.54595327  0.31816574  0.09802428  1.0
  O  O14  1  1.74518227  0.13098627  0.92020824  1.0
  O  O15  1  0.86901373  -0.74518227  0.42020824  1.0
  O  O16  1  1.13098627  0.74518227  0.57979176  1.0
  O  O17  1  0.25481773  -0.13098627  0.07979176  1.0
  O  O18  1  1.36411553  0.13874697  0.63432159  1.0
  O  O19  1  0.86125303  -0.36411553  0.13432159  1.0
  O  O20  1  1.13874697  0.36411553  0.86567841  1.0
  O  O21  1  0.63588447  -0.13874697  0.36567841  1.0
  O  O22  1  0.96406547  -0.03593453  0.75000000  1.0
  O  O23  1  1.03593453  0.03593453  0.25000000  1.0
