# generated using pymatgen
data_Cs2Xe
_symmetry_space_group_name_H-M   'P 1'
_cell_length_a   11.13276099
_cell_length_b   11.13276099
_cell_length_c   11.13276099
_cell_angle_alpha   150.82906243
_cell_angle_beta   150.66806726
_cell_angle_gamma   41.84383737
_symmetry_Int_Tables_number   1
_chemical_formula_structural   Cs2Xe
_chemical_formula_sum   'Cs2 Xe1'
_cell_volume   328.68450113
_cell_formula_units_Z   1
loop_
 _symmetry_equiv_pos_site_id
 _symmetry_equiv_pos_as_xyz
  1  'x, y, z'
loop_
 _atom_site_type_symbol
 _atom_site_label
 _atom_site_symmetry_multiplicity
 _atom_site_fract_x
 _atom_site_fract_y
 _atom_site_fract_z
 _atom_site_occupancy
  Cs  Cs0  1  0.33706683  0.83706683  0.50000000  1.0
  Cs  Cs1  1  0.66293317  0.16293317  0.50000000  1.0
  Xe  Xe2  1  -0.00000000  0.50000000  0.50000000  1.0
