# generated using pymatgen
data_Si
_symmetry_space_group_name_H-M   'P 1'
_cell_length_a   5.76618134
_cell_length_b   5.76618134
_cell_length_c   5.76618134
_cell_angle_alpha   109.47122063
_cell_angle_beta   109.47122063
_cell_angle_gamma   109.47122063
_symmetry_Int_Tables_number   1
_chemical_formula_structural   Si
_chemical_formula_sum   Si8
_cell_volume   147.58526450
_cell_formula_units_Z   8
loop_
 _symmetry_equiv_pos_site_id
 _symmetry_equiv_pos_as_xyz
  1  'x, y, z'
loop_
 _atom_site_type_symbol
 _atom_site_label
 _atom_site_symmetry_multiplicity
 _atom_site_fract_x
 _atom_site_fract_y
 _atom_site_fract_z
 _atom_site_occupancy
  Si  Si0  1  0.79725627  1.50000000  1.00000000  1.0
  Si  Si1  1  1.29725627  1.29725627  1.29725627  1.0
  Si  Si2  1  1.00000000  0.79725627  1.50000000  1.0
  Si  Si3  1  1.50000000  1.00000000  1.20274373  1.0
  Si  Si4  1  1.00000000  1.20274373  1.50000000  1.0
  Si  Si5  1  0.50000000  1.00000000  0.79725627  1.0
  Si  Si6  1  1.20274373  0.50000000  1.00000000  1.0
  Si  Si7  1  0.70274373  0.70274373  0.70274373  1.0
