# generated using pymatgen
data_Ca3Be2P4(HO2)10
_symmetry_space_group_name_H-M   'P 1'
_cell_length_a   7.06793768
_cell_length_b   7.81690043
_cell_length_c   7.42565175
_cell_angle_alpha   101.50184657
_cell_angle_beta   96.61575084
_cell_angle_gamma   94.75914299
_symmetry_Int_Tables_number   1
_chemical_formula_structural   Ca3Be2P4(HO2)10
_chemical_formula_sum   'Ca3 Be2 P4 H10 O20'
_cell_volume   396.97451620
_cell_formula_units_Z   1
loop_
 _symmetry_equiv_pos_site_id
 _symmetry_equiv_pos_as_xyz
  1  'x, y, z'
loop_
 _atom_site_type_symbol
 _atom_site_label
 _atom_site_symmetry_multiplicity
 _atom_site_fract_x
 _atom_site_fract_y
 _atom_site_fract_z
 _atom_site_occupancy
  Ca  Ca0  1  -0.97399185  -0.38653061  -0.70636014  1.0
  Ca  Ca1  1  -0.02600815  -0.61346939  -0.29363986  1.0
  Ca  Ca2  1  0.00000000  0.00000000  0.00000000  1.0
  Be  Be3  1  -0.48205278  -0.42172892  -0.73518190  1.0
  Be  Be4  1  -0.51794722  -0.57827108  -0.26481810  1.0
  P  P5  1  -0.73181572  -0.69632247  -0.64040771  1.0
  P  P6  1  -0.26818428  -0.30367753  -0.35959229  1.0
  P  P7  1  -0.31746003  -0.69811580  -0.95708326  1.0
  P  P8  1  -0.68253997  -0.30188420  -0.04291674  1.0
  H  H9  1  -0.82313747  -0.97034370  -0.34597589  1.0
  H  H10  1  -0.17686253  -0.02965630  -0.65402411  1.0
  H  H11  1  -0.71402784  -0.82909002  -0.18224407  1.0
  H  H12  1  -0.28597216  -0.17090998  -0.81775593  1.0
  H  H13  1  -0.50934061  -0.87481389  -0.84369965  1.0
  H  H14  1  -0.49065939  -0.12518611  -0.15630035  1.0
  H  H15  1  -0.37522654  -0.83365703  -0.47760379  1.0
  H  H16  1  -0.62477346  -0.16634297  -0.52239621  1.0
  H  H17  1  -0.27149342  -0.95788337  -0.36271517  1.0
  H  H18  1  -0.72850658  -0.04211663  -0.63728483  1.0
  O  O19  1  -0.93074413  -0.66415846  -0.58342760  1.0
  O  O20  1  -0.06925587  -0.33584154  -0.41657240  1.0
  O  O21  1  -0.88262464  -0.28133634  -0.98383511  1.0
  O  O22  1  -0.11737536  -0.71866366  -0.01616489  1.0
  O  O23  1  -0.84616643  -0.87833394  -0.23982344  1.0
  O  O24  1  -0.15383357  -0.12166606  -0.76017656  1.0
  O  O25  1  -0.73429424  -0.87566351  -0.77901213  1.0
  O  O26  1  -0.26570576  -0.12433649  -0.22098787  1.0
  O  O27  1  -0.68015313  -0.54258329  -0.74059443  1.0
  O  O28  1  -0.31984687  -0.45741671  -0.25940557  1.0
  O  O29  1  -0.57855829  -0.69743346  -0.47244538  1.0
  O  O30  1  -0.42144171  -0.30256654  -0.52755462  1.0
  O  O31  1  -0.52339273  -0.29069901  -0.87879544  1.0
  O  O32  1  -0.47660727  -0.70930099  -0.12120456  1.0
  O  O33  1  -0.37074074  -0.85954307  -0.86461667  1.0
  O  O34  1  -0.62925926  -0.14045693  -0.13538333  1.0
  O  O35  1  -0.30232450  -0.52496070  -0.80714432  1.0
  O  O36  1  -0.69767550  -0.47503930  -0.19285568  1.0
  O  O37  1  -0.25013621  -0.87733929  -0.44815429  1.0
  O  O38  1  -0.74986379  -0.12266071  -0.55184571  1.0
