# generated using pymatgen
data_KMnO2
_symmetry_space_group_name_H-M   'P 1'
_cell_length_a   6.25878707
_cell_length_b   6.25878707
_cell_length_c   6.25878707
_cell_angle_alpha   151.29518683
_cell_angle_beta   151.29518683
_cell_angle_gamma   41.04346794
_symmetry_Int_Tables_number   1
_chemical_formula_structural   KMnO2
_chemical_formula_sum   'K1 Mn1 O2'
_cell_volume   56.43620996
_cell_formula_units_Z   1
loop_
 _symmetry_equiv_pos_site_id
 _symmetry_equiv_pos_as_xyz
  1  'x, y, z'
loop_
 _atom_site_type_symbol
 _atom_site_label
 _atom_site_symmetry_multiplicity
 _atom_site_fract_x
 _atom_site_fract_y
 _atom_site_fract_z
 _atom_site_occupancy
  K  K0  1  0.00000000  0.00000000  0.00000000  1.0
  Mn  Mn1  1  0.75000000  0.25000000  0.50000000  1.0
  O  O2  1  0.65404343  0.65404343  1.00000000  1.0
  O  O3  1  0.34595657  0.34595657  -0.00000000  1.0
