# generated using pymatgen
data_KBa4Au(CO)4
_symmetry_space_group_name_H-M   'P 1'
_cell_length_a   8.86213059
_cell_length_b   8.86213059
_cell_length_c   8.86213059
_cell_angle_alpha   139.54265350
_cell_angle_beta   139.54265350
_cell_angle_gamma   58.54837680
_symmetry_Int_Tables_number   1
_chemical_formula_structural   KBa4Au(CO)4
_chemical_formula_sum   'K1 Ba4 Au1 C4 O4'
_cell_volume   290.33826958
_cell_formula_units_Z   1
loop_
 _symmetry_equiv_pos_site_id
 _symmetry_equiv_pos_as_xyz
  1  'x, y, z'
loop_
 _atom_site_type_symbol
 _atom_site_label
 _atom_site_symmetry_multiplicity
 _atom_site_fract_x
 _atom_site_fract_y
 _atom_site_fract_z
 _atom_site_occupancy
  K  K0  1  0.00000000  0.00000000  0.00000000  1.0
  Ba  Ba1  1  0.38189130  0.88189130  0.50000000  1.0
  Ba  Ba2  1  0.61810870  0.11810870  0.50000000  1.0
  Ba  Ba3  1  0.88189130  0.38189130  0.50000000  1.0
  Ba  Ba4  1  0.11810870  0.61810870  0.50000000  1.0
  Au  Au5  1  0.50000000  0.50000000  1.00000000  1.0
  C  C6  1  0.80702350  0.80702350  1.00000000  1.0
  C  C7  1  0.19297650  0.19297650  -0.00000000  1.0
  C  C8  1  0.72499759  0.72499759  1.00000000  1.0
  C  C9  1  0.27500241  0.27500241  -0.00000000  1.0
  O  O10  1  0.72914541  0.72914541  1.45829082  1.0
  O  O11  1  0.27085459  0.72914541  1.00000000  1.0
  O  O12  1  0.72914541  0.27085459  1.00000000  1.0
  O  O13  1  0.27085459  0.27085459  0.54170918  1.0
