# generated using pymatgen
data_CsHSeO4
_symmetry_space_group_name_H-M   'P 1'
_cell_length_a   8.12928872
_cell_length_b   8.61770824
_cell_length_c   8.04224741
_cell_angle_alpha   90.00000000
_cell_angle_beta   109.71125770
_cell_angle_gamma   90.00000000
_symmetry_Int_Tables_number   1
_chemical_formula_structural   CsHSeO4
_chemical_formula_sum   'Cs4 H4 Se4 O16'
_cell_volume   530.39318964
_cell_formula_units_Z   4
loop_
 _symmetry_equiv_pos_site_id
 _symmetry_equiv_pos_as_xyz
  1  'x, y, z'
loop_
 _atom_site_type_symbol
 _atom_site_label
 _atom_site_symmetry_multiplicity
 _atom_site_fract_x
 _atom_site_fract_y
 _atom_site_fract_z
 _atom_site_occupancy
  Cs  Cs0  1  0.79342621  0.37374364  0.79694947  1.0
  Cs  Cs1  1  0.79342621  0.12625636  0.29694947  1.0
  Cs  Cs2  1  0.20657379  0.87374364  0.70305053  1.0
  Cs  Cs3  1  0.20657379  0.62625636  0.20305053  1.0
  H  H4  1  0.61438586  0.79620949  1.05179363  1.0
  H  H5  1  0.61438586  0.70379051  0.55179363  1.0
  H  H6  1  0.38561414  0.29620949  0.44820637  1.0
  H  H7  1  0.38561414  0.20379051  -0.05179363  1.0
  Se  Se8  1  0.74826971  0.86983840  0.78678531  1.0
  Se  Se9  1  0.74826971  0.63016160  0.28678531  1.0
  Se  Se10  1  0.25173029  0.36983840  0.71321469  1.0
  Se  Se11  1  0.25173029  0.13016160  0.21321469  1.0
  O  O12  1  0.90254048  0.73849912  0.86302876  1.0
  O  O13  1  0.90254048  0.76150088  0.36302876  1.0
  O  O14  1  0.09745952  0.23849912  0.63697124  1.0
  O  O15  1  0.09745952  0.26150088  0.13697124  1.0
  O  O16  1  0.65630063  0.92645008  0.93295305  1.0
  O  O17  1  0.65630063  0.57354992  0.43295305  1.0
  O  O18  1  0.34369937  0.42645008  0.56704695  1.0
  O  O19  1  0.34369937  0.07354992  0.06704695  1.0
  O  O20  1  0.56950832  0.77643216  0.62836831  1.0
  O  O21  1  0.56950832  0.72356784  0.12836831  1.0
  O  O22  1  0.43049168  0.27643216  0.87163169  1.0
  O  O23  1  0.43049168  0.22356784  0.37163169  1.0
  O  O24  1  0.19112963  0.51761652  0.80785173  1.0
  O  O25  1  0.19112963  0.98238348  0.30785173  1.0
  O  O26  1  0.80887037  0.01761652  0.69214827  1.0
  O  O27  1  0.80887037  0.48238348  0.19214827  1.0
