# generated using pymatgen
data_LiTaGeO5
_symmetry_space_group_name_H-M   'P 1'
_cell_length_a   5.60831013
_cell_length_b   5.60831013
_cell_length_c   7.56332342
_cell_angle_alpha   70.33481743
_cell_angle_beta   109.66518257
_cell_angle_gamma   86.21335876
_symmetry_Int_Tables_number   1
_chemical_formula_structural   LiTaGeO5
_chemical_formula_sum   'Li2 Ta2 Ge2 O10'
_cell_volume   206.59301780
_cell_formula_units_Z   2
loop_
 _symmetry_equiv_pos_site_id
 _symmetry_equiv_pos_as_xyz
  1  'x, y, z'
loop_
 _atom_site_type_symbol
 _atom_site_label
 _atom_site_symmetry_multiplicity
 _atom_site_fract_x
 _atom_site_fract_y
 _atom_site_fract_z
 _atom_site_occupancy
  Li  Li0  1  0.69205779  -0.30794221  0.25000000  1.0
  Li  Li1  1  1.30794221  0.30794221  0.75000000  1.0
  Ta  Ta2  1  0.00000000  -0.00000000  0.50000000  1.0
  Ta  Ta3  1  0.00000000  0.00000000  0.00000000  1.0
  Ge  Ge4  1  1.36044443  0.36044443  0.25000000  1.0
  Ge  Ge5  1  0.63955557  -0.36044443  0.75000000  1.0
  O  O6  1  0.30504132  -0.29780362  0.15034165  1.0
  O  O7  1  1.29780362  0.69495868  0.65034165  1.0
  O  O8  1  0.70219638  -0.69495868  0.34965835  1.0
  O  O9  1  1.69495868  0.29780362  0.84965835  1.0
  O  O10  1  1.23682148  0.23698365  0.44162722  1.0
  O  O11  1  0.76301635  -0.23682148  0.94162722  1.0
  O  O12  1  1.23698365  0.23682148  0.05837278  1.0
  O  O13  1  0.76317852  -0.23698365  0.55837278  1.0
  O  O14  1  0.93289386  -0.06710614  0.25000000  1.0
  O  O15  1  1.06710614  0.06710614  0.75000000  1.0
