# generated using pymatgen
data_MgCN2
_symmetry_space_group_name_H-M   'P 1'
_cell_length_a   5.09884240
_cell_length_b   5.09884240
_cell_length_c   5.09884240
_cell_angle_alpha   37.72005383
_cell_angle_beta   37.72005383
_cell_angle_gamma   37.72005383
_symmetry_Int_Tables_number   1
_chemical_formula_structural   MgCN2
_chemical_formula_sum   'Mg1 C1 N2'
_cell_volume   44.51651199
_cell_formula_units_Z   1
loop_
 _symmetry_equiv_pos_site_id
 _symmetry_equiv_pos_as_xyz
  1  'x, y, z'
loop_
 _atom_site_type_symbol
 _atom_site_label
 _atom_site_symmetry_multiplicity
 _atom_site_fract_x
 _atom_site_fract_y
 _atom_site_fract_z
 _atom_site_occupancy
  Mg  Mg0  1  1.50000000  0.50000000  0.50000000  1.0
  C  C1  1  0.00000000  0.00000000  0.00000000  1.0
  N  N2  1  0.91323555  0.91323555  0.91323555  1.0
  N  N3  1  1.08676445  1.08676445  0.08676445  1.0
