# generated using pymatgen
data_BiAuO2
_symmetry_space_group_name_H-M   'P 1'
_cell_length_a   6.51805570
_cell_length_b   3.69163016
_cell_length_c   6.73207399
_cell_angle_alpha   90.00000000
_cell_angle_beta   116.19012959
_cell_angle_gamma   90.00000000
_symmetry_Int_Tables_number   1
_chemical_formula_structural   BiAuO2
_chemical_formula_sum   'Bi2 Au2 O4'
_cell_volume   145.35817372
_cell_formula_units_Z   2
loop_
 _symmetry_equiv_pos_site_id
 _symmetry_equiv_pos_as_xyz
  1  'x, y, z'
loop_
 _atom_site_type_symbol
 _atom_site_label
 _atom_site_symmetry_multiplicity
 _atom_site_fract_x
 _atom_site_fract_y
 _atom_site_fract_z
 _atom_site_occupancy
  Bi  Bi0  1  0.93625890  0.75000000  0.23491462  1.0
  Bi  Bi1  1  0.06374110  0.25000000  0.76508538  1.0
  Au  Au2  1  0.52859451  0.75000000  0.69261368  1.0
  Au  Au3  1  0.47140549  0.25000000  0.30738632  1.0
  O  O4  1  0.87479126  0.75000000  0.80939544  1.0
  O  O5  1  0.12520874  0.25000000  0.19060456  1.0
  O  O6  1  0.18519358  0.75000000  0.59194811  1.0
  O  O7  1  0.81480642  0.25000000  0.40805189  1.0
