# generated using pymatgen
data_MoI2
_symmetry_space_group_name_H-M   'P 1'
_cell_length_a   10.68652576
_cell_length_b   10.68652576
_cell_length_c   12.84687996
_cell_angle_alpha   90.00000000
_cell_angle_beta   90.00000000
_cell_angle_gamma   73.96564104
_symmetry_Int_Tables_number   1
_chemical_formula_structural   MoI2
_chemical_formula_sum   'Mo12 I24'
_cell_volume   1410.06006797
_cell_formula_units_Z   12
loop_
 _symmetry_equiv_pos_site_id
 _symmetry_equiv_pos_as_xyz
  1  'x, y, z'
loop_
 _atom_site_type_symbol
 _atom_site_label
 _atom_site_symmetry_multiplicity
 _atom_site_fract_x
 _atom_site_fract_y
 _atom_site_fract_z
 _atom_site_occupancy
  Mo  Mo0  1  -0.37007136  1.37007136  0.43090035  1.0
  Mo  Mo1  1  0.12992864  0.87007136  0.06909965  1.0
  Mo  Mo2  1  0.37007136  0.62992864  0.56909965  1.0
  Mo  Mo3  1  -0.12992864  1.12992864  0.93090035  1.0
  Mo  Mo4  1  -0.06912816  1.06912816  0.12997328  1.0
  Mo  Mo5  1  0.43087184  0.56912816  0.37002672  1.0
  Mo  Mo6  1  0.06912816  0.93087184  0.87002672  1.0
  Mo  Mo7  1  -0.43087184  1.43087184  0.62997328  1.0
  Mo  Mo8  1  0.38909323  1.38909323  0.50000000  1.0
  Mo  Mo9  1  -0.11090677  0.88909323  0.00000000  1.0
  Mo  Mo10  1  -0.38909323  0.61090677  0.50000000  1.0
  Mo  Mo11  1  0.11090677  1.11090677  0.00000000  1.0
  I  I12  1  0.44856608  1.32023949  0.29103389  1.0
  I  I13  1  -0.05143392  0.82023949  0.20896611  1.0
  I  I14  1  0.32023949  1.44856608  0.70896611  1.0
  I  I15  1  -0.17976051  0.94856608  0.79103389  1.0
  I  I16  1  -0.32023949  0.55143392  0.29103389  1.0
  I  I17  1  0.17976051  1.05143392  0.20896611  1.0
  I  I18  1  -0.44856608  0.67976051  0.70896611  1.0
  I  I19  1  0.05143392  1.17976051  0.79103389  1.0
  I  I20  1  0.40699068  0.82442528  0.43580743  1.0
  I  I21  1  -0.09300932  1.32442528  0.06419257  1.0
  I  I22  1  -0.17557472  1.40699068  0.56419257  1.0
  I  I23  1  0.32442528  0.90699068  0.93580743  1.0
  I  I24  1  0.17557472  0.59300932  0.43580743  1.0
  I  I25  1  -0.32442528  1.09300932  0.06419257  1.0
  I  I26  1  -0.40699068  1.17557472  0.56419257  1.0
  I  I27  1  0.09300932  0.67557472  0.93580743  1.0
  I  I28  1  -0.16024539  1.16024539  0.33986978  1.0
  I  I29  1  0.33975461  0.66024539  0.16013022  1.0
  I  I30  1  0.16024539  0.83975461  0.66013022  1.0
  I  I31  1  -0.33975461  1.33975461  0.83986978  1.0
  I  I32  1  0.22221057  1.22221057  0.50000000  1.0
  I  I33  1  -0.27778943  0.72221057  0.00000000  1.0
  I  I34  1  -0.22221057  0.77778943  0.50000000  1.0
  I  I35  1  0.27778943  1.27778943  0.00000000  1.0
