# generated using pymatgen
data_NaLi5N2
_symmetry_space_group_name_H-M   'P 1'
_cell_length_a   3.82870178
_cell_length_b   3.60713109
_cell_length_c   7.58835331
_cell_angle_alpha   90.00000000
_cell_angle_beta   104.20594475
_cell_angle_gamma   90.00000000
_symmetry_Int_Tables_number   1
_chemical_formula_structural   NaLi5N2
_chemical_formula_sum   'Na1 Li5 N2'
_cell_volume   101.59514065
_cell_formula_units_Z   1
loop_
 _symmetry_equiv_pos_site_id
 _symmetry_equiv_pos_as_xyz
  1  'x, y, z'
loop_
 _atom_site_type_symbol
 _atom_site_label
 _atom_site_symmetry_multiplicity
 _atom_site_fract_x
 _atom_site_fract_y
 _atom_site_fract_z
 _atom_site_occupancy
  Na  Na0  1  0.73965962  0.50000000  0.87340582  1.0
  Li  Li1  1  0.93086785  0.50000000  0.24278805  1.0
  Li  Li2  1  0.57420617  0.50000000  0.53899295  1.0
  Li  Li3  1  0.49039032  0.00000000  0.36305766  1.0
  Li  Li4  1  0.12782051  0.00000000  0.64714205  1.0
  Li  Li5  1  0.34725318  0.00000000  0.07756983  1.0
  N  N6  1  0.41089583  0.50000000  0.20194828  1.0
  N  N7  1  0.62290652  0.00000000  0.63709536  1.0
