# generated using pymatgen
data_GeRh2
_symmetry_space_group_name_H-M   'P 1'
_cell_length_a   5.51128746
_cell_length_b   4.04580788
_cell_length_c   7.64267562
_cell_angle_alpha   90.00000000
_cell_angle_beta   90.00000000
_cell_angle_gamma   90.00000000
_symmetry_Int_Tables_number   1
_chemical_formula_structural   GeRh2
_chemical_formula_sum   'Ge4 Rh8'
_cell_volume   170.41340234
_cell_formula_units_Z   4
loop_
 _symmetry_equiv_pos_site_id
 _symmetry_equiv_pos_as_xyz
  1  'x, y, z'
loop_
 _atom_site_type_symbol
 _atom_site_label
 _atom_site_symmetry_multiplicity
 _atom_site_fract_x
 _atom_site_fract_y
 _atom_site_fract_z
 _atom_site_occupancy
  Ge  Ge0  1  0.78722139  0.75000000  0.39579831  1.0
  Ge  Ge1  1  0.28722139  0.75000000  0.10420169  1.0
  Ge  Ge2  1  0.21277861  0.25000000  0.60420169  1.0
  Ge  Ge3  1  0.71277861  0.25000000  0.89579831  1.0
  Rh  Rh4  1  0.97048602  0.75000000  0.70492207  1.0
  Rh  Rh5  1  0.47048602  0.75000000  0.79507793  1.0
  Rh  Rh6  1  0.02951398  0.25000000  0.29507793  1.0
  Rh  Rh7  1  0.52951398  0.25000000  0.20492207  1.0
  Rh  Rh8  1  0.83749308  0.75000000  0.06960402  1.0
  Rh  Rh9  1  0.33749308  0.75000000  0.43039598  1.0
  Rh  Rh10  1  0.16250692  0.25000000  0.93039598  1.0
  Rh  Rh11  1  0.66250692  0.25000000  0.56960402  1.0
