# generated using pymatgen
data_ZnCu2SnS4
_symmetry_space_group_name_H-M   'P 1'
_cell_length_a   6.69784414
_cell_length_b   6.69784414
_cell_length_c   6.69784414
_cell_angle_alpha   131.78983150
_cell_angle_beta   131.78983150
_cell_angle_gamma   70.56116840
_symmetry_Int_Tables_number   1
_chemical_formula_structural   ZnCu2SnS4
_chemical_formula_sum   'Zn1 Cu2 Sn1 S4'
_cell_volume   163.65470297
_cell_formula_units_Z   1
loop_
 _symmetry_equiv_pos_site_id
 _symmetry_equiv_pos_as_xyz
  1  'x, y, z'
loop_
 _atom_site_type_symbol
 _atom_site_label
 _atom_site_symmetry_multiplicity
 _atom_site_fract_x
 _atom_site_fract_y
 _atom_site_fract_z
 _atom_site_occupancy
  Zn  Zn0  1  0.75000000  0.25000000  0.50000000  1.0
  Cu  Cu1  1  0.25000000  0.75000000  0.50000000  1.0
  Cu  Cu2  1  0.00000000  0.00000000  0.00000000  1.0
  Sn  Sn3  1  0.50000000  0.50000000  1.00000000  1.0
  S  S4  1  0.36303325  0.88776779  0.99199977  1.0
  S  S5  1  1.11223221  1.10423197  1.47526546  1.0
  S  S6  1  0.89576803  0.37103349  1.00800023  1.0
  S  S7  1  0.62896651  0.63696675  0.52473454  1.0
