# generated using pymatgen
data_Li2Cu5(Si2O7)2
_symmetry_space_group_name_H-M   'P 1'
_cell_length_a   5.56817410
_cell_length_b   7.92738332
_cell_length_c   7.61275244
_cell_angle_alpha   115.65024307
_cell_angle_beta   107.40689200
_cell_angle_gamma   89.07491265
_symmetry_Int_Tables_number   1
_chemical_formula_structural   Li2Cu5(Si2O7)2
_chemical_formula_sum   'Li2 Si4 Cu5 O14'
_cell_volume   286.52660684
_cell_formula_units_Z   1
loop_
 _symmetry_equiv_pos_site_id
 _symmetry_equiv_pos_as_xyz
  1  'x, y, z'
loop_
 _atom_site_type_symbol
 _atom_site_label
 _atom_site_symmetry_multiplicity
 _atom_site_fract_x
 _atom_site_fract_y
 _atom_site_fract_z
 _atom_site_occupancy
  Si  Si0  1  -0.49321688  -0.85857635  -0.22952871  1.0
  Si  Si1  1  -0.50678312  -0.14142365  -0.77047129  1.0
  Si  Si2  1  -0.19709771  -0.59555558  -0.78724072  1.0
  Si  Si3  1  -0.80290229  -0.40444442  -0.21275928  1.0
  O  O4  1  -0.90120672  -0.57544150  -0.17403450  1.0
  O  O5  1  -0.09879328  -0.42455850  -0.82596550  1.0
  O  O6  1  -0.71275992  -0.45895591  -0.41191456  1.0
  O  O7  1  -0.28724008  -0.54104409  -0.58808544  1.0
  O  O8  1  -0.46053522  -0.71393837  -0.98677849  1.0
  O  O9  1  -0.53946478  -0.28606163  -0.01322151  1.0
  O  O10  1  -0.96814491  -0.73497206  -0.81348055  1.0
  O  O11  1  -0.03185509  -0.26502794  -0.18651945  1.0
  O  O12  1  -0.78692024  -0.95864021  -0.35337110  1.0
  O  O13  1  -0.21307976  -0.04135979  -0.64662890  1.0
  O  O14  1  -0.59089831  -0.26621098  -0.66442783  1.0
  O  O15  1  -0.40910169  -0.73378902  -0.33557217  1.0
  O  O16  1  -0.69841870  -0.98124169  -0.77294532  1.0
  O  O17  1  -0.30158130  -0.01875831  -0.22705468  1.0
  Li  Li18  1  -0.76486784  -0.55150090  -0.89057186  1.0
  Li  Li19  1  -0.23513216  -0.44849910  -0.10942814  1.0
  Cu  Cu20  1  0.00000000  0.00000000  0.00000000  1.0
  Cu  Cu21  1  -0.67320315  -0.71589184  -0.57068321  1.0
  Cu  Cu22  1  -0.32679685  -0.28410816  -0.42931679  1.0
  Cu  Cu23  1  -0.91957320  -0.18622660  -0.61226226  1.0
  Cu  Cu24  1  -0.08042680  -0.81377340  -0.38773774  1.0
