# generated using pymatgen
data_YB2Ir5
_symmetry_space_group_name_H-M   'P 1'
_cell_length_a   2.89818702
_cell_length_b   9.17001781
_cell_length_c   5.16322136
_cell_angle_alpha   90.00000000
_cell_angle_beta   106.30297132
_cell_angle_gamma   90.00000000
_symmetry_Int_Tables_number   1
_chemical_formula_structural   YB2Ir5
_chemical_formula_sum   'Y1 B2 Ir5'
_cell_volume   131.70245921
_cell_formula_units_Z   1
loop_
 _symmetry_equiv_pos_site_id
 _symmetry_equiv_pos_as_xyz
  1  'x, y, z'
loop_
 _atom_site_type_symbol
 _atom_site_label
 _atom_site_symmetry_multiplicity
 _atom_site_fract_x
 _atom_site_fract_y
 _atom_site_fract_z
 _atom_site_occupancy
  Y  Y0  1  0.50000000  0.50000000  -0.00000000  1.0
  B  B1  1  0.50000000  0.17348220  -0.00000000  1.0
  B  B2  1  0.50000000  0.82651780  -0.00000000  1.0
  Ir  Ir3  1  -0.14113546  0.26199605  0.71819642  1.0
  Ir  Ir4  1  -0.14113546  0.73800395  0.71819642  1.0
  Ir  Ir5  1  0.14113546  0.26199605  0.28180358  1.0
  Ir  Ir6  1  0.14113546  0.73800395  0.28180358  1.0
  Ir  Ir7  1  0.00000000  0.00000000  0.00000000  1.0
