# generated using pymatgen
data_V3P
_symmetry_space_group_name_H-M   'P 1'
_cell_length_a   7.01172112
_cell_length_b   7.01172112
_cell_length_c   7.01172112
_cell_angle_alpha   96.49317168
_cell_angle_beta   96.49317168
_cell_angle_gamma   140.69911219
_symmetry_Int_Tables_number   1
_chemical_formula_structural   V3P
_chemical_formula_sum   'V12 P4'
_cell_volume   205.63077710
_cell_formula_units_Z   4
loop_
 _symmetry_equiv_pos_site_id
 _symmetry_equiv_pos_as_xyz
  1  'x, y, z'
loop_
 _atom_site_type_symbol
 _atom_site_label
 _atom_site_symmetry_multiplicity
 _atom_site_fract_x
 _atom_site_fract_y
 _atom_site_fract_z
 _atom_site_occupancy
  V  V0  1  0.65613850  0.64366178  0.82480065  1.0
  V  V1  1  1.16866215  0.34386150  0.98752328  1.0
  V  V2  1  0.81886113  0.83133785  1.17519935  1.0
  V  V3  1  0.35633822  1.18113887  1.01247672  1.0
  V  V4  1  0.84387422  0.50238516  0.36809843  1.0
  V  V5  1  0.52422421  0.15612578  0.65851094  1.0
  V  V6  1  1.13428673  1.47577579  1.63190157  1.0
  V  V7  1  0.49761484  0.86571327  1.34148906  1.0
  V  V8  1  1.44960612  1.47437522  1.41165529  1.0
  V  V9  1  0.96204917  1.55039388  1.02476910  1.0
  V  V10  1  1.06271993  1.03795083  0.58834471  1.0
  V  V11  1  1.52562478  0.93728007  0.97523090  1.0
  P  P12  1  1.69850083  1.96360375  1.68504971  1.0
  P  P13  1  0.98654888  1.30149917  1.26510292  1.0
  P  P14  1  1.27855404  1.01345112  0.31495029  1.0
  P  P15  1  1.03639625  0.72144596  0.73489708  1.0
