# generated using pymatgen
data_Zr2(NiP)3
_symmetry_space_group_name_H-M   'P 1'
_cell_length_a   12.36370974
_cell_length_b   3.63287378
_cell_length_c   10.05804917
_cell_angle_alpha   90.00000000
_cell_angle_beta   90.00000000
_cell_angle_gamma   90.00000000
_symmetry_Int_Tables_number   1
_chemical_formula_structural   Zr2(NiP)3
_chemical_formula_sum   'Zr8 Ni12 P12'
_cell_volume   451.76529462
_cell_formula_units_Z   4
loop_
 _symmetry_equiv_pos_site_id
 _symmetry_equiv_pos_as_xyz
  1  'x, y, z'
loop_
 _atom_site_type_symbol
 _atom_site_label
 _atom_site_symmetry_multiplicity
 _atom_site_fract_x
 _atom_site_fract_y
 _atom_site_fract_z
 _atom_site_occupancy
  Zr  Zr0  1  0.49544016  0.75000000  0.66294917  1.0
  Zr  Zr1  1  0.99544016  0.75000000  0.83705083  1.0
  Zr  Zr2  1  0.50455984  0.25000000  0.33705083  1.0
  Zr  Zr3  1  0.00455984  0.25000000  0.16294917  1.0
  Zr  Zr4  1  0.20921665  0.75000000  0.57476594  1.0
  Zr  Zr5  1  0.70921665  0.75000000  0.92523406  1.0
  Zr  Zr6  1  0.79078335  0.25000000  0.42523406  1.0
  Zr  Zr7  1  0.29078335  0.25000000  0.07476594  1.0
  Ni  Ni8  1  0.16516785  0.75000000  0.27429763  1.0
  Ni  Ni9  1  0.66516785  0.75000000  0.22570237  1.0
  Ni  Ni10  1  0.83483215  0.25000000  0.72570237  1.0
  Ni  Ni11  1  0.33483215  0.25000000  0.77429763  1.0
  Ni  Ni12  1  0.48340926  0.75000000  0.09627079  1.0
  Ni  Ni13  1  0.98340926  0.75000000  0.40372921  1.0
  Ni  Ni14  1  0.51659074  0.25000000  0.90372921  1.0
  Ni  Ni15  1  0.01659074  0.25000000  0.59627079  1.0
  Ni  Ni16  1  0.21779866  0.75000000  0.86531081  1.0
  Ni  Ni17  1  0.71779866  0.75000000  0.63468919  1.0
  Ni  Ni18  1  0.78220134  0.25000000  0.13468919  1.0
  Ni  Ni19  1  0.28220134  0.25000000  0.36531081  1.0
  P  P20  1  0.39841755  0.75000000  0.89771301  1.0
  P  P21  1  0.89841755  0.75000000  0.60228699  1.0
  P  P22  1  0.60158245  0.25000000  0.10228699  1.0
  P  P23  1  0.10158245  0.25000000  0.39771301  1.0
  P  P24  1  0.35478058  0.75000000  0.26320751  1.0
  P  P25  1  0.85478058  0.75000000  0.23679249  1.0
  P  P26  1  0.64521942  0.25000000  0.73679249  1.0
  P  P27  1  0.14521942  0.25000000  0.76320751  1.0
  P  P28  1  0.12823174  0.75000000  0.05436974  1.0
  P  P29  1  0.62823174  0.75000000  0.44563026  1.0
  P  P30  1  0.87176826  0.25000000  0.94563026  1.0
  P  P31  1  0.37176826  0.25000000  0.55436974  1.0
