# generated using pymatgen
data_CoO2
_symmetry_space_group_name_H-M   'P 1'
_cell_length_a   5.90912688
_cell_length_b   2.72494340
_cell_length_c   5.58559498
_cell_angle_alpha   83.00644804
_cell_angle_beta   27.23946892
_cell_angle_gamma   69.75408304
_symmetry_Int_Tables_number   1
_chemical_formula_structural   CoO2
_chemical_formula_sum   'Co1 O2'
_cell_volume   34.81557100
_cell_formula_units_Z   1
loop_
 _symmetry_equiv_pos_site_id
 _symmetry_equiv_pos_as_xyz
  1  'x, y, z'
loop_
 _atom_site_type_symbol
 _atom_site_label
 _atom_site_symmetry_multiplicity
 _atom_site_fract_x
 _atom_site_fract_y
 _atom_site_fract_z
 _atom_site_occupancy
  Co  Co0  1  0.00421348  0.00421348  -0.00421348  1.0
  O  O1  1  0.42535105  1.21803547  -0.21803547  1.0
  O  O2  1  1.21803547  0.42535105  -0.42535105  1.0
