# generated using pymatgen
data_NaAs3H2O9
_symmetry_space_group_name_H-M   'P 1'
_cell_length_a   7.38808551
_cell_length_b   8.09386364
_cell_length_c   7.76966808
_cell_angle_alpha   110.56880282
_cell_angle_beta   106.17474282
_cell_angle_gamma   107.25520334
_symmetry_Int_Tables_number   1
_chemical_formula_structural   NaAs3H2O9
_chemical_formula_sum   'Na2 As6 H4 O18'
_cell_volume   375.42121132
_cell_formula_units_Z   2
loop_
 _symmetry_equiv_pos_site_id
 _symmetry_equiv_pos_as_xyz
  1  'x, y, z'
loop_
 _atom_site_type_symbol
 _atom_site_label
 _atom_site_symmetry_multiplicity
 _atom_site_fract_x
 _atom_site_fract_y
 _atom_site_fract_z
 _atom_site_occupancy
  Na  Na0  1  -0.82101185  -0.54728945  -0.32126173  1.0
  Na  Na1  1  -0.17898815  -0.45271055  -0.67873827  1.0
  As  As2  1  -0.86641182  -0.66857211  -0.84481499  1.0
  As  As3  1  -0.13358818  -0.33142789  -0.15518501  1.0
  As  As4  1  -0.68487558  -0.95119571  -0.33269405  1.0
  As  As5  1  -0.31512442  -0.04880429  -0.66730595  1.0
  As  As6  1  -0.65382977  -0.97660413  -0.93530770  1.0
  As  As7  1  -0.34617023  -0.02339587  -0.06469230  1.0
  H  H8  1  -0.86300043  -0.10873374  -0.68658508  1.0
  H  H9  1  -0.13699957  -0.89126626  -0.31341492  1.0
  H  H10  1  -0.62470591  -0.42509506  -0.85900252  1.0
  H  H11  1  -0.37529409  -0.57490494  -0.14099748  1.0
  O  O12  1  -0.89612889  -0.14480193  -0.93870619  1.0
  O  O13  1  -0.10387111  -0.85519807  -0.06129381  1.0
  O  O14  1  -0.89565062  -0.54745581  -0.63864016  1.0
  O  O15  1  -0.10434938  -0.45254419  -0.36135984  1.0
  O  O16  1  -0.89195661  -0.12634004  -0.57501444  1.0
  O  O17  1  -0.10804339  -0.87365996  -0.42498556  1.0
  O  O18  1  -0.81961109  -1.00154312  -0.18634907  1.0
  O  O19  1  -0.18038891  0.00154312  -0.81365093  1.0
  O  O20  1  -0.77563536  -0.53210873  -0.96190533  1.0
  O  O21  1  -0.22436464  -0.46789127  -0.03809467  1.0
  O  O22  1  -0.68024763  -0.75894494  -0.77602635  1.0
  O  O23  1  -0.31975237  -0.24105506  -0.22397365  1.0
  O  O24  1  -0.60224062  -0.71829289  -0.29543765  1.0
  O  O25  1  -0.39775938  -0.28170711  -0.70456235  1.0
  O  O26  1  -0.50749112  -0.95826811  -0.68072846  1.0
  O  O27  1  -0.49250888  -0.04173189  -0.31927154  1.0
  O  O28  1  -0.40907086  -0.81777413  -0.93301042  1.0
  O  O29  1  -0.59092914  -0.18222587  -0.06698958  1.0
