# generated using pymatgen
data_H2SeO3
_symmetry_space_group_name_H-M   'P 1'
_cell_length_a   5.09784740
_cell_length_b   6.26578539
_cell_length_c   9.37643013
_cell_angle_alpha   90.00000000
_cell_angle_beta   90.00000000
_cell_angle_gamma   90.00000000
_symmetry_Int_Tables_number   1
_chemical_formula_structural   H2SeO3
_chemical_formula_sum   'H8 Se4 O12'
_cell_volume   299.50209752
_cell_formula_units_Z   4
loop_
 _symmetry_equiv_pos_site_id
 _symmetry_equiv_pos_as_xyz
  1  'x, y, z'
loop_
 _atom_site_type_symbol
 _atom_site_label
 _atom_site_symmetry_multiplicity
 _atom_site_fract_x
 _atom_site_fract_y
 _atom_site_fract_z
 _atom_site_occupancy
  H  H0  1  0.40989972  0.69387820  0.70481058  1.0
  H  H1  1  0.90989972  0.80612180  0.29518942  1.0
  H  H2  1  0.59010028  0.19387820  0.79518942  1.0
  H  H3  1  0.09010028  0.30612180  0.20481058  1.0
  H  H4  1  0.06588577  0.55504385  0.86275814  1.0
  H  H5  1  0.56588577  0.94495615  0.13724186  1.0
  H  H6  1  0.93411423  0.05504385  0.63724186  1.0
  H  H7  1  0.43411423  0.44495615  0.36275814  1.0
  Se  Se8  1  0.35918293  0.99127973  0.54982871  1.0
  Se  Se9  1  0.85918293  0.50872027  0.45017129  1.0
  Se  Se10  1  0.64081707  0.49127973  0.95017129  1.0
  Se  Se11  1  0.14081707  0.00872027  0.04982871  1.0
  O  O12  1  0.39879204  0.71785394  0.59735350  1.0
  O  O13  1  0.89879204  0.78214606  0.40264650  1.0
  O  O14  1  0.60120796  0.21785394  0.90264650  1.0
  O  O15  1  0.10120796  0.28214606  0.09735350  1.0
  O  O16  1  0.39072901  0.61820167  0.87054296  1.0
  O  O17  1  0.89072901  0.88179833  0.12945704  1.0
  O  O18  1  0.60927099  0.11820167  0.62945704  1.0
  O  O19  1  0.10927099  0.38179833  0.37054296  1.0
  O  O20  1  0.38249514  0.93270966  0.17610625  1.0
  O  O21  1  0.88249514  0.56729034  0.82389375  1.0
  O  O22  1  0.61750486  0.43270966  0.32389375  1.0
  O  O23  1  0.11750486  0.06729034  0.67610625  1.0
