# generated using pymatgen
data_C
_symmetry_space_group_name_H-M   'P 1'
_cell_length_a   8.56709938
_cell_length_b   4.92874664
_cell_length_c   8.64961955
_cell_angle_alpha   90.00000000
_cell_angle_beta   108.55725266
_cell_angle_gamma   90.00000000
_symmetry_Int_Tables_number   1
_chemical_formula_structural   C
_chemical_formula_sum   C28
_cell_volume   346.24096019
_cell_formula_units_Z   28
loop_
 _symmetry_equiv_pos_site_id
 _symmetry_equiv_pos_as_xyz
  1  'x, y, z'
loop_
 _atom_site_type_symbol
 _atom_site_label
 _atom_site_symmetry_multiplicity
 _atom_site_fract_x
 _atom_site_fract_y
 _atom_site_fract_z
 _atom_site_occupancy
  C  C0  1  0.91850669  0.15891048  0.33676895  1.0
  C  C1  1  0.08149331  0.65891048  0.66323105  1.0
  C  C2  1  0.96401916  0.93664165  0.42771709  1.0
  C  C3  1  0.03598084  0.43664165  0.57228291  1.0
  C  C4  1  0.91869161  0.71372529  0.33707022  1.0
  C  C5  1  0.08130839  0.21372529  0.66292978  1.0
  C  C6  1  0.83597425  0.68630558  0.17185393  1.0
  C  C7  1  0.16402575  0.18630558  0.82814607  1.0
  C  C8  1  0.66398522  0.68629822  0.82812079  1.0
  C  C9  1  0.33601478  0.18629822  0.17187921  1.0
  C  C10  1  0.58132931  0.71366729  0.66288064  1.0
  C  C11  1  0.41867069  0.21366729  0.33711936  1.0
  C  C12  1  0.53607307  0.93666885  0.57228887  1.0
  C  C13  1  0.46392693  0.43666885  0.42771113  1.0
  C  C14  1  0.58151874  0.15897234  0.66320839  1.0
  C  C15  1  0.41848126  0.65897234  0.33679161  1.0
  C  C16  1  0.70807573  0.43657179  0.91622878  1.0
  C  C17  1  0.29192427  0.93657179  0.08377122  1.0
  C  C18  1  0.79187425  0.43656504  0.08376906  1.0
  C  C19  1  0.20812575  0.93656504  0.91623094  1.0
  C  C20  1  0.83587502  0.18666463  0.17167467  1.0
  C  C21  1  0.16412498  0.68666463  0.82832533  1.0
  C  C22  1  0.79257197  0.93640932  0.08505741  1.0
  C  C23  1  0.20742803  0.43640932  0.91494259  1.0
  C  C24  1  0.70736940  0.93641157  0.91491087  1.0
  C  C25  1  0.29263060  0.43641157  0.08508913  1.0
  C  C26  1  0.66410276  0.18668794  0.82831090  1.0
  C  C27  1  0.33589724  0.68668794  0.17168910  1.0
