# generated using pymatgen
data_Sr4Al6SO16
_symmetry_space_group_name_H-M   'P 1'
_cell_length_a   8.16163824
_cell_length_b   8.16163824
_cell_length_c   8.16163824
_cell_angle_alpha   109.47122063
_cell_angle_beta   109.47122063
_cell_angle_gamma   109.47122063
_symmetry_Int_Tables_number   1
_chemical_formula_structural   Sr4Al6SO16
_chemical_formula_sum   'Sr4 Al6 S1 O16'
_cell_volume   418.51413664
_cell_formula_units_Z   1
loop_
 _symmetry_equiv_pos_site_id
 _symmetry_equiv_pos_as_xyz
  1  'x, y, z'
loop_
 _atom_site_type_symbol
 _atom_site_label
 _atom_site_symmetry_multiplicity
 _atom_site_fract_x
 _atom_site_fract_y
 _atom_site_fract_z
 _atom_site_occupancy
  Sr  Sr0  1  0.39163674  0.39163674  0.39163674  1.0
  Sr  Sr1  1  1.00000000  1.00000000  0.60836326  1.0
  Sr  Sr2  1  1.00000000  0.60836326  1.00000000  1.0
  Sr  Sr3  1  0.60836326  1.00000000  1.00000000  1.0
  Al  Al4  1  0.25000000  0.75000000  0.50000000  1.0
  Al  Al5  1  0.75000000  0.25000000  0.50000000  1.0
  Al  Al6  1  0.25000000  0.50000000  0.75000000  1.0
  Al  Al7  1  0.50000000  0.25000000  0.75000000  1.0
  Al  Al8  1  0.75000000  0.50000000  0.25000000  1.0
  Al  Al9  1  0.50000000  0.75000000  0.25000000  1.0
  S  S10  1  0.00000000  0.00000000  0.00000000  1.0
  O  O11  1  0.30433036  0.60289359  0.60289359  1.0
  O  O12  1  0.60289359  0.30433036  0.60289359  1.0
  O  O13  1  1.00000000  0.70143677  1.39710641  1.0
  O  O14  1  0.70143677  1.00000000  1.39710641  1.0
  O  O15  1  0.60289359  0.60289359  0.30433036  1.0
  O  O16  1  1.29856323  1.29856323  0.69566964  1.0
  O  O17  1  1.00000000  1.39710641  0.70143677  1.0
  O  O18  1  1.29856323  0.69566964  1.29856323  1.0
  O  O19  1  0.69566964  1.29856323  1.29856323  1.0
  O  O20  1  1.39710641  1.00000000  0.70143677  1.0
  O  O21  1  0.70143677  1.39710641  1.00000000  1.0
  O  O22  1  1.39710641  0.70143677  1.00000000  1.0
  O  O23  1  0.81612853  0.81612853  0.81612853  1.0
  O  O24  1  1.00000000  1.00000000  0.18387147  1.0
  O  O25  1  1.00000000  0.18387147  1.00000000  1.0
  O  O26  1  0.18387147  1.00000000  1.00000000  1.0
