# generated using pymatgen
data_Gd3CuSe6
_symmetry_space_group_name_H-M   'P 1'
_cell_length_a   7.17359255
_cell_length_b   7.86786229
_cell_length_c   16.96489549
_cell_angle_alpha   90.00000000
_cell_angle_beta   90.00000000
_cell_angle_gamma   90.00000000
_symmetry_Int_Tables_number   1
_chemical_formula_structural   Gd3CuSe6
_chemical_formula_sum   'Gd12 Cu4 Se24'
_cell_volume   957.51292358
_cell_formula_units_Z   4
loop_
 _symmetry_equiv_pos_site_id
 _symmetry_equiv_pos_as_xyz
  1  'x, y, z'
loop_
 _atom_site_type_symbol
 _atom_site_label
 _atom_site_symmetry_multiplicity
 _atom_site_fract_x
 _atom_site_fract_y
 _atom_site_fract_z
 _atom_site_occupancy
  Gd  Gd0  1  0.26202962  0.43950034  0.08953155  1.0
  Gd  Gd1  1  0.73797038  0.56049966  0.58953155  1.0
  Gd  Gd2  1  0.26202962  0.06049966  0.91046845  1.0
  Gd  Gd3  1  0.73797038  0.93950034  0.41046845  1.0
  Gd  Gd4  1  0.73797038  0.56049966  0.91046845  1.0
  Gd  Gd5  1  0.26202962  0.43950034  0.41046845  1.0
  Gd  Gd6  1  0.73797038  0.93950034  0.08953155  1.0
  Gd  Gd7  1  0.26202962  0.06049966  0.58953155  1.0
  Gd  Gd8  1  0.76120270  0.55636365  0.25000000  1.0
  Gd  Gd9  1  0.23879730  0.44363635  0.75000000  1.0
  Gd  Gd10  1  0.76120270  0.94363635  0.75000000  1.0
  Gd  Gd11  1  0.23879730  0.05636365  0.25000000  1.0
  Cu  Cu12  1  0.90635546  0.25000000  0.00000000  1.0
  Cu  Cu13  1  0.09364454  0.75000000  0.50000000  1.0
  Cu  Cu14  1  0.09364454  0.75000000  0.00000000  1.0
  Cu  Cu15  1  0.90635546  0.25000000  0.50000000  1.0
  Se  Se16  1  0.57261233  0.24655831  0.17491884  1.0
  Se  Se17  1  0.42738767  0.75344169  0.67491884  1.0
  Se  Se18  1  0.57261233  0.25344169  0.82508116  1.0
  Se  Se19  1  0.42738767  0.74655831  0.32508116  1.0
  Se  Se20  1  0.42738767  0.75344169  0.82508116  1.0
  Se  Se21  1  0.57261233  0.24655831  0.32508116  1.0
  Se  Se22  1  0.42738767  0.74655831  0.17491884  1.0
  Se  Se23  1  0.57261233  0.25344169  0.67491884  1.0
  Se  Se24  1  0.11718814  0.39887640  0.25000000  1.0
  Se  Se25  1  0.88281186  0.60112360  0.75000000  1.0
  Se  Se26  1  0.11718814  0.10112360  0.75000000  1.0
  Se  Se27  1  0.88281186  0.89887640  0.25000000  1.0
  Se  Se28  1  0.11803013  0.41251093  0.91899430  1.0
  Se  Se29  1  0.88196987  0.58748907  0.41899430  1.0
  Se  Se30  1  0.11803013  0.08748907  0.08100570  1.0
  Se  Se31  1  0.88196987  0.91251093  0.58100570  1.0
  Se  Se32  1  0.88196987  0.58748907  0.08100570  1.0
  Se  Se33  1  0.11803013  0.41251093  0.58100570  1.0
  Se  Se34  1  0.88196987  0.91251093  0.91899430  1.0
  Se  Se35  1  0.11803013  0.08748907  0.41899430  1.0
  Se  Se36  1  0.57139434  0.25000000  0.00000000  1.0
  Se  Se37  1  0.42860566  0.75000000  0.50000000  1.0
  Se  Se38  1  0.42860566  0.75000000  0.00000000  1.0
  Se  Se39  1  0.57139434  0.25000000  0.50000000  1.0
