# generated using pymatgen
data_TaSe2
_symmetry_space_group_name_H-M   'P 1'
_cell_length_a   7.65097728
_cell_length_b   3.46532202
_cell_length_c   7.24868613
_cell_angle_alpha   83.12411062
_cell_angle_beta   26.72237771
_cell_angle_gamma   70.15351167
_symmetry_Int_Tables_number   1
_chemical_formula_structural   TaSe2
_chemical_formula_sum   'Ta1 Se2'
_cell_volume   73.23614440
_cell_formula_units_Z   1
loop_
 _symmetry_equiv_pos_site_id
 _symmetry_equiv_pos_as_xyz
  1  'x, y, z'
loop_
 _atom_site_type_symbol
 _atom_site_label
 _atom_site_symmetry_multiplicity
 _atom_site_fract_x
 _atom_site_fract_y
 _atom_site_fract_z
 _atom_site_occupancy
  Ta  Ta0  1  0.91838151  0.91838151  -0.91838151  1.0
  Se  Se1  1  0.37096720  1.13265128  -0.13265128  1.0
  Se  Se2  1  1.13265128  0.37096720  -0.37096720  1.0
