# generated using pymatgen
data_Li2Mg(HN)2
_symmetry_space_group_name_H-M   'P 1'
_cell_length_a   9.70434707
_cell_length_b   5.11034258
_cell_length_c   5.20573128
_cell_angle_alpha   90.00000000
_cell_angle_beta   90.00000000
_cell_angle_gamma   90.00000000
_symmetry_Int_Tables_number   1
_chemical_formula_structural   Li2Mg(HN)2
_chemical_formula_sum   'Li8 Mg4 H8 N8'
_cell_volume   258.16542644
_cell_formula_units_Z   4
loop_
 _symmetry_equiv_pos_site_id
 _symmetry_equiv_pos_as_xyz
  1  'x, y, z'
loop_
 _atom_site_type_symbol
 _atom_site_label
 _atom_site_symmetry_multiplicity
 _atom_site_fract_x
 _atom_site_fract_y
 _atom_site_fract_z
 _atom_site_occupancy
  Li  Li0  1  0.00353508  0.25001016  0.53586017  1.0
  Li  Li1  1  0.99646492  0.74998984  0.03586017  1.0
  Li  Li2  1  0.49646492  0.25001016  0.03586017  1.0
  Li  Li3  1  0.50353508  0.74998984  0.53586017  1.0
  Li  Li4  1  0.26222561  0.74992813  0.53585406  1.0
  Li  Li5  1  0.73777439  0.25007187  0.03585406  1.0
  Li  Li6  1  0.23777439  0.74992813  0.03585406  1.0
  Li  Li7  1  0.76222561  0.25007187  0.53585406  1.0
  Mg  Mg8  1  0.98865383  0.75000642  0.53585814  1.0
  Mg  Mg9  1  0.01134617  0.24999358  0.03585814  1.0
  Mg  Mg10  1  0.51134617  0.75000642  0.03585814  1.0
  Mg  Mg11  1  0.48865383  0.24999358  0.53585814  1.0
  H  H12  1  0.19388092  0.08554138  0.73443936  1.0
  H  H13  1  0.80611908  0.91445862  0.23443936  1.0
  H  H14  1  0.30611908  0.08554138  0.23443936  1.0
  H  H15  1  0.69388092  0.91445862  0.73443936  1.0
  H  H16  1  0.69386324  0.58565957  0.33725968  1.0
  H  H17  1  0.30613676  0.41434043  0.83725968  1.0
  H  H18  1  0.80613676  0.58565957  0.83725968  1.0
  H  H19  1  0.19386324  0.41434043  0.33725968  1.0
  N  N20  1  0.10891348  0.97753583  0.78953684  1.0
  N  N21  1  0.89108652  0.02246417  0.28953684  1.0
  N  N22  1  0.39108652  0.97753583  0.28953684  1.0
  N  N23  1  0.60891348  0.02246417  0.78953684  1.0
  N  N24  1  0.60892131  0.47756313  0.28219173  1.0
  N  N25  1  0.39107869  0.52243687  0.78219173  1.0
  N  N26  1  0.89107869  0.47756313  0.78219173  1.0
  N  N27  1  0.10892131  0.52243687  0.28219173  1.0
