# generated using pymatgen
data_SiP4PdPbO14
_symmetry_space_group_name_H-M   'P 1'
_cell_length_a   4.70011533
_cell_length_b   17.53716266
_cell_length_c   6.56817022
_cell_angle_alpha   90.00000000
_cell_angle_beta   102.79311597
_cell_angle_gamma   90.00000000
_symmetry_Int_Tables_number   1
_chemical_formula_structural   SiP4PdPbO14
_chemical_formula_sum   'Si2 P8 Pd2 Pb2 O28'
_cell_volume   527.95296548
_cell_formula_units_Z   2
loop_
 _symmetry_equiv_pos_site_id
 _symmetry_equiv_pos_as_xyz
  1  'x, y, z'
loop_
 _atom_site_type_symbol
 _atom_site_label
 _atom_site_symmetry_multiplicity
 _atom_site_fract_x
 _atom_site_fract_y
 _atom_site_fract_z
 _atom_site_occupancy
  Si  Si0  1  -0.00000000  0.50000000  0.50000000  1.0
  Si  Si1  1  -0.00000000  0.00000000  0.50000000  1.0
  P  P2  1  0.87649104  0.37600386  0.14843361  1.0
  P  P3  1  0.87649104  0.12399614  0.14843361  1.0
  P  P4  1  0.12350896  0.87600386  0.85156639  1.0
  P  P5  1  0.12350896  0.62399614  0.85156639  1.0
  P  P6  1  0.56955470  0.41398705  0.72041799  1.0
  P  P7  1  0.56955470  0.08601295  0.72041799  1.0
  P  P8  1  0.43044530  0.91398705  0.27958201  1.0
  P  P9  1  0.43044530  0.58601295  0.27958201  1.0
  Pd  Pd10  1  0.37363552  0.25000000  0.14399097  1.0
  Pd  Pd11  1  0.62636448  0.75000000  0.85600903  1.0
  Pb  Pb12  1  0.87496028  0.25000000  0.63682390  1.0
  Pb  Pb13  1  0.12503972  0.75000000  0.36317610  1.0
  O  O14  1  0.94200399  0.93109689  0.69249182  1.0
  O  O15  1  0.94200399  0.56890311  0.69249182  1.0
  O  O16  1  0.05799601  0.43109689  0.30750818  1.0
  O  O17  1  0.05799601  0.06890311  0.30750818  1.0
  O  O18  1  0.93390593  0.82943470  0.97163770  1.0
  O  O19  1  0.93390593  0.67056530  0.97163770  1.0
  O  O20  1  0.06609407  0.32943470  0.02836230  1.0
  O  O21  1  0.06609407  0.17056530  0.02836230  1.0
  O  O22  1  0.84223989  0.42755583  0.62949480  1.0
  O  O23  1  0.84223989  0.07244417  0.62949480  1.0
  O  O24  1  0.15776011  0.92755583  0.37050520  1.0
  O  O25  1  0.15776011  0.57244417  0.37050520  1.0
  O  O26  1  0.68315354  0.32781489  0.26221637  1.0
  O  O27  1  0.68315354  0.17218511  0.26221637  1.0
  O  O28  1  0.31684646  0.82781489  0.73778363  1.0
  O  O29  1  0.31684646  0.67218511  0.73778363  1.0
  O  O30  1  0.67229999  0.42727789  0.97144039  1.0
  O  O31  1  0.67229999  0.07272211  0.97144039  1.0
  O  O32  1  0.32770001  0.92727789  0.02855961  1.0
  O  O33  1  0.32770001  0.57272211  0.02855961  1.0
  O  O34  1  0.46887329  0.33179883  0.68044838  1.0
  O  O35  1  0.46887329  0.16820117  0.68044838  1.0
  O  O36  1  0.53112671  0.83179883  0.31955162  1.0
  O  O37  1  0.53112671  0.66820117  0.31955162  1.0
  O  O38  1  0.34359780  0.47732349  0.65821399  1.0
  O  O39  1  0.34359780  0.02267651  0.65821399  1.0
  O  O40  1  0.65640220  0.97732349  0.34178601  1.0
  O  O41  1  0.65640220  0.52267651  0.34178601  1.0
