# generated using pymatgen
data_Ca3Sn13Ir4
_symmetry_space_group_name_H-M   'P 1'
_cell_length_a   9.84103433
_cell_length_b   9.84103433
_cell_length_c   9.84103433
_cell_angle_alpha   90.00000000
_cell_angle_beta   90.00000000
_cell_angle_gamma   90.00000000
_symmetry_Int_Tables_number   1
_chemical_formula_structural   Ca3Sn13Ir4
_chemical_formula_sum   'Ca6 Sn26 Ir8'
_cell_volume   953.06438462
_cell_formula_units_Z   2
loop_
 _symmetry_equiv_pos_site_id
 _symmetry_equiv_pos_as_xyz
  1  'x, y, z'
loop_
 _atom_site_type_symbol
 _atom_site_label
 _atom_site_symmetry_multiplicity
 _atom_site_fract_x
 _atom_site_fract_y
 _atom_site_fract_z
 _atom_site_occupancy
  Ca  Ca0  1  0.25000000  0.00000000  0.50000000  1.0
  Ca  Ca1  1  0.75000000  0.00000000  0.50000000  1.0
  Ca  Ca2  1  0.50000000  0.25000000  0.00000000  1.0
  Ca  Ca3  1  0.50000000  0.75000000  0.00000000  1.0
  Ca  Ca4  1  0.00000000  0.50000000  0.75000000  1.0
  Ca  Ca5  1  0.00000000  0.50000000  0.25000000  1.0
  Sn  Sn6  1  0.50000000  0.19626984  0.34765464  1.0
  Sn  Sn7  1  0.50000000  0.19626984  0.65234536  1.0
  Sn  Sn8  1  0.50000000  0.80373016  0.34765464  1.0
  Sn  Sn9  1  0.50000000  0.80373016  0.65234536  1.0
  Sn  Sn10  1  0.00000000  0.84765464  0.69626984  1.0
  Sn  Sn11  1  0.00000000  0.84765464  0.30373016  1.0
  Sn  Sn12  1  0.00000000  0.15234536  0.69626984  1.0
  Sn  Sn13  1  0.00000000  0.15234536  0.30373016  1.0
  Sn  Sn14  1  0.34765464  0.50000000  0.19626984  1.0
  Sn  Sn15  1  0.34765464  0.50000000  0.80373016  1.0
  Sn  Sn16  1  0.84765464  0.69626984  0.00000000  1.0
  Sn  Sn17  1  0.84765464  0.30373016  0.00000000  1.0
  Sn  Sn18  1  0.19626984  0.34765464  0.50000000  1.0
  Sn  Sn19  1  0.19626984  0.65234536  0.50000000  1.0
  Sn  Sn20  1  0.69626984  0.00000000  0.84765464  1.0
  Sn  Sn21  1  0.69626984  0.00000000  0.15234536  1.0
  Sn  Sn22  1  0.65234536  0.50000000  0.19626984  1.0
  Sn  Sn23  1  0.65234536  0.50000000  0.80373016  1.0
  Sn  Sn24  1  0.15234536  0.69626984  0.00000000  1.0
  Sn  Sn25  1  0.15234536  0.30373016  0.00000000  1.0
  Sn  Sn26  1  0.80373016  0.34765464  0.50000000  1.0
  Sn  Sn27  1  0.80373016  0.65234536  0.50000000  1.0
  Sn  Sn28  1  0.30373016  0.00000000  0.84765464  1.0
  Sn  Sn29  1  0.30373016  0.00000000  0.15234536  1.0
  Sn  Sn30  1  0.50000000  0.50000000  0.50000000  1.0
  Sn  Sn31  1  0.00000000  0.00000000  0.00000000  1.0
  Ir  Ir32  1  0.25000000  0.25000000  0.25000000  1.0
  Ir  Ir33  1  0.25000000  0.25000000  0.75000000  1.0
  Ir  Ir34  1  0.25000000  0.75000000  0.25000000  1.0
  Ir  Ir35  1  0.25000000  0.75000000  0.75000000  1.0
  Ir  Ir36  1  0.75000000  0.75000000  0.75000000  1.0
  Ir  Ir37  1  0.75000000  0.75000000  0.25000000  1.0
  Ir  Ir38  1  0.75000000  0.25000000  0.75000000  1.0
  Ir  Ir39  1  0.75000000  0.25000000  0.25000000  1.0
