# generated using pymatgen
data_PdS
_symmetry_space_group_name_H-M   'P 1'
_cell_length_a   6.50061673
_cell_length_b   6.50061673
_cell_length_c   6.67515659
_cell_angle_alpha   90.00000000
_cell_angle_beta   90.00000000
_cell_angle_gamma   90.00000000
_symmetry_Int_Tables_number   1
_chemical_formula_structural   PdS
_chemical_formula_sum   'Pd8 S8'
_cell_volume   282.07888616
_cell_formula_units_Z   8
loop_
 _symmetry_equiv_pos_site_id
 _symmetry_equiv_pos_as_xyz
  1  'x, y, z'
loop_
 _atom_site_type_symbol
 _atom_site_label
 _atom_site_symmetry_multiplicity
 _atom_site_fract_x
 _atom_site_fract_y
 _atom_site_fract_z
 _atom_site_occupancy
  Pd  Pd0  1  0.53017679  0.74224704  0.00000000  1.0
  Pd  Pd1  1  0.74224704  0.46982321  0.50000000  1.0
  Pd  Pd2  1  0.46982321  0.25775296  0.00000000  1.0
  Pd  Pd3  1  0.25775296  0.53017679  0.50000000  1.0
  Pd  Pd4  1  0.00000000  0.00000000  0.75000000  1.0
  Pd  Pd5  1  0.00000000  0.00000000  0.25000000  1.0
  Pd  Pd6  1  -0.00000000  0.50000000  0.00000000  1.0
  Pd  Pd7  1  0.50000000  0.00000000  0.50000000  1.0
  S  S8  1  0.80645838  0.69254293  0.77221970  1.0
  S  S9  1  0.80645838  0.69254293  0.22778030  1.0
  S  S10  1  0.69254293  0.19354162  0.27221970  1.0
  S  S11  1  0.69254293  0.19354162  0.72778030  1.0
  S  S12  1  0.19354162  0.30745707  0.77221970  1.0
  S  S13  1  0.19354162  0.30745707  0.22778030  1.0
  S  S14  1  0.30745707  0.80645838  0.27221970  1.0
  S  S15  1  0.30745707  0.80645838  0.72778030  1.0
