# generated using pymatgen
data_RbCO3
_symmetry_space_group_name_H-M   'P 1'
_cell_length_a   8.08642413
_cell_length_b   10.68390398
_cell_length_c   7.85289316
_cell_angle_alpha   90.00000000
_cell_angle_beta   100.28421081
_cell_angle_gamma   90.00000000
_symmetry_Int_Tables_number   1
_chemical_formula_structural   RbCO3
_chemical_formula_sum   'Rb8 C8 O24'
_cell_volume   667.54764778
_cell_formula_units_Z   8
loop_
 _symmetry_equiv_pos_site_id
 _symmetry_equiv_pos_as_xyz
  1  'x, y, z'
loop_
 _atom_site_type_symbol
 _atom_site_label
 _atom_site_symmetry_multiplicity
 _atom_site_fract_x
 _atom_site_fract_y
 _atom_site_fract_z
 _atom_site_occupancy
  Rb  Rb0  1  0.74981076  0.48714881  1.00053494  1.0
  Rb  Rb1  1  0.74981076  0.01285119  0.50053494  1.0
  Rb  Rb2  1  0.25018924  0.98714881  0.49946506  1.0
  Rb  Rb3  1  0.25018924  0.51285119  -0.00053494  1.0
  Rb  Rb4  1  0.25054726  0.91499613  0.99930769  1.0
  Rb  Rb5  1  0.25054726  0.58500387  0.49930769  1.0
  Rb  Rb6  1  0.74945274  0.41499613  0.50069231  1.0
  Rb  Rb7  1  0.74945274  0.08500387  0.00069231  1.0
  C  C8  1  0.95704413  0.72234280  0.69228968  1.0
  C  C9  1  0.95704413  0.77765720  0.19228968  1.0
  C  C10  1  0.04295587  0.22234280  0.80771032  1.0
  C  C11  1  0.04295587  0.27765720  0.30771032  1.0
  C  C12  1  0.54442434  0.77678464  0.80658266  1.0
  C  C13  1  0.54442434  0.72321536  0.30658266  1.0
  C  C14  1  0.45557566  0.27678464  0.69341734  1.0
  C  C15  1  0.45557566  0.22321536  0.19341734  1.0
  O  O16  1  0.96088868  0.60602914  0.70793471  1.0
  O  O17  1  0.96088868  0.89397086  0.20793471  1.0
  O  O18  1  0.03911132  0.10602914  0.79206529  1.0
  O  O19  1  0.03911132  0.39397086  0.29206529  1.0
  O  O20  1  0.93835169  0.29766605  0.85104848  1.0
  O  O21  1  0.93835169  0.20233395  0.35104848  1.0
  O  O22  1  0.06164831  0.79766605  0.64895152  1.0
  O  O23  1  0.06164831  0.70233395  0.14895152  1.0
  O  O24  1  0.81793358  0.79200693  0.72673870  1.0
  O  O25  1  0.81793358  0.70799307  0.22673870  1.0
  O  O26  1  0.18206642  0.29200693  0.77326130  1.0
  O  O27  1  0.18206642  0.20799307  0.27326130  1.0
  O  O28  1  0.68304949  0.70697904  0.77106059  1.0
  O  O29  1  0.68304949  0.79302096  0.27106059  1.0
  O  O30  1  0.31695051  0.20697904  0.72893941  1.0
  O  O31  1  0.31695051  0.29302096  0.22893941  1.0
  O  O32  1  0.54086815  0.89313343  0.79141058  1.0
  O  O33  1  0.54086815  0.60686657  0.29141058  1.0
  O  O34  1  0.45913185  0.39313343  0.70858942  1.0
  O  O35  1  0.45913185  0.10686657  0.20858942  1.0
  O  O36  1  0.43989364  0.70150721  0.85015189  1.0
  O  O37  1  0.43989364  0.79849279  0.35015189  1.0
  O  O38  1  0.56010636  0.20150721  0.64984811  1.0
  O  O39  1  0.56010636  0.29849279  0.14984811  1.0
