# generated using pymatgen
data_Zn(BrN)2
_symmetry_space_group_name_H-M   'P 1'
_cell_length_a   7.30997756
_cell_length_b   7.30997756
_cell_length_c   7.30997756
_cell_angle_alpha   111.77226497
_cell_angle_beta   105.08186166
_cell_angle_gamma   111.64673350
_symmetry_Int_Tables_number   1
_chemical_formula_structural   Zn(BrN)2
_chemical_formula_sum   'Zn2 Br4 N4'
_cell_volume   299.38438655
_cell_formula_units_Z   2
loop_
 _symmetry_equiv_pos_site_id
 _symmetry_equiv_pos_as_xyz
  1  'x, y, z'
loop_
 _atom_site_type_symbol
 _atom_site_label
 _atom_site_symmetry_multiplicity
 _atom_site_fract_x
 _atom_site_fract_y
 _atom_site_fract_z
 _atom_site_occupancy
  Zn  Zn0  1  1.16277157  0.91277157  0.25000000  1.0
  Zn  Zn1  1  0.83722843  0.08722843  0.75000000  1.0
  Br  Br2  1  1.25510151  1.26952308  1.51442157  1.0
  Br  Br3  1  1.74489849  1.25932006  1.01442157  1.0
  Br  Br4  1  0.74489849  0.73047692  0.48557843  1.0
  Br  Br5  1  0.25510151  0.74067994  0.98557843  1.0
  N  N6  1  1.18683086  1.24357286  0.94325800  1.0
  N  N7  1  1.19968514  0.75642714  0.44325800  1.0
  N  N8  1  0.80031486  0.24357286  0.55674200  1.0
  N  N9  1  0.81316914  0.75642714  1.05674200  1.0
