# generated using pymatgen
data_Ca11Sb10
_symmetry_space_group_name_H-M   'P 1'
_cell_length_a   12.17419880
_cell_length_b   12.17419880
_cell_length_c   12.17419880
_cell_angle_alpha   120.74205540
_cell_angle_beta   120.74205540
_cell_angle_gamma   88.71945690
_symmetry_Int_Tables_number   1
_chemical_formula_structural   Ca11Sb10
_chemical_formula_sum   'Ca22 Sb20'
_cell_volume   1261.21717829
_cell_formula_units_Z   2
loop_
 _symmetry_equiv_pos_site_id
 _symmetry_equiv_pos_as_xyz
  1  'x, y, z'
loop_
 _atom_site_type_symbol
 _atom_site_label
 _atom_site_symmetry_multiplicity
 _atom_site_fract_x
 _atom_site_fract_y
 _atom_site_fract_z
 _atom_site_occupancy
  Ca  Ca0  1  0.43776879  0.68925519  0.74851360  1.0
  Ca  Ca1  1  1.05925841  0.31074481  0.74851360  1.0
  Ca  Ca2  1  0.94074159  0.68925519  1.25148640  1.0
  Ca  Ca3  1  0.56223121  0.31074481  0.25148640  1.0
  Ca  Ca4  1  0.68925519  0.43776879  0.74851360  1.0
  Ca  Ca5  1  0.31074481  1.05925841  0.74851360  1.0
  Ca  Ca6  1  0.68925519  0.94074159  1.25148640  1.0
  Ca  Ca7  1  0.31074481  0.56223121  0.25148640  1.0
  Ca  Ca8  1  0.55689715  0.89636092  0.66053623  1.0
  Ca  Ca9  1  0.76417531  0.10363908  0.66053623  1.0
  Ca  Ca10  1  1.23582469  0.89636092  1.33946377  1.0
  Ca  Ca11  1  0.44310285  0.10363908  0.33946377  1.0
  Ca  Ca12  1  0.89636092  0.55689715  0.66053623  1.0
  Ca  Ca13  1  0.10363908  0.76417531  0.66053623  1.0
  Ca  Ca14  1  0.89636092  1.23582469  1.33946377  1.0
  Ca  Ca15  1  0.10363908  0.44310285  0.33946377  1.0
  Ca  Ca16  1  0.66320850  0.66320850  1.32641700  1.0
  Ca  Ca17  1  0.33679150  0.66320850  1.00000000  1.0
  Ca  Ca18  1  0.66320850  0.33679150  1.00000000  1.0
  Ca  Ca19  1  0.33679150  0.33679150  0.67358300  1.0
  Ca  Ca20  1  0.83532581  0.83532581  1.00000000  1.0
  Ca  Ca21  1  0.16467419  0.16467419  -0.00000000  1.0
  Sb  Sb22  1  0.61787359  0.61787359  0.58726670  1.0
  Sb  Sb23  1  0.96939311  0.96939311  1.58726670  1.0
  Sb  Sb24  1  1.03060689  0.61787359  1.00000000  1.0
  Sb  Sb25  1  0.38212641  0.96939311  1.00000000  1.0
  Sb  Sb26  1  0.61787359  1.03060689  1.00000000  1.0
  Sb  Sb27  1  0.96939311  0.38212641  1.00000000  1.0
  Sb  Sb28  1  1.03060689  1.03060689  1.41273330  1.0
  Sb  Sb29  1  0.38212641  0.38212641  0.41273330  1.0
  Sb  Sb30  1  0.50000000  0.84824955  1.34824955  1.0
  Sb  Sb31  1  0.84824955  0.50000000  1.34824955  1.0
  Sb  Sb32  1  0.15175045  0.50000000  0.65175045  1.0
  Sb  Sb33  1  0.50000000  0.15175045  0.65175045  1.0
  Sb  Sb34  1  0.87430470  0.87430470  1.74860940  1.0
  Sb  Sb35  1  0.12569530  0.87430470  1.00000000  1.0
  Sb  Sb36  1  0.87430470  0.12569530  1.00000000  1.0
  Sb  Sb37  1  0.12569530  0.12569530  0.25139060  1.0
  Sb  Sb38  1  0.62829329  0.62829329  1.00000000  1.0
  Sb  Sb39  1  0.37170671  0.37170671  -0.00000000  1.0
  Sb  Sb40  1  0.25000000  0.75000000  0.50000000  1.0
  Sb  Sb41  1  0.75000000  0.25000000  0.50000000  1.0
