# generated using pymatgen
data_Cs2VS5O
_symmetry_space_group_name_H-M   'P 1'
_cell_length_a   7.62241709
_cell_length_b   10.65022901
_cell_length_c   14.17730777
_cell_angle_alpha   90.00000000
_cell_angle_beta   109.59269969
_cell_angle_gamma   90.00000000
_symmetry_Int_Tables_number   1
_chemical_formula_structural   Cs2VS5O
_chemical_formula_sum   'Cs8 V4 S20 O4'
_cell_volume   1084.28266092
_cell_formula_units_Z   4
loop_
 _symmetry_equiv_pos_site_id
 _symmetry_equiv_pos_as_xyz
  1  'x, y, z'
loop_
 _atom_site_type_symbol
 _atom_site_label
 _atom_site_symmetry_multiplicity
 _atom_site_fract_x
 _atom_site_fract_y
 _atom_site_fract_z
 _atom_site_occupancy
  Cs  Cs0  1  1.00839401  0.97307238  0.23781977  1.0
  Cs  Cs1  1  1.00839401  0.52692762  0.73781977  1.0
  Cs  Cs2  1  -0.00839401  0.47307238  0.26218023  1.0
  Cs  Cs3  1  -0.00839401  0.02692762  0.76218023  1.0
  Cs  Cs4  1  0.46156560  0.23216227  0.07880353  1.0
  Cs  Cs5  1  0.46156560  0.26783773  0.57880353  1.0
  Cs  Cs6  1  0.53843440  0.73216227  0.42119647  1.0
  Cs  Cs7  1  0.53843440  0.76783773  0.92119647  1.0
  V  V8  1  0.74652614  0.19206811  0.38057999  1.0
  V  V9  1  0.74652614  0.30793189  0.88057999  1.0
  V  V10  1  0.25347386  0.69206811  0.11942001  1.0
  V  V11  1  0.25347386  0.80793189  0.61942001  1.0
  S  S12  1  0.94537825  0.22836455  0.03282762  1.0
  S  S13  1  0.94537825  0.27163545  0.53282762  1.0
  S  S14  1  0.05462175  0.72836455  0.46717238  1.0
  S  S15  1  0.05462175  0.77163545  0.96717238  1.0
  S  S16  1  0.85835078  0.99436005  0.45233888  1.0
  S  S17  1  0.85835078  0.50563995  0.95233888  1.0
  S  S18  1  0.14164922  0.49436005  0.04766112  1.0
  S  S19  1  0.14164922  0.00563995  0.54766112  1.0
  S  S20  1  0.75220067  0.40075001  0.44673805  1.0
  S  S21  1  0.75220067  0.09924999  0.94673805  1.0
  S  S22  1  0.24779933  0.90075001  0.05326195  1.0
  S  S23  1  0.24779933  0.59924999  0.55326195  1.0
  S  S24  1  0.50554020  0.04303460  0.29491093  1.0
  S  S25  1  0.50554020  0.45696540  0.79491093  1.0
  S  S26  1  0.49445980  0.54303460  0.20508907  1.0
  S  S27  1  0.49445980  0.95696540  0.70508907  1.0
  S  S28  1  0.42891673  0.22505400  0.31850962  1.0
  S  S29  1  0.42891673  0.27494600  0.81850962  1.0
  S  S30  1  0.57108327  0.72505400  0.18149038  1.0
  S  S31  1  0.57108327  0.77494600  0.68149038  1.0
  O  O32  1  0.83792444  0.21655718  0.29387298  1.0
  O  O33  1  0.83792444  0.28344282  0.79387298  1.0
  O  O34  1  0.16207556  0.71655718  0.20612702  1.0
  O  O35  1  0.16207556  0.78344282  0.70612702  1.0
