# generated using pymatgen
data_Lu2CoB6
_symmetry_space_group_name_H-M   'P 1'
_cell_length_a   8.97788967
_cell_length_b   11.31788276
_cell_length_c   3.47010181
_cell_angle_alpha   90.00000000
_cell_angle_beta   90.00000000
_cell_angle_gamma   90.00000000
_symmetry_Int_Tables_number   1
_chemical_formula_structural   Lu2CoB6
_chemical_formula_sum   'Lu8 Co4 B24'
_cell_volume   352.59948342
_cell_formula_units_Z   4
loop_
 _symmetry_equiv_pos_site_id
 _symmetry_equiv_pos_as_xyz
  1  'x, y, z'
loop_
 _atom_site_type_symbol
 _atom_site_label
 _atom_site_symmetry_multiplicity
 _atom_site_fract_x
 _atom_site_fract_y
 _atom_site_fract_z
 _atom_site_occupancy
  Lu  Lu0  1  0.17645625  0.91478433  0.50000000  1.0
  Lu  Lu1  1  0.67645625  0.58521567  0.50000000  1.0
  Lu  Lu2  1  0.82354375  0.08521567  0.50000000  1.0
  Lu  Lu3  1  0.32354375  0.41478433  0.50000000  1.0
  Lu  Lu4  1  0.05624320  0.62896655  0.50000000  1.0
  Lu  Lu5  1  0.55624320  0.87103345  0.50000000  1.0
  Lu  Lu6  1  0.94375680  0.37103345  0.50000000  1.0
  Lu  Lu7  1  0.44375680  0.12896655  0.50000000  1.0
  Co  Co8  1  0.35991148  0.67986737  0.50000000  1.0
  Co  Co9  1  0.85991148  0.82013263  0.50000000  1.0
  Co  Co10  1  0.64008852  0.32013263  0.50000000  1.0
  Co  Co11  1  0.14008852  0.17986737  0.50000000  1.0
  B  B12  1  0.44655439  0.56641429  -0.00000000  1.0
  B  B13  1  0.94655439  0.93358571  0.00000000  1.0
  B  B14  1  0.55344561  0.43358571  -0.00000000  1.0
  B  B15  1  0.05344561  0.06641429  0.00000000  1.0
  B  B16  1  0.39349817  0.97127190  0.00000000  1.0
  B  B17  1  0.89349817  0.52872810  0.00000000  1.0
  B  B18  1  0.60650183  0.02872810  0.00000000  1.0
  B  B19  1  0.10650183  0.47127190  0.00000000  1.0
  B  B20  1  0.36619546  0.81603882  0.00000000  1.0
  B  B21  1  0.86619546  0.68396118  -0.00000000  1.0
  B  B22  1  0.63380454  0.18396118  0.00000000  1.0
  B  B23  1  0.13380454  0.31603882  -0.00000000  1.0
  B  B24  1  0.25227640  0.58154051  -0.00000000  1.0
  B  B25  1  0.75227640  0.91845949  0.00000000  1.0
  B  B26  1  0.74772360  0.41845949  -0.00000000  1.0
  B  B27  1  0.24772360  0.08154051  0.00000000  1.0
  B  B28  1  0.20676076  0.73634493  0.00000000  1.0
  B  B29  1  0.70676076  0.76365507  0.00000000  1.0
  B  B30  1  0.79323924  0.26365507  0.00000000  1.0
  B  B31  1  0.29323924  0.23634493  0.00000000  1.0
  B  B32  1  0.01506719  0.78858332  -0.00000000  1.0
  B  B33  1  0.51506719  0.71141668  0.00000000  1.0
  B  B34  1  0.98493281  0.21141668  -0.00000000  1.0
  B  B35  1  0.48493281  0.28858332  0.00000000  1.0
