# generated using pymatgen
data_C2S2NCl3
_symmetry_space_group_name_H-M   'P 1'
_cell_length_a   5.77469256
_cell_length_b   11.08250601
_cell_length_c   12.72386615
_cell_angle_alpha   90.00000000
_cell_angle_beta   90.00000000
_cell_angle_gamma   90.00000000
_symmetry_Int_Tables_number   1
_chemical_formula_structural   C2S2NCl3
_chemical_formula_sum   'C8 S8 N4 Cl12'
_cell_volume   814.30281356
_cell_formula_units_Z   4
loop_
 _symmetry_equiv_pos_site_id
 _symmetry_equiv_pos_as_xyz
  1  'x, y, z'
loop_
 _atom_site_type_symbol
 _atom_site_label
 _atom_site_symmetry_multiplicity
 _atom_site_fract_x
 _atom_site_fract_y
 _atom_site_fract_z
 _atom_site_occupancy
  C  C0  1  0.35894753  0.42464077  0.61238945  1.0
  C  C1  1  0.85894753  0.07535923  0.38761055  1.0
  C  C2  1  0.64105247  0.92464077  0.88761055  1.0
  C  C3  1  0.14105247  0.57535923  0.11238945  1.0
  C  C4  1  0.21341609  0.49952762  0.67472444  1.0
  C  C5  1  0.71341609  1.00047238  0.32527556  1.0
  C  C6  1  0.78658391  -0.00047238  0.82527556  1.0
  C  C7  1  0.28658391  0.50047238  0.17472444  1.0
  S  S8  1  0.46376474  0.12143524  0.94588251  1.0
  S  S9  1  0.96376474  0.37856476  0.05411749  1.0
  S  S10  1  0.53623526  0.62143524  0.55411749  1.0
  S  S11  1  0.03623526  0.87856476  0.44588251  1.0
  S  S12  1  0.26360977  0.64904204  0.66181135  1.0
  S  S13  1  0.76360977  0.85095796  0.33818865  1.0
  S  S14  1  0.73639023  0.14904204  0.83818865  1.0
  S  S15  1  0.23639023  0.35095796  0.16181135  1.0
  N  N16  1  0.48105817  0.97572040  0.94614378  1.0
  N  N17  1  0.98105817  0.52427960  0.05385622  1.0
  N  N18  1  0.51894183  0.47572040  0.55385622  1.0
  N  N19  1  0.01894183  0.02427960  0.44614378  1.0
  Cl  Cl20  1  0.41062501  0.88832251  0.58067295  1.0
  Cl  Cl21  1  0.91062501  0.61167749  0.41932705  1.0
  Cl  Cl22  1  0.58937499  0.38832251  0.91932705  1.0
  Cl  Cl23  1  0.08937499  0.11167749  0.08067295  1.0
  Cl  Cl24  1  0.17155018  0.72965044  0.11146312  1.0
  Cl  Cl25  1  0.67155018  0.77034956  0.88853688  1.0
  Cl  Cl26  1  0.82844982  0.22965044  0.38853688  1.0
  Cl  Cl27  1  0.32844982  0.27034956  0.61146312  1.0
  Cl  Cl28  1  -0.00016349  0.94905422  0.74488812  1.0
  Cl  Cl29  1  0.49983651  0.55094578  0.25511188  1.0
  Cl  Cl30  1  1.00016349  0.44905422  0.75511188  1.0
  Cl  Cl31  1  0.50016349  0.05094578  0.24488812  1.0
