# generated using pymatgen
data_Ba3Nb5O15
_symmetry_space_group_name_H-M   'P 1'
_cell_length_a   12.73831634
_cell_length_b   12.73831634
_cell_length_c   4.01255771
_cell_angle_alpha   90.00000000
_cell_angle_beta   90.00000000
_cell_angle_gamma   90.00000000
_symmetry_Int_Tables_number   1
_chemical_formula_structural   Ba3Nb5O15
_chemical_formula_sum   'Ba6 Nb10 O30'
_cell_volume   651.09648650
_cell_formula_units_Z   2
loop_
 _symmetry_equiv_pos_site_id
 _symmetry_equiv_pos_as_xyz
  1  'x, y, z'
loop_
 _atom_site_type_symbol
 _atom_site_label
 _atom_site_symmetry_multiplicity
 _atom_site_fract_x
 _atom_site_fract_y
 _atom_site_fract_z
 _atom_site_occupancy
  Ba  Ba0  1  0.33201210  0.16798790  0.50000000  1.0
  Ba  Ba1  1  0.83201210  0.33201210  0.50000000  1.0
  Ba  Ba2  1  0.66798790  0.83201210  0.50000000  1.0
  Ba  Ba3  1  0.16798790  0.66798790  0.50000000  1.0
  Ba  Ba4  1  0.50000000  0.50000000  0.50000000  1.0
  Ba  Ba5  1  0.00000000  0.00000000  0.50000000  1.0
  Nb  Nb6  1  0.42253089  0.71277160  0.00000000  1.0
  Nb  Nb7  1  0.92253089  0.78722840  0.00000000  1.0
  Nb  Nb8  1  0.28722840  0.42253089  0.00000000  1.0
  Nb  Nb9  1  0.78722840  0.07746911  0.00000000  1.0
  Nb  Nb10  1  0.57746911  0.28722840  0.00000000  1.0
  Nb  Nb11  1  0.07746911  0.21277160  0.00000000  1.0
  Nb  Nb12  1  0.71277160  0.57746911  0.00000000  1.0
  Nb  Nb13  1  0.21277160  0.92253089  0.00000000  1.0
  Nb  Nb14  1  0.50000000  0.00000000  0.00000000  1.0
  Nb  Nb15  1  0.00000000  0.50000000  0.00000000  1.0
  O  O16  1  0.42218468  0.70842091  0.50000000  1.0
  O  O17  1  0.92218468  0.79157909  0.50000000  1.0
  O  O18  1  0.29157909  0.42218468  0.50000000  1.0
  O  O19  1  0.79157909  0.07781532  0.50000000  1.0
  O  O20  1  0.57781532  0.29157909  0.50000000  1.0
  O  O21  1  0.07781532  0.20842091  0.50000000  1.0
  O  O22  1  0.70842091  0.57781532  0.50000000  1.0
  O  O23  1  0.20842091  0.92218468  0.50000000  1.0
  O  O24  1  0.50657838  0.84346996  0.00000000  1.0
  O  O25  1  0.00657838  0.65653004  0.00000000  1.0
  O  O26  1  0.15653004  0.50657838  0.00000000  1.0
  O  O27  1  0.65653004  -0.00657838  0.00000000  1.0
  O  O28  1  0.49342162  0.15653004  0.00000000  1.0
  O  O29  1  -0.00657838  0.34346996  0.00000000  1.0
  O  O30  1  0.84346996  0.49342162  0.00000000  1.0
  O  O31  1  0.34346996  0.00657838  0.00000000  1.0
  O  O32  1  0.36014437  0.56872922  0.00000000  1.0
  O  O33  1  0.86014437  0.93127078  0.00000000  1.0
  O  O34  1  0.43127078  0.36014437  0.00000000  1.0
  O  O35  1  0.93127078  0.13985563  0.00000000  1.0
  O  O36  1  0.63985563  0.43127078  0.00000000  1.0
  O  O37  1  0.13985563  0.06872922  0.00000000  1.0
  O  O38  1  0.56872922  0.63985563  0.00000000  1.0
  O  O39  1  0.06872922  0.86014437  0.00000000  1.0
  O  O40  1  0.78064758  0.71935242  0.00000000  1.0
  O  O41  1  0.28064758  0.78064758  0.00000000  1.0
  O  O42  1  0.21935242  0.28064758  0.00000000  1.0
  O  O43  1  0.71935242  0.21935242  0.00000000  1.0
  O  O44  1  0.50000000  0.00000000  0.50000000  1.0
  O  O45  1  0.00000000  0.50000000  0.50000000  1.0
