# generated using pymatgen
data_MgGeO3
_symmetry_space_group_name_H-M   'P 1'
_cell_length_a   6.64298182
_cell_length_b   6.64298182
_cell_length_c   5.22811112
_cell_angle_alpha   81.88095482
_cell_angle_beta   98.11904518
_cell_angle_gamma   94.04721495
_symmetry_Int_Tables_number   1
_chemical_formula_structural   MgGeO3
_chemical_formula_sum   'Mg4 Ge4 O12'
_cell_volume   225.80865782
_cell_formula_units_Z   4
loop_
 _symmetry_equiv_pos_site_id
 _symmetry_equiv_pos_as_xyz
  1  'x, y, z'
loop_
 _atom_site_type_symbol
 _atom_site_label
 _atom_site_symmetry_multiplicity
 _atom_site_fract_x
 _atom_site_fract_y
 _atom_site_fract_z
 _atom_site_occupancy
  Mg  Mg0  1  0.76974454  0.76974454  0.75000000  1.0
  Mg  Mg1  1  0.23025546  0.23025546  0.25000000  1.0
  Mg  Mg2  1  0.40648308  0.40648308  0.75000000  1.0
  Mg  Mg3  1  0.59351692  0.59351692  0.25000000  1.0
  Ge  Ge4  1  1.29492890  -0.10549892  0.78907109  1.0
  Ge  Ge5  1  1.10549892  -0.29492890  0.28907109  1.0
  Ge  Ge6  1  0.89450108  0.29492890  0.71092891  1.0
  Ge  Ge7  1  0.70507110  0.10549892  0.21092891  1.0
  O  O8  1  1.47538615  -0.29448268  0.86849827  1.0
  O  O9  1  1.29448268  -0.47538615  0.36849827  1.0
  O  O10  1  0.70551732  0.47538615  0.63150173  1.0
  O  O11  1  0.52461385  0.29448268  0.13150173  1.0
  O  O12  1  0.79044460  0.06951791  0.90281464  1.0
  O  O13  1  0.93048209  0.20955540  0.40281464  1.0
  O  O14  1  1.06951791  -0.20955540  0.59718536  1.0
  O  O15  1  1.20955540  -0.06951791  0.09718536  1.0
  O  O16  1  0.35940943  0.12618250  0.61759953  1.0
  O  O17  1  0.87381750  0.64059057  0.11759953  1.0
  O  O18  1  1.12618250  -0.64059057  0.88240047  1.0
  O  O19  1  1.64059057  -0.12618250  0.38240047  1.0
