# generated using pymatgen
data_NaCuO
_symmetry_space_group_name_H-M   'P 1'
_cell_length_a   6.71851339
_cell_length_b   6.71851339
_cell_length_c   6.71851339
_cell_angle_alpha   97.20355211
_cell_angle_beta   97.20355211
_cell_angle_gamma   138.52203682
_symmetry_Int_Tables_number   1
_chemical_formula_structural   NaCuO
_chemical_formula_sum   'Na4 Cu4 O4'
_cell_volume   187.84571914
_cell_formula_units_Z   4
loop_
 _symmetry_equiv_pos_site_id
 _symmetry_equiv_pos_as_xyz
  1  'x, y, z'
loop_
 _atom_site_type_symbol
 _atom_site_label
 _atom_site_symmetry_multiplicity
 _atom_site_fract_x
 _atom_site_fract_y
 _atom_site_fract_z
 _atom_site_occupancy
  Na  Na0  1  0.50000000  0.82502164  0.32502164  1.0
  Na  Na1  1  0.82502164  0.50000000  1.32502164  1.0
  Na  Na2  1  0.17497836  0.50000000  0.67497836  1.0
  Na  Na3  1  0.50000000  1.17497836  0.67497836  1.0
  Cu  Cu4  1  0.85168351  0.85168351  0.70336702  1.0
  Cu  Cu5  1  1.14831649  0.85168351  1.00000000  1.0
  Cu  Cu6  1  0.85168351  0.14831649  1.00000000  1.0
  Cu  Cu7  1  0.14831649  0.14831649  0.29663298  1.0
  O  O8  1  -0.00000000  0.70627368  0.70627368  1.0
  O  O9  1  0.70627368  1.00000000  0.70627368  1.0
  O  O10  1  1.29372632  1.00000000  1.29372632  1.0
  O  O11  1  -0.00000000  0.29372632  0.29372632  1.0
