# generated using pymatgen
data_Rb3MgH5
_symmetry_space_group_name_H-M   'P 1'
_cell_length_a   8.00120964
_cell_length_b   8.00120964
_cell_length_c   12.36955538
_cell_angle_alpha   90.00000000
_cell_angle_beta   90.00000000
_cell_angle_gamma   90.00000000
_symmetry_Int_Tables_number   1
_chemical_formula_structural   Rb3MgH5
_chemical_formula_sum   'Rb12 Mg4 H20'
_cell_volume   791.89096654
_cell_formula_units_Z   4
loop_
 _symmetry_equiv_pos_site_id
 _symmetry_equiv_pos_as_xyz
  1  'x, y, z'
loop_
 _atom_site_type_symbol
 _atom_site_label
 _atom_site_symmetry_multiplicity
 _atom_site_fract_x
 _atom_site_fract_y
 _atom_site_fract_z
 _atom_site_occupancy
  Rb  Rb0  1  0.68260439  0.68260439  0.75000000  1.0
  Rb  Rb1  1  0.68260439  0.31739561  0.25000000  1.0
  Rb  Rb2  1  0.81739561  0.81739561  0.25000000  1.0
  Rb  Rb3  1  0.18260439  0.81739561  0.75000000  1.0
  Rb  Rb4  1  0.31739561  0.31739561  0.75000000  1.0
  Rb  Rb5  1  0.31739561  0.68260439  0.25000000  1.0
  Rb  Rb6  1  0.18260439  0.18260439  0.25000000  1.0
  Rb  Rb7  1  0.81739561  0.18260439  0.75000000  1.0
  Rb  Rb8  1  0.00000000  0.50000000  0.49479049  1.0
  Rb  Rb9  1  0.00000000  0.50000000  -0.00520951  1.0
  Rb  Rb10  1  0.50000000  0.00000000  0.50520951  1.0
  Rb  Rb11  1  0.50000000  0.00000000  0.00520951  1.0
  Mg  Mg12  1  0.50000000  0.50000000  0.50000000  1.0
  Mg  Mg13  1  0.50000000  0.50000000  0.00000000  1.0
  Mg  Mg14  1  0.00000000  0.00000000  0.50000000  1.0
  Mg  Mg15  1  0.00000000  0.00000000  0.00000000  1.0
  H  H16  1  0.38301640  0.64128094  0.59187277  1.0
  H  H17  1  0.38301640  0.35871906  0.09187277  1.0
  H  H18  1  0.11698360  0.85871906  0.40812723  1.0
  H  H19  1  0.88301640  0.85871906  0.90812723  1.0
  H  H20  1  0.61698360  0.35871906  0.59187277  1.0
  H  H21  1  0.61698360  0.64128094  0.09187277  1.0
  H  H22  1  0.88301640  0.14128094  0.40812723  1.0
  H  H23  1  0.11698360  0.14128094  0.90812723  1.0
  H  H24  1  0.64128094  0.61698360  0.40812723  1.0
  H  H25  1  0.35871906  0.61698360  0.90812723  1.0
  H  H26  1  0.14128094  0.11698360  0.59187277  1.0
  H  H27  1  0.85871906  0.11698360  0.09187277  1.0
  H  H28  1  0.35871906  0.38301640  0.40812723  1.0
  H  H29  1  0.64128094  0.38301640  0.90812723  1.0
  H  H30  1  0.85871906  0.88301640  0.59187277  1.0
  H  H31  1  0.14128094  0.88301640  0.09187277  1.0
  H  H32  1  0.00000000  0.50000000  0.73943516  1.0
  H  H33  1  0.00000000  0.50000000  0.23943516  1.0
  H  H34  1  0.50000000  0.00000000  0.26056484  1.0
  H  H35  1  0.50000000  0.00000000  0.76056484  1.0
