# generated using pymatgen
data_CsPbCl3
_symmetry_space_group_name_H-M   'P 1'
_cell_length_a   8.12110358
_cell_length_b   11.35964300
_cell_length_c   7.92836557
_cell_angle_alpha   90.00000000
_cell_angle_beta   90.00000000
_cell_angle_gamma   90.00000000
_symmetry_Int_Tables_number   1
_chemical_formula_structural   CsPbCl3
_chemical_formula_sum   'Cs4 Pb4 Cl12'
_cell_volume   731.41422042
_cell_formula_units_Z   4
loop_
 _symmetry_equiv_pos_site_id
 _symmetry_equiv_pos_as_xyz
  1  'x, y, z'
loop_
 _atom_site_type_symbol
 _atom_site_label
 _atom_site_symmetry_multiplicity
 _atom_site_fract_x
 _atom_site_fract_y
 _atom_site_fract_z
 _atom_site_occupancy
  Cs  Cs0  1  0.04881643  0.25000000  0.48754399  1.0
  Cs  Cs1  1  0.54881643  0.25000000  0.01245601  1.0
  Cs  Cs2  1  0.95118357  0.75000000  0.51245601  1.0
  Cs  Cs3  1  0.45118357  0.75000000  0.98754399  1.0
  Pb  Pb4  1  0.50000000  0.00000000  0.50000000  1.0
  Pb  Pb5  1  0.00000000  0.50000000  0.00000000  1.0
  Pb  Pb6  1  0.50000000  0.50000000  0.50000000  1.0
  Pb  Pb7  1  0.00000000  0.00000000  0.00000000  1.0
  Cl  Cl8  1  0.70909435  0.96316647  0.79271997  1.0
  Cl  Cl9  1  0.20909435  0.53683353  0.70728003  1.0
  Cl  Cl10  1  0.29090565  0.46316647  0.20728003  1.0
  Cl  Cl11  1  0.79090565  0.03683353  0.29271997  1.0
  Cl  Cl12  1  0.29090565  0.03683353  0.20728003  1.0
  Cl  Cl13  1  0.79090565  0.46316647  0.29271997  1.0
  Cl  Cl14  1  0.70909435  0.53683353  0.79271997  1.0
  Cl  Cl15  1  0.20909435  0.96316647  0.70728003  1.0
  Cl  Cl16  1  0.48322970  0.25000000  0.57037843  1.0
  Cl  Cl17  1  0.98322970  0.25000000  0.92962157  1.0
  Cl  Cl18  1  0.51677030  0.75000000  0.42962157  1.0
  Cl  Cl19  1  0.01677030  0.75000000  0.07037843  1.0
