# generated using pymatgen
data_FePH6NO5
_symmetry_space_group_name_H-M   'P 1'
_cell_length_a   5.74272513
_cell_length_b   8.99981959
_cell_length_c   4.83347001
_cell_angle_alpha   90.00000000
_cell_angle_beta   90.00000000
_cell_angle_gamma   90.00000000
_symmetry_Int_Tables_number   1
_chemical_formula_structural   FePH6NO5
_chemical_formula_sum   'Fe2 P2 H12 N2 O10'
_cell_volume   249.81059937
_cell_formula_units_Z   2
loop_
 _symmetry_equiv_pos_site_id
 _symmetry_equiv_pos_as_xyz
  1  'x, y, z'
loop_
 _atom_site_type_symbol
 _atom_site_label
 _atom_site_symmetry_multiplicity
 _atom_site_fract_x
 _atom_site_fract_y
 _atom_site_fract_z
 _atom_site_occupancy
  Fe  Fe0  1  0.50000000  0.47504993  0.94669847  1.0
  Fe  Fe1  1  0.00000000  0.52495007  0.44669847  1.0
  O  O2  1  0.50000000  0.86234321  0.56346758  1.0
  O  O3  1  0.00000000  0.13765679  0.06346758  1.0
  O  O4  1  0.50000000  0.66712793  0.18835997  1.0
  O  O5  1  0.00000000  0.33287207  0.68835997  1.0
  O  O6  1  0.50000000  0.28754754  0.62686452  1.0
  O  O7  1  0.00000000  0.71245246  0.12686452  1.0
  O  O8  1  0.28317966  0.61538757  0.64639514  1.0
  O  O9  1  0.78317966  0.38461243  0.14639514  1.0
  O  O10  1  0.71682034  0.61538757  0.64639514  1.0
  O  O11  1  0.21682034  0.38461243  0.14639514  1.0
  N  N12  1  0.50000000  0.01924078  0.06150576  1.0
  N  N13  1  0.00000000  0.98075922  0.56150576  1.0
  H  H14  1  0.14800737  0.91518770  0.55701743  1.0
  H  H15  1  0.64800737  0.08481230  0.05701743  1.0
  H  H16  1  0.85199263  0.91518770  0.55701743  1.0
  H  H17  1  0.35199263  0.08481230  0.05701743  1.0
  H  H18  1  0.13577376  0.69254963  0.00827402  1.0
  H  H19  1  0.63577376  0.30745037  0.50827402  1.0
  H  H20  1  0.86422624  0.69254963  0.00827402  1.0
  H  H21  1  0.36422624  0.30745037  0.50827402  1.0
  H  H22  1  0.50000000  0.95505139  0.24400024  1.0
  H  H23  1  0.00000000  0.04494861  0.74400023  1.0
  H  H24  1  0.50000000  0.94954943  0.88596333  1.0
  H  H25  1  0.00000000  0.05045057  0.38596333  1.0
  P  P26  1  0.50000000  0.69193983  0.50336696  1.0
  P  P27  1  0.00000000  0.30806017  0.00336696  1.0
