# generated using pymatgen
data_CaRe3H9(S2O3)2
_symmetry_space_group_name_H-M   'P 1'
_cell_length_a   9.07660821
_cell_length_b   9.07660821
_cell_length_c   8.92053327
_cell_angle_alpha   90.00000000
_cell_angle_beta   90.00000000
_cell_angle_gamma   120.00000000
_symmetry_Int_Tables_number   1
_chemical_formula_structural   CaRe3H9(S2O3)2
_chemical_formula_sum   'Ca2 Re6 H18 S8 O12'
_cell_volume   636.45635614
_cell_formula_units_Z   2
loop_
 _symmetry_equiv_pos_site_id
 _symmetry_equiv_pos_as_xyz
  1  'x, y, z'
loop_
 _atom_site_type_symbol
 _atom_site_label
 _atom_site_symmetry_multiplicity
 _atom_site_fract_x
 _atom_site_fract_y
 _atom_site_fract_z
 _atom_site_occupancy
  Ca  Ca0  1  0.33333333  0.66666667  0.16610180  1.0
  Ca  Ca1  1  0.66666667  0.33333333  0.83389820  1.0
  Re  Re2  1  0.12767618  0.94024573  0.38117874  1.0
  Re  Re3  1  0.94024573  0.81256955  0.61882126  1.0
  Re  Re4  1  0.81256955  0.87232382  0.38117874  1.0
  Re  Re5  1  0.05975427  0.18743045  0.38117874  1.0
  Re  Re6  1  0.87232382  0.05975427  0.61882126  1.0
  Re  Re7  1  0.18743045  0.12767618  0.61882126  1.0
  H  H8  1  0.35262380  0.97914774  0.18923270  1.0
  H  H9  1  0.97914774  0.62652394  0.81076730  1.0
  H  H10  1  0.62652394  0.64737620  0.18923270  1.0
  H  H11  1  0.02085226  0.37347606  0.18923270  1.0
  H  H12  1  0.64737620  0.02085226  0.81076730  1.0
  H  H13  1  0.37347606  0.35262380  0.81076730  1.0
  H  H14  1  0.80124465  0.63645836  -0.03496205  1.0
  H  H15  1  0.63645836  0.83521371  1.03496205  1.0
  H  H16  1  0.83521371  0.19875535  -0.03496205  1.0
  H  H17  1  0.36354164  0.16478629  -0.03496205  1.0
  H  H18  1  0.19875536  0.36354164  1.03496205  1.0
  H  H19  1  0.16478629  0.80124465  1.03496205  1.0
  H  H20  1  0.79183031  0.55987333  0.12455846  1.0
  H  H21  1  0.55987333  0.76804302  0.87544154  1.0
  H  H22  1  0.76804302  0.20816969  0.12455846  1.0
  H  H23  1  0.44012667  0.23195698  0.12455846  1.0
  H  H24  1  0.20816969  0.44012667  0.87544154  1.0
  H  H25  1  0.23195698  0.79183031  0.87544154  1.0
  S  S26  1  0.88967365  0.65122636  0.38671115  1.0
  S  S27  1  0.65122636  0.76155271  0.61328885  1.0
  S  S28  1  0.76155271  0.11032635  0.38671115  1.0
  S  S29  1  0.34877364  0.23844729  0.38671115  1.0
  S  S30  1  0.11032635  0.34877364  0.61328885  1.0
  S  S31  1  0.23844729  0.88967365  0.61328885  1.0
  S  S32  1  0.00000000  0.00000000  0.17089846  1.0
  S  S33  1  0.00000000  0.00000000  0.82910154  1.0
  O  O34  1  0.27251890  0.87327792  0.24005937  1.0
  O  O35  1  0.87327792  0.60075903  0.75994063  1.0
  O  O36  1  0.60075903  0.72748110  0.24005937  1.0
  O  O37  1  0.12672208  0.39924097  0.24005937  1.0
  O  O38  1  0.72748110  0.12672208  0.75994063  1.0
  O  O39  1  0.39924097  0.27251890  0.75994063  1.0
  O  O40  1  0.72175671  0.55245798  0.03787499  1.0
  O  O41  1  0.55245798  0.83070127  0.96212501  1.0
  O  O42  1  0.83070127  0.27824329  0.03787499  1.0
  O  O43  1  0.44754202  0.16929873  0.03787499  1.0
  O  O44  1  0.27824329  0.44754202  0.96212501  1.0
  O  O45  1  0.16929873  0.72175671  0.96212501  1.0
