# generated using pymatgen
data_GdNiGe
_symmetry_space_group_name_H-M   'P 1'
_cell_length_a   7.03871153
_cell_length_b   4.27606702
_cell_length_c   7.30053102
_cell_angle_alpha   90.00000000
_cell_angle_beta   90.00000000
_cell_angle_gamma   90.00000000
_symmetry_Int_Tables_number   1
_chemical_formula_structural   GdNiGe
_chemical_formula_sum   'Gd4 Ni4 Ge4'
_cell_volume   219.73139920
_cell_formula_units_Z   4
loop_
 _symmetry_equiv_pos_site_id
 _symmetry_equiv_pos_as_xyz
  1  'x, y, z'
loop_
 _atom_site_type_symbol
 _atom_site_label
 _atom_site_symmetry_multiplicity
 _atom_site_fract_x
 _atom_site_fract_y
 _atom_site_fract_z
 _atom_site_occupancy
  Gd  Gd0  1  1.00960415  0.75000000  0.70563199  1.0
  Gd  Gd1  1  0.50960415  0.75000000  0.79436801  1.0
  Gd  Gd2  1  -0.00960415  0.25000000  0.29436801  1.0
  Gd  Gd3  1  0.49039585  0.25000000  0.20563199  1.0
  Ni  Ni4  1  0.80710761  0.75000000  0.08240512  1.0
  Ni  Ni5  1  0.30710761  0.75000000  0.41759488  1.0
  Ni  Ni6  1  0.19289239  0.25000000  0.91759488  1.0
  Ni  Ni7  1  0.69289239  0.25000000  0.58240512  1.0
  Ge  Ge8  1  0.69450866  0.75000000  0.41188939  1.0
  Ge  Ge9  1  0.19450866  0.75000000  0.08811061  1.0
  Ge  Ge10  1  0.30549134  0.25000000  0.58811061  1.0
  Ge  Ge11  1  0.80549134  0.25000000  0.91188939  1.0
