# generated using pymatgen
data_K2Ti(Si2O5)3
_symmetry_space_group_name_H-M   'P 1'
_cell_length_a   7.59701045
_cell_length_b   7.33565484
_cell_length_c   7.02648232
_cell_angle_alpha   112.74739657
_cell_angle_beta   105.99848356
_cell_angle_gamma   99.04373851
_symmetry_Int_Tables_number   1
_chemical_formula_structural   K2Ti(Si2O5)3
_chemical_formula_sum   'K2 Ti1 Si6 O15'
_cell_volume   331.41424163
_cell_formula_units_Z   1
loop_
 _symmetry_equiv_pos_site_id
 _symmetry_equiv_pos_as_xyz
  1  'x, y, z'
loop_
 _atom_site_type_symbol
 _atom_site_label
 _atom_site_symmetry_multiplicity
 _atom_site_fract_x
 _atom_site_fract_y
 _atom_site_fract_z
 _atom_site_occupancy
  K  K0  1  -0.32112082  -0.71412772  -0.78480238  1.0
  K  K1  1  -0.67887918  -0.28587228  -0.21519762  1.0
  Ti  Ti2  1  -0.50000000  -0.00000000  -0.50000000  1.0
  Si  Si3  1  -0.75717161  -0.81356277  -0.19902174  1.0
  Si  Si4  1  -0.24282839  -0.18643723  -0.80097826  1.0
  Si  Si5  1  -0.86951342  -0.83187339  -0.64594593  1.0
  Si  Si6  1  -0.13048658  -0.16812661  -0.35405407  1.0
  Si  Si7  1  -0.81168110  -0.49720406  -0.81602880  1.0
  Si  Si8  1  -0.18831890  -0.50279594  -0.18397120  1.0
  O  O9  1  0.00000000  -0.50000000  0.00000000  1.0
  O  O10  1  -0.92143851  -0.99085508  -0.20188546  1.0
  O  O11  1  -0.07856149  -0.00914492  -0.79811454  1.0
  O  O12  1  -0.58209806  -0.90112170  -0.23930398  1.0
  O  O13  1  -0.41790194  -0.09887830  -0.76069602  1.0
  O  O14  1  -0.85224800  -0.73543661  -0.38316723  1.0
  O  O15  1  -0.14775200  -0.26456339  -0.61683277  1.0
  O  O16  1  -0.68608433  -0.27161330  -0.62112966  1.0
  O  O17  1  -0.31391567  -0.72838670  -0.37887034  1.0
  O  O18  1  -0.68876448  -0.91229414  -0.66982416  1.0
  O  O19  1  -0.31123552  -0.08770586  -0.33017584  1.0
  O  O20  1  -0.88966020  -0.63875432  -0.70545486  1.0
  O  O21  1  -0.11033980  -0.36124568  -0.29454514  1.0
  O  O22  1  -0.68197334  -0.61234496  -0.95211438  1.0
  O  O23  1  -0.31802666  -0.38765504  -0.04788562  1.0
