# generated using pymatgen
data_SrNi3(P2O7)2
_symmetry_space_group_name_H-M   'P 1'
_cell_length_a   7.50708457
_cell_length_b   7.78356933
_cell_length_c   9.54818274
_cell_angle_alpha   90.00000000
_cell_angle_beta   112.30132620
_cell_angle_gamma   90.00000000
_symmetry_Int_Tables_number   1
_chemical_formula_structural   SrNi3(P2O7)2
_chemical_formula_sum   'Sr2 Ni6 P8 O28'
_cell_volume   516.18679728
_cell_formula_units_Z   2
loop_
 _symmetry_equiv_pos_site_id
 _symmetry_equiv_pos_as_xyz
  1  'x, y, z'
loop_
 _atom_site_type_symbol
 _atom_site_label
 _atom_site_symmetry_multiplicity
 _atom_site_fract_x
 _atom_site_fract_y
 _atom_site_fract_z
 _atom_site_occupancy
  Ni  Ni0  1  0.81660868  0.87369126  0.47738986  1.0
  Ni  Ni1  1  0.81660868  0.62630874  0.97738986  1.0
  Ni  Ni2  1  0.18339132  0.37369126  0.02261014  1.0
  Ni  Ni3  1  0.18339132  0.12630874  0.52261014  1.0
  Ni  Ni4  1  -0.00000000  0.50000000  0.50000000  1.0
  Ni  Ni5  1  0.00000000  0.00000000  0.00000000  1.0
  O  O6  1  0.37527366  0.18106206  0.41623796  1.0
  O  O7  1  0.37527366  0.31893794  0.91623796  1.0
  O  O8  1  0.62472634  0.68106206  0.08376204  1.0
  O  O9  1  0.62472634  0.81893794  0.58376204  1.0
  O  O10  1  0.84565423  0.12478484  0.11056380  1.0
  O  O11  1  0.84565423  0.37521516  0.61056380  1.0
  O  O12  1  0.15434577  0.62478484  0.38943620  1.0
  O  O13  1  0.15434577  0.87521516  0.88943620  1.0
  O  O14  1  0.68233819  0.37106995  0.17659805  1.0
  O  O15  1  0.68233819  0.12893005  0.67659805  1.0
  O  O16  1  0.31766181  0.87106995  0.32340195  1.0
  O  O17  1  0.31766181  0.62893005  0.82340195  1.0
  O  O18  1  0.60084461  0.01847270  0.30740239  1.0
  O  O19  1  0.60084461  0.48152730  0.80740239  1.0
  O  O20  1  0.39915539  0.51847270  0.19259761  1.0
  O  O21  1  0.39915539  0.98152730  0.69259761  1.0
  O  O22  1  0.26919474  0.11512822  0.13307077  1.0
  O  O23  1  0.26919474  0.38487178  0.63307077  1.0
  O  O24  1  0.73080526  0.61512822  0.36692923  1.0
  O  O25  1  0.73080526  0.88487178  0.86692923  1.0
  O  O26  1  1.00083628  0.29115074  0.36618607  1.0
  O  O27  1  1.00083628  0.20884926  0.86618607  1.0
  O  O28  1  -0.00083628  0.79115074  0.13381393  1.0
  O  O29  1  -0.00083628  0.70884926  0.63381393  1.0
  O  O30  1  0.97570705  0.42671513  0.11214816  1.0
  O  O31  1  0.97570705  0.07328487  0.61214816  1.0
  O  O32  1  0.02429295  0.92671513  0.38785184  1.0
  O  O33  1  0.02429295  0.57328487  0.88785184  1.0
  Sr  Sr34  1  0.50000000  0.50000000  0.50000000  1.0
  Sr  Sr35  1  0.50000000  0.00000000  0.00000000  1.0
  P  P36  1  0.89036914  0.29752098  0.19283076  1.0
  P  P37  1  0.89036914  0.20247902  0.69283076  1.0
  P  P38  1  0.10963086  0.79752098  0.30716924  1.0
  P  P39  1  0.10963086  0.70247902  0.80716924  1.0
  P  P40  1  0.39657740  0.05785640  0.29868715  1.0
  P  P41  1  0.39657740  0.44214360  0.79868715  1.0
  P  P42  1  0.60342260  0.55785640  0.20131285  1.0
  P  P43  1  0.60342260  0.94214360  0.70131285  1.0
