# generated using pymatgen
data_RbB(CN)4
_symmetry_space_group_name_H-M   'P 1'
_cell_length_a   9.14890023
_cell_length_b   9.14890023
_cell_length_c   9.14890023
_cell_angle_alpha   132.98682810
_cell_angle_beta   132.98682810
_cell_angle_gamma   68.67483424
_symmetry_Int_Tables_number   1
_chemical_formula_structural   RbB(CN)4
_chemical_formula_sum   'Rb2 B2 C8 N8'
_cell_volume   402.37754077
_cell_formula_units_Z   2
loop_
 _symmetry_equiv_pos_site_id
 _symmetry_equiv_pos_as_xyz
  1  'x, y, z'
loop_
 _atom_site_type_symbol
 _atom_site_label
 _atom_site_symmetry_multiplicity
 _atom_site_fract_x
 _atom_site_fract_y
 _atom_site_fract_z
 _atom_site_occupancy
  Rb  Rb0  1  0.25000000  0.75000000  0.50000000  1.0
  Rb  Rb1  1  0.50000000  0.50000000  0.00000000  1.0
  B  B2  1  0.75000000  0.25000000  0.50000000  1.0
  B  B3  1  1.00000000  1.00000000  1.00000000  1.0
  C  C4  1  0.96005725  1.21238680  1.55334003  1.0
  C  C5  1  0.65904678  0.40671722  0.44665997  1.0
  C  C6  1  1.15671722  1.21005725  1.24767045  1.0
  C  C7  1  0.96238680  0.90904678  0.75232955  1.0
  C  C8  1  0.78994275  1.03761320  0.94665997  1.0
  C  C9  1  1.09095322  0.84328278  1.05334003  1.0
  C  C10  1  0.59328278  1.03994275  1.25232955  1.0
  C  C11  1  0.78761320  0.34095322  0.74767045  1.0
  N  N12  1  1.11448199  1.18211044  1.59364307  1.0
  N  N13  1  0.58846737  0.52083893  0.40635693  1.0
  N  N14  1  1.27083893  1.36448199  1.43237155  1.0
  N  N15  1  0.93211044  0.83846737  0.56762845  1.0
  N  N16  1  0.63551801  1.06788956  0.90635693  1.0
  N  N17  1  1.16153263  0.72916107  1.09364307  1.0
  N  N18  1  0.47916107  0.88551801  1.06762845  1.0
  N  N19  1  0.81788956  0.41153263  0.93237155  1.0
