# generated using pymatgen
data_Li7TaO6
_symmetry_space_group_name_H-M   'P 1'
_cell_length_a   5.86453548
_cell_length_b   5.86453548
_cell_length_c   5.86453548
_cell_angle_alpha   56.71810341
_cell_angle_beta   56.71810341
_cell_angle_gamma   56.71810341
_symmetry_Int_Tables_number   1
_chemical_formula_structural   Li7TaO6
_chemical_formula_sum   'Li7 Ta1 O6'
_cell_volume   131.81428515
_cell_formula_units_Z   1
loop_
 _symmetry_equiv_pos_site_id
 _symmetry_equiv_pos_as_xyz
  1  'x, y, z'
loop_
 _atom_site_type_symbol
 _atom_site_label
 _atom_site_symmetry_multiplicity
 _atom_site_fract_x
 _atom_site_fract_y
 _atom_site_fract_z
 _atom_site_occupancy
  Li  Li0  1  0.72618059  -0.50051964  0.12077141  1.0
  Li  Li1  1  1.12077141  -0.27381941  -0.50051964  1.0
  Li  Li2  1  0.49948036  0.12077141  -0.27381941  1.0
  Li  Li3  1  0.23394136  0.48954564  -0.06849373  1.0
  Li  Li4  1  0.93150627  0.23394136  -0.51045436  1.0
  Li  Li5  1  0.48954564  0.93150627  -0.76605864  1.0
  Li  Li6  1  0.65284168  0.65284168  -0.34715832  1.0
  Ta  Ta7  1  0.00173558  0.00173558  0.00173558  1.0
  O  O8  1  0.88475538  -0.35786250  0.23205768  1.0
  O  O9  1  1.23205768  -0.11524462  -0.35786250  1.0
  O  O10  1  0.64213750  0.23205768  -0.11524462  1.0
  O  O11  1  0.07301918  0.37595438  -0.20222701  1.0
  O  O12  1  0.79777299  0.07301918  -0.62404562  1.0
  O  O13  1  0.37595438  0.79777299  -0.92698082  1.0
