# generated using pymatgen
data_Na2Mn3(SO4)4
_symmetry_space_group_name_H-M   'P 1'
_cell_length_a   9.02813122
_cell_length_b   9.02813122
_cell_length_c   8.89550926
_cell_angle_alpha   90.00000000
_cell_angle_beta   90.00000000
_cell_angle_gamma   67.16184337
_symmetry_Int_Tables_number   1
_chemical_formula_structural   Na2Mn3(SO4)4
_chemical_formula_sum   'Na4 Mn6 S8 O32'
_cell_volume   668.20743885
_cell_formula_units_Z   2
loop_
 _symmetry_equiv_pos_site_id
 _symmetry_equiv_pos_as_xyz
  1  'x, y, z'
loop_
 _atom_site_type_symbol
 _atom_site_label
 _atom_site_symmetry_multiplicity
 _atom_site_fract_x
 _atom_site_fract_y
 _atom_site_fract_z
 _atom_site_occupancy
  Na  Na0  1  -0.42323291  1.15421221  0.72482199  1.0
  Na  Na1  1  -0.15421221  1.42323291  0.72482199  1.0
  Na  Na2  1  0.42323291  0.84578779  0.22482199  1.0
  Na  Na3  1  0.15421221  0.57676709  0.22482199  1.0
  Mn  Mn4  1  -0.76863041  1.05597627  0.76022437  1.0
  Mn  Mn5  1  -0.05597627  1.76863041  0.76022437  1.0
  Mn  Mn6  1  0.76863041  0.94402373  0.26022437  1.0
  Mn  Mn7  1  0.05597627  0.23136959  0.26022437  1.0
  Mn  Mn8  1  -0.43368934  1.43368934  0.09714725  1.0
  Mn  Mn9  1  0.43368934  0.56631066  0.59714725  1.0
  S  S10  1  -0.13048704  1.13048704  0.95367051  1.0
  S  S11  1  0.13048704  0.86951296  0.45367051  1.0
  S  S12  1  -0.59627103  1.15890888  0.06398190  1.0
  S  S13  1  -0.15890888  1.59627103  0.06398190  1.0
  S  S14  1  0.59627103  0.84109112  0.56398190  1.0
  S  S15  1  0.15890888  0.40372897  0.56398190  1.0
  S  S16  1  0.30186298  0.69813702  0.93148630  1.0
  S  S17  1  -0.30186298  1.30186298  0.43148630  1.0
  O  O18  1  0.00141271  0.16207684  0.87841565  1.0
  O  O19  1  0.83792316  0.99858729  0.87841565  1.0
  O  O20  1  -0.00141271  1.83792316  0.37841565  1.0
  O  O21  1  -0.83792316  1.00141271  0.37841565  1.0
  O  O22  1  -0.28209633  1.28209633  0.93617841  1.0
  O  O23  1  0.28209633  0.71790367  0.43617841  1.0
  O  O24  1  -0.60533112  1.32297996  0.10444083  1.0
  O  O25  1  -0.32297996  1.60533112  0.10444083  1.0
  O  O26  1  0.60533112  0.67702004  0.60444083  1.0
  O  O27  1  0.32297996  0.39466888  0.60444083  1.0
  O  O28  1  0.30477746  0.85920661  0.90670587  1.0
  O  O29  1  0.14079339  0.69522254  0.90670587  1.0
  O  O30  1  -0.30477746  1.14079339  0.40670587  1.0
  O  O31  1  -0.14079339  1.30477746  0.40670587  1.0
  O  O32  1  0.43843624  0.96713589  0.61025031  1.0
  O  O33  1  0.03286411  0.56156376  0.61025031  1.0
  O  O34  1  -0.43843624  1.03286411  0.11025031  1.0
  O  O35  1  -0.03286411  1.43843624  0.11025031  1.0
  O  O36  1  0.09600092  0.90399908  0.61808387  1.0
  O  O37  1  -0.09600092  1.09600092  0.11808387  1.0
  O  O38  1  0.34817150  0.65182850  0.09354361  1.0
  O  O39  1  -0.34817150  1.34817150  0.59354361  1.0
  O  O40  1  0.42561999  0.57438001  0.83577543  1.0
  O  O41  1  -0.42561999  1.42561999  0.33577543  1.0
  O  O42  1  -0.72616052  1.12544475  0.14341987  1.0
  O  O43  1  -0.12544475  1.72616052  0.14341987  1.0
  O  O44  1  0.72616052  0.87455525  0.64341987  1.0
  O  O45  1  0.12544475  0.27383948  0.64341987  1.0
  O  O46  1  -0.61758169  1.14966732  0.89780151  1.0
  O  O47  1  -0.14966732  1.61758169  0.89780151  1.0
  O  O48  1  0.61758169  0.85033268  0.39780151  1.0
  O  O49  1  0.14966732  0.38241831  0.39780151  1.0
