# generated using pymatgen
data_TeO2
_symmetry_space_group_name_H-M   'P 1'
_cell_length_a   6.03722525
_cell_length_b   7.78247500
_cell_length_c   7.16638950
_cell_angle_alpha   74.64841368
_cell_angle_beta   67.42974921
_cell_angle_gamma   94.35923550
_symmetry_Int_Tables_number   1
_chemical_formula_structural   TeO2
_chemical_formula_sum   'Te6 O12'
_cell_volume   293.80164954
_cell_formula_units_Z   6
loop_
 _symmetry_equiv_pos_site_id
 _symmetry_equiv_pos_as_xyz
  1  'x, y, z'
loop_
 _atom_site_type_symbol
 _atom_site_label
 _atom_site_symmetry_multiplicity
 _atom_site_fract_x
 _atom_site_fract_y
 _atom_site_fract_z
 _atom_site_occupancy
  Te  Te0  1  0.75846293  -0.96067836  0.18285801  1.0
  Te  Te1  1  -0.75846293  -0.03932164  0.81714199  1.0
  Te  Te2  1  0.02776087  -0.75908510  0.47705690  1.0
  Te  Te3  1  -0.02776087  -0.24091490  0.52294310  1.0
  Te  Te4  1  -0.60350599  -0.59097300  0.86329546  1.0
  Te  Te5  1  0.60350599  -0.40902700  0.13670454  1.0
  O  O6  1  -0.01675794  -0.88106704  0.84821393  1.0
  O  O7  1  0.01675794  -0.11893296  0.15178607  1.0
  O  O8  1  0.27342410  -0.54358204  0.41761665  1.0
  O  O9  1  -0.27342410  -0.45641796  0.58238335  1.0
  O  O10  1  -0.40307135  -0.64389087  1.02665965  1.0
  O  O11  1  0.40307135  -0.35610913  -0.02665965  1.0
  O  O12  1  -0.52366540  -0.83416661  0.79810693  1.0
  O  O13  1  0.52366540  -0.16583339  0.20189307  1.0
  O  O14  1  0.07360970  -0.73365544  0.17499908  1.0
  O  O15  1  -0.07360970  -0.26634456  0.82500092  1.0
  O  O16  1  -0.24837424  -1.06186048  0.51191248  1.0
  O  O17  1  0.24837424  0.06186048  0.48808752  1.0
