# generated using pymatgen
data_InH2NCl2
_symmetry_space_group_name_H-M   'P 1'
_cell_length_a   8.49816015
_cell_length_b   8.49816015
_cell_length_c   8.49816015
_cell_angle_alpha   111.28272325
_cell_angle_beta   111.28272325
_cell_angle_gamma   105.90597133
_symmetry_Int_Tables_number   1
_chemical_formula_structural   InH2NCl2
_chemical_formula_sum   'In4 H8 N4 Cl8'
_cell_volume   471.08573958
_cell_formula_units_Z   4
loop_
 _symmetry_equiv_pos_site_id
 _symmetry_equiv_pos_as_xyz
  1  'x, y, z'
loop_
 _atom_site_type_symbol
 _atom_site_label
 _atom_site_symmetry_multiplicity
 _atom_site_fract_x
 _atom_site_fract_y
 _atom_site_fract_z
 _atom_site_occupancy
  In  In0  1  0.87500000  0.12500000  0.75000000  1.0
  In  In1  1  0.37500000  0.12500000  0.25000000  1.0
  In  In2  1  0.87500000  0.62500000  0.75000000  1.0
  In  In3  1  0.87500000  1.12500000  1.25000000  1.0
  H  H4  1  0.43339536  0.53644689  0.74895085  1.0
  H  H5  1  0.96250396  0.56555549  1.24895085  1.0
  H  H6  1  0.46355311  1.21250396  0.89694847  1.0
  H  H7  1  0.43444451  0.68339536  0.39694847  1.0
  H  H8  1  0.78749604  0.68444451  1.25104915  1.0
  H  H9  1  0.31660464  0.71355311  0.75104915  1.0
  H  H10  1  1.31555549  0.56660464  1.10305153  1.0
  H  H11  1  1.28644689  1.03749604  1.60305153  1.0
  N  N12  1  0.37500000  0.62500000  0.75000000  1.0
  N  N13  1  0.87500000  0.62500000  1.25000000  1.0
  N  N14  1  0.37500000  1.12500000  0.75000000  1.0
  N  N15  1  0.37500000  0.62500000  0.25000000  1.0
  Cl  Cl16  1  1.17547129  0.93527683  1.79345104  1.0
  Cl  Cl17  1  0.60817421  0.86797975  1.29345104  1.0
  Cl  Cl18  1  1.06472317  0.85817421  1.24019446  1.0
  Cl  Cl19  1  1.13202025  1.42547129  1.74019446  1.0
  Cl  Cl20  1  0.14182579  0.38202025  0.20654896  1.0
  Cl  Cl21  1  0.57452871  0.31472317  0.70654896  1.0
  Cl  Cl22  1  0.61797975  0.82452871  0.75980554  1.0
  Cl  Cl23  1  0.68527683  0.39182579  0.25980554  1.0
