# generated using pymatgen
data_KNa2NiO2
_symmetry_space_group_name_H-M   'P 1'
_cell_length_a   5.67524630
_cell_length_b   5.67524630
_cell_length_c   13.29496745
_cell_angle_alpha   90.00000000
_cell_angle_beta   90.00000000
_cell_angle_gamma   108.30139227
_symmetry_Int_Tables_number   1
_chemical_formula_structural   KNa2NiO2
_chemical_formula_sum   'K4 Na8 Ni4 O8'
_cell_volume   406.55012428
_cell_formula_units_Z   4
loop_
 _symmetry_equiv_pos_site_id
 _symmetry_equiv_pos_as_xyz
  1  'x, y, z'
loop_
 _atom_site_type_symbol
 _atom_site_label
 _atom_site_symmetry_multiplicity
 _atom_site_fract_x
 _atom_site_fract_y
 _atom_site_fract_z
 _atom_site_occupancy
  K  K0  1  -0.24998044  1.24998044  0.12501553  1.0
  K  K1  1  0.25001956  0.74998044  0.37498447  1.0
  K  K2  1  0.24998044  0.75001956  0.87498447  1.0
  K  K3  1  -0.25001956  1.25001956  0.62501553  1.0
  Na  Na4  1  0.24999984  1.25000016  0.25000000  1.0
  Na  Na5  1  -0.25000016  0.75000016  0.25000000  1.0
  Na  Na6  1  0.25000016  1.24999984  0.75000000  1.0
  Na  Na7  1  -0.24999984  0.74999984  0.75000000  1.0
  Na  Na8  1  0.24995621  1.24995621  0.50000000  1.0
  Na  Na9  1  -0.25004379  0.74995621  0.00000000  1.0
  Na  Na10  1  -0.24995621  0.75004379  0.50000000  1.0
  Na  Na11  1  0.25004379  1.25004379  0.00000000  1.0
  Ni  Ni12  1  -0.25000421  1.25000421  0.37502408  1.0
  Ni  Ni13  1  0.24999579  0.75000421  0.12497592  1.0
  Ni  Ni14  1  0.25000421  0.74999579  0.62497592  1.0
  Ni  Ni15  1  -0.24999579  1.24999579  0.87502408  1.0
  O  O16  1  -0.44215312  1.44215312  0.37503131  1.0
  O  O17  1  0.05784688  0.94215312  0.12496869  1.0
  O  O18  1  0.44215312  0.55784688  0.62496869  1.0
  O  O19  1  -0.05784688  1.05784688  0.87503131  1.0
  O  O20  1  -0.05786330  1.05786330  0.37499512  1.0
  O  O21  1  0.44213670  0.55786330  0.12500488  1.0
  O  O22  1  0.05786330  0.94213670  0.62500488  1.0
  O  O23  1  -0.44213670  1.44213670  0.87499512  1.0
