# generated using pymatgen
data_EuInO3
_symmetry_space_group_name_H-M   'P 1'
_cell_length_a   6.47588136
_cell_length_b   6.47588136
_cell_length_c   12.47146873
_cell_angle_alpha   90.00000000
_cell_angle_beta   90.00000000
_cell_angle_gamma   120.00000000
_symmetry_Int_Tables_number   1
_chemical_formula_structural   EuInO3
_chemical_formula_sum   'Eu6 In6 O18'
_cell_volume   452.94555386
_cell_formula_units_Z   6
loop_
 _symmetry_equiv_pos_site_id
 _symmetry_equiv_pos_as_xyz
  1  'x, y, z'
loop_
 _atom_site_type_symbol
 _atom_site_label
 _atom_site_symmetry_multiplicity
 _atom_site_fract_x
 _atom_site_fract_y
 _atom_site_fract_z
 _atom_site_occupancy
  Eu  Eu0  1  0.33333333  0.66666667  0.03444045  1.0
  Eu  Eu1  1  0.33333333  0.66666667  0.53444045  1.0
  Eu  Eu2  1  0.66666667  0.33333333  0.03444045  1.0
  Eu  Eu3  1  0.66666667  0.33333333  0.53444045  1.0
  Eu  Eu4  1  0.00000000  0.00000000  0.00667796  1.0
  Eu  Eu5  1  0.00000000  0.00000000  0.50667796  1.0
  In  In6  1  0.66667703  0.66667703  0.27307511  1.0
  In  In7  1  0.66667703  0.00000000  0.77307511  1.0
  In  In8  1  -0.00000000  0.66667703  0.77307511  1.0
  In  In9  1  -0.00000000  0.33332297  0.27307511  1.0
  In  In10  1  0.33332297  0.33332297  0.77307511  1.0
  In  In11  1  0.33332297  0.00000000  0.27307511  1.0
  O  O12  1  0.68738833  0.68738833  0.10281983  1.0
  O  O13  1  0.68738833  0.00000000  0.60281983  1.0
  O  O14  1  -0.00000000  0.68738833  0.60281983  1.0
  O  O15  1  0.00000000  0.31261167  0.10281983  1.0
  O  O16  1  0.31261167  0.31261167  0.60281983  1.0
  O  O17  1  0.31261167  0.00000000  0.10281983  1.0
  O  O18  1  0.64557050  0.64557050  0.44250583  1.0
  O  O19  1  0.64557050  0.00000000  0.94250583  1.0
  O  O20  1  -0.00000000  0.64557050  0.94250583  1.0
  O  O21  1  -0.00000000  0.35442950  0.44250583  1.0
  O  O22  1  0.35442950  0.35442950  0.94250583  1.0
  O  O23  1  0.35442950  0.00000000  0.44250583  1.0
  O  O24  1  0.33333333  0.66666667  0.25191893  1.0
  O  O25  1  0.33333333  0.66666667  0.75191893  1.0
  O  O26  1  0.66666667  0.33333333  0.25191893  1.0
  O  O27  1  0.66666667  0.33333333  0.75191893  1.0
  O  O28  1  0.00000000  0.00000000  0.29920099  1.0
  O  O29  1  0.00000000  0.00000000  0.79920099  1.0
