# generated using pymatgen
data_Sn(Mo3S4)2
_symmetry_space_group_name_H-M   'P 1'
_cell_length_a   6.56384019
_cell_length_b   6.56384019
_cell_length_c   6.56384019
_cell_angle_alpha   89.57840760
_cell_angle_beta   89.57840760
_cell_angle_gamma   89.57840760
_symmetry_Int_Tables_number   1
_chemical_formula_structural   Sn(Mo3S4)2
_chemical_formula_sum   'Sn1 Mo6 S8'
_cell_volume   282.77362336
_cell_formula_units_Z   1
loop_
 _symmetry_equiv_pos_site_id
 _symmetry_equiv_pos_as_xyz
  1  'x, y, z'
loop_
 _atom_site_type_symbol
 _atom_site_label
 _atom_site_symmetry_multiplicity
 _atom_site_fract_x
 _atom_site_fract_y
 _atom_site_fract_z
 _atom_site_occupancy
  Sn  Sn0  1  -0.00000000  0.00000000  0.00000000  1.0
  Mo  Mo1  1  0.43918539  0.58394277  -0.22593121  1.0
  Mo  Mo2  1  0.41605723  0.22593121  -0.43918539  1.0
  Mo  Mo3  1  0.22593121  0.56081461  -0.58394277  1.0
  Mo  Mo4  1  0.56081461  0.41605723  -0.77406879  1.0
  Mo  Mo5  1  0.58394277  0.77406879  -0.56081461  1.0
  Mo  Mo6  1  0.77406879  0.43918539  -0.41605723  1.0
  S  S7  1  0.87303715  0.61926804  -0.74023170  1.0
  S  S8  1  0.38073196  0.74023170  -0.87303715  1.0
  S  S9  1  0.74023170  0.12696285  -0.61926804  1.0
  S  S10  1  0.12696285  0.38073196  -0.25976830  1.0
  S  S11  1  0.61926804  0.25976830  -0.12696285  1.0
  S  S12  1  0.25976830  0.87303715  -0.38073196  1.0
  S  S13  1  0.75859160  0.75859160  -0.24140840  1.0
  S  S14  1  1.24140840  1.24140840  0.24140840  1.0
