# generated using pymatgen
data_Al10V
_symmetry_space_group_name_H-M   'P 1'
_cell_length_a   10.21674549
_cell_length_b   10.21674549
_cell_length_c   10.21674549
_cell_angle_alpha   60.00000000
_cell_angle_beta   60.00000000
_cell_angle_gamma   60.00000000
_symmetry_Int_Tables_number   1
_chemical_formula_structural   Al10V
_chemical_formula_sum   'Al40 V4'
_cell_volume   754.08920955
_cell_formula_units_Z   4
loop_
 _symmetry_equiv_pos_site_id
 _symmetry_equiv_pos_as_xyz
  1  'x, y, z'
loop_
 _atom_site_type_symbol
 _atom_site_label
 _atom_site_symmetry_multiplicity
 _atom_site_fract_x
 _atom_site_fract_y
 _atom_site_fract_z
 _atom_site_occupancy
  Al  Al0  1  0.12500000  0.12500000  1.62500000  1.0
  Al  Al1  1  0.12500000  0.62500000  1.12500000  1.0
  Al  Al2  1  1.62500000  0.12500000  0.12500000  1.0
  Al  Al3  1  1.12500000  0.12500000  0.12500000  1.0
  Al  Al4  1  0.60985607  0.60985607  0.89014393  1.0
  Al  Al5  1  0.89014393  0.60985607  0.89014393  1.0
  Al  Al6  1  0.60985607  0.89014393  0.89014393  1.0
  Al  Al7  1  0.89014393  0.89014393  0.60985607  1.0
  Al  Al8  1  0.60985607  0.89014393  0.60985607  1.0
  Al  Al9  1  0.89014393  0.60985607  0.60985607  1.0
  Al  Al10  1  0.64014393  0.64014393  -0.64014393  1.0
  Al  Al11  1  1.35985607  -0.35985607  0.35985607  1.0
  Al  Al12  1  -0.35985607  0.35985607  0.35985607  1.0
  Al  Al13  1  0.35985607  0.35985607  -0.35985607  1.0
  Al  Al14  1  0.64014393  -0.64014393  0.64014393  1.0
  Al  Al15  1  -0.64014393  0.64014393  0.64014393  1.0
  Al  Al16  1  1.44758559  -0.07749724  0.18232606  1.0
  Al  Al17  1  1.44758559  0.44758559  0.18232606  1.0
  Al  Al18  1  0.92250276  0.44758559  0.18232606  1.0
  Al  Al19  1  1.44758559  0.18232606  -0.07749724  1.0
  Al  Al20  1  0.92250276  0.18232606  0.44758559  1.0
  Al  Al21  1  1.44758559  0.18232606  0.44758559  1.0
  Al  Al22  1  1.18232606  0.44758559  0.44758559  1.0
  Al  Al23  1  1.18232606  -0.07749724  0.44758559  1.0
  Al  Al24  1  1.18232606  0.44758559  -0.07749724  1.0
  Al  Al25  1  0.92250276  0.44758559  0.44758559  1.0
  Al  Al26  1  1.44758559  0.44758559  -0.07749724  1.0
  Al  Al27  1  1.44758559  -0.07749724  0.44758559  1.0
  Al  Al28  1  0.80241441  -0.67250276  1.06767394  1.0
  Al  Al29  1  0.80241441  0.80241441  1.06767394  1.0
  Al  Al30  1  0.32749724  0.80241441  1.06767394  1.0
  Al  Al31  1  0.80241441  0.06767394  0.32749724  1.0
  Al  Al32  1  0.32749724  1.06767394  0.80241441  1.0
  Al  Al33  1  0.80241441  1.06767394  0.80241441  1.0
  Al  Al34  1  1.06767394  0.80241441  0.80241441  1.0
  Al  Al35  1  1.06767394  -0.67250276  0.80241441  1.0
  Al  Al36  1  1.06767394  -0.19758559  0.32749724  1.0
  Al  Al37  1  0.32749724  0.80241441  0.80241441  1.0
  Al  Al38  1  0.80241441  -0.19758559  0.32749724  1.0
  Al  Al39  1  0.80241441  -0.67250276  0.80241441  1.0
  V  V40  1  0.62500000  0.62500000  1.12500000  1.0
  V  V41  1  0.62500000  1.12500000  0.62500000  1.0
  V  V42  1  1.12500000  0.62500000  0.62500000  1.0
  V  V43  1  0.62500000  0.62500000  0.62500000  1.0
