# generated using pymatgen
data_La2RuO5
_symmetry_space_group_name_H-M   'P 1'
_cell_length_a   9.36887193
_cell_length_b   5.90432824
_cell_length_c   7.90876955
_cell_angle_alpha   90.00000000
_cell_angle_beta   100.42741242
_cell_angle_gamma   90.00000000
_symmetry_Int_Tables_number   1
_chemical_formula_structural   La2RuO5
_chemical_formula_sum   'La8 Ru4 O20'
_cell_volume   430.26344825
_cell_formula_units_Z   4
loop_
 _symmetry_equiv_pos_site_id
 _symmetry_equiv_pos_as_xyz
  1  'x, y, z'
loop_
 _atom_site_type_symbol
 _atom_site_label
 _atom_site_symmetry_multiplicity
 _atom_site_fract_x
 _atom_site_fract_y
 _atom_site_fract_z
 _atom_site_occupancy
  O  O0  1  0.85203793  0.33638056  0.96181551  1.0
  O  O1  1  0.85203793  0.16361944  0.46181551  1.0
  O  O2  1  0.14796207  0.83638056  0.53818449  1.0
  O  O3  1  0.14796207  0.66361944  0.03818449  1.0
  O  O4  1  0.73032835  0.98970834  0.72517025  1.0
  O  O5  1  0.73032835  0.51029166  0.22517025  1.0
  O  O6  1  0.26967165  0.48970834  0.77482975  1.0
  O  O7  1  0.26967165  0.01029166  0.27482975  1.0
  O  O8  1  0.57260583  0.66380602  0.89703382  1.0
  O  O9  1  0.57260583  0.83619398  0.39703382  1.0
  O  O10  1  0.42739417  0.16380602  0.60296618  1.0
  O  O11  1  0.42739417  0.33619398  0.10296618  1.0
  O  O12  1  0.97424163  0.54629946  0.70524532  1.0
  O  O13  1  0.97424163  0.95370054  0.20524532  1.0
  O  O14  1  0.02575837  0.04629946  0.79475468  1.0
  O  O15  1  0.02575837  0.45370054  0.29475468  1.0
  O  O16  1  0.31200463  0.95925733  0.87287947  1.0
  O  O17  1  0.31200463  0.54074267  0.37287947  1.0
  O  O18  1  0.68799537  0.45925733  0.62712053  1.0
  O  O19  1  0.68799537  0.04074267  0.12712053  1.0
  Ru  Ru20  1  0.85676102  0.25484904  0.71240774  1.0
  Ru  Ru21  1  0.85676102  0.24515096  0.21240774  1.0
  Ru  Ru22  1  0.14323898  0.75484904  0.78759226  1.0
  Ru  Ru23  1  0.14323898  0.74515096  0.28759226  1.0
  La  La24  1  0.82246498  0.75042376  0.96522359  1.0
  La  La25  1  0.82246498  0.74957624  0.46522359  1.0
  La  La26  1  0.17753502  0.25042376  0.53477641  1.0
  La  La27  1  0.17753502  0.24957624  0.03477641  1.0
  La  La28  1  0.44071026  0.76216653  0.62026337  1.0
  La  La29  1  0.44071026  0.73783347  0.12026337  1.0
  La  La30  1  0.55928974  0.26216653  0.87973663  1.0
  La  La31  1  0.55928974  0.23783347  0.37973663  1.0
