# generated using pymatgen
data_EuNbO4
_symmetry_space_group_name_H-M   'P 1'
_cell_length_a   6.70248961
_cell_length_b   6.70248961
_cell_length_c   5.19819394
_cell_angle_alpha   68.86804373
_cell_angle_beta   111.13195627
_cell_angle_gamma   65.66802686
_symmetry_Int_Tables_number   1
_chemical_formula_structural   EuNbO4
_chemical_formula_sum   'Eu2 Nb2 O8'
_cell_volume   158.92920801
_cell_formula_units_Z   2
loop_
 _symmetry_equiv_pos_site_id
 _symmetry_equiv_pos_as_xyz
  1  'x, y, z'
loop_
 _atom_site_type_symbol
 _atom_site_label
 _atom_site_symmetry_multiplicity
 _atom_site_fract_x
 _atom_site_fract_y
 _atom_site_fract_z
 _atom_site_occupancy
  Eu  Eu0  1  1.37257705  0.37257705  0.75000000  1.0
  Eu  Eu1  1  0.62742295  0.62742295  0.25000000  1.0
  Nb  Nb2  1  0.89189620  0.89189620  0.75000000  1.0
  Nb  Nb3  1  1.10810380  0.10810380  0.25000000  1.0
  O  O4  1  1.63505707  -0.05330933  0.83715739  1.0
  O  O5  1  1.05330933  0.36494293  0.33715739  1.0
  O  O6  1  0.94669067  0.63505707  0.66284261  1.0
  O  O7  1  1.36494293  0.05330933  0.16284261  1.0
  O  O8  1  1.27461086  -0.21071325  0.69051172  1.0
  O  O9  1  1.21071325  0.72538914  0.19051172  1.0
  O  O10  1  0.78928675  0.27461086  0.80948828  1.0
  O  O11  1  1.72538914  0.21071325  0.30948828  1.0
