# generated using pymatgen
data_Tl2GeTe3
_symmetry_space_group_name_H-M   'P 1'
_cell_length_a   8.51662031
_cell_length_b   22.01615801
_cell_length_c   8.81775642
_cell_angle_alpha   90.00000000
_cell_angle_beta   90.00000000
_cell_angle_gamma   90.00000000
_symmetry_Int_Tables_number   1
_chemical_formula_structural   Tl2GeTe3
_chemical_formula_sum   'Tl16 Ge8 Te24'
_cell_volume   1653.35806071
_cell_formula_units_Z   8
loop_
 _symmetry_equiv_pos_site_id
 _symmetry_equiv_pos_as_xyz
  1  'x, y, z'
loop_
 _atom_site_type_symbol
 _atom_site_label
 _atom_site_symmetry_multiplicity
 _atom_site_fract_x
 _atom_site_fract_y
 _atom_site_fract_z
 _atom_site_occupancy
  Tl  Tl0  1  0.23061724  0.99616699  0.94812067  1.0
  Tl  Tl1  1  0.23061724  0.50383301  0.94812067  1.0
  Tl  Tl2  1  0.73061724  0.99616699  0.55187933  1.0
  Tl  Tl3  1  0.73061724  0.50383301  0.55187933  1.0
  Tl  Tl4  1  0.76938276  0.49616699  0.05187933  1.0
  Tl  Tl5  1  0.76938276  0.00383301  0.05187933  1.0
  Tl  Tl6  1  0.26938276  0.49616699  0.44812067  1.0
  Tl  Tl7  1  0.26938276  0.00383301  0.44812067  1.0
  Tl  Tl8  1  0.34641021  0.33295699  0.52724494  1.0
  Tl  Tl9  1  0.34641021  0.16704301  0.52724494  1.0
  Tl  Tl10  1  0.84641021  0.33295699  0.97275506  1.0
  Tl  Tl11  1  0.84641021  0.16704301  0.97275506  1.0
  Tl  Tl12  1  0.65358979  0.83295699  0.47275506  1.0
  Tl  Tl13  1  0.65358979  0.66704301  0.47275506  1.0
  Tl  Tl14  1  0.15358979  0.83295699  0.02724494  1.0
  Tl  Tl15  1  0.15358979  0.66704301  0.02724494  1.0
  Ge  Ge16  1  0.35218713  0.33110713  0.02017619  1.0
  Ge  Ge17  1  0.35218713  0.16889287  0.02017619  1.0
  Ge  Ge18  1  0.85218713  0.33110713  0.47982381  1.0
  Ge  Ge19  1  0.85218713  0.16889287  0.47982381  1.0
  Ge  Ge20  1  0.64781287  0.83110713  0.97982381  1.0
  Ge  Ge21  1  0.64781287  0.66889287  0.97982381  1.0
  Ge  Ge22  1  0.14781287  0.83110713  0.52017619  1.0
  Ge  Ge23  1  0.14781287  0.66889287  0.52017619  1.0
  Te  Te24  1  0.52590821  0.25000000  0.17912680  1.0
  Te  Te25  1  1.02590821  0.25000000  0.32087320  1.0
  Te  Te26  1  0.47409179  0.75000000  0.82087320  1.0
  Te  Te27  1  -0.02590821  0.75000000  0.67912680  1.0
  Te  Te28  1  0.19562003  0.25000000  0.84854182  1.0
  Te  Te29  1  0.69562003  0.25000000  0.65145818  1.0
  Te  Te30  1  0.80437997  0.75000000  0.15145818  1.0
  Te  Te31  1  0.30437997  0.75000000  0.34854182  1.0
  Te  Te32  1  0.50355043  0.40861726  0.84230578  1.0
  Te  Te33  1  0.50355043  0.09138274  0.84230578  1.0
  Te  Te34  1  1.00355043  0.40861726  0.65769422  1.0
  Te  Te35  1  1.00355043  0.09138274  0.65769422  1.0
  Te  Te36  1  0.49644957  0.90861726  0.15769422  1.0
  Te  Te37  1  0.49644957  0.59138274  0.15769422  1.0
  Te  Te38  1  -0.00355043  0.90861726  0.34230578  1.0
  Te  Te39  1  -0.00355043  0.59138274  0.34230578  1.0
  Te  Te40  1  0.35500563  0.88828368  0.69048211  1.0
  Te  Te41  1  0.35500563  0.61171632  0.69048211  1.0
  Te  Te42  1  0.85500563  0.88828368  0.80951789  1.0
  Te  Te43  1  0.85500563  0.61171632  0.80951789  1.0
  Te  Te44  1  0.64499437  0.38828368  0.30951789  1.0
  Te  Te45  1  0.64499437  0.11171632  0.30951789  1.0
  Te  Te46  1  0.14499437  0.38828368  0.19048211  1.0
  Te  Te47  1  0.14499437  0.11171632  0.19048211  1.0
