# generated using pymatgen
data_GdBO3
_symmetry_space_group_name_H-M   'P 1'
_cell_length_a   10.45194591
_cell_length_b   10.45194591
_cell_length_c   10.45194591
_cell_angle_alpha   35.69292228
_cell_angle_beta   35.69292228
_cell_angle_gamma   35.69292227
_symmetry_Int_Tables_number   1
_chemical_formula_structural   GdBO3
_chemical_formula_sum   'Gd6 B6 O18'
_cell_volume   347.45404237
_cell_formula_units_Z   6
loop_
 _symmetry_equiv_pos_site_id
 _symmetry_equiv_pos_as_xyz
  1  'x, y, z'
loop_
 _atom_site_type_symbol
 _atom_site_label
 _atom_site_symmetry_multiplicity
 _atom_site_fract_x
 _atom_site_fract_y
 _atom_site_fract_z
 _atom_site_occupancy
  Gd  Gd0  1  1.58191461  1.25000003  -0.08191531  1.0
  Gd  Gd1  1  1.08191531  0.74999997  0.41808539  1.0
  Gd  Gd2  1  0.74999997  1.41808539  0.08191531  1.0
  Gd  Gd3  1  1.41808539  1.08191531  -0.25000003  1.0
  Gd  Gd4  1  0.91808469  1.58191461  0.25000003  1.0
  Gd  Gd5  1  1.25000003  0.91808469  0.58191461  1.0
  B  B6  1  1.25773817  0.50000000  0.74226183  1.0
  B  B7  1  1.50000000  0.74226183  0.25773817  1.0
  B  B8  1  1.74226183  0.25773817  0.50000000  1.0
  B  B9  1  0.75773978  -0.00000000  -0.75773978  1.0
  B  B10  1  0.00000000  0.24226022  -0.24226022  1.0
  B  B11  1  0.24226022  -0.24226022  0.00000000  1.0
  O  O12  1  0.95722577  1.31166484  0.60180941  1.0
  O  O13  1  1.39819059  0.68833516  0.04277423  1.0
  O  O14  1  1.68833516  0.04277423  0.39819059  1.0
  O  O15  1  1.04277423  0.39819059  0.68833516  1.0
  O  O16  1  1.60180941  0.95722577  0.31166484  1.0
  O  O17  1  1.31166484  0.60180941  0.95722577  1.0
  O  O18  1  1.89818914  0.18832906  0.54278047  1.0
  O  O19  1  1.45721953  0.81167094  0.10181086  1.0
  O  O20  1  0.81167094  1.10181086  0.45721953  1.0
  O  O21  1  1.10181086  1.45721953  -0.18832906  1.0
  O  O22  1  1.54278047  0.89818914  0.18832906  1.0
  O  O23  1  1.18832906  0.54278047  0.89818914  1.0
  O  O24  1  1.72318589  0.50000000  0.27681411  1.0
  O  O25  1  1.50000000  0.27681411  0.72318589  1.0
  O  O26  1  1.27681411  0.72318589  0.50000000  1.0
  O  O27  1  0.22318528  -0.00000000  -0.22318528  1.0
  O  O28  1  -0.00000000  0.77681472  -0.77681472  1.0
  O  O29  1  0.77681472  -0.77681472  -0.00000000  1.0
