# generated using pymatgen
data_MnSeO3
_symmetry_space_group_name_H-M   'P 1'
_cell_length_a   8.10462684
_cell_length_b   8.45307883
_cell_length_c   10.59913675
_cell_angle_alpha   90.00000000
_cell_angle_beta   124.98658896
_cell_angle_gamma   90.00000000
_symmetry_Int_Tables_number   1
_chemical_formula_structural   MnSeO3
_chemical_formula_sum   'Mn8 Se8 O24'
_cell_volume   594.91390273
_cell_formula_units_Z   8
loop_
 _symmetry_equiv_pos_site_id
 _symmetry_equiv_pos_as_xyz
  1  'x, y, z'
loop_
 _atom_site_type_symbol
 _atom_site_label
 _atom_site_symmetry_multiplicity
 _atom_site_fract_x
 _atom_site_fract_y
 _atom_site_fract_z
 _atom_site_occupancy
  Mn  Mn0  1  0.80244911  0.88303962  0.87727833  1.0
  Mn  Mn1  1  0.80244911  0.61696038  0.37727833  1.0
  Mn  Mn2  1  0.19755089  0.38303962  0.62272167  1.0
  Mn  Mn3  1  0.19755089  0.11696038  0.12272167  1.0
  Mn  Mn4  1  0.47411417  0.29151467  0.48193667  1.0
  Mn  Mn5  1  0.47411417  0.20848533  0.98193667  1.0
  Mn  Mn6  1  0.52588583  0.79151467  0.01806333  1.0
  Mn  Mn7  1  0.52588583  0.70848533  0.51806333  1.0
  Se  Se8  1  0.93199893  0.36996792  0.20936798  1.0
  Se  Se9  1  0.93199893  0.13003208  0.70936798  1.0
  Se  Se10  1  0.06800107  0.86996792  0.29063202  1.0
  Se  Se11  1  0.06800107  0.63003208  0.79063202  1.0
  Se  Se12  1  0.63927092  -0.00334703  0.33109198  1.0
  Se  Se13  1  0.63927092  0.50334703  0.83109198  1.0
  Se  Se14  1  0.36072908  0.49665297  0.16890802  1.0
  Se  Se15  1  0.36072908  1.00334703  0.66890802  1.0
  O  O16  1  0.97850633  0.42064388  0.38711243  1.0
  O  O17  1  0.97850633  0.07935612  0.88711243  1.0
  O  O18  1  0.02149367  0.92064388  0.11288757  1.0
  O  O19  1  0.02149367  0.57935612  0.61288757  1.0
  O  O20  1  0.84014290  0.78643416  0.23805220  1.0
  O  O21  1  0.84014290  0.71356584  0.73805220  1.0
  O  O22  1  0.15985710  0.28643416  0.26194780  1.0
  O  O23  1  0.15985710  0.21356584  0.76194780  1.0
  O  O24  1  0.78076710  0.20895592  0.15869870  1.0
  O  O25  1  0.78076710  0.29104408  0.65869870  1.0
  O  O26  1  0.21923290  0.70895592  0.34130130  1.0
  O  O27  1  0.21923290  0.79104408  0.84130130  1.0
  O  O28  1  0.52884647  0.47855315  0.36950417  1.0
  O  O29  1  0.52884647  0.02144685  0.86950417  1.0
  O  O30  1  0.47115353  0.97855315  0.13049583  1.0
  O  O31  1  0.47115353  0.52144685  0.63049583  1.0
  O  O32  1  0.46701438  0.08665673  0.35527758  1.0
  O  O33  1  0.46701438  0.41334327  0.85527758  1.0
  O  O34  1  0.53298562  0.58665673  0.14472242  1.0
  O  O35  1  0.53298562  0.91334327  0.64472242  1.0
  O  O36  1  0.35096729  0.30900775  0.09730257  1.0
  O  O37  1  0.35096729  0.19099225  0.59730257  1.0
  O  O38  1  0.64903271  0.80900775  0.40269743  1.0
  O  O39  1  0.64903271  0.69099225  0.90269743  1.0
