# generated using pymatgen
data_GdCo3P2
_symmetry_space_group_name_H-M   'P 1'
_cell_length_a   3.71186201
_cell_length_b   10.54449936
_cell_length_c   12.21964750
_cell_angle_alpha   90.00000000
_cell_angle_beta   90.00000000
_cell_angle_gamma   90.00000000
_symmetry_Int_Tables_number   1
_chemical_formula_structural   GdCo3P2
_chemical_formula_sum   'Gd6 Co18 P12'
_cell_volume   478.27366198
_cell_formula_units_Z   6
loop_
 _symmetry_equiv_pos_site_id
 _symmetry_equiv_pos_as_xyz
  1  'x, y, z'
loop_
 _atom_site_type_symbol
 _atom_site_label
 _atom_site_symmetry_multiplicity
 _atom_site_fract_x
 _atom_site_fract_y
 _atom_site_fract_z
 _atom_site_occupancy
  Co  Co0  1  0.50000000  0.50000000  0.70359088  1.0
  Co  Co1  1  0.00000000  0.00000000  0.29640912  1.0
  Co  Co2  1  0.00000000  0.50000000  0.98765246  1.0
  Co  Co3  1  0.50000000  0.00000000  0.01234754  1.0
  Co  Co4  1  0.50000000  0.33341837  0.99538724  1.0
  Co  Co5  1  0.50000000  0.66658163  0.99538724  1.0
  Co  Co6  1  0.00000000  0.16658163  0.00461276  1.0
  Co  Co7  1  0.00000000  0.83341837  0.00461276  1.0
  Co  Co8  1  0.50000000  0.29724107  0.43045075  1.0
  Co  Co9  1  0.50000000  0.70275893  0.43045075  1.0
  Co  Co10  1  0.00000000  0.20275893  0.56954925  1.0
  Co  Co11  1  0.00000000  0.79724107  0.56954925  1.0
  Co  Co12  1  0.50000000  0.50000000  0.15759500  1.0
  Co  Co13  1  0.00000000  0.00000000  0.84240500  1.0
  Co  Co14  1  0.50000000  0.87997379  0.71033754  1.0
  Co  Co15  1  0.50000000  0.12002621  0.71033754  1.0
  Co  Co16  1  0.00000000  0.62002621  0.28966246  1.0
  Co  Co17  1  0.00000000  0.37997379  0.28966246  1.0
  Gd  Gd18  1  0.00000000  0.50000000  0.52206630  1.0
  Gd  Gd19  1  0.50000000  0.00000000  0.47793370  1.0
  Gd  Gd20  1  0.50000000  0.81780198  0.20590041  1.0
  Gd  Gd21  1  0.50000000  0.18219802  0.20590041  1.0
  Gd  Gd22  1  0.00000000  0.68219802  0.79409959  1.0
  Gd  Gd23  1  0.00000000  0.31780198  0.79409959  1.0
  P  P24  1  0.50000000  0.50000000  0.88390288  1.0
  P  P25  1  0.00000000  0.00000000  0.11609712  1.0
  P  P26  1  0.50000000  0.50000000  0.34236942  1.0
  P  P27  1  0.00000000  0.00000000  0.65763058  1.0
  P  P28  1  0.50000000  0.30916746  0.61545655  1.0
  P  P29  1  0.50000000  0.69083254  0.61545655  1.0
  P  P30  1  0.00000000  0.19083254  0.38454345  1.0
  P  P31  1  0.00000000  0.80916746  0.38454345  1.0
  P  P32  1  0.50000000  0.84698146  0.89363591  1.0
  P  P33  1  0.50000000  0.15301854  0.89363591  1.0
  P  P34  1  0.00000000  0.65301854  0.10636409  1.0
  P  P35  1  0.00000000  0.34698146  0.10636409  1.0
