# generated using pymatgen
data_CrF5
_symmetry_space_group_name_H-M   'P 1'
_cell_length_a   8.77666381
_cell_length_b   8.17352355
_cell_length_c   5.61933692
_cell_angle_alpha   90.00000000
_cell_angle_beta   90.00000000
_cell_angle_gamma   90.00000000
_symmetry_Int_Tables_number   1
_chemical_formula_structural   CrF5
_chemical_formula_sum   'Cr4 F20'
_cell_volume   403.11026081
_cell_formula_units_Z   4
loop_
 _symmetry_equiv_pos_site_id
 _symmetry_equiv_pos_as_xyz
  1  'x, y, z'
loop_
 _atom_site_type_symbol
 _atom_site_label
 _atom_site_symmetry_multiplicity
 _atom_site_fract_x
 _atom_site_fract_y
 _atom_site_fract_z
 _atom_site_occupancy
  Cr  Cr0  1  0.75153212  0.40335278  0.75000000  1.0
  Cr  Cr1  1  0.75153212  0.09664722  0.25000000  1.0
  Cr  Cr2  1  0.24846788  0.90335278  0.75000000  1.0
  Cr  Cr3  1  0.24846788  0.59664722  0.25000000  1.0
  F  F4  1  0.30667867  0.03588258  0.97111108  1.0
  F  F5  1  0.30667867  0.03588258  0.52888892  1.0
  F  F6  1  0.30667867  0.46411742  0.47111108  1.0
  F  F7  1  0.30667867  0.46411742  0.02888892  1.0
  F  F8  1  0.69332133  0.53588258  0.97111108  1.0
  F  F9  1  0.69332133  0.53588258  0.52888892  1.0
  F  F10  1  0.69332133  0.96411742  0.47111108  1.0
  F  F11  1  0.69332133  0.96411742  0.02888892  1.0
  F  F12  1  0.94007136  0.45877085  0.75000000  1.0
  F  F13  1  0.94007136  0.04122915  0.25000000  1.0
  F  F14  1  0.05992864  0.95877085  0.75000000  1.0
  F  F15  1  0.05992864  0.54122915  0.25000000  1.0
  F  F16  1  0.59076271  0.28357273  0.75000000  1.0
  F  F17  1  0.59076271  0.21642727  0.25000000  1.0
  F  F18  1  0.40923729  0.78357273  0.75000000  1.0
  F  F19  1  0.40923729  0.71642727  0.25000000  1.0
  F  F20  1  0.82197877  0.25000000  0.00000000  1.0
  F  F21  1  0.82197877  0.25000000  0.50000000  1.0
  F  F22  1  0.17802123  0.75000000  0.00000000  1.0
  F  F23  1  0.17802123  0.75000000  0.50000000  1.0
