# generated using pymatgen
data_KCd(PO3)3
_symmetry_space_group_name_H-M   'P 1'
_cell_length_a   6.90189492
_cell_length_b   6.90189492
_cell_length_c   10.27841487
_cell_angle_alpha   90.00000000
_cell_angle_beta   90.00000000
_cell_angle_gamma   120.00000000
_symmetry_Int_Tables_number   1
_chemical_formula_structural   KCd(PO3)3
_chemical_formula_sum   'K2 Cd2 P6 O18'
_cell_volume   424.02695045
_cell_formula_units_Z   2
loop_
 _symmetry_equiv_pos_site_id
 _symmetry_equiv_pos_as_xyz
  1  'x, y, z'
loop_
 _atom_site_type_symbol
 _atom_site_label
 _atom_site_symmetry_multiplicity
 _atom_site_fract_x
 _atom_site_fract_y
 _atom_site_fract_z
 _atom_site_occupancy
  K  K0  1  0.00000000  0.00000000  0.50000000  1.0
  K  K1  1  0.00000000  0.00000000  0.00000000  1.0
  Cd  Cd2  1  0.33333333  0.66666667  0.50000000  1.0
  Cd  Cd3  1  0.33333333  0.66666667  0.00000000  1.0
  P  P4  1  0.62476246  0.56145192  0.25000000  1.0
  P  P5  1  0.62476246  0.06331053  0.75000000  1.0
  P  P6  1  0.93668947  0.56145192  0.75000000  1.0
  P  P7  1  0.93668947  0.37523754  0.25000000  1.0
  P  P8  1  0.43854808  0.37523754  0.75000000  1.0
  P  P9  1  0.43854808  0.06331053  0.25000000  1.0
  O  O10  1  0.86013817  0.56184598  0.25000000  1.0
  O  O11  1  0.86013817  0.29829220  0.75000000  1.0
  O  O12  1  0.70170780  0.56184598  0.75000000  1.0
  O  O13  1  0.70170780  0.13986183  0.25000000  1.0
  O  O14  1  0.43815402  0.13986183  0.75000000  1.0
  O  O15  1  0.43815402  0.29829220  0.25000000  1.0
  O  O16  1  0.05351251  0.38665488  0.37603683  1.0
  O  O17  1  0.05351251  0.38665488  0.12396317  1.0
  O  O18  1  0.05351251  0.66685763  0.87603683  1.0
  O  O19  1  0.05351251  0.66685763  0.62396317  1.0
  O  O20  1  0.33314237  0.38665488  0.87603683  1.0
  O  O21  1  0.33314237  0.38665488  0.62396317  1.0
  O  O22  1  0.33314237  0.94648749  0.37603683  1.0
  O  O23  1  0.33314237  0.94648749  0.12396317  1.0
  O  O24  1  0.61334512  0.94648749  0.87603683  1.0
  O  O25  1  0.61334512  0.94648749  0.62396317  1.0
  O  O26  1  0.61334512  0.66685763  0.37603683  1.0
  O  O27  1  0.61334512  0.66685763  0.12396317  1.0
