# generated using pymatgen
data_Li2ZrN2
_symmetry_space_group_name_H-M   'P 1'
_cell_length_a   3.28335761
_cell_length_b   3.28335761
_cell_length_c   5.46365141
_cell_angle_alpha   90.00000000
_cell_angle_beta   90.00000000
_cell_angle_gamma   120.00000000
_symmetry_Int_Tables_number   1
_chemical_formula_structural   Li2ZrN2
_chemical_formula_sum   'Li2 Zr1 N2'
_cell_volume   51.00937336
_cell_formula_units_Z   1
loop_
 _symmetry_equiv_pos_site_id
 _symmetry_equiv_pos_as_xyz
  1  'x, y, z'
loop_
 _atom_site_type_symbol
 _atom_site_label
 _atom_site_symmetry_multiplicity
 _atom_site_fract_x
 _atom_site_fract_y
 _atom_site_fract_z
 _atom_site_occupancy
  Li  Li0  1  0.33333333  0.66666667  0.61757216  1.0
  Li  Li1  1  0.66666667  0.33333333  0.38242784  1.0
  Zr  Zr2  1  0.00000000  0.00000000  0.00000000  1.0
  N  N3  1  0.33333333  0.66666667  0.22267743  1.0
  N  N4  1  0.66666667  0.33333333  0.77732257  1.0
