# generated using pymatgen
data_CsSi3HO7
_symmetry_space_group_name_H-M   'P 1'
_cell_length_a   4.99559452
_cell_length_b   10.56693416
_cell_length_c   14.34363772
_cell_angle_alpha   90.00000000
_cell_angle_beta   90.00000000
_cell_angle_gamma   90.00000000
_symmetry_Int_Tables_number   1
_chemical_formula_structural   CsSi3HO7
_chemical_formula_sum   'Cs4 Si12 H4 O28'
_cell_volume   757.17364505
_cell_formula_units_Z   4
loop_
 _symmetry_equiv_pos_site_id
 _symmetry_equiv_pos_as_xyz
  1  'x, y, z'
loop_
 _atom_site_type_symbol
 _atom_site_label
 _atom_site_symmetry_multiplicity
 _atom_site_fract_x
 _atom_site_fract_y
 _atom_site_fract_z
 _atom_site_occupancy
  Cs  Cs0  1  0.03595599  0.58457181  0.75392808  1.0
  Cs  Cs1  1  0.53595599  0.91542819  0.24607192  1.0
  Cs  Cs2  1  0.96404401  0.08457181  0.74607192  1.0
  Cs  Cs3  1  0.46404401  0.41542819  0.25392808  1.0
  Si  Si4  1  0.45605901  0.58490740  0.50808824  1.0
  Si  Si5  1  0.95605901  0.91509260  0.49191176  1.0
  Si  Si6  1  0.54394099  0.08490740  0.99191176  1.0
  Si  Si7  1  0.04394099  0.41509260  0.00808824  1.0
  Si  Si8  1  0.45123339  0.84833690  0.60814550  1.0
  Si  Si9  1  0.95123339  0.65166310  0.39185450  1.0
  Si  Si10  1  0.54876661  0.34833690  0.89185450  1.0
  Si  Si11  1  0.04876661  0.15166310  0.10814550  1.0
  Si  Si12  1  0.38930917  0.29739007  0.55552862  1.0
  Si  Si13  1  0.88930917  0.20260993  0.44447138  1.0
  Si  Si14  1  0.61069083  0.79739007  0.94447138  1.0
  Si  Si15  1  0.11069083  0.70260993  0.05552862  1.0
  H  H16  1  0.46669269  0.80583130  0.78828345  1.0
  H  H17  1  0.96669269  0.69416870  0.21171655  1.0
  H  H18  1  0.53330731  0.30583130  0.71171655  1.0
  H  H19  1  0.03330731  0.19416870  0.28828345  1.0
  O  O20  1  0.47164957  0.24287602  0.65677807  1.0
  O  O21  1  0.97164957  0.25712398  0.34322193  1.0
  O  O22  1  0.52835043  0.74287602  0.84322193  1.0
  O  O23  1  0.02835043  0.75712398  0.15677807  1.0
  O  O24  1  0.42091987  0.69385144  0.58794714  1.0
  O  O25  1  0.92091987  0.80614856  0.41205286  1.0
  O  O26  1  0.57908013  0.19385144  0.91205286  1.0
  O  O27  1  0.07908013  0.30614856  0.08794714  1.0
  O  O28  1  0.40965077  0.75589852  0.02943524  1.0
  O  O29  1  0.90965077  0.74410148  0.97056476  1.0
  O  O30  1  0.59034923  0.25589852  0.47056476  1.0
  O  O31  1  0.09034923  0.24410148  0.52943524  1.0
  O  O32  1  0.37988258  0.88093189  0.71305039  1.0
  O  O33  1  0.87988258  0.61906811  0.28694961  1.0
  O  O34  1  0.62011742  0.38093189  0.78694961  1.0
  O  O35  1  0.12011742  0.11906811  0.21305039  1.0
  O  O36  1  0.37555016  0.45303722  0.55937612  1.0
  O  O37  1  0.87555016  0.04696278  0.44062388  1.0
  O  O38  1  0.62444984  0.95303722  0.94062388  1.0
  O  O39  1  0.12444984  0.54696278  0.05937612  1.0
  O  O40  1  0.26371375  0.92199281  0.52950353  1.0
  O  O41  1  0.76371375  0.57800719  0.47049647  1.0
  O  O42  1  0.73628625  0.42199281  0.97049647  1.0
  O  O43  1  0.23628625  0.07800719  0.02950353  1.0
  O  O44  1  0.76350753  0.88763958  0.58179828  1.0
  O  O45  1  0.26350753  0.61236042  0.41820172  1.0
  O  O46  1  0.23649247  0.38763958  0.91820172  1.0
  O  O47  1  0.73649247  0.11236042  0.08179828  1.0
