# generated using pymatgen
data_Y2CoGe6
_symmetry_space_group_name_H-M   'P 1'
_cell_length_a   10.94601770
_cell_length_b   10.94601770
_cell_length_c   4.07898190
_cell_angle_alpha   90.00000000
_cell_angle_beta   90.00000000
_cell_angle_gamma   159.03051984
_symmetry_Int_Tables_number   1
_chemical_formula_structural   Y2CoGe6
_chemical_formula_sum   'Y2 Co1 Ge6'
_cell_volume   174.90011726
_cell_formula_units_Z   1
loop_
 _symmetry_equiv_pos_site_id
 _symmetry_equiv_pos_as_xyz
  1  'x, y, z'
loop_
 _atom_site_type_symbol
 _atom_site_label
 _atom_site_symmetry_multiplicity
 _atom_site_fract_x
 _atom_site_fract_y
 _atom_site_fract_z
 _atom_site_occupancy
  Y  Y0  1  -0.22327049  0.22327049  0.50000000  1.0
  Y  Y1  1  0.11397894  0.88602106  0.50000000  1.0
  Co  Co2  1  -0.44547622  0.44547622  0.00000000  1.0
  Ge  Ge3  1  -0.49966969  0.49966969  0.50000000  1.0
  Ge  Ge4  1  0.38341860  0.61658140  0.50000000  1.0
  Ge  Ge5  1  -0.00103155  0.00103155  0.00000000  1.0
  Ge  Ge6  1  -0.11862828  0.11862828  0.00000000  1.0
  Ge  Ge7  1  -0.33900420  0.33900420  0.00000000  1.0
  Ge  Ge8  1  0.23668289  0.76331711  0.00000000  1.0
