# generated using pymatgen
data_Cs7(CoSe2)4
_symmetry_space_group_name_H-M   'P 1'
_cell_length_a   10.79420080
_cell_length_b   10.79420080
_cell_length_c   17.44834448
_cell_angle_alpha   65.06632438
_cell_angle_beta   114.93367562
_cell_angle_gamma   131.38250730
_symmetry_Int_Tables_number   1
_chemical_formula_structural   Cs7(CoSe2)4
_chemical_formula_sum   'Cs14 Co8 Se16'
_cell_volume   1352.36554135
_cell_formula_units_Z   2
loop_
 _symmetry_equiv_pos_site_id
 _symmetry_equiv_pos_as_xyz
  1  'x, y, z'
loop_
 _atom_site_type_symbol
 _atom_site_label
 _atom_site_symmetry_multiplicity
 _atom_site_fract_x
 _atom_site_fract_y
 _atom_site_fract_z
 _atom_site_occupancy
  Cs  Cs0  1  1.74648430  -0.24925681  0.51026087  1.0
  Cs  Cs1  1  1.24925681  -0.74648430  0.01026087  1.0
  Cs  Cs2  1  0.75074319  0.74648430  0.98973913  1.0
  Cs  Cs3  1  0.25351570  0.24925681  0.48973913  1.0
  Cs  Cs4  1  0.52442124  0.00509600  0.88709564  1.0
  Cs  Cs5  1  0.99490400  -0.52442124  0.38709564  1.0
  Cs  Cs6  1  1.00509600  0.52442124  0.61290436  1.0
  Cs  Cs7  1  1.47557876  -0.00509600  0.11290436  1.0
  Cs  Cs8  1  0.51464536  -0.00154670  0.63630839  1.0
  Cs  Cs9  1  1.00154670  -0.51464536  0.13630839  1.0
  Cs  Cs10  1  0.99845330  0.51464536  0.86369161  1.0
  Cs  Cs11  1  1.48535464  0.00154670  0.36369161  1.0
  Cs  Cs12  1  0.76636116  0.76636116  0.75000000  1.0
  Cs  Cs13  1  0.23363884  0.23363884  0.25000000  1.0
  Co  Co14  1  0.21412864  0.10728199  0.72356813  1.0
  Co  Co15  1  0.89271801  0.78587136  0.22356813  1.0
  Co  Co16  1  1.10728199  -0.78587136  0.77643187  1.0
  Co  Co17  1  1.78587136  -0.10728199  0.27643187  1.0
  Co  Co18  1  0.42538785  0.31654183  0.83118751  1.0
  Co  Co19  1  0.68345817  0.57461215  0.33118751  1.0
  Co  Co20  1  1.31654183  -0.57461215  0.66881249  1.0
  Co  Co21  1  1.57461215  -0.31654183  0.16881249  1.0
  Se  Se22  1  0.87776356  0.14004015  0.81510770  1.0
  Se  Se23  1  0.85995985  -0.87776356  0.31510770  1.0
  Se  Se24  1  1.14004015  0.87776356  0.68489230  1.0
  Se  Se25  1  1.12223644  -0.14004015  0.18489230  1.0
  Se  Se26  1  0.61300891  0.34114805  0.44833245  1.0
  Se  Se27  1  0.65885195  0.38699109  0.94833245  1.0
  Se  Se28  1  1.34114805  -0.38699109  0.05166755  1.0
  Se  Se29  1  1.38699109  -0.34114805  0.55166755  1.0
  Se  Se30  1  0.18854395  0.02527075  0.87295375  1.0
  Se  Se31  1  0.97472925  0.81145605  0.37295375  1.0
  Se  Se32  1  1.02527075  -0.81145605  0.62704625  1.0
  Se  Se33  1  1.81145605  -0.02527075  0.12704625  1.0
  Se  Se34  1  0.50435317  0.34447729  0.70884226  1.0
  Se  Se35  1  0.65552271  0.49564683  0.20884226  1.0
  Se  Se36  1  1.34447729  -0.49564683  0.79115774  1.0
  Se  Se37  1  1.49564683  -0.34447729  0.29115774  1.0
