# generated using pymatgen
data_Na
_symmetry_space_group_name_H-M   'P 1'
_cell_length_a   7.26504904
_cell_length_b   7.26504904
_cell_length_c   7.26504904
_cell_angle_alpha   109.47122063
_cell_angle_beta   109.47122063
_cell_angle_gamma   109.47122063
_symmetry_Int_Tables_number   1
_chemical_formula_structural   Na
_chemical_formula_sum   Na8
_cell_volume   295.18464269
_cell_formula_units_Z   8
loop_
 _symmetry_equiv_pos_site_id
 _symmetry_equiv_pos_as_xyz
  1  'x, y, z'
loop_
 _atom_site_type_symbol
 _atom_site_label
 _atom_site_symmetry_multiplicity
 _atom_site_fract_x
 _atom_site_fract_y
 _atom_site_fract_z
 _atom_site_occupancy
  Na  Na0  1  1.50000483  1.50000483  1.50000483  1.0
  Na  Na1  1  1.50000000  1.00000000  0.99999517  1.0
  Na  Na2  1  1.00000483  1.00000483  1.00000483  1.0
  Na  Na3  1  0.50000000  1.00000000  0.49999517  1.0
  Na  Na4  1  1.00000000  0.99999517  1.50000000  1.0
  Na  Na5  1  0.99999517  0.50000000  1.00000000  1.0
  Na  Na6  1  1.00000000  0.49999517  1.50000000  1.0
  Na  Na7  1  0.49999517  1.50000000  1.00000000  1.0
