# generated using pymatgen
data_Na2CuH12(SO7)2
_symmetry_space_group_name_H-M   'P 1'
_cell_length_a   5.91965012
_cell_length_b   12.47481058
_cell_length_c   8.87765218
_cell_angle_alpha   90.00000000
_cell_angle_beta   105.04953864
_cell_angle_gamma   90.00000000
_symmetry_Int_Tables_number   1
_chemical_formula_structural   Na2CuH12(SO7)2
_chemical_formula_sum   'Na4 Cu2 H24 S4 O28'
_cell_volume   633.09825216
_cell_formula_units_Z   2
loop_
 _symmetry_equiv_pos_site_id
 _symmetry_equiv_pos_as_xyz
  1  'x, y, z'
loop_
 _atom_site_type_symbol
 _atom_site_label
 _atom_site_symmetry_multiplicity
 _atom_site_fract_x
 _atom_site_fract_y
 _atom_site_fract_z
 _atom_site_occupancy
  Na  Na0  1  0.84996025  0.63432427  0.15582174  1.0
  Na  Na1  1  0.84996025  0.86567573  0.65582174  1.0
  Na  Na2  1  0.15003975  0.13432427  0.34417826  1.0
  Na  Na3  1  0.15003975  0.36567573  0.84417826  1.0
  Cu  Cu4  1  0.50000000  0.50000000  0.50000000  1.0
  Cu  Cu5  1  0.50000000  0.00000000  0.00000000  1.0
  H  H6  1  0.83124002  0.43283000  0.39682944  1.0
  H  H7  1  0.83124002  0.06717000  0.89682944  1.0
  H  H8  1  0.16875998  0.93283000  0.10317056  1.0
  H  H9  1  0.16875998  0.56717000  0.60317056  1.0
  H  H10  1  0.81809948  0.14409532  0.04248746  1.0
  H  H11  1  0.81809948  0.35590468  0.54248746  1.0
  H  H12  1  0.18190052  0.64409532  0.45751253  1.0
  H  H13  1  0.18190052  0.85590468  0.95751254  1.0
  H  H14  1  0.83315739  0.92094462  0.21650292  1.0
  H  H15  1  0.83315739  0.57905538  0.71650292  1.0
  H  H16  1  0.16684261  0.42094462  0.28349708  1.0
  H  H17  1  0.16684261  0.07905538  0.78349708  1.0
  H  H18  1  0.57231272  0.12917073  0.27967281  1.0
  H  H19  1  0.57231272  0.37082927  0.77967281  1.0
  H  H20  1  0.42768728  0.62917073  0.22032719  1.0
  H  H21  1  0.42768728  0.87082927  0.72032719  1.0
  H  H22  1  0.44707839  0.20516737  0.14442931  1.0
  H  H23  1  0.44707839  0.29483263  0.64442931  1.0
  H  H24  1  0.55292161  0.70516737  0.35557069  1.0
  H  H25  1  0.55292161  0.79483263  0.85557069  1.0
  H  H26  1  0.40496060  0.38918344  0.24051525  1.0
  H  H27  1  0.40496060  0.11081656  0.74051525  1.0
  H  H28  1  0.59503940  0.88918344  0.25948475  1.0
  H  H29  1  0.59503940  0.61081656  0.75948475  1.0
  S  S30  1  0.76829459  0.35544770  0.09371915  1.0
  S  S31  1  0.76829459  0.14455230  0.59371915  1.0
  S  S32  1  0.23170541  0.85544770  0.40628085  1.0
  S  S33  1  0.23170541  0.64455230  0.90628085  1.0
  O  O34  1  0.88787200  0.25175412  0.14919730  1.0
  O  O35  1  0.88787200  0.24824588  0.64919730  1.0
  O  O36  1  0.11212800  0.75175412  0.35080270  1.0
  O  O37  1  0.11212800  0.74824588  0.85080270  1.0
  O  O38  1  0.87048278  0.44109181  0.21252387  1.0
  O  O39  1  0.87048278  0.05890819  0.71252387  1.0
  O  O40  1  0.12951722  0.94109181  0.28747613  1.0
  O  O41  1  0.12951722  0.55890819  0.78747613  1.0
  O  O42  1  0.80019622  0.43148744  0.50203646  1.0
  O  O43  1  0.80019622  0.06851256  1.00203646  1.0
  O  O44  1  0.19980378  0.93148744  -0.00203646  1.0
  O  O45  1  0.19980378  0.56851256  0.49796354  1.0
  O  O46  1  0.80825041  0.11411714  0.44069723  1.0
  O  O47  1  0.80825041  0.38588286  0.94069723  1.0
  O  O48  1  0.19174959  0.61411714  0.05930277  1.0
  O  O49  1  0.19174959  0.88588286  0.55930277  1.0
  O  O50  1  0.50994682  0.34605183  0.08017607  1.0
  O  O51  1  0.50994682  0.15394817  0.58017607  1.0
  O  O52  1  0.49005318  0.84605183  0.41982393  1.0
  O  O53  1  0.49005318  0.65394817  0.91982393  1.0
  O  O54  1  0.42903804  0.13555310  0.19208605  1.0
  O  O55  1  0.42903804  0.36444690  0.69208605  1.0
  O  O56  1  0.57096196  0.63555310  0.30791395  1.0
  O  O57  1  0.57096196  0.86444690  0.80791395  1.0
  O  O58  1  0.33358137  0.40033686  0.32912762  1.0
  O  O59  1  0.33358137  0.09966314  0.82912762  1.0
  O  O60  1  0.66641863  0.90033686  0.17087238  1.0
  O  O61  1  0.66641863  0.59966314  0.67087238  1.0
