# generated using pymatgen
data_K2PbO3
_symmetry_space_group_name_H-M   'P 1'
_cell_length_a   6.09993845
_cell_length_b   6.09993845
_cell_length_c   12.63651058
_cell_angle_alpha   90.00000000
_cell_angle_beta   90.00000000
_cell_angle_gamma   120.00000000
_symmetry_Int_Tables_number   1
_chemical_formula_structural   K2PbO3
_chemical_formula_sum   'K8 Pb4 O12'
_cell_volume   407.20087515
_cell_formula_units_Z   4
loop_
 _symmetry_equiv_pos_site_id
 _symmetry_equiv_pos_as_xyz
  1  'x, y, z'
loop_
 _atom_site_type_symbol
 _atom_site_label
 _atom_site_symmetry_multiplicity
 _atom_site_fract_x
 _atom_site_fract_y
 _atom_site_fract_z
 _atom_site_occupancy
  K  K0  1  0.68482826  0.68482826  0.25000000  1.0
  K  K1  1  0.68482826  0.00000000  0.75000000  1.0
  K  K2  1  -0.00000000  0.68482826  0.75000000  1.0
  K  K3  1  -0.00000000  0.31517174  0.25000000  1.0
  K  K4  1  0.31517174  0.31517174  0.75000000  1.0
  K  K5  1  0.31517174  0.00000000  0.25000000  1.0
  K  K6  1  0.00000000  0.00000000  0.50000000  1.0
  K  K7  1  0.00000000  0.00000000  0.00000000  1.0
  Pb  Pb8  1  0.33333333  0.66666667  0.50000000  1.0
  Pb  Pb9  1  0.33333333  0.66666667  0.00000000  1.0
  Pb  Pb10  1  0.66666667  0.33333333  0.50000000  1.0
  Pb  Pb11  1  0.66666667  0.33333333  0.00000000  1.0
  O  O12  1  0.38571198  0.38571198  0.39920724  1.0
  O  O13  1  0.38571198  0.38571198  0.10079276  1.0
  O  O14  1  0.38571198  0.00000000  0.89920724  1.0
  O  O15  1  0.38571198  0.00000000  0.60079276  1.0
  O  O16  1  -0.00000000  0.38571198  0.89920724  1.0
  O  O17  1  -0.00000000  0.38571198  0.60079276  1.0
  O  O18  1  -0.00000000  0.61428802  0.39920724  1.0
  O  O19  1  -0.00000000  0.61428802  0.10079276  1.0
  O  O20  1  0.61428802  0.61428802  0.89920724  1.0
  O  O21  1  0.61428802  0.61428802  0.60079276  1.0
  O  O22  1  0.61428802  0.00000000  0.39920724  1.0
  O  O23  1  0.61428802  0.00000000  0.10079276  1.0
