# generated using pymatgen
data_Gd2Pt2Pb
_symmetry_space_group_name_H-M   'P 1'
_cell_length_a   7.96171316
_cell_length_b   7.96171316
_cell_length_c   3.68072483
_cell_angle_alpha   90.00000000
_cell_angle_beta   90.00000000
_cell_angle_gamma   90.00000000
_symmetry_Int_Tables_number   1
_chemical_formula_structural   Gd2Pt2Pb
_chemical_formula_sum   'Gd4 Pt4 Pb2'
_cell_volume   233.31701125
_cell_formula_units_Z   2
loop_
 _symmetry_equiv_pos_site_id
 _symmetry_equiv_pos_as_xyz
  1  'x, y, z'
loop_
 _atom_site_type_symbol
 _atom_site_label
 _atom_site_symmetry_multiplicity
 _atom_site_fract_x
 _atom_site_fract_y
 _atom_site_fract_z
 _atom_site_occupancy
  Gd  Gd0  1  0.32959471  0.17040529  0.50000000  1.0
  Gd  Gd1  1  0.82959471  0.32959471  0.50000000  1.0
  Gd  Gd2  1  0.67040529  0.82959471  0.50000000  1.0
  Gd  Gd3  1  0.17040529  0.67040529  0.50000000  1.0
  Pt  Pt4  1  0.87340709  0.62659291  0.00000000  1.0
  Pt  Pt5  1  0.37340709  0.87340709  0.00000000  1.0
  Pt  Pt6  1  0.12659291  0.37340709  0.00000000  1.0
  Pt  Pt7  1  0.62659291  0.12659291  0.00000000  1.0
  Pb  Pb8  1  0.50000000  0.50000000  0.00000000  1.0
  Pb  Pb9  1  0.00000000  0.00000000  0.00000000  1.0
