# generated using pymatgen
data_Ca2FeMoO6
_symmetry_space_group_name_H-M   'P 1'
_cell_length_a   5.42610627
_cell_length_b   5.59360084
_cell_length_c   9.44024373
_cell_angle_alpha   90.00000000
_cell_angle_beta   124.93001193
_cell_angle_gamma   90.00000000
_symmetry_Int_Tables_number   1
_chemical_formula_structural   Ca2FeMoO6
_chemical_formula_sum   'Ca4 Fe2 Mo2 O12'
_cell_volume   234.90835918
_cell_formula_units_Z   2
loop_
 _symmetry_equiv_pos_site_id
 _symmetry_equiv_pos_as_xyz
  1  'x, y, z'
loop_
 _atom_site_type_symbol
 _atom_site_label
 _atom_site_symmetry_multiplicity
 _atom_site_fract_x
 _atom_site_fract_y
 _atom_site_fract_z
 _atom_site_occupancy
  Ca  Ca0  1  0.73624079  0.05308368  0.24810996  1.0
  Ca  Ca1  1  0.73624079  0.44691632  0.74810996  1.0
  Ca  Ca2  1  0.26375921  0.55308368  0.25189004  1.0
  Ca  Ca3  1  0.26375921  0.94691632  0.75189004  1.0
  Fe  Fe4  1  0.50000000  0.50000000  -0.00000000  1.0
  Fe  Fe5  1  0.50000000  0.00000000  0.50000000  1.0
  Mo  Mo6  1  -0.00000000  0.50000000  0.50000000  1.0
  Mo  Mo7  1  0.00000000  0.00000000  0.00000000  1.0
  O  O8  1  0.84381717  0.47418002  0.25617409  1.0
  O  O9  1  0.84381717  0.02581998  0.75617409  1.0
  O  O10  1  0.15618283  0.97418002  0.24382591  1.0
  O  O11  1  0.15618283  0.52581998  0.74382591  1.0
  O  O12  1  0.75846801  0.78720400  0.45242990  1.0
  O  O13  1  0.75846801  0.71279600  0.95242990  1.0
  O  O14  1  0.24153199  0.28720400  0.04757010  1.0
  O  O15  1  0.24153199  0.21279600  0.54757010  1.0
  O  O16  1  0.66575637  0.30254698  0.45599998  1.0
  O  O17  1  0.66575637  0.19745302  0.95599998  1.0
  O  O18  1  0.33424363  0.80254698  0.04400002  1.0
  O  O19  1  0.33424363  0.69745302  0.54400002  1.0
