# generated using pymatgen
data_Nb3Cl8
_symmetry_space_group_name_H-M   'P 1'
_cell_length_a   6.80895596
_cell_length_b   6.80895596
_cell_length_c   13.60865852
_cell_angle_alpha   90.00000000
_cell_angle_beta   90.00000000
_cell_angle_gamma   120.00000000
_symmetry_Int_Tables_number   1
_chemical_formula_structural   Nb3Cl8
_chemical_formula_sum   'Nb6 Cl16'
_cell_volume   546.39535544
_cell_formula_units_Z   2
loop_
 _symmetry_equiv_pos_site_id
 _symmetry_equiv_pos_as_xyz
  1  'x, y, z'
loop_
 _atom_site_type_symbol
 _atom_site_label
 _atom_site_symmetry_multiplicity
 _atom_site_fract_x
 _atom_site_fract_y
 _atom_site_fract_z
 _atom_site_occupancy
  Nb  Nb0  1  0.94319985  0.47159993  0.25393692  1.0
  Nb  Nb1  1  0.47159993  0.94319985  0.74606308  1.0
  Nb  Nb2  1  0.47159993  0.52840007  0.74606308  1.0
  Nb  Nb3  1  0.52840007  0.47159993  0.25393692  1.0
  Nb  Nb4  1  0.52840007  0.05680015  0.25393692  1.0
  Nb  Nb5  1  0.05680015  0.52840007  0.74606308  1.0
  Cl  Cl6  1  0.33333333  0.66666667  0.61166084  1.0
  Cl  Cl7  1  0.66666667  0.33333333  0.38833916  1.0
  Cl  Cl8  1  0.33333333  0.66666667  0.15503598  1.0
  Cl  Cl9  1  0.66666667  0.33333333  0.84496402  1.0
  Cl  Cl10  1  0.34036750  0.17018375  0.13266010  1.0
  Cl  Cl11  1  0.17018375  0.34036750  0.86733990  1.0
  Cl  Cl12  1  0.17018375  0.82981625  0.86733990  1.0
  Cl  Cl13  1  0.82981625  0.17018375  0.13266010  1.0
  Cl  Cl14  1  0.82981625  0.65963250  0.13266010  1.0
  Cl  Cl15  1  0.65963250  0.82981625  0.86733990  1.0
  Cl  Cl16  1  0.66822417  0.83411209  0.35269085  1.0
  Cl  Cl17  1  0.83411209  0.66822417  0.64730915  1.0
  Cl  Cl18  1  0.83411209  0.16588791  0.64730915  1.0
  Cl  Cl19  1  0.16588791  0.83411209  0.35269085  1.0
  Cl  Cl20  1  0.16588791  0.33177583  0.35269085  1.0
  Cl  Cl21  1  0.33177583  0.16588791  0.64730915  1.0
