# generated using pymatgen
data_Ce(Zn10Ir)2
_symmetry_space_group_name_H-M   'P 1'
_cell_length_a   10.10140370
_cell_length_b   10.10140370
_cell_length_c   10.10140370
_cell_angle_alpha   60.00000000
_cell_angle_beta   60.00000000
_cell_angle_gamma   60.00000000
_symmetry_Int_Tables_number   1
_chemical_formula_structural   Ce(Zn10Ir)2
_chemical_formula_sum   'Ce2 Zn40 Ir4'
_cell_volume   728.83662127
_cell_formula_units_Z   2
loop_
 _symmetry_equiv_pos_site_id
 _symmetry_equiv_pos_as_xyz
  1  'x, y, z'
loop_
 _atom_site_type_symbol
 _atom_site_label
 _atom_site_symmetry_multiplicity
 _atom_site_fract_x
 _atom_site_fract_y
 _atom_site_fract_z
 _atom_site_occupancy
  Ce  Ce0  1  0.50000000  -0.50000000  0.50000000  1.0
  Ce  Ce1  1  0.75000000  0.75000000  0.75000000  1.0
  Zn  Zn2  1  1.12500000  0.62500000  0.62500000  1.0
  Zn  Zn3  1  0.62500000  1.12500000  -0.37500000  1.0
  Zn  Zn4  1  -0.37500000  0.62500000  1.12500000  1.0
  Zn  Zn5  1  -0.37500000  0.62500000  0.62500000  1.0
  Zn  Zn6  1  0.86138778  0.86138778  -0.86138778  1.0
  Zn  Zn7  1  0.13861222  1.13861222  -0.13861222  1.0
  Zn  Zn8  1  0.86138778  -0.86138778  0.86138778  1.0
  Zn  Zn9  1  0.13861222  -0.13861222  0.13861222  1.0
  Zn  Zn10  1  -0.86138778  0.86138778  0.86138778  1.0
  Zn  Zn11  1  -0.13861222  0.13861222  0.13861222  1.0
  Zn  Zn12  1  0.38861222  1.38861222  0.11138778  1.0
  Zn  Zn13  1  0.11138778  0.11138778  0.38861222  1.0
  Zn  Zn14  1  0.38861222  1.11138778  0.38861222  1.0
  Zn  Zn15  1  0.11138778  1.38861222  0.11138778  1.0
  Zn  Zn16  1  0.11138778  1.38861222  0.38861222  1.0
  Zn  Zn17  1  0.38861222  1.11138778  0.11138778  1.0
  Zn  Zn18  1  0.56848032  1.30179607  0.30179607  1.0
  Zn  Zn19  1  0.30179607  1.56848032  -0.17207246  1.0
  Zn  Zn20  1  0.30179607  -0.17207246  0.56848032  1.0
  Zn  Zn21  1  -0.17207246  0.30179607  0.30179607  1.0
  Zn  Zn22  1  0.30179607  1.30179607  0.56848032  1.0
  Zn  Zn23  1  0.56848032  0.82792754  0.30179607  1.0
  Zn  Zn24  1  -0.17207246  1.56848032  0.30179607  1.0
  Zn  Zn25  1  0.30179607  1.30179607  -0.17207246  1.0
  Zn  Zn26  1  0.30179607  1.56848032  0.30179607  1.0
  Zn  Zn27  1  -0.17207246  0.30179607  0.56848032  1.0
  Zn  Zn28  1  0.56848032  1.30179607  -0.17207246  1.0
  Zn  Zn29  1  0.30179607  -0.17207246  0.30179607  1.0
  Zn  Zn30  1  0.68151968  0.94820393  0.94820393  1.0
  Zn  Zn31  1  0.94820393  0.68151968  -0.57792754  1.0
  Zn  Zn32  1  0.94820393  0.42207246  0.68151968  1.0
  Zn  Zn33  1  0.42207246  0.94820393  -0.05179607  1.0
  Zn  Zn34  1  0.94820393  0.94820393  0.68151968  1.0
  Zn  Zn35  1  0.68151968  -0.57792754  0.94820393  1.0
  Zn  Zn36  1  -0.57792754  0.68151968  0.94820393  1.0
  Zn  Zn37  1  0.94820393  0.94820393  -0.57792754  1.0
  Zn  Zn38  1  0.94820393  0.68151968  0.94820393  1.0
  Zn  Zn39  1  0.42207246  0.94820393  -0.31848032  1.0
  Zn  Zn40  1  0.68151968  0.94820393  -0.57792754  1.0
  Zn  Zn41  1  0.94820393  0.42207246  0.94820393  1.0
  Ir  Ir42  1  0.62500000  1.12500000  0.12500000  1.0
  Ir  Ir43  1  0.12500000  1.62500000  0.12500000  1.0
  Ir  Ir44  1  0.12500000  0.12500000  1.62500000  1.0
  Ir  Ir45  1  0.12500000  0.12500000  0.12500000  1.0
