# generated using pymatgen
data_Ca(MnAl2)4
_symmetry_space_group_name_H-M   'P 1'
_cell_length_a   6.75626442
_cell_length_b   6.75626442
_cell_length_c   6.75626442
_cell_angle_alpha   98.48929723
_cell_angle_beta   98.48929723
_cell_angle_gamma   134.80940510
_symmetry_Int_Tables_number   1
_chemical_formula_structural   Ca(MnAl2)4
_chemical_formula_sum   'Ca1 Mn4 Al8'
_cell_volume   202.00412785
_cell_formula_units_Z   1
loop_
 _symmetry_equiv_pos_site_id
 _symmetry_equiv_pos_as_xyz
  1  'x, y, z'
loop_
 _atom_site_type_symbol
 _atom_site_label
 _atom_site_symmetry_multiplicity
 _atom_site_fract_x
 _atom_site_fract_y
 _atom_site_fract_z
 _atom_site_occupancy
  Ca  Ca0  1  0.00000000  0.00000000  0.00000000  1.0
  Mn  Mn1  1  0.50000000  0.50000000  0.50000000  1.0
  Mn  Mn2  1  1.00000000  1.00000000  0.50000000  1.0
  Mn  Mn3  1  1.00000000  0.50000000  1.00000000  1.0
  Mn  Mn4  1  1.50000000  1.00000000  1.00000000  1.0
  Al  Al5  1  0.50000000  0.72850405  0.22850405  1.0
  Al  Al6  1  0.72850405  0.50000000  1.22850405  1.0
  Al  Al7  1  0.27149595  0.50000000  0.77149595  1.0
  Al  Al8  1  0.50000000  1.27149595  0.77149595  1.0
  Al  Al9  1  -0.00000000  0.66562082  0.66562082  1.0
  Al  Al10  1  0.66562082  1.00000000  0.66562082  1.0
  Al  Al11  1  1.33437918  1.00000000  1.33437918  1.0
  Al  Al12  1  0.00000000  0.33437918  0.33437918  1.0
