# generated using pymatgen
data_CuSb6(SO8)2
_symmetry_space_group_name_H-M   'P 1'
_cell_length_a   9.46417014
_cell_length_b   7.82575625
_cell_length_c   5.72773463
_cell_angle_alpha   108.94500722
_cell_angle_beta   92.84188152
_cell_angle_gamma   97.00392852
_symmetry_Int_Tables_number   1
_chemical_formula_structural   CuSb6(SO8)2
_chemical_formula_sum   'Cu1 Sb6 S2 O16'
_cell_volume   396.44614129
_cell_formula_units_Z   1
loop_
 _symmetry_equiv_pos_site_id
 _symmetry_equiv_pos_as_xyz
  1  'x, y, z'
loop_
 _atom_site_type_symbol
 _atom_site_label
 _atom_site_symmetry_multiplicity
 _atom_site_fract_x
 _atom_site_fract_y
 _atom_site_fract_z
 _atom_site_occupancy
  Cu  Cu0  1  -0.50000000  -0.50000000  0.00000000  1.0
  Sb  Sb1  1  -0.77855548  -0.51900394  -0.69838968  1.0
  Sb  Sb2  1  -0.22144452  -0.48099606  -0.30161032  1.0
  Sb  Sb3  1  -0.51595754  -0.82872585  -0.64058841  1.0
  Sb  Sb4  1  -0.48404246  -0.17127415  -0.35941159  1.0
  Sb  Sb5  1  -0.79842854  -0.85000240  -0.32332410  1.0
  Sb  Sb6  1  -0.20157146  -0.14999760  -0.67667590  1.0
  S  S7  1  -0.85726675  -0.21810058  -0.14742205  1.0
  S  S8  1  -0.14273325  -0.78189942  -0.85257795  1.0
  O  O9  1  -0.68271912  -0.65709319  -0.02821571  1.0
  O  O10  1  -0.31728088  -0.34290681  -0.97178429  1.0
  O  O11  1  -0.70319144  -0.69938747  -0.55030525  1.0
  O  O12  1  -0.29680856  -0.30061253  -0.44969475  1.0
  O  O13  1  -0.77957953  -0.02266925  -0.06084892  1.0
  O  O14  1  -0.22042047  -0.97733075  -0.93915108  1.0
  O  O15  1  -0.57711119  -0.37248431  -0.67581938  1.0
  O  O16  1  -0.42288881  -0.62751569  -0.32418062  1.0
  O  O17  1  -0.97636773  -0.23790664  -0.33746631  1.0
  O  O18  1  -0.02363227  -0.76209336  -0.66253369  1.0
  O  O19  1  -0.62590443  -0.97302081  -0.44927362  1.0
  O  O20  1  -0.37409557  -0.02697919  -0.55072638  1.0
  O  O21  1  -0.74783420  -0.34014397  -0.26915558  1.0
  O  O22  1  -0.25216580  -0.65985603  -0.73084442  1.0
  O  O23  1  -0.90463767  -0.26572069  -0.93258665  1.0
  O  O24  1  -0.09536233  -0.73427931  -0.06741335  1.0
