# generated using pymatgen
data_Zr3Ir
_symmetry_space_group_name_H-M   'P 1'
_cell_length_a   8.14961402
_cell_length_b   8.14961402
_cell_length_c   8.14961402
_cell_angle_alpha   97.06137148
_cell_angle_beta   97.06137148
_cell_angle_gamma   138.94985860
_symmetry_Int_Tables_number   1
_chemical_formula_structural   Zr3Ir
_chemical_formula_sum   'Zr12 Ir4'
_cell_volume   332.89509375
_cell_formula_units_Z   4
loop_
 _symmetry_equiv_pos_site_id
 _symmetry_equiv_pos_as_xyz
  1  'x, y, z'
loop_
 _atom_site_type_symbol
 _atom_site_label
 _atom_site_symmetry_multiplicity
 _atom_site_fract_x
 _atom_site_fract_y
 _atom_site_fract_z
 _atom_site_occupancy
  Zr  Zr0  1  1.14558272  0.50000000  0.64558272  1.0
  Zr  Zr1  1  0.50000000  0.14558272  0.64558272  1.0
  Zr  Zr2  1  0.50000000  0.85441728  1.35441728  1.0
  Zr  Zr3  1  0.85441728  0.50000000  0.35441728  1.0
  Zr  Zr4  1  0.64198863  0.64198863  0.80864913  1.0
  Zr  Zr5  1  1.16666050  1.35801137  1.00000000  1.0
  Zr  Zr6  1  0.35801137  1.16666050  1.00000000  1.0
  Zr  Zr7  1  0.83333950  0.83333950  0.19135087  1.0
  Zr  Zr8  1  0.45398561  0.45398561  0.41156345  1.0
  Zr  Zr9  1  0.95757784  1.54601439  1.00000000  1.0
  Zr  Zr10  1  0.54601439  0.95757784  1.00000000  1.0
  Zr  Zr11  1  1.04242216  1.04242216  0.58843655  1.0
  Ir  Ir12  1  0.70793032  0.00000000  0.70793032  1.0
  Ir  Ir13  1  1.00000000  0.70793032  0.70793032  1.0
  Ir  Ir14  1  1.00000000  1.29206968  1.29206968  1.0
  Ir  Ir15  1  0.29206968  0.00000000  0.29206968  1.0
