# generated using pymatgen
data_H2C2N3O
_symmetry_space_group_name_H-M   'P 1'
_cell_length_a   6.33689309
_cell_length_b   5.40889553
_cell_length_c   5.65302668
_cell_angle_alpha   107.03469588
_cell_angle_beta   96.99801967
_cell_angle_gamma   91.74414918
_symmetry_Int_Tables_number   1
_chemical_formula_structural   H2C2N3O
_chemical_formula_sum   'H4 C4 N6 O2'
_cell_volume   183.43299453
_cell_formula_units_Z   2
loop_
 _symmetry_equiv_pos_site_id
 _symmetry_equiv_pos_as_xyz
  1  'x, y, z'
loop_
 _atom_site_type_symbol
 _atom_site_label
 _atom_site_symmetry_multiplicity
 _atom_site_fract_x
 _atom_site_fract_y
 _atom_site_fract_z
 _atom_site_occupancy
  H  H0  1  0.11981851  0.90920084  -0.72454077  1.0
  H  H1  1  0.88018149  0.09079916  -0.27545923  1.0
  H  H2  1  0.66338712  0.96286823  -0.16904270  1.0
  H  H3  1  0.33661288  0.03713177  -0.83095730  1.0
  C  C4  1  0.58487729  0.52240149  -0.56663650  1.0
  C  C5  1  0.41512271  0.47759851  -0.43336350  1.0
  C  C6  1  0.73945348  0.74202574  -0.50300262  1.0
  C  C7  1  0.26054652  0.25797426  -0.49699738  1.0
  N  N8  1  0.62097483  0.35532780  -0.77736206  1.0
  N  N9  1  0.37902517  0.64467220  -0.22263794  1.0
  N  N10  1  0.86534201  0.69983571  -0.68013942  1.0
  N  N11  1  0.13465799  0.30016429  -0.31986058  1.0
  N  N12  1  0.75581059  0.95494183  -0.30483016  1.0
  N  N13  1  0.24418941  0.04505817  -0.69516984  1.0
  O  O14  1  0.79086266  0.45958543  -0.85009719  1.0
  O  O15  1  0.20913734  0.54041457  -0.14990281  1.0
