# generated using pymatgen
data_Mg3BN3
_symmetry_space_group_name_H-M   'P 1'
_cell_length_a   3.55682352
_cell_length_b   3.55682352
_cell_length_c   16.14700881
_cell_angle_alpha   90.00000000
_cell_angle_beta   90.00000000
_cell_angle_gamma   120.00000000
_symmetry_Int_Tables_number   1
_chemical_formula_structural   Mg3BN3
_chemical_formula_sum   'Mg6 B2 N6'
_cell_volume   176.90794938
_cell_formula_units_Z   2
loop_
 _symmetry_equiv_pos_site_id
 _symmetry_equiv_pos_as_xyz
  1  'x, y, z'
loop_
 _atom_site_type_symbol
 _atom_site_label
 _atom_site_symmetry_multiplicity
 _atom_site_fract_x
 _atom_site_fract_y
 _atom_site_fract_z
 _atom_site_occupancy
  Mg  Mg0  1  0.33333333  0.66666667  0.37746281  1.0
  Mg  Mg1  1  0.33333333  0.66666667  0.12253719  1.0
  Mg  Mg2  1  0.66666667  0.33333333  0.87746281  1.0
  Mg  Mg3  1  0.66666667  0.33333333  0.62253719  1.0
  Mg  Mg4  1  0.00000000  0.00000000  0.25000000  1.0
  Mg  Mg5  1  0.00000000  0.00000000  0.75000000  1.0
  B  B6  1  0.00000000  0.00000000  0.50000000  1.0
  B  B7  1  0.00000000  0.00000000  0.00000000  1.0
  N  N8  1  0.00000000  0.00000000  0.41665101  1.0
  N  N9  1  0.00000000  0.00000000  0.08334899  1.0
  N  N10  1  0.00000000  0.00000000  0.91665101  1.0
  N  N11  1  0.00000000  0.00000000  0.58334899  1.0
  N  N12  1  0.33333333  0.66666667  0.25000000  1.0
  N  N13  1  0.66666667  0.33333333  0.75000000  1.0
