# generated using pymatgen
data_H6C2N6O5
_symmetry_space_group_name_H-M   'P 1'
_cell_length_a   5.77885108
_cell_length_b   9.28312904
_cell_length_c   8.28545235
_cell_angle_alpha   103.46095107
_cell_angle_beta   110.55380012
_cell_angle_gamma   82.00241321
_symmetry_Int_Tables_number   1
_chemical_formula_structural   H6C2N6O5
_chemical_formula_sum   'H12 C4 N12 O10'
_cell_volume   403.94745919
_cell_formula_units_Z   2
loop_
 _symmetry_equiv_pos_site_id
 _symmetry_equiv_pos_as_xyz
  1  'x, y, z'
loop_
 _atom_site_type_symbol
 _atom_site_label
 _atom_site_symmetry_multiplicity
 _atom_site_fract_x
 _atom_site_fract_y
 _atom_site_fract_z
 _atom_site_occupancy
  H  H0  1  -0.10622290  0.08709596  0.81268885  1.0
  H  H1  1  0.10622290  0.91290404  0.18731115  1.0
  H  H2  1  -0.59847910  1.00892949  0.16181371  1.0
  H  H3  1  0.59847910  -0.00892949  0.83818629  1.0
  H  H4  1  -0.43524112  0.87114329  0.27282626  1.0
  H  H5  1  0.43524112  0.12885671  0.72717374  1.0
  H  H6  1  -0.51217267  0.84526237  0.05078419  1.0
  H  H7  1  0.51217267  0.15473763  0.94921581  1.0
  H  H8  1  0.46408764  0.76614423  0.75867968  1.0
  H  H9  1  -0.46408764  0.23385577  0.24132032  1.0
  H  H10  1  0.74139993  0.73471224  0.87175284  1.0
  H  H11  1  -0.74139993  0.26528776  0.12824716  1.0
  C  C12  1  -0.19965401  0.47107824  0.64096953  1.0
  C  C13  1  0.19965401  0.52892176  0.35903047  1.0
  C  C14  1  -0.05485032  0.34054963  0.58350790  1.0
  C  C15  1  0.05485032  0.65945037  0.41649210  1.0
  N  N16  1  -0.56377851  0.46619751  0.42492101  1.0
  N  N17  1  0.56377851  0.53380249  0.57507899  1.0
  N  N18  1  -0.06139375  0.54417470  0.79392275  1.0
  N  N19  1  0.06139375  0.45582530  0.20607725  1.0
  N  N20  1  -0.57088523  0.89394794  0.15898621  1.0
  N  N21  1  0.57088523  0.10605206  0.84101379  1.0
  N  N22  1  -0.00402897  0.86934666  0.61444179  1.0
  N  N23  1  0.00402897  0.13065334  0.38555821  1.0
  N  N24  1  0.16767547  0.34048023  0.70660711  1.0
  N  N25  1  -0.16767547  0.65951977  0.29339289  1.0
  N  N26  1  0.14793532  0.75770912  0.57071892  1.0
  N  N27  1  -0.14793532  0.24229088  0.42928108  1.0
  O  O28  1  -0.79229241  0.83035147  0.13449478  1.0
  O  O29  1  0.79229241  0.16964853  0.86550522  1.0
  O  O30  1  -0.22772506  0.88854093  0.52739512  1.0
  O  O31  1  0.22772506  0.11145907  0.47260488  1.0
  O  O32  1  0.09482146  0.95876337  0.75805495  1.0
  O  O33  1  -0.09482146  0.04123663  0.24194505  1.0
  O  O34  1  0.15958283  0.46771754  0.83576167  1.0
  O  O35  1  -0.15958283  0.53228246  0.16423833  1.0
  O  O36  1  0.59842164  0.80627985  0.86770662  1.0
  O  O37  1  -0.59842164  0.19372015  0.13229338  1.0
