# generated using pymatgen
data_Al5Re24
_symmetry_space_group_name_H-M   'P 1'
_cell_length_a   8.31853785
_cell_length_b   8.31853785
_cell_length_c   8.31853785
_cell_angle_alpha   109.47122063
_cell_angle_beta   109.47122063
_cell_angle_gamma   109.47122063
_symmetry_Int_Tables_number   1
_chemical_formula_structural   Al5Re24
_chemical_formula_sum   'Al5 Re24'
_cell_volume   443.11770197
_cell_formula_units_Z   1
loop_
 _symmetry_equiv_pos_site_id
 _symmetry_equiv_pos_as_xyz
  1  'x, y, z'
loop_
 _atom_site_type_symbol
 _atom_site_label
 _atom_site_symmetry_multiplicity
 _atom_site_fract_x
 _atom_site_fract_y
 _atom_site_fract_z
 _atom_site_occupancy
  Al  Al0  1  0.35074639  0.35074639  0.35074639  1.0
  Al  Al1  1  1.00000000  1.00000000  0.64925361  1.0
  Al  Al2  1  1.00000000  0.64925361  1.00000000  1.0
  Al  Al3  1  0.64925361  1.00000000  1.00000000  1.0
  Al  Al4  1  0.00000000  0.00000000  0.00000000  1.0
  Re  Re5  1  0.81595825  0.62383483  0.62383483  1.0
  Re  Re6  1  0.62383483  0.81595825  0.62383483  1.0
  Re  Re7  1  1.00000000  1.19212342  0.37616517  1.0
  Re  Re8  1  1.19212342  1.00000000  0.37616517  1.0
  Re  Re9  1  0.62383483  0.62383483  0.81595825  1.0
  Re  Re10  1  0.80787658  0.80787658  0.18404175  1.0
  Re  Re11  1  1.00000000  0.37616517  1.19212342  1.0
  Re  Re12  1  0.80787658  0.18404175  0.80787658  1.0
  Re  Re13  1  0.18404175  0.80787658  0.80787658  1.0
  Re  Re14  1  0.37616517  1.00000000  1.19212342  1.0
  Re  Re15  1  1.19212342  0.37616517  1.00000000  1.0
  Re  Re16  1  0.37616517  1.19212342  1.00000000  1.0
  Re  Re17  1  0.28196943  0.60041454  0.60041454  1.0
  Re  Re18  1  0.60041454  0.28196943  0.60041454  1.0
  Re  Re19  1  1.00000000  0.68155489  1.39958546  1.0
  Re  Re20  1  0.68155489  1.00000000  1.39958546  1.0
  Re  Re21  1  0.60041454  0.60041454  0.28196943  1.0
  Re  Re22  1  1.31844511  1.31844511  0.71803057  1.0
  Re  Re23  1  1.00000000  1.39958546  0.68155489  1.0
  Re  Re24  1  1.31844511  0.71803057  1.31844511  1.0
  Re  Re25  1  0.71803057  1.31844511  1.31844511  1.0
  Re  Re26  1  1.39958546  1.00000000  0.68155489  1.0
  Re  Re27  1  0.68155489  1.39958546  1.00000000  1.0
  Re  Re28  1  1.39958546  0.68155489  1.00000000  1.0
