# generated using pymatgen
data_Hf4Co4Ge7
_symmetry_space_group_name_H-M   'P 1'
_cell_length_a   9.68182840
_cell_length_b   9.68182840
_cell_length_c   9.68182840
_cell_angle_alpha   94.13787746
_cell_angle_beta   94.13787746
_cell_angle_gamma   148.83564310
_symmetry_Int_Tables_number   1
_chemical_formula_structural   Hf4Co4Ge7
_chemical_formula_sum   'Hf8 Co8 Ge14'
_cell_volume   452.39252364
_cell_formula_units_Z   2
loop_
 _symmetry_equiv_pos_site_id
 _symmetry_equiv_pos_as_xyz
  1  'x, y, z'
loop_
 _atom_site_type_symbol
 _atom_site_label
 _atom_site_symmetry_multiplicity
 _atom_site_fract_x
 _atom_site_fract_y
 _atom_site_fract_z
 _atom_site_occupancy
  Hf  Hf0  1  0.00000000  0.80486614  0.80486614  1.0
  Hf  Hf1  1  0.80486614  1.00000000  0.80486614  1.0
  Hf  Hf2  1  1.19513386  1.00000000  1.19513386  1.0
  Hf  Hf3  1  -0.00000000  0.19513386  0.19513386  1.0
  Hf  Hf4  1  0.63888518  0.63888518  0.27777037  1.0
  Hf  Hf5  1  1.36111482  0.63888518  1.00000000  1.0
  Hf  Hf6  1  0.63888518  0.36111482  1.00000000  1.0
  Hf  Hf7  1  0.36111482  0.36111482  0.72222963  1.0
  Co  Co8  1  1.10116590  0.60116590  1.20233179  1.0
  Co  Co9  1  1.60116590  1.10116590  1.20233179  1.0
  Co  Co10  1  0.39883410  0.60116590  0.50000000  1.0
  Co  Co11  1  0.89883410  1.10116590  0.50000000  1.0
  Co  Co12  1  1.10116590  0.89883410  1.50000000  1.0
  Co  Co13  1  1.60116590  1.39883410  1.50000000  1.0
  Co  Co14  1  0.39883410  0.89883410  0.79766821  1.0
  Co  Co15  1  0.89883410  1.39883410  0.79766821  1.0
  Ge  Ge16  1  0.50000000  0.79198604  0.29198604  1.0
  Ge  Ge17  1  0.79198604  0.50000000  1.29198604  1.0
  Ge  Ge18  1  0.20801396  0.50000000  0.70801396  1.0
  Ge  Ge19  1  0.50000000  1.20801396  0.70801396  1.0
  Ge  Ge20  1  0.00000000  0.59411805  0.59411805  1.0
  Ge  Ge21  1  0.59411805  1.00000000  0.59411805  1.0
  Ge  Ge22  1  1.40588195  1.00000000  1.40588195  1.0
  Ge  Ge23  1  -0.00000000  0.40588195  0.40588195  1.0
  Ge  Ge24  1  0.79306141  0.79306141  0.58612281  1.0
  Ge  Ge25  1  1.20693859  0.79306141  1.00000000  1.0
  Ge  Ge26  1  0.79306141  0.20693859  1.00000000  1.0
  Ge  Ge27  1  0.20693859  0.20693859  0.41387719  1.0
  Ge  Ge28  1  0.74903437  0.74903437  -0.00000000  1.0
  Ge  Ge29  1  0.25096563  0.25096563  -0.00000000  1.0
