# generated using pymatgen
data_Fe2PHO3F2
_symmetry_space_group_name_H-M   'P 1'
_cell_length_a   7.42689058
_cell_length_b   10.07036019
_cell_length_c   5.60125071
_cell_angle_alpha   90.00000000
_cell_angle_beta   90.00000000
_cell_angle_gamma   90.00000000
_symmetry_Int_Tables_number   1
_chemical_formula_structural   Fe2PHO3F2
_chemical_formula_sum   'Fe8 P4 H4 O12 F8'
_cell_volume   418.92573629
_cell_formula_units_Z   4
loop_
 _symmetry_equiv_pos_site_id
 _symmetry_equiv_pos_as_xyz
  1  'x, y, z'
loop_
 _atom_site_type_symbol
 _atom_site_label
 _atom_site_symmetry_multiplicity
 _atom_site_fract_x
 _atom_site_fract_y
 _atom_site_fract_z
 _atom_site_occupancy
  Fe  Fe0  1  0.09584982  0.93698552  0.74560125  1.0
  Fe  Fe1  1  0.09584982  0.56301448  0.74560125  1.0
  Fe  Fe2  1  0.59584982  0.93698552  0.75439875  1.0
  Fe  Fe3  1  0.59584982  0.56301448  0.75439875  1.0
  Fe  Fe4  1  0.90415018  0.43698552  0.25439875  1.0
  Fe  Fe5  1  0.90415018  0.06301448  0.25439875  1.0
  Fe  Fe6  1  0.40415018  0.43698552  0.24560125  1.0
  Fe  Fe7  1  0.40415018  0.06301448  0.24560125  1.0
  P  P8  1  0.33657233  0.75000000  0.07905360  1.0
  P  P9  1  0.83657233  0.75000000  0.42094640  1.0
  P  P10  1  0.66342767  0.25000000  0.92094640  1.0
  P  P11  1  0.16342767  0.25000000  0.57905360  1.0
  H  H12  1  0.25577016  0.75000000  0.30525756  1.0
  H  H13  1  0.75577016  0.75000000  0.19474244  1.0
  H  H14  1  0.74422984  0.25000000  0.69474244  1.0
  H  H15  1  0.24422984  0.25000000  0.80525756  1.0
  O  O16  1  0.45370220  0.87713538  0.06116350  1.0
  O  O17  1  0.45370220  0.62286462  0.06116350  1.0
  O  O18  1  0.95370220  0.87713538  0.43883650  1.0
  O  O19  1  0.95370220  0.62286462  0.43883650  1.0
  O  O20  1  0.54629780  0.37713538  0.93883650  1.0
  O  O21  1  0.54629780  0.12286462  0.93883650  1.0
  O  O22  1  0.04629780  0.37713538  0.56116350  1.0
  O  O23  1  0.04629780  0.12286462  0.56116350  1.0
  O  O24  1  0.18365629  0.75000000  0.88599980  1.0
  O  O25  1  0.68365629  0.75000000  0.61400020  1.0
  O  O26  1  0.81634371  0.25000000  0.11400020  1.0
  O  O27  1  0.31634371  0.25000000  0.38599980  1.0
  F  F28  1  0.34752473  0.95363671  0.58204503  1.0
  F  F29  1  0.34752473  0.54636329  0.58204503  1.0
  F  F30  1  0.84752473  0.95363671  0.91795497  1.0
  F  F31  1  0.84752473  0.54636329  0.91795497  1.0
  F  F32  1  0.65247527  0.45363671  0.41795497  1.0
  F  F33  1  0.65247527  0.04636329  0.41795497  1.0
  F  F34  1  0.15247527  0.45363671  0.08204503  1.0
  F  F35  1  0.15247527  0.04636329  0.08204503  1.0
