# generated using pymatgen
data_K2Zn6O7
_symmetry_space_group_name_H-M   'P 1'
_cell_length_a   11.48462353
_cell_length_b   11.48462353
_cell_length_c   4.12028207
_cell_angle_alpha   90.00000000
_cell_angle_beta   90.00000000
_cell_angle_gamma   90.00000000
_symmetry_Int_Tables_number   1
_chemical_formula_structural   K2Zn6O7
_chemical_formula_sum   'K4 Zn12 O14'
_cell_volume   543.45110359
_cell_formula_units_Z   2
loop_
 _symmetry_equiv_pos_site_id
 _symmetry_equiv_pos_as_xyz
  1  'x, y, z'
loop_
 _atom_site_type_symbol
 _atom_site_label
 _atom_site_symmetry_multiplicity
 _atom_site_fract_x
 _atom_site_fract_y
 _atom_site_fract_z
 _atom_site_occupancy
  K  K0  1  0.37464140  0.37464140  0.57233734  1.0
  K  K1  1  0.62535860  0.62535860  0.57233734  1.0
  K  K2  1  0.12535860  0.87464140  1.07233734  1.0
  K  K3  1  0.87464140  0.12535860  1.07233734  1.0
  Zn  Zn4  1  0.48501119  0.10856628  -0.03327887  1.0
  Zn  Zn5  1  0.51498881  0.89143372  -0.03327887  1.0
  Zn  Zn6  1  0.39143372  0.98501119  0.46672113  1.0
  Zn  Zn7  1  0.98501119  0.39143372  0.46672113  1.0
  Zn  Zn8  1  0.60856628  0.01498881  0.46672113  1.0
  Zn  Zn9  1  0.01498881  0.60856628  0.46672113  1.0
  Zn  Zn10  1  0.89143372  0.51498881  -0.03327887  1.0
  Zn  Zn11  1  0.10856628  0.48501119  -0.03327887  1.0
  Zn  Zn12  1  0.17992389  0.17992389  0.67152784  1.0
  Zn  Zn13  1  0.82007611  0.82007611  0.67152784  1.0
  Zn  Zn14  1  0.32007611  0.67992389  1.17152784  1.0
  Zn  Zn15  1  0.67992389  0.32007611  1.17152784  1.0
  O  O16  1  0.33614728  0.12914213  0.70264344  1.0
  O  O17  1  0.66385272  0.87085787  0.70264344  1.0
  O  O18  1  0.37085787  0.83614728  0.20264344  1.0
  O  O19  1  0.83614728  0.37085787  0.20264344  1.0
  O  O20  1  0.62914213  0.16385272  0.20264344  1.0
  O  O21  1  0.16385272  0.62914213  0.20264344  1.0
  O  O22  1  0.87085787  0.66385272  0.70264344  1.0
  O  O23  1  0.12914213  0.33614728  0.70264344  1.0
  O  O24  1  0.07389235  0.07389235  0.42215216  1.0
  O  O25  1  0.92610765  0.92610765  0.42215216  1.0
  O  O26  1  0.42610765  0.57389235  0.92215216  1.0
  O  O27  1  0.57389235  0.42610765  0.92215216  1.0
  O  O28  1  0.00000000  0.00000000  0.63650700  1.0
  O  O29  1  0.50000000  0.50000000  0.13650700  1.0
