# generated using pymatgen
data_Rb2PH4Se3O2
_symmetry_space_group_name_H-M   'P 1'
_cell_length_a   10.05511460
_cell_length_b   12.65962126
_cell_length_c   7.68895957
_cell_angle_alpha   90.00000000
_cell_angle_beta   90.00000000
_cell_angle_gamma   90.00000000
_symmetry_Int_Tables_number   1
_chemical_formula_structural   Rb2PH4Se3O2
_chemical_formula_sum   'Rb8 P4 H16 Se12 O8'
_cell_volume   978.75797783
_cell_formula_units_Z   4
loop_
 _symmetry_equiv_pos_site_id
 _symmetry_equiv_pos_as_xyz
  1  'x, y, z'
loop_
 _atom_site_type_symbol
 _atom_site_label
 _atom_site_symmetry_multiplicity
 _atom_site_fract_x
 _atom_site_fract_y
 _atom_site_fract_z
 _atom_site_occupancy
  Rb  Rb0  1  0.39134794  0.16096744  0.50000000  1.0
  Rb  Rb1  1  0.89134794  0.33903256  0.00000000  1.0
  Rb  Rb2  1  0.60865206  0.83903256  0.50000000  1.0
  Rb  Rb3  1  0.10865206  0.66096744  0.00000000  1.0
  Rb  Rb4  1  0.50000000  0.50000000  0.00000000  1.0
  Rb  Rb5  1  0.00000000  0.00000000  0.50000000  1.0
  Rb  Rb6  1  0.50000000  0.50000000  0.50000000  1.0
  Rb  Rb7  1  0.00000000  0.00000000  0.00000000  1.0
  P  P8  1  0.11439924  0.50672411  0.50000000  1.0
  P  P9  1  0.61439924  0.99327589  0.00000000  1.0
  P  P10  1  0.88560076  0.49327589  0.50000000  1.0
  P  P11  1  0.38560076  0.00672411  0.00000000  1.0
  H  H12  1  0.43301959  0.73841431  0.19547852  1.0
  H  H13  1  0.43301959  0.73841431  0.80452148  1.0
  H  H14  1  0.93301959  0.76158569  0.69547852  1.0
  H  H15  1  0.93301959  0.76158569  0.30452148  1.0
  H  H16  1  0.56698041  0.26158569  0.19547852  1.0
  H  H17  1  0.56698041  0.26158569  0.80452148  1.0
  H  H18  1  0.06698041  0.23841431  0.69547852  1.0
  H  H19  1  0.06698041  0.23841431  0.30452148  1.0
  H  H20  1  0.33443115  0.67539311  0.31204261  1.0
  H  H21  1  0.33443115  0.67539311  0.68795739  1.0
  H  H22  1  0.83443115  0.82460689  0.81204261  1.0
  H  H23  1  0.83443115  0.82460689  0.18795739  1.0
  H  H24  1  0.66556885  0.32460689  0.31204261  1.0
  H  H25  1  0.66556885  0.32460689  0.68795739  1.0
  H  H26  1  0.16556885  0.17539311  0.81204261  1.0
  H  H27  1  0.16556885  0.17539311  0.18795739  1.0
  Se  Se28  1  0.31332229  0.92934315  0.23807230  1.0
  Se  Se29  1  0.31332229  0.92934315  0.76192770  1.0
  Se  Se30  1  0.81332229  0.57065685  0.73807230  1.0
  Se  Se31  1  0.81332229  0.57065685  0.26192770  1.0
  Se  Se32  1  0.68667771  0.07065685  0.23807230  1.0
  Se  Se33  1  0.68667771  0.07065685  0.76192770  1.0
  Se  Se34  1  0.18667771  0.42934315  0.73807230  1.0
  Se  Se35  1  0.18667771  0.42934315  0.26192770  1.0
  Se  Se36  1  0.14993133  0.68016571  0.50000000  1.0
  Se  Se37  1  0.64993133  0.81983429  0.00000000  1.0
  Se  Se38  1  0.85006867  0.31983429  0.50000000  1.0
  Se  Se39  1  0.35006867  0.18016571  0.00000000  1.0
  O  O40  1  0.41862087  0.66785350  0.24557881  1.0
  O  O41  1  0.41862087  0.66785350  0.75442119  1.0
  O  O42  1  0.91862087  0.83214650  0.74557881  1.0
  O  O43  1  0.91862087  0.83214650  0.25442119  1.0
  O  O44  1  0.58137913  0.33214650  0.24557881  1.0
  O  O45  1  0.58137913  0.33214650  0.75442119  1.0
  O  O46  1  0.08137913  0.16785350  0.74557881  1.0
  O  O47  1  0.08137913  0.16785350  0.25442119  1.0
