# generated using pymatgen
data_Mn2As2O7
_symmetry_space_group_name_H-M   'P 1'
_cell_length_a   5.60051069
_cell_length_b   5.60051069
_cell_length_c   4.92112396
_cell_angle_alpha   81.89815712
_cell_angle_beta   98.10184288
_cell_angle_gamma   75.29132711
_symmetry_Int_Tables_number   1
_chemical_formula_structural   Mn2As2O7
_chemical_formula_sum   'Mn2 As2 O7'
_cell_volume   145.26745188
_cell_formula_units_Z   1
loop_
 _symmetry_equiv_pos_site_id
 _symmetry_equiv_pos_as_xyz
  1  'x, y, z'
loop_
 _atom_site_type_symbol
 _atom_site_label
 _atom_site_symmetry_multiplicity
 _atom_site_fract_x
 _atom_site_fract_y
 _atom_site_fract_z
 _atom_site_occupancy
  Mn  Mn0  1  0.69221400  -0.30778600  0.00000000  1.0
  Mn  Mn1  1  1.30778600  0.30778600  0.00000000  1.0
  As  As2  1  0.76693919  -0.76693919  0.59826508  1.0
  As  As3  1  0.23306081  -0.23306081  0.40173492  1.0
  O  O4  1  1.60318385  0.07090552  0.79170122  1.0
  O  O5  1  0.92909448  -0.60318385  0.79170122  1.0
  O  O6  1  1.07090552  0.60318385  0.20829878  1.0
  O  O7  1  0.39681615  -0.07090552  0.20829878  1.0
  O  O8  1  0.40238031  -0.40238031  0.72527646  1.0
  O  O9  1  0.59761969  -0.59761969  0.27472354  1.0
  O  O10  1  0.00000000  -0.00000000  0.50000000  1.0
