# generated using pymatgen
data_KVOF4
_symmetry_space_group_name_H-M   'P 1'
_cell_length_a   5.62234846
_cell_length_b   14.36217803
_cell_length_c   5.73858043
_cell_angle_alpha   90.00000000
_cell_angle_beta   94.91259491
_cell_angle_gamma   90.00000000
_symmetry_Int_Tables_number   1
_chemical_formula_structural   KVOF4
_chemical_formula_sum   'K4 V4 O4 F16'
_cell_volume   461.68335475
_cell_formula_units_Z   4
loop_
 _symmetry_equiv_pos_site_id
 _symmetry_equiv_pos_as_xyz
  1  'x, y, z'
loop_
 _atom_site_type_symbol
 _atom_site_label
 _atom_site_symmetry_multiplicity
 _atom_site_fract_x
 _atom_site_fract_y
 _atom_site_fract_z
 _atom_site_occupancy
  K  K0  1  0.78489848  0.37562933  0.40071934  1.0
  K  K1  1  0.78489848  0.12437067  0.90071934  1.0
  K  K2  1  0.21510152  0.87562933  0.09928066  1.0
  K  K3  1  0.21510152  0.62437067  0.59928066  1.0
  V  V4  1  0.71210231  0.85127330  0.60787660  1.0
  V  V5  1  0.71210231  0.64872670  0.10787660  1.0
  V  V6  1  0.28789769  0.35127330  0.89212340  1.0
  V  V7  1  0.28789769  0.14872670  0.39212340  1.0
  O  O8  1  0.79049821  0.59732282  0.88294340  1.0
  O  O9  1  0.79049821  0.90267718  0.38294340  1.0
  O  O10  1  0.20950179  0.09732282  0.61705660  1.0
  O  O11  1  0.20950179  0.40267718  0.11705660  1.0
  F  F12  1  0.97483662  0.78410199  0.71110230  1.0
  F  F13  1  0.97483662  0.71589801  0.21110230  1.0
  F  F14  1  0.02516338  0.28410199  0.78889770  1.0
  F  F15  1  0.02516338  0.21589801  0.28889770  1.0
  F  F16  1  0.79964700  0.93468851  0.84215915  1.0
  F  F17  1  0.79964700  0.56531149  0.34215915  1.0
  F  F18  1  0.20035300  0.43468851  0.65784085  1.0
  F  F19  1  0.20035300  0.06531149  0.15784085  1.0
  F  F20  1  0.59210136  0.39021465  0.87372335  1.0
  F  F21  1  0.59210136  0.10978535  0.37372335  1.0
  F  F22  1  0.40789864  0.89021465  0.62627665  1.0
  F  F23  1  0.40789864  0.60978535  0.12627665  1.0
  F  F24  1  0.58070368  0.75744201  0.98059668  1.0
  F  F25  1  0.58070368  0.74255799  0.48059668  1.0
  F  F26  1  0.41929632  0.25744201  0.51940332  1.0
  F  F27  1  0.41929632  0.24255799  0.01940332  1.0
