# generated using pymatgen
data_Ti5Al2C3
_symmetry_space_group_name_H-M   'P 1'
_cell_length_a   16.29634631
_cell_length_b   16.29634631
_cell_length_c   16.29634631
_cell_angle_alpha   10.82264766
_cell_angle_beta   10.82264766
_cell_angle_gamma   10.82264766
_symmetry_Int_Tables_number   1
_chemical_formula_structural   Ti5Al2C3
_chemical_formula_sum   'Ti5 Al2 C3'
_cell_volume   132.53822800
_cell_formula_units_Z   1
loop_
 _symmetry_equiv_pos_site_id
 _symmetry_equiv_pos_as_xyz
  1  'x, y, z'
loop_
 _atom_site_type_symbol
 _atom_site_label
 _atom_site_symmetry_multiplicity
 _atom_site_fract_x
 _atom_site_fract_y
 _atom_site_fract_z
 _atom_site_occupancy
  Ti  Ti0  1  0.80977234  0.80977234  0.80977234  1.0
  Ti  Ti1  1  1.19022766  1.19022766  0.19022766  1.0
  Ti  Ti2  1  0.71539228  0.71539228  0.71539228  1.0
  Ti  Ti3  1  1.28460772  1.28460772  0.28460772  1.0
  Ti  Ti4  1  0.00000000  0.00000000  0.00000000  1.0
  Al  Al5  1  0.90389390  0.90389390  0.90389390  1.0
  Al  Al6  1  1.09610610  1.09610610  0.09610610  1.0
  C  C7  1  1.64002193  0.64002193  0.64002193  1.0
  C  C8  1  1.35997807  0.35997807  0.35997807  1.0
  C  C9  1  1.50000000  0.50000000  0.50000000  1.0
