# generated using pymatgen
data_KNaV2O6
_symmetry_space_group_name_H-M   'P 1'
_cell_length_a   7.43777451
_cell_length_b   7.43777451
_cell_length_c   5.88308377
_cell_angle_alpha   79.47014253
_cell_angle_beta   100.52985747
_cell_angle_gamma   92.68306992
_symmetry_Int_Tables_number   1
_chemical_formula_structural   KNaV2O6
_chemical_formula_sum   'K2 Na2 V4 O12'
_cell_volume   314.55562433
_cell_formula_units_Z   2
loop_
 _symmetry_equiv_pos_site_id
 _symmetry_equiv_pos_as_xyz
  1  'x, y, z'
loop_
 _atom_site_type_symbol
 _atom_site_label
 _atom_site_symmetry_multiplicity
 _atom_site_fract_x
 _atom_site_fract_y
 _atom_site_fract_z
 _atom_site_occupancy
  K  K0  1  0.80234032  0.80234032  0.75000000  1.0
  K  K1  1  0.19765968  0.19765968  0.25000000  1.0
  Na  Na2  1  0.40466339  0.40466339  0.75000000  1.0
  Na  Na3  1  0.59533661  0.59533661  0.25000000  1.0
  V  V4  1  1.29778981  -0.12956681  0.77564774  1.0
  V  V5  1  1.12956681  -0.29778981  0.27564774  1.0
  V  V6  1  0.87043319  0.29778981  0.72435226  1.0
  V  V7  1  0.70221019  0.12956681  0.22435226  1.0
  O  O8  1  1.46072237  -0.28515935  0.84789450  1.0
  O  O9  1  1.28515935  -0.46072237  0.34789450  1.0
  O  O10  1  0.71484065  0.46072237  0.65210550  1.0
  O  O11  1  0.53927763  0.28515935  0.15210550  1.0
  O  O12  1  0.83146182  0.14279166  0.98783696  1.0
  O  O13  1  0.85720834  0.16853818  0.48783696  1.0
  O  O14  1  1.14279166  -0.16853818  0.51216304  1.0
  O  O15  1  1.16853818  -0.14279166  0.01216304  1.0
  O  O16  1  0.38466500  0.07786699  0.71504045  1.0
  O  O17  1  0.92213301  0.61533500  0.21504045  1.0
  O  O18  1  1.07786699  -0.61533500  0.78495955  1.0
  O  O19  1  1.61533500  -0.07786699  0.28495955  1.0
