# generated using pymatgen
data_Ba3(H6Ir)2
_symmetry_space_group_name_H-M   'P 1'
_cell_length_a   5.50599552
_cell_length_b   5.50599552
_cell_length_c   8.91738511
_cell_angle_alpha   90.00000000
_cell_angle_beta   90.00000000
_cell_angle_gamma   120.00000000
_symmetry_Int_Tables_number   1
_chemical_formula_structural   Ba3(H6Ir)2
_chemical_formula_sum   'Ba3 H12 Ir2'
_cell_volume   234.12072569
_cell_formula_units_Z   1
loop_
 _symmetry_equiv_pos_site_id
 _symmetry_equiv_pos_as_xyz
  1  'x, y, z'
loop_
 _atom_site_type_symbol
 _atom_site_label
 _atom_site_symmetry_multiplicity
 _atom_site_fract_x
 _atom_site_fract_y
 _atom_site_fract_z
 _atom_site_occupancy
  Ba  Ba0  1  0.33333333  0.66666667  0.64162037  1.0
  Ba  Ba1  1  0.66666667  0.33333333  0.35837963  1.0
  Ba  Ba2  1  0.00000000  0.00000000  0.00000000  1.0
  H  H3  1  0.62739294  0.81369647  0.34784667  1.0
  H  H4  1  0.81369647  0.62739294  0.65215333  1.0
  H  H5  1  0.81369647  0.18630353  0.65215333  1.0
  H  H6  1  0.18630353  0.81369647  0.34784667  1.0
  H  H7  1  0.18630353  0.37260706  0.34784667  1.0
  H  H8  1  0.37260706  0.18630353  0.65215333  1.0
  H  H9  1  0.05354644  0.52677322  0.12768580  1.0
  H  H10  1  0.52677322  0.05354644  0.87231420  1.0
  H  H11  1  0.52677322  0.47322678  0.87231420  1.0
  H  H12  1  0.47322678  0.52677322  0.12768580  1.0
  H  H13  1  0.47322678  0.94645356  0.12768580  1.0
  H  H14  1  0.94645356  0.47322678  0.87231420  1.0
  Ir  Ir15  1  0.33333333  0.66666667  0.24086508  1.0
  Ir  Ir16  1  0.66666667  0.33333333  0.75913492  1.0
