# generated using pymatgen
data_Sr2NbGaO6
_symmetry_space_group_name_H-M   'P 1'
_cell_length_a   5.63482697
_cell_length_b   5.63482697
_cell_length_c   5.63482697
_cell_angle_alpha   120.34136291
_cell_angle_beta   120.34136291
_cell_angle_gamma   89.40975205
_symmetry_Int_Tables_number   1
_chemical_formula_structural   Sr2NbGaO6
_chemical_formula_sum   'Sr2 Nb1 Ga1 O6'
_cell_volume   125.85055851
_cell_formula_units_Z   1
loop_
 _symmetry_equiv_pos_site_id
 _symmetry_equiv_pos_as_xyz
  1  'x, y, z'
loop_
 _atom_site_type_symbol
 _atom_site_label
 _atom_site_symmetry_multiplicity
 _atom_site_fract_x
 _atom_site_fract_y
 _atom_site_fract_z
 _atom_site_occupancy
  Sr  Sr0  1  0.25000000  0.75000000  0.50000000  1.0
  Sr  Sr1  1  0.75000000  0.25000000  0.50000000  1.0
  Nb  Nb2  1  0.50000000  0.50000000  1.00000000  1.0
  Ga  Ga3  1  0.00000000  0.00000000  0.00000000  1.0
  O  O4  1  0.71523712  0.78329713  1.49853425  1.0
  O  O5  1  0.21670287  0.71523712  0.93193999  1.0
  O  O6  1  0.28476288  0.21670287  0.50146575  1.0
  O  O7  1  0.78329713  0.28476288  1.06806001  1.0
  O  O8  1  0.74907755  0.74907755  1.00000000  1.0
  O  O9  1  0.25092245  0.25092245  0.00000000  1.0
