# generated using pymatgen
data_PICl8
_symmetry_space_group_name_H-M   'P 1'
_cell_length_a   12.43526342
_cell_length_b   12.43526342
_cell_length_c   12.43526342
_cell_angle_alpha   95.05975352
_cell_angle_beta   116.98714158
_cell_angle_gamma   117.25908344
_symmetry_Int_Tables_number   1
_chemical_formula_structural   PICl8
_chemical_formula_sum   'P4 I4 Cl32'
_cell_volume   1412.87697853
_cell_formula_units_Z   4
loop_
 _symmetry_equiv_pos_site_id
 _symmetry_equiv_pos_as_xyz
  1  'x, y, z'
loop_
 _atom_site_type_symbol
 _atom_site_label
 _atom_site_symmetry_multiplicity
 _atom_site_fract_x
 _atom_site_fract_y
 _atom_site_fract_z
 _atom_site_occupancy
  P  P0  1  1.00000000  1.23956614  1.23956614  1.0
  P  P1  1  0.50000000  0.23956614  0.73956614  1.0
  P  P2  1  0.50000000  0.76043386  1.26043386  1.0
  P  P3  1  -0.00000000  0.76043386  0.76043386  1.0
  I  I4  1  1.03635482  0.78635482  0.25000000  1.0
  I  I5  1  0.96364518  0.21364518  0.75000000  1.0
  I  I6  1  1.56104000  1.31104000  1.25000000  1.0
  I  I7  1  0.43896000  0.68896000  0.75000000  1.0
  Cl  Cl8  1  1.17310278  1.24835466  1.26708940  1.0
  Cl  Cl9  1  1.51873474  1.09398663  0.76708940  1.0
  Cl  Cl10  1  1.51873474  1.75164534  1.42474811  1.0
  Cl  Cl11  1  0.17310278  0.90601337  0.92474811  1.0
  Cl  Cl12  1  0.48126526  0.24835466  0.57525189  1.0
  Cl  Cl13  1  1.82689722  1.09398663  1.07525189  1.0
  Cl  Cl14  1  0.82689722  0.75164534  0.73291060  1.0
  Cl  Cl15  1  0.48126526  0.90601337  1.23291060  1.0
  Cl  Cl16  1  0.98007956  0.59562159  0.77024938  1.0
  Cl  Cl17  1  0.67462780  0.79016983  1.27024938  1.0
  Cl  Cl18  1  0.67462780  0.40437841  0.88445797  1.0
  Cl  Cl19  1  0.98007956  1.20983017  0.38445797  1.0
  Cl  Cl20  1  1.32537220  1.59562159  1.11554203  1.0
  Cl  Cl21  1  1.01992044  0.79016983  1.61554203  1.0
  Cl  Cl22  1  1.01992044  1.40437841  1.22975062  1.0
  Cl  Cl23  1  1.32537220  1.20983017  0.72975062  1.0
  Cl  Cl24  1  0.84152040  0.78628587  1.05523453  1.0
  Cl  Cl25  1  0.76894866  0.21371413  0.55523453  1.0
  Cl  Cl26  1  1.23105134  0.78628587  0.44476547  1.0
  Cl  Cl27  1  1.15847960  1.21371413  0.94476547  1.0
  Cl  Cl28  1  1.03454593  0.93607949  0.40153357  1.0
  Cl  Cl29  1  0.96545407  0.36698764  0.90153357  1.0
  Cl  Cl30  1  0.96545407  1.06392051  1.59846643  1.0
  Cl  Cl31  1  1.03454593  1.63301236  1.09846643  1.0
  Cl  Cl32  1  1.55798085  1.45944325  1.40146240  1.0
  Cl  Cl33  1  0.44201915  0.84348154  0.90146240  1.0
  Cl  Cl34  1  0.44201915  0.54055675  0.59853760  1.0
  Cl  Cl35  1  1.55798085  1.15651846  1.09853760  1.0
  Cl  Cl36  1  1.36142446  1.11142446  1.25000000  1.0
  Cl  Cl37  1  0.63857554  0.88857554  0.75000000  1.0
  Cl  Cl38  1  0.75456197  0.50456197  1.25000000  1.0
  Cl  Cl39  1  1.24543803  1.49543803  0.75000000  1.0
