# generated using pymatgen
data_CePd
_symmetry_space_group_name_H-M   'P 1'
_cell_length_a   5.83786167
_cell_length_b   5.83786167
_cell_length_c   4.54424645
_cell_angle_alpha   90.00000000
_cell_angle_beta   90.00000000
_cell_angle_gamma   141.64858706
_symmetry_Int_Tables_number   1
_chemical_formula_structural   CePd
_chemical_formula_sum   'Ce2 Pd2'
_cell_volume   96.09468136
_cell_formula_units_Z   2
loop_
 _symmetry_equiv_pos_site_id
 _symmetry_equiv_pos_as_xyz
  1  'x, y, z'
loop_
 _atom_site_type_symbol
 _atom_site_label
 _atom_site_symmetry_multiplicity
 _atom_site_fract_x
 _atom_site_fract_y
 _atom_site_fract_z
 _atom_site_occupancy
  Ce  Ce0  1  -0.63730439  0.63730439  0.25000000  1.0
  Ce  Ce1  1  -0.36269561  1.36269561  0.75000000  1.0
  Pd  Pd2  1  -0.91142133  0.91142133  0.25000000  1.0
  Pd  Pd3  1  -0.08857867  1.08857867  0.75000000  1.0
