# generated using pymatgen
data_Mn(CrS2)2
_symmetry_space_group_name_H-M   'P 1'
_cell_length_a   7.15694064
_cell_length_b   7.15694064
_cell_length_c   7.15694064
_cell_angle_alpha   60.00000000
_cell_angle_beta   60.00000000
_cell_angle_gamma   60.00000000
_symmetry_Int_Tables_number   1
_chemical_formula_structural   Mn(CrS2)2
_chemical_formula_sum   'Mn2 Cr4 S8'
_cell_volume   259.21924865
_cell_formula_units_Z   2
loop_
 _symmetry_equiv_pos_site_id
 _symmetry_equiv_pos_as_xyz
  1  'x, y, z'
loop_
 _atom_site_type_symbol
 _atom_site_label
 _atom_site_symmetry_multiplicity
 _atom_site_fract_x
 _atom_site_fract_y
 _atom_site_fract_z
 _atom_site_occupancy
  Mn  Mn0  1  0.25000000  0.25000000  0.25000000  1.0
  Mn  Mn1  1  0.00000000  1.00000000  -0.00000000  1.0
  Cr  Cr2  1  1.12500000  -0.37500000  0.62500000  1.0
  Cr  Cr3  1  0.62500000  1.12500000  -0.37500000  1.0
  Cr  Cr4  1  0.62500000  0.62500000  0.12500000  1.0
  Cr  Cr5  1  0.62500000  0.62500000  -0.37500000  1.0
  S  S6  1  -0.15759141  0.38586380  0.38586380  1.0
  S  S7  1  0.38586380  0.84240859  0.38586380  1.0
  S  S8  1  0.38586380  1.38586380  -0.15759141  1.0
  S  S9  1  0.38586380  0.38586380  0.38586380  1.0
  S  S10  1  0.40759141  0.86413620  -0.13586380  1.0
  S  S11  1  0.86413620  -0.59240859  0.86413620  1.0
  S  S12  1  0.86413620  0.86413620  -0.59240859  1.0
  S  S13  1  0.86413620  -0.13586380  0.86413620  1.0
