# generated using pymatgen
data_La2Cu(GeO4)2
_symmetry_space_group_name_H-M   'P 1'
_cell_length_a   9.29729801
_cell_length_b   9.29729801
_cell_length_c   5.27989383
_cell_angle_alpha   74.58401916
_cell_angle_beta   105.41598084
_cell_angle_gamma   65.81250422
_symmetry_Int_Tables_number   1
_chemical_formula_structural   La2Cu(GeO4)2
_chemical_formula_sum   'La4 Cu2 Ge4 O16'
_cell_volume   363.08206914
_cell_formula_units_Z   2
loop_
 _symmetry_equiv_pos_site_id
 _symmetry_equiv_pos_as_xyz
  1  'x, y, z'
loop_
 _atom_site_type_symbol
 _atom_site_label
 _atom_site_symmetry_multiplicity
 _atom_site_fract_x
 _atom_site_fract_y
 _atom_site_fract_z
 _atom_site_occupancy
  O  O0  1  0.84430029  0.50649009  0.24035629  1.0
  O  O1  1  1.49350991  0.15569971  0.24035629  1.0
  O  O2  1  0.76720945  0.71377435  0.57057657  1.0
  O  O3  1  1.28622565  0.23279055  0.57057657  1.0
  O  O4  1  1.04686958  0.76706853  0.54028583  1.0
  O  O5  1  1.23293147  -0.04686958  0.54028583  1.0
  O  O6  1  0.75464360  0.42873238  0.77143324  1.0
  O  O7  1  1.57126762  0.24535640  0.77143324  1.0
  O  O8  1  1.09043664  0.36912304  0.94285545  1.0
  O  O9  1  1.63087696  -0.09043664  0.94285545  1.0
  O  O10  1  0.00294953  -0.00294953  -0.01711260  1.0
  O  O11  1  0.32510477  -0.32510477  0.33804775  1.0
  O  O12  1  0.50131901  -0.50131901  0.02649061  1.0
  O  O13  1  0.82487140  -0.82487140  0.33750493  1.0
  O  O14  1  1.00155139  0.65051501  0.06754345  1.0
  O  O15  1  1.34948499  -0.00155139  0.06754345  1.0
  Cu  Cu16  1  0.92439874  0.66306475  0.36607140  1.0
  Cu  Cu17  1  1.33693525  0.07560126  0.36607140  1.0
  Ge  Ge18  1  0.89233307  0.52737466  0.92340146  1.0
  Ge  Ge19  1  1.47262534  0.10766693  0.92340146  1.0
  Ge  Ge20  1  0.15179225  -0.15179225  0.35276522  1.0
  Ge  Ge21  1  0.66576441  -0.66576441  0.98408688  1.0
  La  La22  1  1.30215521  0.45397629  0.20510932  1.0
  La  La23  1  1.54602371  -0.30215521  0.20510932  1.0
  La  La24  1  1.04657844  0.19775870  0.66907560  1.0
  La  La25  1  1.80224130  -0.04657844  0.66907560  1.0
