# generated using pymatgen
data_La4Cd3Au10
_symmetry_space_group_name_H-M   'P 1'
_cell_length_a   8.88310539
_cell_length_b   8.88310539
_cell_length_c   10.38881694
_cell_angle_alpha   90.00000000
_cell_angle_beta   90.00000000
_cell_angle_gamma   71.00196072
_symmetry_Int_Tables_number   1
_chemical_formula_structural   La4Cd3Au10
_chemical_formula_sum   'La8 Cd6 Au20'
_cell_volume   775.12350270
_cell_formula_units_Z   2
loop_
 _symmetry_equiv_pos_site_id
 _symmetry_equiv_pos_as_xyz
  1  'x, y, z'
loop_
 _atom_site_type_symbol
 _atom_site_label
 _atom_site_symmetry_multiplicity
 _atom_site_fract_x
 _atom_site_fract_y
 _atom_site_fract_z
 _atom_site_occupancy
  La  La0  1  -0.20080877  1.20080877  0.29543873  1.0
  La  La1  1  0.29919123  0.70080877  0.20456127  1.0
  La  La2  1  0.20080877  0.79919123  0.70456127  1.0
  La  La3  1  -0.29919123  1.29919123  0.79543873  1.0
  La  La4  1  0.20185980  1.20185980  0.50000000  1.0
  La  La5  1  -0.29814020  0.70185980  0.00000000  1.0
  La  La6  1  -0.20185980  0.79814020  0.50000000  1.0
  La  La7  1  0.29814020  1.29814020  0.00000000  1.0
  Cd  Cd8  1  -0.48388361  0.98388361  0.25000000  1.0
  Cd  Cd9  1  0.01611639  1.48388361  0.25000000  1.0
  Cd  Cd10  1  -0.01611639  0.51611639  0.75000000  1.0
  Cd  Cd11  1  0.48388361  1.01611639  0.75000000  1.0
  Cd  Cd12  1  -0.50000000  0.50000000  0.50000000  1.0
  Cd  Cd13  1  -0.00000000  1.00000000  -0.00000000  1.0
  Au  Au14  1  0.38837259  1.33549013  0.29280338  1.0
  Au  Au15  1  -0.11162741  0.83549013  0.20719662  1.0
  Au  Au16  1  0.33549013  1.38837259  0.70719662  1.0
  Au  Au17  1  -0.16450987  0.88837259  0.79280338  1.0
  Au  Au18  1  -0.33549013  0.61162741  0.29280338  1.0
  Au  Au19  1  0.16450987  1.11162741  0.20719662  1.0
  Au  Au20  1  -0.38837259  0.66450987  0.70719662  1.0
  Au  Au21  1  0.11162741  1.16450987  0.79280338  1.0
  Au  Au22  1  0.43072489  0.84312812  0.47994364  1.0
  Au  Au23  1  -0.06927511  1.34312812  0.02005636  1.0
  Au  Au24  1  -0.15687188  1.43072489  0.52005636  1.0
  Au  Au25  1  0.34312812  0.93072489  0.97994364  1.0
  Au  Au26  1  0.15687188  0.56927511  0.47994364  1.0
  Au  Au27  1  -0.34312812  1.06927511  0.02005636  1.0
  Au  Au28  1  -0.43072489  1.15687188  0.52005636  1.0
  Au  Au29  1  0.06927511  0.65687188  0.97994364  1.0
  Au  Au30  1  -0.40460166  1.40460166  0.09417257  1.0
  Au  Au31  1  0.09539834  0.90460166  0.40582743  1.0
  Au  Au32  1  0.40460166  0.59539834  0.90582743  1.0
  Au  Au33  1  -0.09539834  1.09539834  0.59417257  1.0
