# generated using pymatgen
data_YSi
_symmetry_space_group_name_H-M   'P 1'
_cell_length_a   5.69464207
_cell_length_b   5.69464207
_cell_length_c   3.84163358
_cell_angle_alpha   90.00000000
_cell_angle_beta   90.00000000
_cell_angle_gamma   135.86588055
_symmetry_Int_Tables_number   1
_chemical_formula_structural   YSi
_chemical_formula_sum   'Y2 Si2'
_cell_volume   86.75017160
_cell_formula_units_Z   2
loop_
 _symmetry_equiv_pos_site_id
 _symmetry_equiv_pos_as_xyz
  1  'x, y, z'
loop_
 _atom_site_type_symbol
 _atom_site_label
 _atom_site_symmetry_multiplicity
 _atom_site_fract_x
 _atom_site_fract_y
 _atom_site_fract_z
 _atom_site_occupancy
  Y  Y0  1  0.35963729  0.64036271  0.75000000  1.0
  Y  Y1  1  -0.35963729  0.35963729  0.25000000  1.0
  Si  Si2  1  0.07633523  0.92366477  0.75000000  1.0
  Si  Si3  1  -0.07633523  0.07633523  0.25000000  1.0
