# generated using pymatgen
data_V2O5
_symmetry_space_group_name_H-M   'P 1'
_cell_length_a   5.74123745
_cell_length_b   5.74123745
_cell_length_c   6.06481950
_cell_angle_alpha   86.71697234
_cell_angle_beta   93.28302766
_cell_angle_gamma   150.76076257
_symmetry_Int_Tables_number   1
_chemical_formula_structural   V2O5
_chemical_formula_sum   'V2 O5'
_cell_volume   97.47507534
_cell_formula_units_Z   1
loop_
 _symmetry_equiv_pos_site_id
 _symmetry_equiv_pos_as_xyz
  1  'x, y, z'
loop_
 _atom_site_type_symbol
 _atom_site_label
 _atom_site_symmetry_multiplicity
 _atom_site_fract_x
 _atom_site_fract_y
 _atom_site_fract_z
 _atom_site_occupancy
  V  V0  1  0.64400367  -0.64400367  0.88024376  1.0
  V  V1  1  1.35599633  -0.35599633  0.11975624  1.0
  O  O2  1  0.80956491  -0.80956491  0.88552417  1.0
  O  O3  1  1.19043509  -0.19043509  0.11447583  1.0
  O  O4  1  0.87996099  -0.87996099  0.29131073  1.0
  O  O5  1  1.12003901  -0.12003901  0.70868927  1.0
  O  O6  1  0.50000000  0.50000000  0.00000000  1.0
