# generated using pymatgen
data_CsLi(H2N)2
_symmetry_space_group_name_H-M   'P 1'
_cell_length_a   6.44663704
_cell_length_b   6.44663704
_cell_length_c   8.37462056
_cell_angle_alpha   90.00000000
_cell_angle_beta   90.00000000
_cell_angle_gamma   120.00000000
_symmetry_Int_Tables_number   1
_chemical_formula_structural   CsLi(H2N)2
_chemical_formula_sum   'Cs3 Li3 H12 N6'
_cell_volume   301.41315918
_cell_formula_units_Z   3
loop_
 _symmetry_equiv_pos_site_id
 _symmetry_equiv_pos_as_xyz
  1  'x, y, z'
loop_
 _atom_site_type_symbol
 _atom_site_label
 _atom_site_symmetry_multiplicity
 _atom_site_fract_x
 _atom_site_fract_y
 _atom_site_fract_z
 _atom_site_occupancy
  Cs  Cs0  1  0.50000000  0.50000000  0.83333333  1.0
  Cs  Cs1  1  0.50000000  0.00000000  0.50000000  1.0
  Cs  Cs2  1  -0.00000000  0.50000000  0.16666667  1.0
  Li  Li3  1  0.00000000  0.00000000  0.33333333  1.0
  Li  Li4  1  0.00000000  0.00000000  0.00000000  1.0
  Li  Li5  1  0.00000000  0.00000000  0.66666667  1.0
  H  H6  1  0.69438827  0.60112061  0.44918240  1.0
  H  H7  1  0.69438827  0.09326766  0.88415093  1.0
  H  H8  1  0.60112061  0.69438827  0.21748426  1.0
  H  H9  1  0.60112061  0.90673234  0.11584907  1.0
  H  H10  1  0.90673234  0.60112061  0.55081760  1.0
  H  H11  1  0.90673234  0.30561173  0.78251574  1.0
  H  H12  1  0.39887939  0.30561173  0.21748426  1.0
  H  H13  1  0.39887939  0.09326766  0.11584907  1.0
  H  H14  1  0.30561173  0.90673234  0.88415093  1.0
  H  H15  1  0.30561173  0.39887939  0.44918240  1.0
  H  H16  1  0.09326766  0.69438827  0.78251574  1.0
  H  H17  1  0.09326766  0.39887939  0.55081760  1.0
  N  N18  1  0.14232500  0.85767500  0.83333333  1.0
  N  N19  1  0.14232500  0.28464999  0.50000000  1.0
  N  N20  1  0.85767500  0.14232500  0.83333333  1.0
  N  N21  1  0.85767500  0.71535001  0.50000000  1.0
  N  N22  1  0.71535001  0.85767500  0.16666667  1.0
  N  N23  1  0.28464999  0.14232500  0.16666667  1.0
