# generated using pymatgen
data_BiF3
_symmetry_space_group_name_H-M   'P 1'
_cell_length_a   6.54896469
_cell_length_b   7.10060080
_cell_length_c   5.10992416
_cell_angle_alpha   90.00000000
_cell_angle_beta   90.00000000
_cell_angle_gamma   90.00000000
_symmetry_Int_Tables_number   1
_chemical_formula_structural   BiF3
_chemical_formula_sum   'Bi4 F12'
_cell_volume   237.61956737
_cell_formula_units_Z   4
loop_
 _symmetry_equiv_pos_site_id
 _symmetry_equiv_pos_as_xyz
  1  'x, y, z'
loop_
 _atom_site_type_symbol
 _atom_site_label
 _atom_site_symmetry_multiplicity
 _atom_site_fract_x
 _atom_site_fract_y
 _atom_site_fract_z
 _atom_site_occupancy
  Bi  Bi0  1  0.13366516  0.75000000  0.97458585  1.0
  Bi  Bi1  1  0.63366516  0.75000000  0.52541415  1.0
  Bi  Bi2  1  0.86633484  0.25000000  0.02541415  1.0
  Bi  Bi3  1  0.36633484  0.25000000  0.47458585  1.0
  F  F4  1  0.34146968  0.94026616  0.65151740  1.0
  F  F5  1  0.34146968  0.55973384  0.65151740  1.0
  F  F6  1  0.84146968  0.94026616  0.84848260  1.0
  F  F7  1  0.84146968  0.55973384  0.84848260  1.0
  F  F8  1  0.65853032  0.44026616  0.34848260  1.0
  F  F9  1  0.65853032  0.05973384  0.34848260  1.0
  F  F10  1  0.15853032  0.44026616  0.15151740  1.0
  F  F11  1  0.15853032  0.05973384  0.15151740  1.0
  F  F12  1  0.45496099  0.75000000  0.14818527  1.0
  F  F13  1  0.95496099  0.75000000  0.35181473  1.0
  F  F14  1  0.54503901  0.25000000  0.85181473  1.0
  F  F15  1  0.04503901  0.25000000  0.64818527  1.0
