# generated using pymatgen
data_La5Ti4O15
_symmetry_space_group_name_H-M   'P 1'
_cell_length_a   5.55755956
_cell_length_b   5.55755956
_cell_length_c   22.44110787
_cell_angle_alpha   90.00000000
_cell_angle_beta   90.00000000
_cell_angle_gamma   120.00000000
_symmetry_Int_Tables_number   1
_chemical_formula_structural   La5Ti4O15
_chemical_formula_sum   'La10 Ti8 O30'
_cell_volume   600.26521530
_cell_formula_units_Z   2
loop_
 _symmetry_equiv_pos_site_id
 _symmetry_equiv_pos_as_xyz
  1  'x, y, z'
loop_
 _atom_site_type_symbol
 _atom_site_label
 _atom_site_symmetry_multiplicity
 _atom_site_fract_x
 _atom_site_fract_y
 _atom_site_fract_z
 _atom_site_occupancy
  La  La0  1  0.33333333  0.66666667  0.21430652  1.0
  La  La1  1  0.33333333  0.66666667  0.71430652  1.0
  La  La2  1  0.66666667  0.33333333  0.28569348  1.0
  La  La3  1  0.66666667  0.33333333  0.78569348  1.0
  La  La4  1  0.33333333  0.66666667  0.39119542  1.0
  La  La5  1  0.33333333  0.66666667  0.89119542  1.0
  La  La6  1  0.66666667  0.33333333  0.10880458  1.0
  La  La7  1  0.66666667  0.33333333  0.60880458  1.0
  La  La8  1  0.00000000  0.00000000  0.00000000  1.0
  La  La9  1  0.00000000  0.00000000  0.50000000  1.0
  Ti  Ti10  1  0.33333333  0.66666667  0.05107452  1.0
  Ti  Ti11  1  0.33333333  0.66666667  0.55107452  1.0
  Ti  Ti12  1  0.66666667  0.33333333  0.44892548  1.0
  Ti  Ti13  1  0.66666667  0.33333333  0.94892548  1.0
  Ti  Ti14  1  0.00000000  0.00000000  0.15742252  1.0
  Ti  Ti15  1  0.00000000  0.00000000  0.65742252  1.0
  Ti  Ti16  1  0.00000000  0.00000000  0.34257748  1.0
  Ti  Ti17  1  0.00000000  0.00000000  0.84257748  1.0
  O  O18  1  0.12614377  0.79876240  0.09916489  1.0
  O  O19  1  0.12614377  0.32738137  0.59916489  1.0
  O  O20  1  0.79876240  0.12614377  0.40083511  1.0
  O  O21  1  0.79876240  0.67261863  0.90083511  1.0
  O  O22  1  0.67261863  0.79876240  0.59916489  1.0
  O  O23  1  0.67261863  0.87385623  0.09916489  1.0
  O  O24  1  0.20123760  0.87385623  0.59916489  1.0
  O  O25  1  0.20123760  0.32738137  0.09916489  1.0
  O  O26  1  0.87385623  0.67261863  0.40083511  1.0
  O  O27  1  0.87385623  0.20123760  0.90083511  1.0
  O  O28  1  0.32738137  0.12614377  0.90083511  1.0
  O  O29  1  0.32738137  0.20123760  0.40083511  1.0
  O  O30  1  0.77529691  0.65573729  0.19629976  1.0
  O  O31  1  0.77529691  0.11955962  0.69629976  1.0
  O  O32  1  0.65573729  0.77529691  0.30370024  1.0
  O  O33  1  0.65573729  0.88044038  0.80370024  1.0
  O  O34  1  0.88044038  0.65573729  0.69629976  1.0
  O  O35  1  0.88044038  0.22470309  0.19629976  1.0
  O  O36  1  0.34426271  0.22470309  0.69629976  1.0
  O  O37  1  0.34426271  0.11955962  0.19629976  1.0
  O  O38  1  0.22470309  0.88044038  0.30370024  1.0
  O  O39  1  0.22470309  0.34426271  0.80370024  1.0
  O  O40  1  0.11955962  0.77529691  0.80370024  1.0
  O  O41  1  0.11955962  0.34426271  0.30370024  1.0
  O  O42  1  0.50000000  0.50000000  0.00000000  1.0
  O  O43  1  0.50000000  0.00000000  0.50000000  1.0
  O  O44  1  0.50000000  0.50000000  0.50000000  1.0
  O  O45  1  0.50000000  0.00000000  0.00000000  1.0
  O  O46  1  -0.00000000  0.50000000  0.50000000  1.0
  O  O47  1  -0.00000000  0.50000000  0.00000000  1.0
