# generated using pymatgen
data_KrF2
_symmetry_space_group_name_H-M   'P 1'
_cell_length_a   4.86279371
_cell_length_b   4.86279371
_cell_length_c   6.02878787
_cell_angle_alpha   90.00000000
_cell_angle_beta   90.00000000
_cell_angle_gamma   90.00000000
_symmetry_Int_Tables_number   1
_chemical_formula_structural   KrF2
_chemical_formula_sum   'Kr2 F4'
_cell_volume   142.56131568
_cell_formula_units_Z   2
loop_
 _symmetry_equiv_pos_site_id
 _symmetry_equiv_pos_as_xyz
  1  'x, y, z'
loop_
 _atom_site_type_symbol
 _atom_site_label
 _atom_site_symmetry_multiplicity
 _atom_site_fract_x
 _atom_site_fract_y
 _atom_site_fract_z
 _atom_site_occupancy
  Kr  Kr0  1  0.50000000  0.50000000  0.50000000  1.0
  Kr  Kr1  1  0.00000000  0.00000000  0.00000000  1.0
  F  F2  1  0.21816874  0.78183126  0.50000000  1.0
  F  F3  1  0.71816874  0.71816874  0.00000000  1.0
  F  F4  1  0.78183126  0.21816874  0.50000000  1.0
  F  F5  1  0.28183126  0.28183126  0.00000000  1.0
