# generated using pymatgen
data_SrHg2(ClO)2
_symmetry_space_group_name_H-M   'P 1'
_cell_length_a   8.40677346
_cell_length_b   7.18022292
_cell_length_c   11.76144582
_cell_angle_alpha   90.00000000
_cell_angle_beta   122.01198559
_cell_angle_gamma   90.00000000
_symmetry_Int_Tables_number   1
_chemical_formula_structural   SrHg2(ClO)2
_chemical_formula_sum   'Sr4 Hg8 Cl8 O8'
_cell_volume   601.99333928
_cell_formula_units_Z   4
loop_
 _symmetry_equiv_pos_site_id
 _symmetry_equiv_pos_as_xyz
  1  'x, y, z'
loop_
 _atom_site_type_symbol
 _atom_site_label
 _atom_site_symmetry_multiplicity
 _atom_site_fract_x
 _atom_site_fract_y
 _atom_site_fract_z
 _atom_site_occupancy
  Sr  Sr0  1  0.34989283  0.12517596  0.12444495  1.0
  Sr  Sr1  1  0.34989283  0.37482404  0.62444495  1.0
  Sr  Sr2  1  0.65010717  0.62517596  0.37555505  1.0
  Sr  Sr3  1  0.65010717  0.87482404  0.87555505  1.0
  Hg  Hg4  1  0.89975194  0.17327487  0.36713913  1.0
  Hg  Hg5  1  0.89975194  0.32672513  0.86713913  1.0
  Hg  Hg6  1  0.10024806  0.67327487  0.13286087  1.0
  Hg  Hg7  1  0.10024806  0.82672513  0.63286087  1.0
  Hg  Hg8  1  0.73753330  0.43818645  0.10824877  1.0
  Hg  Hg9  1  0.73753330  0.06181355  0.60824877  1.0
  Hg  Hg10  1  0.26246670  0.93818645  0.39175123  1.0
  Hg  Hg11  1  0.26246670  0.56181355  0.89175123  1.0
  Cl  Cl12  1  0.95384046  0.10011904  0.11128760  1.0
  Cl  Cl13  1  0.95384046  0.39988096  0.61128760  1.0
  Cl  Cl14  1  0.04615954  0.60011904  0.38871240  1.0
  Cl  Cl15  1  0.04615954  0.89988096  0.88871240  1.0
  Cl  Cl16  1  0.41403507  0.31819326  0.37307619  1.0
  Cl  Cl17  1  0.41403507  0.18180674  0.87307619  1.0
  Cl  Cl18  1  0.58596493  0.81819326  0.12692381  1.0
  Cl  Cl19  1  0.58596493  0.68180674  0.62692381  1.0
  O  O20  1  0.82678829  0.92051807  0.49876400  1.0
  O  O21  1  0.82678829  0.57948193  0.99876400  1.0
  O  O22  1  0.17321171  0.42051807  0.00123600  1.0
  O  O23  1  0.17321171  0.07948193  0.50123600  1.0
  O  O24  1  0.65536455  0.31707230  0.23026394  1.0
  O  O25  1  0.65536455  0.18292770  0.73026394  1.0
  O  O26  1  0.34463545  0.81707230  0.26973606  1.0
  O  O27  1  0.34463545  0.68292770  0.76973606  1.0
