# generated using pymatgen
data_RbFe(MoO4)2
_symmetry_space_group_name_H-M   'P 1'
_cell_length_a   5.76052070
_cell_length_b   5.76052070
_cell_length_c   15.58311737
_cell_angle_alpha   90.00000000
_cell_angle_beta   90.00000000
_cell_angle_gamma   120.00000000
_symmetry_Int_Tables_number   1
_chemical_formula_structural   RbFe(MoO4)2
_chemical_formula_sum   'Rb2 Fe2 Mo4 O16'
_cell_volume   447.82512542
_cell_formula_units_Z   2
loop_
 _symmetry_equiv_pos_site_id
 _symmetry_equiv_pos_as_xyz
  1  'x, y, z'
loop_
 _atom_site_type_symbol
 _atom_site_label
 _atom_site_symmetry_multiplicity
 _atom_site_fract_x
 _atom_site_fract_y
 _atom_site_fract_z
 _atom_site_occupancy
  Rb  Rb0  1  -0.00000000  0.00000000  0.25000000  1.0
  Rb  Rb1  1  0.00000000  -0.00000000  0.75000000  1.0
  Fe  Fe2  1  0.00000000  0.00000000  0.00000000  1.0
  Fe  Fe3  1  -0.00000000  -0.00000000  0.50000000  1.0
  Mo  Mo4  1  0.33333333  0.66666667  0.11169934  1.0
  Mo  Mo5  1  0.33333333  0.66666667  0.61169934  1.0
  Mo  Mo6  1  0.66666667  0.33333333  0.38830066  1.0
  Mo  Mo7  1  0.66666667  0.33333333  0.88830066  1.0
  O  O8  1  0.16167688  0.83717201  0.07650610  1.0
  O  O9  1  0.16167688  0.32450487  0.57650610  1.0
  O  O10  1  0.83717201  0.16167688  0.42349390  1.0
  O  O11  1  0.83717201  0.67549513  0.92349390  1.0
  O  O12  1  0.67549513  0.83717201  0.57650610  1.0
  O  O13  1  0.67549513  0.83832312  0.07650610  1.0
  O  O14  1  0.16282799  0.83832312  0.57650610  1.0
  O  O15  1  0.16282799  0.32450487  0.07650610  1.0
  O  O16  1  0.83832312  0.67549513  0.42349390  1.0
  O  O17  1  0.83832312  0.16282799  0.92349390  1.0
  O  O18  1  0.32450487  0.16167688  0.92349390  1.0
  O  O19  1  0.32450487  0.16282799  0.42349390  1.0
  O  O20  1  0.33333333  0.66666667  0.22305741  1.0
  O  O21  1  0.33333333  0.66666667  0.72305741  1.0
  O  O22  1  0.66666667  0.33333333  0.27694259  1.0
  O  O23  1  0.66666667  0.33333333  0.77694259  1.0
