# generated using pymatgen
data_Pb(SN)2
_symmetry_space_group_name_H-M   'P 1'
_cell_length_a   5.08124527
_cell_length_b   7.59527429
_cell_length_c   12.30410160
_cell_angle_alpha   90.00000000
_cell_angle_beta   90.00000000
_cell_angle_gamma   90.00000000
_symmetry_Int_Tables_number   1
_chemical_formula_structural   Pb(SN)2
_chemical_formula_sum   'Pb4 S8 N8'
_cell_volume   474.85774917
_cell_formula_units_Z   4
loop_
 _symmetry_equiv_pos_site_id
 _symmetry_equiv_pos_as_xyz
  1  'x, y, z'
loop_
 _atom_site_type_symbol
 _atom_site_label
 _atom_site_symmetry_multiplicity
 _atom_site_fract_x
 _atom_site_fract_y
 _atom_site_fract_z
 _atom_site_occupancy
  Pb  Pb0  1  0.32657021  0.63885271  0.61984877  1.0
  Pb  Pb1  1  0.82657021  0.86114729  0.38015123  1.0
  Pb  Pb2  1  0.67342979  0.13885271  0.88015123  1.0
  Pb  Pb3  1  0.17342979  0.36114729  0.11984877  1.0
  S  S4  1  0.08698749  0.92312742  0.05798551  1.0
  S  S5  1  0.58698749  0.57687258  0.94201449  1.0
  S  S6  1  0.91301251  0.42312742  0.44201449  1.0
  S  S7  1  0.41301251  0.07687258  0.55798551  1.0
  S  S8  1  0.10260243  0.91936092  0.72620808  1.0
  S  S9  1  0.60260243  0.58063908  0.27379192  1.0
  S  S10  1  0.89739757  0.41936092  0.77379192  1.0
  S  S11  1  0.39739757  0.08063908  0.22620808  1.0
  N  N12  1  0.48877333  0.88671439  0.52275838  1.0
  N  N13  1  0.98877333  0.61328561  0.47724162  1.0
  N  N14  1  0.51122667  0.38671439  0.97724162  1.0
  N  N15  1  0.01122667  0.11328561  0.02275838  1.0
  N  N16  1  0.27807102  0.90504988  0.15839892  1.0
  N  N17  1  0.77807102  0.59495012  0.84160108  1.0
  N  N18  1  0.72192898  0.40504988  0.34160108  1.0
  N  N19  1  0.22192898  0.09495012  0.65839892  1.0
