# generated using pymatgen
data_V2O5
_symmetry_space_group_name_H-M   'P 1'
_cell_length_a   11.49906333
_cell_length_b   4.80721145
_cell_length_c   3.57173376
_cell_angle_alpha   90.00000000
_cell_angle_beta   90.00000000
_cell_angle_gamma   90.00000000
_symmetry_Int_Tables_number   1
_chemical_formula_structural   V2O5
_chemical_formula_sum   'V4 O10'
_cell_volume   197.43983089
_cell_formula_units_Z   2
loop_
 _symmetry_equiv_pos_site_id
 _symmetry_equiv_pos_as_xyz
  1  'x, y, z'
loop_
 _atom_site_type_symbol
 _atom_site_label
 _atom_site_symmetry_multiplicity
 _atom_site_fract_x
 _atom_site_fract_y
 _atom_site_fract_z
 _atom_site_occupancy
  V  V0  1  0.35181651  0.11030180  0.43997763  1.0
  V  V1  1  0.85181651  0.88969820  0.93997763  1.0
  V  V2  1  0.64818349  0.11030180  0.43997763  1.0
  V  V3  1  0.14818349  0.88969820  0.93997763  1.0
  O  O4  1  0.35628528  0.43901199  0.43997143  1.0
  O  O5  1  0.85628528  0.56098801  0.93997143  1.0
  O  O6  1  0.64371472  0.43901199  0.43997143  1.0
  O  O7  1  0.14371472  0.56098801  0.93997143  1.0
  O  O8  1  0.31844543  0.01003710  0.94004203  1.0
  O  O9  1  0.81844543  0.98996290  0.44004203  1.0
  O  O10  1  0.68155457  0.01003710  0.94004203  1.0
  O  O11  1  0.18155457  0.98996290  0.44004203  1.0
  O  O12  1  0.50000000  -0.00109739  0.44001781  1.0
  O  O13  1  0.00000000  1.00109739  -0.05998219  1.0
