# generated using pymatgen
data_Y7C2I12N
_symmetry_space_group_name_H-M   'P 1'
_cell_length_a   9.91893957
_cell_length_b   17.03741881
_cell_length_c   10.94850586
_cell_angle_alpha   101.98637183
_cell_angle_beta   112.89884960
_cell_angle_gamma   92.70959376
_symmetry_Int_Tables_number   1
_chemical_formula_structural   Y7C2I12N
_chemical_formula_sum   'Y14 C4 I24 N2'
_cell_volume   1650.32282195
_cell_formula_units_Z   2
loop_
 _symmetry_equiv_pos_site_id
 _symmetry_equiv_pos_as_xyz
  1  'x, y, z'
loop_
 _atom_site_type_symbol
 _atom_site_label
 _atom_site_symmetry_multiplicity
 _atom_site_fract_x
 _atom_site_fract_y
 _atom_site_fract_z
 _atom_site_occupancy
  Y  Y0  1  -0.98287041  -0.82115909  -0.06347978  1.0
  Y  Y1  1  -0.01712959  -0.17884091  -0.93652022  1.0
  Y  Y2  1  -0.95006254  -0.30935099  -0.23884929  1.0
  Y  Y3  1  -0.04993746  -0.69064901  -0.76115071  1.0
  Y  Y4  1  -0.84018642  -0.61426800  -0.95530320  1.0
  Y  Y5  1  -0.15981358  -0.38573200  -0.04469680  1.0
  Y  Y6  1  -0.78439290  -0.85005145  -0.75071789  1.0
  Y  Y7  1  -0.21560710  -0.14994855  -0.24928211  1.0
  Y  Y8  1  -0.63625857  -0.64546030  -0.62744251  1.0
  Y  Y9  1  -0.36374143  -0.35453970  -0.37255749  1.0
  Y  Y10  1  -0.56696873  -0.76346551  -0.93046303  1.0
  Y  Y11  1  -0.43303127  -0.23653449  -0.06953697  1.0
  Y  Y12  1  -0.14166779  -0.98085442  -0.95689913  1.0
  Y  Y13  1  -0.85833221  -0.01914558  -0.04310087  1.0
  C  C14  1  -0.86633176  -0.71615590  -0.82529292  1.0
  C  C15  1  -0.13366824  -0.28384410  -0.17470708  1.0
  C  C16  1  -0.74775253  -0.73403340  -0.86483286  1.0
  C  C17  1  -0.25224747  -0.26596660  -0.13516714  1.0
  I  I18  1  -0.93709988  -0.30171917  -0.76195309  1.0
  I  I19  1  -0.06290012  -0.69828083  -0.23804691  1.0
  I  I20  1  -0.84223271  -0.59169906  -0.48731833  1.0
  I  I21  1  -0.15776729  -0.40830094  -0.51268167  1.0
  I  I22  1  -0.79579873  -0.02932403  -0.69638348  1.0
  I  I23  1  -0.20420127  -0.97067597  -0.30361652  1.0
  I  I24  1  -0.77440006  -0.89104856  -0.19856799  1.0
  I  I25  1  -0.22559994  -0.10895144  -0.80143201  1.0
  I  I26  1  -0.70877113  -0.18775496  -0.97077428  1.0
  I  I27  1  -0.29122887  -0.81224504  -0.02922572  1.0
  I  I28  1  -0.62554122  -0.48344365  -0.70024090  1.0
  I  I29  1  -0.37445878  -0.51655635  -0.29975910  1.0
  I  I30  1  -0.55212253  -0.76831438  -0.46053656  1.0
  I  I31  1  -0.44787747  -0.23168562  -0.53946344  1.0
  I  I32  1  -0.53120257  -0.92308855  -0.82579582  1.0
  I  I33  1  -0.46879743  -0.07691145  -0.17420418  1.0
  I  I34  1  -0.40004404  -0.37272547  -0.93172948  1.0
  I  I35  1  -0.59995596  -0.62727453  -0.06827052  1.0
  I  I36  1  -0.32746950  -0.66479710  -0.66065963  1.0
  I  I37  1  -0.67253050  -0.33520290  -0.33934037  1.0
  I  I38  1  -0.10791806  -0.54901680  -0.90072425  1.0
  I  I39  1  -0.89208194  -0.45098320  -0.09927575  1.0
  I  I40  1  -0.04559915  -0.85035454  -0.65909088  1.0
  I  I41  1  -0.95440085  -0.14964546  -0.34090912  1.0
  N  N42  1  -0.94212811  -0.91552590  -0.95282341  1.0
  N  N43  1  -0.05787189  -0.08447410  -0.04717659  1.0
