# generated using pymatgen
data_BaBeSiO4
_symmetry_space_group_name_H-M   'P 1'
_cell_length_a   5.17227160
_cell_length_b   5.17227160
_cell_length_c   5.08092657
_cell_angle_alpha   60.83863050
_cell_angle_beta   119.16136950
_cell_angle_gamma   118.53052672
_symmetry_Int_Tables_number   1
_chemical_formula_structural   BaBeSiO4
_chemical_formula_sum   'Ba1 Be1 Si1 O4'
_cell_volume   98.37724257
_cell_formula_units_Z   1
loop_
 _symmetry_equiv_pos_site_id
 _symmetry_equiv_pos_as_xyz
  1  'x, y, z'
loop_
 _atom_site_type_symbol
 _atom_site_label
 _atom_site_symmetry_multiplicity
 _atom_site_fract_x
 _atom_site_fract_y
 _atom_site_fract_z
 _atom_site_occupancy
  Ba  Ba0  1  -0.01725311  0.01725311  -0.03068262  1.0
  Be  Be1  1  0.25271466  -0.25271466  0.73678641  1.0
  Si  Si2  1  0.50120729  -0.50120729  0.48548510  1.0
  O  O3  1  0.87844265  -0.37628095  0.55448873  1.0
  O  O4  1  1.37628095  0.12155735  0.55448873  1.0
  O  O5  1  0.32407991  -0.32407991  0.11215991  1.0
  O  O6  1  0.43352766  -0.43352766  0.72657373  1.0
