# generated using pymatgen
data_SrSnS3
_symmetry_space_group_name_H-M   'P 1'
_cell_length_a   8.31761820
_cell_length_b   3.92298379
_cell_length_c   14.31743451
_cell_angle_alpha   90.00000000
_cell_angle_beta   90.00000000
_cell_angle_gamma   90.00000000
_symmetry_Int_Tables_number   1
_chemical_formula_structural   SrSnS3
_chemical_formula_sum   'Sr4 Sn4 S12'
_cell_volume   467.17618919
_cell_formula_units_Z   4
loop_
 _symmetry_equiv_pos_site_id
 _symmetry_equiv_pos_as_xyz
  1  'x, y, z'
loop_
 _atom_site_type_symbol
 _atom_site_label
 _atom_site_symmetry_multiplicity
 _atom_site_fract_x
 _atom_site_fract_y
 _atom_site_fract_z
 _atom_site_occupancy
  Sr  Sr0  1  0.57712306  0.75000000  0.67772785  1.0
  Sr  Sr1  1  0.07712306  0.75000000  0.82227215  1.0
  Sr  Sr2  1  0.42287694  0.25000000  0.32227215  1.0
  Sr  Sr3  1  0.92287694  0.25000000  0.17772785  1.0
  Sn  Sn4  1  0.82623917  0.75000000  0.44136332  1.0
  Sn  Sn5  1  0.32623917  0.75000000  0.05863668  1.0
  Sn  Sn6  1  0.17376083  0.25000000  0.55863668  1.0
  Sn  Sn7  1  0.67376083  0.25000000  0.94136332  1.0
  S  S8  1  0.97285645  0.75000000  0.60462976  1.0
  S  S9  1  0.47285645  0.75000000  0.89537024  1.0
  S  S10  1  0.02714355  0.25000000  0.39537024  1.0
  S  S11  1  0.52714355  0.25000000  0.10462976  1.0
  S  S12  1  0.85185547  0.75000000  0.00355854  1.0
  S  S13  1  0.35185547  0.75000000  0.49644146  1.0
  S  S14  1  0.14814453  0.25000000  0.99644146  1.0
  S  S15  1  0.64814453  0.25000000  0.50355854  1.0
  S  S16  1  0.70137743  0.75000000  0.28367990  1.0
  S  S17  1  0.20137743  0.75000000  0.21632010  1.0
  S  S18  1  0.29862257  0.25000000  0.71632010  1.0
  S  S19  1  0.79862257  0.25000000  0.78367990  1.0
