# generated using pymatgen
data_Cs2MoS4
_symmetry_space_group_name_H-M   'P 1'
_cell_length_a   10.36162587
_cell_length_b   7.34902752
_cell_length_c   13.10372779
_cell_angle_alpha   90.00000000
_cell_angle_beta   90.00000000
_cell_angle_gamma   90.00000000
_symmetry_Int_Tables_number   1
_chemical_formula_structural   Cs2MoS4
_chemical_formula_sum   'Cs8 Mo4 S16'
_cell_volume   997.82100823
_cell_formula_units_Z   4
loop_
 _symmetry_equiv_pos_site_id
 _symmetry_equiv_pos_as_xyz
  1  'x, y, z'
loop_
 _atom_site_type_symbol
 _atom_site_label
 _atom_site_symmetry_multiplicity
 _atom_site_fract_x
 _atom_site_fract_y
 _atom_site_fract_z
 _atom_site_occupancy
  Cs  Cs0  1  0.53319859  0.75000000  0.67025210  1.0
  Cs  Cs1  1  0.03319859  0.75000000  0.82974790  1.0
  Cs  Cs2  1  0.46680141  0.25000000  0.32974790  1.0
  Cs  Cs3  1  0.96680141  0.25000000  0.17025210  1.0
  Cs  Cs4  1  0.84807393  0.75000000  0.39873124  1.0
  Cs  Cs5  1  0.34807393  0.75000000  0.10126876  1.0
  Cs  Cs6  1  0.15192607  0.25000000  0.60126876  1.0
  Cs  Cs7  1  0.65192607  0.25000000  0.89873124  1.0
  Mo  Mo8  1  0.75549127  0.75000000  0.07664476  1.0
  Mo  Mo9  1  0.25549127  0.75000000  0.42335524  1.0
  Mo  Mo10  1  0.24450873  0.25000000  0.92335524  1.0
  Mo  Mo11  1  0.74450873  0.25000000  0.57664476  1.0
  S  S12  1  0.66947844  0.99331932  0.14635907  1.0
  S  S13  1  0.66947844  0.50668068  0.14635907  1.0
  S  S14  1  0.16947844  0.99331932  0.35364093  1.0
  S  S15  1  0.16947844  0.50668068  0.35364093  1.0
  S  S16  1  0.33052156  0.49331932  0.85364093  1.0
  S  S17  1  0.33052156  0.00668068  0.85364093  1.0
  S  S18  1  0.83052156  0.49331932  0.64635907  1.0
  S  S19  1  0.83052156  0.00668068  0.64635907  1.0
  S  S20  1  0.96539142  0.75000000  0.10271408  1.0
  S  S21  1  0.46539142  0.75000000  0.39728592  1.0
  S  S22  1  0.03460858  0.25000000  0.89728592  1.0
  S  S23  1  0.53460858  0.25000000  0.60271408  1.0
  S  S24  1  0.21227263  0.75000000  0.58784328  1.0
  S  S25  1  0.71227263  0.75000000  0.91215672  1.0
  S  S26  1  0.78772737  0.25000000  0.41215672  1.0
  S  S27  1  0.28772737  0.25000000  0.08784328  1.0
