# generated using pymatgen
data_SrGe(PO4)2
_symmetry_space_group_name_H-M   'P 1'
_cell_length_a   8.67845286
_cell_length_b   8.67845286
_cell_length_c   8.04269651
_cell_angle_alpha   65.28098944
_cell_angle_beta   114.71901056
_cell_angle_gamma   145.62491013
_symmetry_Int_Tables_number   1
_chemical_formula_structural   SrGe(PO4)2
_chemical_formula_sum   'Sr2 Ge2 P4 O16'
_cell_volume   307.50202169
_cell_formula_units_Z   2
loop_
 _symmetry_equiv_pos_site_id
 _symmetry_equiv_pos_as_xyz
  1  'x, y, z'
loop_
 _atom_site_type_symbol
 _atom_site_label
 _atom_site_symmetry_multiplicity
 _atom_site_fract_x
 _atom_site_fract_y
 _atom_site_fract_z
 _atom_site_occupancy
  Sr  Sr0  1  0.18677653  0.18677653  0.75000000  1.0
  Sr  Sr1  1  0.81322347  0.81322347  0.25000000  1.0
  Ge  Ge2  1  1.50000000  0.00000000  -0.00000000  1.0
  Ge  Ge3  1  1.00000000  -0.50000000  0.50000000  1.0
  P  P4  1  1.59245750  -0.11313125  0.74054822  1.0
  P  P5  1  1.11313125  -0.59245750  0.24054822  1.0
  P  P6  1  0.88686875  -0.40754250  0.75945178  1.0
  P  P7  1  1.40754250  0.11313125  0.25945178  1.0
  O  O8  1  1.50776142  -0.04383086  0.79856750  1.0
  O  O9  1  1.04383086  -0.50776142  0.29856750  1.0
  O  O10  1  0.95616914  -0.49223858  0.70143250  1.0
  O  O11  1  1.49223858  0.04383086  0.20143250  1.0
  O  O12  1  1.62300487  0.32455634  0.86111187  1.0
  O  O13  1  0.67544366  -0.62300487  0.36111187  1.0
  O  O14  1  1.32455634  -0.37699513  0.63888813  1.0
  O  O15  1  1.37699513  -0.32455634  0.13888813  1.0
  O  O16  1  1.72457364  -0.17054654  0.89348978  1.0
  O  O17  1  1.17054654  -0.72457364  0.39348978  1.0
  O  O18  1  0.82945346  -0.27542636  0.60651022  1.0
  O  O19  1  1.27542636  0.17054654  0.10651022  1.0
  O  O20  1  1.80253611  0.13344400  0.59671913  1.0
  O  O21  1  0.86655600  -0.80253611  0.09671913  1.0
  O  O22  1  1.13344400  -0.19746389  0.90328087  1.0
  O  O23  1  1.19746389  -0.13344400  0.40328087  1.0
