# generated using pymatgen
data_In2Si(AgSe3)2
_symmetry_space_group_name_H-M   'P 1'
_cell_length_a   7.51011852
_cell_length_b   7.51011852
_cell_length_c   12.88125412
_cell_angle_alpha   73.43921681
_cell_angle_beta   106.56078319
_cell_angle_gamma   119.23620360
_symmetry_Int_Tables_number   1
_chemical_formula_structural   In2Si(AgSe3)2
_chemical_formula_sum   'In4 Si2 Ag4 Se12'
_cell_volume   598.37249842
_cell_formula_units_Z   2
loop_
 _symmetry_equiv_pos_site_id
 _symmetry_equiv_pos_as_xyz
  1  'x, y, z'
loop_
 _atom_site_type_symbol
 _atom_site_label
 _atom_site_symmetry_multiplicity
 _atom_site_fract_x
 _atom_site_fract_y
 _atom_site_fract_z
 _atom_site_occupancy
  In  In0  1  1.22547893  -0.41898289  0.50031211  1.0
  In  In1  1  1.41898289  -0.22547893  0.00031211  1.0
  In  In2  1  1.08527530  -0.20914908  0.69999997  1.0
  In  In3  1  1.20914908  -0.08527530  0.19999997  1.0
  Si  Si4  1  0.84950423  0.69389015  0.94246871  1.0
  Si  Si5  1  0.30610985  0.15049577  0.44246871  1.0
  Ag  Ag6  1  0.71030170  0.09656272  0.69361807  1.0
  Ag  Ag7  1  0.90343728  0.28969830  0.19361807  1.0
  Ag  Ag8  1  0.30741420  0.29161023  0.85412666  1.0
  Ag  Ag9  1  0.70838977  0.69258580  0.35412666  1.0
  Se  Se10  1  0.43348054  0.03971128  0.81213737  1.0
  Se  Se11  1  0.96028872  0.56651946  0.31213737  1.0
  Se  Se12  1  0.50276644  0.44425012  0.52098017  1.0
  Se  Se13  1  0.55574988  0.49723356  0.02098017  1.0
  Se  Se14  1  0.74597524  0.73415260  0.75587918  1.0
  Se  Se15  1  0.26584740  0.25402476  0.25587918  1.0
  Se  Se16  1  0.99215479  0.97925578  0.49709024  1.0
  Se  Se17  1  0.02074422  0.00784521  -0.00290976  1.0
  Se  Se18  1  1.02041081  -0.50755454  0.99115027  1.0
  Se  Se19  1  1.50755454  -0.02041081  0.49115027  1.0
  Se  Se20  1  1.07522673  -0.56155744  0.68633725  1.0
  Se  Se21  1  1.56155744  -0.07522673  0.18633725  1.0
