# generated using pymatgen
data_Ta17Al12
_symmetry_space_group_name_H-M   'P 1'
_cell_length_a   8.62406450
_cell_length_b   8.62406450
_cell_length_c   8.62406450
_cell_angle_alpha   109.47122063
_cell_angle_beta   109.47122063
_cell_angle_gamma   109.47122063
_symmetry_Int_Tables_number   1
_chemical_formula_structural   Ta17Al12
_chemical_formula_sum   'Ta17 Al12'
_cell_volume   493.75794451
_cell_formula_units_Z   1
loop_
 _symmetry_equiv_pos_site_id
 _symmetry_equiv_pos_as_xyz
  1  'x, y, z'
loop_
 _atom_site_type_symbol
 _atom_site_label
 _atom_site_symmetry_multiplicity
 _atom_site_fract_x
 _atom_site_fract_y
 _atom_site_fract_z
 _atom_site_occupancy
  Ta  Ta0  1  0.27019355  0.59188676  0.59188676  1.0
  Ta  Ta1  1  0.59188676  0.27019355  0.59188676  1.0
  Ta  Ta2  1  1.00000000  0.67830680  1.40811324  1.0
  Ta  Ta3  1  0.67830680  1.00000000  1.40811324  1.0
  Ta  Ta4  1  0.59188676  0.59188676  0.27019355  1.0
  Ta  Ta5  1  1.32169320  1.32169320  0.72980645  1.0
  Ta  Ta6  1  1.00000000  1.40811324  0.67830680  1.0
  Ta  Ta7  1  1.32169320  0.72980645  1.32169320  1.0
  Ta  Ta8  1  0.72980645  1.32169320  1.32169320  1.0
  Ta  Ta9  1  1.40811324  1.00000000  0.67830680  1.0
  Ta  Ta10  1  0.67830680  1.40811324  1.00000000  1.0
  Ta  Ta11  1  1.40811324  0.67830680  1.00000000  1.0
  Ta  Ta12  1  0.35248609  0.35248609  0.35248609  1.0
  Ta  Ta13  1  1.00000000  1.00000000  0.64751391  1.0
  Ta  Ta14  1  1.00000000  0.64751391  1.00000000  1.0
  Ta  Ta15  1  0.64751391  1.00000000  1.00000000  1.0
  Ta  Ta16  1  0.00000000  0.00000000  0.00000000  1.0
  Al  Al17  1  0.81831424  0.63176840  0.63176840  1.0
  Al  Al18  1  0.63176840  0.81831424  0.63176840  1.0
  Al  Al19  1  1.00000000  1.18654583  0.36823160  1.0
  Al  Al20  1  1.18654583  1.00000000  0.36823160  1.0
  Al  Al21  1  0.63176840  0.63176840  0.81831424  1.0
  Al  Al22  1  0.81345417  0.81345417  0.18168576  1.0
  Al  Al23  1  1.00000000  0.36823160  1.18654583  1.0
  Al  Al24  1  0.81345417  0.18168576  0.81345417  1.0
  Al  Al25  1  0.18168576  0.81345417  0.81345417  1.0
  Al  Al26  1  0.36823160  1.00000000  1.18654583  1.0
  Al  Al27  1  1.18654583  0.36823160  1.00000000  1.0
  Al  Al28  1  0.36823160  1.18654583  1.00000000  1.0
