# generated using pymatgen
data_ScSi3Ni2
_symmetry_space_group_name_H-M   'P 1'
_cell_length_a   12.17753081
_cell_length_b   12.17753081
_cell_length_c   12.17753081
_cell_angle_alpha   162.02968518
_cell_angle_beta   162.02968518
_cell_angle_gamma   25.52026191
_symmetry_Int_Tables_number   1
_chemical_formula_structural   ScSi3Ni2
_chemical_formula_sum   'Sc2 Si6 Ni4'
_cell_volume   171.83848011
_cell_formula_units_Z   2
loop_
 _symmetry_equiv_pos_site_id
 _symmetry_equiv_pos_as_xyz
  1  'x, y, z'
loop_
 _atom_site_type_symbol
 _atom_site_label
 _atom_site_symmetry_multiplicity
 _atom_site_fract_x
 _atom_site_fract_y
 _atom_site_fract_z
 _atom_site_occupancy
  Sc  Sc0  1  0.64985270  0.64985270  1.00000000  1.0
  Sc  Sc1  1  0.35014730  0.35014730  -0.00000000  1.0
  Si  Si2  1  0.45004831  0.95004831  0.50000000  1.0
  Si  Si3  1  0.54995169  0.04995169  0.50000000  1.0
  Si  Si4  1  0.95004831  0.45004831  0.50000000  1.0
  Si  Si5  1  0.04995169  0.54995169  0.50000000  1.0
  Si  Si6  1  0.80571421  0.80571421  1.00000000  1.0
  Si  Si7  1  0.19428579  0.19428579  -0.00000000  1.0
  Ni  Ni8  1  0.90024835  0.90024835  1.00000000  1.0
  Ni  Ni9  1  0.09975165  0.09975165  -0.00000000  1.0
  Ni  Ni10  1  0.25000000  0.75000000  0.50000000  1.0
  Ni  Ni11  1  0.75000000  0.25000000  0.50000000  1.0
