# generated using pymatgen
data_BiXeF9
_symmetry_space_group_name_H-M   'P 1'
_cell_length_a   8.20238061
_cell_length_b   6.13965679
_cell_length_c   9.07732902
_cell_angle_alpha   103.79138534
_cell_angle_beta   102.87491786
_cell_angle_gamma   88.74334437
_symmetry_Int_Tables_number   1
_chemical_formula_structural   BiXeF9
_chemical_formula_sum   'Bi2 Xe2 F18'
_cell_volume   432.55703348
_cell_formula_units_Z   2
loop_
 _symmetry_equiv_pos_site_id
 _symmetry_equiv_pos_as_xyz
  1  'x, y, z'
loop_
 _atom_site_type_symbol
 _atom_site_label
 _atom_site_symmetry_multiplicity
 _atom_site_fract_x
 _atom_site_fract_y
 _atom_site_fract_z
 _atom_site_occupancy
  Bi  Bi0  1  0.65925259  0.79589694  -0.74164108  1.0
  Bi  Bi1  1  0.34074741  0.20410306  -0.25835892  1.0
  Xe  Xe2  1  0.82672864  0.70046518  -0.29117729  1.0
  Xe  Xe3  1  0.17327136  0.29953482  -0.70882271  1.0
  F  F4  1  0.17945525  1.00415432  -0.85545436  1.0
  F  F5  1  0.82054475  -0.00415432  -0.14454564  1.0
  F  F6  1  0.84608150  0.99948467  -0.74722592  1.0
  F  F7  1  0.15391850  0.00051533  -0.25277408  1.0
  F  F8  1  0.46723690  0.93278623  -0.33816701  1.0
  F  F9  1  0.53276310  0.06721377  -0.66183299  1.0
  F  F10  1  0.79992554  0.85208041  -0.48731169  1.0
  F  F11  1  0.20007446  0.14791959  -0.51268831  1.0
  F  F12  1  0.54156422  0.75353299  -0.96516469  1.0
  F  F13  1  0.45843578  0.24646701  -0.03483531  1.0
  F  F14  1  0.50403163  0.60333630  -0.67774476  1.0
  F  F15  1  0.49596837  0.39666370  -0.32225524  1.0
  F  F16  1  0.85612328  0.55950526  -0.11562310  1.0
  F  F17  1  0.14387672  0.44049474  -0.88437690  1.0
  F  F18  1  0.80873646  0.53224003  -0.77527987  1.0
  F  F19  1  0.19126354  0.46775997  -0.22472013  1.0
  F  F20  1  0.83581199  0.40059422  -0.43211974  1.0
  F  F21  1  0.16418801  0.59940578  -0.56788026  1.0
