# generated using pymatgen
data_Na2H6C4O7
_symmetry_space_group_name_H-M   'P 1'
_cell_length_a   8.34984627
_cell_length_b   8.34984627
_cell_length_c   14.73049434
_cell_angle_alpha   64.34058493
_cell_angle_beta   115.65941507
_cell_angle_gamma   154.42751494
_symmetry_Int_Tables_number   1
_chemical_formula_structural   Na2H6C4O7
_chemical_formula_sum   'Na4 H12 C8 O14'
_cell_volume   397.21173249
_cell_formula_units_Z   2
loop_
 _symmetry_equiv_pos_site_id
 _symmetry_equiv_pos_as_xyz
  1  'x, y, z'
loop_
 _atom_site_type_symbol
 _atom_site_label
 _atom_site_symmetry_multiplicity
 _atom_site_fract_x
 _atom_site_fract_y
 _atom_site_fract_z
 _atom_site_occupancy
  Na  Na0  1  0.63028996  -0.08017272  0.78264334  1.0
  Na  Na1  1  1.08017272  -0.63028996  0.28264334  1.0
  Na  Na2  1  0.91982728  0.63028996  0.71735666  1.0
  Na  Na3  1  1.36971004  0.08017272  0.21735666  1.0
  H  H4  1  1.57320588  -0.35976233  0.69036253  1.0
  H  H5  1  1.35976233  -0.57320588  0.19036253  1.0
  H  H6  1  0.64023767  0.57320588  0.80963747  1.0
  H  H7  1  0.42679412  0.35976233  0.30963747  1.0
  H  H8  1  1.27405070  -0.70908431  0.91894371  1.0
  H  H9  1  1.70908431  -0.27405070  0.41894371  1.0
  H  H10  1  0.29091569  0.27405070  0.58105629  1.0
  H  H11  1  0.72594930  0.70908431  0.08105629  1.0
  H  H12  1  1.24722277  0.41725220  0.95498651  1.0
  H  H13  1  1.58274780  -0.24722277  0.45498651  1.0
  H  H14  1  0.41725220  0.24722277  0.54501349  1.0
  H  H15  1  0.75277723  -0.41725220  0.04501349  1.0
  C  C16  1  0.50171316  0.01791034  0.92549320  1.0
  C  C17  1  0.98208966  -0.50171316  0.42549320  1.0
  C  C18  1  1.01791034  0.50171316  0.57450680  1.0
  C  C19  1  1.49828684  -0.01791034  0.07450680  1.0
  C  C20  1  0.53666132  0.16841465  0.97583656  1.0
  C  C21  1  0.83158535  0.46333869  0.47583656  1.0
  C  C22  1  1.16841465  -0.46333868  0.52416344  1.0
  C  C23  1  1.46333869  -0.16841465  0.02416344  1.0
  O  O24  1  0.50525177  0.04308377  0.83535491  1.0
  O  O25  1  0.95691623  -0.50525177  0.33535491  1.0
  O  O26  1  1.04308377  0.50525177  0.66464509  1.0
  O  O27  1  1.49474823  -0.04308377  0.16464509  1.0
  O  O28  1  0.58577703  0.37704242  0.94551307  1.0
  O  O29  1  0.62295758  0.41422297  0.44551307  1.0
  O  O30  1  1.37704242  -0.41422297  0.55448693  1.0
  O  O31  1  1.41422297  -0.37704242  0.05448693  1.0
  O  O32  1  0.33414674  0.18459163  0.60407297  1.0
  O  O33  1  0.81540837  -0.33414674  0.10407297  1.0
  O  O34  1  1.18459163  0.33414674  0.89592703  1.0
  O  O35  1  1.66585326  -0.18459163  0.39592703  1.0
  O  O36  1  0.76222579  0.76222579  0.75000000  1.0
  O  O37  1  0.23777421  0.23777421  0.25000000  1.0
