# generated using pymatgen
data_Ti3Fe3O
_symmetry_space_group_name_H-M   'P 1'
_cell_length_a   7.84724027
_cell_length_b   7.84724027
_cell_length_c   7.84724027
_cell_angle_alpha   60.00000000
_cell_angle_beta   60.00000000
_cell_angle_gamma   60.00000000
_symmetry_Int_Tables_number   1
_chemical_formula_structural   Ti3Fe3O
_chemical_formula_sum   'Ti12 Fe12 O4'
_cell_volume   341.69281918
_cell_formula_units_Z   4
loop_
 _symmetry_equiv_pos_site_id
 _symmetry_equiv_pos_as_xyz
  1  'x, y, z'
loop_
 _atom_site_type_symbol
 _atom_site_label
 _atom_site_symmetry_multiplicity
 _atom_site_fract_x
 _atom_site_fract_y
 _atom_site_fract_z
 _atom_site_occupancy
  Ti  Ti0  1  0.55677545  0.55677545  0.94322455  1.0
  Ti  Ti1  1  0.94322455  0.55677545  0.94322455  1.0
  Ti  Ti2  1  0.55677545  0.94322455  0.94322455  1.0
  Ti  Ti3  1  0.94322455  0.94322455  0.55677545  1.0
  Ti  Ti4  1  0.55677545  0.94322455  0.55677545  1.0
  Ti  Ti5  1  0.94322455  0.55677545  0.55677545  1.0
  Ti  Ti6  1  0.69322455  0.69322455  -0.69322455  1.0
  Ti  Ti7  1  1.30677545  -0.30677545  0.30677545  1.0
  Ti  Ti8  1  -0.30677545  0.30677545  0.30677545  1.0
  Ti  Ti9  1  0.30677545  0.30677545  -0.30677545  1.0
  Ti  Ti10  1  0.69322455  -0.69322455  0.69322455  1.0
  Ti  Ti11  1  -0.69322455  0.69322455  0.69322455  1.0
  Fe  Fe12  1  0.12500000  0.12500000  1.62500000  1.0
  Fe  Fe13  1  0.12500000  0.62500000  1.12500000  1.0
  Fe  Fe14  1  1.62500000  0.12500000  0.12500000  1.0
  Fe  Fe15  1  1.12500000  0.12500000  0.12500000  1.0
  Fe  Fe16  1  0.91799336  -0.08200664  0.24601991  1.0
  Fe  Fe17  1  0.91799336  -0.75398009  0.91799336  1.0
  Fe  Fe18  1  0.24601991  0.91799336  0.91799336  1.0
  Fe  Fe19  1  0.91799336  0.91799336  0.91799336  1.0
  Fe  Fe20  1  1.33200664  0.33200664  0.00398009  1.0
  Fe  Fe21  1  1.33200664  0.00398009  0.33200664  1.0
  Fe  Fe22  1  1.00398009  0.33200664  0.33200664  1.0
  Fe  Fe23  1  1.33200664  0.33200664  0.33200664  1.0
  O  O24  1  0.62500000  0.62500000  1.12500000  1.0
  O  O25  1  0.62500000  1.12500000  0.62500000  1.0
  O  O26  1  1.12500000  0.62500000  0.62500000  1.0
  O  O27  1  0.62500000  0.62500000  0.62500000  1.0
