# generated using pymatgen
data_KLi3(H2N)4
_symmetry_space_group_name_H-M   'P 1'
_cell_length_a   12.92827237
_cell_length_b   12.92827237
_cell_length_c   12.92827237
_cell_angle_alpha   146.21897402
_cell_angle_beta   146.21897402
_cell_angle_gamma   48.52162747
_symmetry_Int_Tables_number   1
_chemical_formula_structural   KLi3(H2N)4
_chemical_formula_sum   'K4 Li12 H32 N16'
_cell_volume   665.19527302
_cell_formula_units_Z   4
loop_
 _symmetry_equiv_pos_site_id
 _symmetry_equiv_pos_as_xyz
  1  'x, y, z'
loop_
 _atom_site_type_symbol
 _atom_site_label
 _atom_site_symmetry_multiplicity
 _atom_site_fract_x
 _atom_site_fract_y
 _atom_site_fract_z
 _atom_site_occupancy
  K  K0  1  1.37500000  1.12500000  0.75000000  1.0
  K  K1  1  0.87500000  0.62500000  0.25000000  1.0
  K  K2  1  1.37500000  0.62500000  0.75000000  1.0
  K  K3  1  1.37500000  1.62500000  1.25000000  1.0
  Li  Li4  1  1.25363279  1.25363279  1.00000000  1.0
  Li  Li5  1  0.00363279  0.50363279  0.50000000  1.0
  Li  Li6  1  1.49636721  0.99636721  0.50000000  1.0
  Li  Li7  1  0.74636721  0.74636721  -0.00000000  1.0
  Li  Li8  1  0.74701793  0.74701793  1.49403587  1.0
  Li  Li9  1  0.25298207  0.74701793  1.00000000  1.0
  Li  Li10  1  1.49701793  0.99701793  0.99403587  1.0
  Li  Li11  1  1.00298207  0.99701793  0.50000000  1.0
  Li  Li12  1  0.74701793  0.25298207  1.00000000  1.0
  Li  Li13  1  0.25298207  0.25298207  0.50596413  1.0
  Li  Li14  1  1.49701793  1.50298207  1.50000000  1.0
  Li  Li15  1  1.00298207  1.50298207  1.00596413  1.0
  H  H16  1  1.16723802  0.97017968  0.80294166  1.0
  H  H17  1  1.72017968  1.41723802  1.30294166  1.0
  H  H18  1  1.11429636  1.41723802  0.69705834  1.0
  H  H19  1  1.16723802  1.36429636  1.19705834  1.0
  H  H20  1  0.58276198  0.27982032  0.69705834  1.0
  H  H21  1  1.02982032  0.83276198  0.19705834  1.0
  H  H22  1  1.63570364  0.83276198  0.80294166  1.0
  H  H23  1  0.58276198  0.88570364  1.30294166  1.0
  H  H24  1  1.20525223  0.82667830  0.62142607  1.0
  H  H25  1  1.57667830  1.45525223  1.12142607  1.0
  H  H26  1  1.33382617  1.45525223  0.87857393  1.0
  H  H27  1  1.20525223  1.58382617  1.37857393  1.0
  H  H28  1  0.54474777  0.42332170  0.87857393  1.0
  H  H29  1  1.17332170  0.79474777  0.37857393  1.0
  H  H30  1  1.41617383  0.79474777  0.62142607  1.0
  H  H31  1  0.54474777  0.66617383  1.12142607  1.0
  H  H32  1  0.65991814  1.39610893  0.73619079  1.0
  H  H33  1  1.14610893  0.90991814  0.23619079  1.0
  H  H34  1  1.67372736  0.90991814  0.76380921  1.0
  H  H35  1  0.65991814  0.92372736  0.26380921  1.0
  H  H36  1  0.09008186  0.85389107  0.76380921  1.0
  H  H37  1  1.60389107  1.34008186  1.26380921  1.0
  H  H38  1  1.07627264  1.34008186  0.73619079  1.0
  H  H39  1  0.09008186  0.32627264  0.23619079  1.0
  H  H40  1  0.71866968  1.35936720  0.64069752  1.0
  H  H41  1  1.10936720  0.96866968  0.14069752  1.0
  H  H42  1  1.82797216  0.96866968  0.85930248  1.0
  H  H43  1  0.71866968  1.07797216  0.35930248  1.0
  H  H44  1  0.03133032  0.89063280  0.85930248  1.0
  H  H45  1  1.64063280  1.28133032  1.35930248  1.0
  H  H46  1  0.92202784  1.28133032  0.64069752  1.0
  H  H47  1  0.03133032  0.17202784  0.14069752  1.0
  N  N48  1  1.20829508  0.96592401  0.75762893  1.0
  N  N49  1  1.71592401  1.45829508  1.25762893  1.0
  N  N50  1  1.20066615  1.45829508  0.74237107  1.0
  N  N51  1  1.20829508  1.45066615  1.24237107  1.0
  N  N52  1  0.54170492  0.28407599  0.74237107  1.0
  N  N53  1  1.03407599  0.79170492  0.24237107  1.0
  N  N54  1  1.54933385  0.79170492  0.75762893  1.0
  N  N55  1  0.54170492  0.79933385  1.25762893  1.0
  N  N56  1  0.70230028  1.47003424  0.76773395  1.0
  N  N57  1  1.22003424  0.95230028  0.26773395  1.0
  N  N58  1  1.68456633  0.95230028  0.73226605  1.0
  N  N59  1  0.70230028  0.93456633  0.23226605  1.0
  N  N60  1  0.04769972  0.77996576  0.73226605  1.0
  N  N61  1  1.52996576  1.29769972  1.23226605  1.0
  N  N62  1  1.06543367  1.29769972  0.76773395  1.0
  N  N63  1  0.04769972  0.31543367  0.26773395  1.0
