# generated using pymatgen
data_K3NaP4(H2O7)2
_symmetry_space_group_name_H-M   'P 1'
_cell_length_a   9.61145303
_cell_length_b   9.61145303
_cell_length_c   11.44189638
_cell_angle_alpha   81.18080433
_cell_angle_beta   98.81919567
_cell_angle_gamma   134.85658721
_symmetry_Int_Tables_number   1
_chemical_formula_structural   K3NaP4(H2O7)2
_chemical_formula_sum   'K6 Na2 P8 H8 O28'
_cell_volume   738.88207496
_cell_formula_units_Z   2
loop_
 _symmetry_equiv_pos_site_id
 _symmetry_equiv_pos_as_xyz
  1  'x, y, z'
loop_
 _atom_site_type_symbol
 _atom_site_label
 _atom_site_symmetry_multiplicity
 _atom_site_fract_x
 _atom_site_fract_y
 _atom_site_fract_z
 _atom_site_occupancy
  K  K0  1  0.56374937  -0.16087441  0.00048457  1.0
  K  K1  1  0.83912559  0.56374937  0.49951543  1.0
  K  K2  1  0.43625063  0.16087441  0.99951543  1.0
  K  K3  1  1.16087441  0.43625063  0.50048457  1.0
  K  K4  1  0.10349112  0.10349112  0.25000000  1.0
  K  K5  1  0.89650888  0.89650888  0.75000000  1.0
  Na  Na6  1  1.00000000  0.50000000  0.00000000  1.0
  Na  Na7  1  0.50000000  0.00000000  0.50000000  1.0
  P  P8  1  0.85690471  0.24856415  0.73641169  1.0
  P  P9  1  0.24856415  -0.14309529  0.76358831  1.0
  P  P10  1  1.14309529  0.75143585  0.26358831  1.0
  P  P11  1  0.75143585  0.14309529  0.23641169  1.0
  P  P12  1  1.21349833  0.36634442  0.88321326  1.0
  P  P13  1  0.36634442  0.21349833  0.61678674  1.0
  P  P14  1  0.78650167  0.63365558  0.11678674  1.0
  P  P15  1  0.63365558  -0.21349833  0.38321326  1.0
  H  H16  1  0.91496892  0.50740566  0.76507920  1.0
  H  H17  1  0.50740566  -0.08503108  0.73492080  1.0
  H  H18  1  1.08503108  0.49259434  0.23492080  1.0
  H  H19  1  0.49259434  0.08503108  0.26507920  1.0
  H  H20  1  1.42596430  0.55153448  0.74654413  1.0
  H  H21  1  0.55153448  0.42596430  0.75345587  1.0
  H  H22  1  0.57403570  0.44846552  0.25345587  1.0
  H  H23  1  0.44846552  -0.42596430  0.24654413  1.0
  O  O24  1  0.83232464  0.27642888  0.60406956  1.0
  O  O25  1  0.27642888  -0.16767536  0.89593044  1.0
  O  O26  1  1.16767536  0.72357112  0.39593044  1.0
  O  O27  1  0.72357112  0.16767536  0.10406956  1.0
  O  O28  1  0.84401183  0.37052434  0.80683439  1.0
  O  O29  1  0.37052434  -0.15598817  0.69316561  1.0
  O  O30  1  1.15598817  0.62947566  0.19316561  1.0
  O  O31  1  0.62947566  0.15598817  0.30683439  1.0
  O  O32  1  0.72097326  0.03785439  0.79091232  1.0
  O  O33  1  1.03785439  0.72097326  0.70908768  1.0
  O  O34  1  0.27902674  -0.03785439  0.20908768  1.0
  O  O35  1  0.96214561  0.27902674  0.29091232  1.0
  O  O36  1  1.08376436  0.35127819  0.76344783  1.0
  O  O37  1  0.35127819  0.08376436  0.73655217  1.0
  O  O38  1  0.91623564  0.64872181  0.23655217  1.0
  O  O39  1  0.64872181  -0.08376436  0.26344783  1.0
  O  O40  1  1.20022497  0.43692062  0.98574614  1.0
  O  O41  1  0.43692062  0.20022497  0.51425386  1.0
  O  O42  1  0.79977503  0.56307938  0.01425386  1.0
  O  O43  1  0.56307938  -0.20022497  0.48574614  1.0
  O  O44  1  1.43301697  0.55328753  0.83223540  1.0
  O  O45  1  0.55328753  0.43301697  0.66776460  1.0
  O  O46  1  0.56698303  0.44671247  0.16776460  1.0
  O  O47  1  0.44671247  -0.43301697  0.33223540  1.0
  O  O48  1  1.17587276  0.18407207  0.89891274  1.0
  O  O49  1  0.18407207  0.17587276  0.60108726  1.0
  O  O50  1  0.82412724  0.81592793  0.10108726  1.0
  O  O51  1  0.81592793  -0.17587276  0.39891274  1.0
