# generated using pymatgen
data_RbP4N7
_symmetry_space_group_name_H-M   'P 1'
_cell_length_a   10.01051153
_cell_length_b   12.45729852
_cell_length_c   4.73737160
_cell_angle_alpha   90.00000000
_cell_angle_beta   90.00000000
_cell_angle_gamma   90.00000000
_symmetry_Int_Tables_number   1
_chemical_formula_structural   RbP4N7
_chemical_formula_sum   'Rb4 P16 N28'
_cell_volume   590.76885916
_cell_formula_units_Z   4
loop_
 _symmetry_equiv_pos_site_id
 _symmetry_equiv_pos_as_xyz
  1  'x, y, z'
loop_
 _atom_site_type_symbol
 _atom_site_label
 _atom_site_symmetry_multiplicity
 _atom_site_fract_x
 _atom_site_fract_y
 _atom_site_fract_z
 _atom_site_occupancy
  Rb  Rb0  1  0.14763308  0.75000000  0.26943309  1.0
  Rb  Rb1  1  0.64763308  0.75000000  0.23056691  1.0
  Rb  Rb2  1  0.85236692  0.25000000  0.73056691  1.0
  Rb  Rb3  1  0.35236692  0.25000000  0.76943309  1.0
  P  P4  1  0.41143894  0.87000666  0.78477046  1.0
  P  P5  1  0.41143894  0.62999334  0.78477046  1.0
  P  P6  1  0.91143894  0.87000666  0.71522954  1.0
  P  P7  1  0.91143894  0.62999334  0.71522954  1.0
  P  P8  1  0.58856106  0.37000666  0.21522954  1.0
  P  P9  1  0.58856106  0.12999334  0.21522954  1.0
  P  P10  1  0.08856106  0.37000666  0.28477046  1.0
  P  P11  1  0.08856106  0.12999334  0.28477046  1.0
  P  P12  1  0.15695208  1.00003176  0.77677137  1.0
  P  P13  1  0.15695208  0.49996824  0.77677137  1.0
  P  P14  1  0.65695208  1.00003176  0.72322863  1.0
  P  P15  1  0.65695208  0.49996824  0.72322863  1.0
  P  P16  1  0.84304792  0.50003176  0.22322863  1.0
  P  P17  1  0.84304792  -0.00003176  0.22322863  1.0
  P  P18  1  0.34304792  0.50003176  0.27677137  1.0
  P  P19  1  0.34304792  -0.00003176  0.27677137  1.0
  N  N20  1  0.38481085  0.89357873  0.11458955  1.0
  N  N21  1  0.38481085  0.60642127  0.11458955  1.0
  N  N22  1  0.88481085  0.89357873  0.38541045  1.0
  N  N23  1  0.88481085  0.60642127  0.38541045  1.0
  N  N24  1  0.61518915  0.39357873  0.88541045  1.0
  N  N25  1  0.61518915  0.10642127  0.88541045  1.0
  N  N26  1  0.11518915  0.39357873  0.61458955  1.0
  N  N27  1  0.11518915  0.10642127  0.61458955  1.0
  N  N28  1  0.29943236  0.95562757  0.61206635  1.0
  N  N29  1  0.29943236  0.54437243  0.61206635  1.0
  N  N30  1  0.79943236  0.95562757  0.88793365  1.0
  N  N31  1  0.79943236  0.54437243  0.88793365  1.0
  N  N32  1  0.70056764  0.45562757  0.38793365  1.0
  N  N33  1  0.70056764  0.04437243  0.38793365  1.0
  N  N34  1  0.20056764  0.45562757  0.11206635  1.0
  N  N35  1  0.20056764  0.04437243  0.11206635  1.0
  N  N36  1  0.06011420  0.89986231  0.81936163  1.0
  N  N37  1  0.06011420  0.60013769  0.81936163  1.0
  N  N38  1  0.56011420  0.89986231  0.68063837  1.0
  N  N39  1  0.56011420  0.60013769  0.68063837  1.0
  N  N40  1  0.93988580  0.39986231  0.18063837  1.0
  N  N41  1  0.93988580  0.10013769  0.18063837  1.0
  N  N42  1  0.43988580  0.39986231  0.31936163  1.0
  N  N43  1  0.43988580  0.10013769  0.31936163  1.0
  N  N44  1  0.37235775  0.75000000  0.70146066  1.0
  N  N45  1  0.87235775  0.75000000  0.79853934  1.0
  N  N46  1  0.62764225  0.25000000  0.29853934  1.0
  N  N47  1  0.12764225  0.25000000  0.20146066  1.0
