# generated using pymatgen
data_BaSn(BO3)2
_symmetry_space_group_name_H-M   'P 1'
_cell_length_a   6.65654382
_cell_length_b   6.65654382
_cell_length_c   6.65654382
_cell_angle_alpha   44.81091481
_cell_angle_beta   44.81091481
_cell_angle_gamma   44.81091481
_symmetry_Int_Tables_number   1
_chemical_formula_structural   BaSn(BO3)2
_chemical_formula_sum   'Ba1 Sn1 B2 O6'
_cell_volume   133.28890164
_cell_formula_units_Z   1
loop_
 _symmetry_equiv_pos_site_id
 _symmetry_equiv_pos_as_xyz
  1  'x, y, z'
loop_
 _atom_site_type_symbol
 _atom_site_label
 _atom_site_symmetry_multiplicity
 _atom_site_fract_x
 _atom_site_fract_y
 _atom_site_fract_z
 _atom_site_occupancy
  Ba  Ba0  1  0.00000000  0.00000000  0.00000000  1.0
  Sn  Sn1  1  0.50000000  0.50000000  -0.50000000  1.0
  B  B2  1  0.23111274  0.23111274  0.23111274  1.0
  B  B3  1  0.76888726  -0.23111274  -0.23111274  1.0
  O  O4  1  0.29644845  0.93746865  -0.52789875  1.0
  O  O5  1  0.52789875  -0.29644845  0.06253135  1.0
  O  O6  1  1.06253135  -0.47210125  -0.29644845  1.0
  O  O7  1  0.70355155  0.06253135  -0.47210125  1.0
  O  O8  1  0.47210125  0.29644845  -0.06253135  1.0
  O  O9  1  0.93746865  0.47210125  -0.70355155  1.0
