# generated using pymatgen
data_SrZnF4
_symmetry_space_group_name_H-M   'P 1'
_cell_length_a   7.09955842
_cell_length_b   7.09955842
_cell_length_c   7.09955842
_cell_angle_alpha   134.17545149
_cell_angle_beta   134.17545149
_cell_angle_gamma   66.81409705
_symmetry_Int_Tables_number   1
_chemical_formula_structural   SrZnF4
_chemical_formula_sum   'Sr2 Zn2 F8'
_cell_volume   181.10998813
_cell_formula_units_Z   2
loop_
 _symmetry_equiv_pos_site_id
 _symmetry_equiv_pos_as_xyz
  1  'x, y, z'
loop_
 _atom_site_type_symbol
 _atom_site_label
 _atom_site_symmetry_multiplicity
 _atom_site_fract_x
 _atom_site_fract_y
 _atom_site_fract_z
 _atom_site_occupancy
  Sr  Sr0  1  0.25000000  0.75000000  0.50000000  1.0
  Sr  Sr1  1  0.50000000  0.50000000  1.00000000  1.0
  Zn  Zn2  1  0.75000000  0.25000000  0.50000000  1.0
  Zn  Zn3  1  0.00000000  0.00000000  0.00000000  1.0
  F  F4  1  0.57437048  0.49340181  0.40163607  1.0
  F  F5  1  1.09176574  1.17273441  1.59836393  1.0
  F  F6  1  0.65823426  1.07726559  0.90163607  1.0
  F  F7  1  1.17562952  0.75659819  1.09836393  1.0
  F  F8  1  0.50659819  0.90823426  1.08096867  1.0
  F  F9  1  0.82726559  0.42562952  0.91903133  1.0
  F  F10  1  0.92273441  0.82437048  1.58096867  1.0
  F  F11  1  0.24340181  0.34176574  0.41903133  1.0
