# generated using pymatgen
data_Hg2PCl2
_symmetry_space_group_name_H-M   'P 1'
_cell_length_a   6.02454418
_cell_length_b   6.02454418
_cell_length_c   7.71421111
_cell_angle_alpha   70.72422106
_cell_angle_beta   109.27577894
_cell_angle_gamma   95.20003158
_symmetry_Int_Tables_number   1
_chemical_formula_structural   Hg2PCl2
_chemical_formula_sum   'Hg4 P2 Cl4'
_cell_volume   249.42339168
_cell_formula_units_Z   2
loop_
 _symmetry_equiv_pos_site_id
 _symmetry_equiv_pos_as_xyz
  1  'x, y, z'
loop_
 _atom_site_type_symbol
 _atom_site_label
 _atom_site_symmetry_multiplicity
 _atom_site_fract_x
 _atom_site_fract_y
 _atom_site_fract_z
 _atom_site_occupancy
  Hg  Hg0  1  0.79353612  0.20646388  0.57182687  1.0
  Hg  Hg1  1  1.20646388  -0.20646388  0.42817313  1.0
  Hg  Hg2  1  1.50000000  -0.00000000  -0.00000000  1.0
  Hg  Hg3  1  1.00000000  0.50000000  -0.00000000  1.0
  P  P4  1  0.86160935  0.13839065  0.91540097  1.0
  P  P5  1  1.13839065  -0.13839065  0.08459903  1.0
  Cl  Cl6  1  1.38946593  -0.38946593  0.77845499  1.0
  Cl  Cl7  1  0.61053407  0.38946593  0.22154501  1.0
  Cl  Cl8  1  0.77628295  0.77628295  0.50000000  1.0
  Cl  Cl9  1  0.22371705  0.22371705  0.50000000  1.0
