# generated using pymatgen
data_Na2LaPS2O7
_symmetry_space_group_name_H-M   'P 1'
_cell_length_a   16.13294946
_cell_length_b   5.58012601
_cell_length_c   9.32648932
_cell_angle_alpha   90.00000000
_cell_angle_beta   87.05565341
_cell_angle_gamma   90.00000000
_symmetry_Int_Tables_number   1
_chemical_formula_structural   Na2LaPS2O7
_chemical_formula_sum   'Na8 La4 P4 S8 O28'
_cell_volume   838.49849120
_cell_formula_units_Z   4
loop_
 _symmetry_equiv_pos_site_id
 _symmetry_equiv_pos_as_xyz
  1  'x, y, z'
loop_
 _atom_site_type_symbol
 _atom_site_label
 _atom_site_symmetry_multiplicity
 _atom_site_fract_x
 _atom_site_fract_y
 _atom_site_fract_z
 _atom_site_occupancy
  Na  Na0  1  0.88176832  0.97409225  0.68861293  1.0
  Na  Na1  1  0.88176832  0.52590775  0.18861293  1.0
  Na  Na2  1  0.11823168  0.47409225  0.81138707  1.0
  Na  Na3  1  0.11823168  0.02590775  0.31138707  1.0
  Na  Na4  1  0.50000000  0.00000000  -0.00000000  1.0
  Na  Na5  1  0.50000000  0.50000000  0.50000000  1.0
  Na  Na6  1  0.00000000  0.00000000  0.00000000  1.0
  Na  Na7  1  0.00000000  0.50000000  0.50000000  1.0
  La  La8  1  0.28768394  1.08279974  1.02462946  1.0
  La  La9  1  0.28768394  0.41720026  0.52462946  1.0
  La  La10  1  0.71231606  0.58279974  0.47537054  1.0
  La  La11  1  0.71231606  -0.08279974  -0.02462946  1.0
  P  P12  1  0.64331598  1.00767182  0.65942469  1.0
  P  P13  1  0.64331598  0.49232818  0.15942469  1.0
  P  P14  1  0.35668402  0.50767182  0.84057531  1.0
  P  P15  1  0.35668402  -0.00767182  0.34057531  1.0
  S  S16  1  0.89268606  0.52465194  0.86213059  1.0
  S  S17  1  0.89268606  -0.02465194  0.36213059  1.0
  S  S18  1  0.10731394  1.02465194  0.63786941  1.0
  S  S19  1  0.10731394  0.47534806  0.13786941  1.0
  S  S20  1  0.78811570  0.38804227  0.78781101  1.0
  S  S21  1  0.78811570  0.11195773  0.28781101  1.0
  S  S22  1  0.21188430  0.88804227  0.71218899  1.0
  S  S23  1  0.21188430  0.61195773  0.21218899  1.0
  O  O24  1  0.95534443  0.56784315  0.74228336  1.0
  O  O25  1  0.95534443  -0.06784315  0.24228336  1.0
  O  O26  1  0.04465557  1.06784315  0.75771664  1.0
  O  O27  1  0.04465557  0.43215685  0.25771664  1.0
  O  O28  1  0.92396429  0.35897560  0.97153505  1.0
  O  O29  1  0.92396429  0.14102440  0.47153505  1.0
  O  O30  1  0.07603571  0.85897560  0.52846495  1.0
  O  O31  1  0.07603571  0.64102440  0.02846495  1.0
  O  O32  1  0.87220141  0.76716156  0.93148347  1.0
  O  O33  1  0.87220141  0.73283844  0.43148347  1.0
  O  O34  1  0.12779859  0.26716156  0.56851653  1.0
  O  O35  1  0.12779859  0.23283844  0.06851653  1.0
  O  O36  1  0.73434035  0.90127774  0.67015531  1.0
  O  O37  1  0.73434035  0.59872226  0.17015531  1.0
  O  O38  1  0.26565965  0.40127774  0.82984469  1.0
  O  O39  1  0.26565965  0.09872226  0.32984469  1.0
  O  O40  1  0.60471835  1.00748339  0.81501455  1.0
  O  O41  1  0.60471835  0.49251661  0.31501455  1.0
  O  O42  1  0.39528165  0.50748339  0.68498545  1.0
  O  O43  1  0.39528165  -0.00748339  0.18498545  1.0
  O  O44  1  0.60074366  0.83182000  0.55639162  1.0
  O  O45  1  0.60074366  0.66818000  0.05639162  1.0
  O  O46  1  0.39925634  0.33182000  0.94360838  1.0
  O  O47  1  0.39925634  0.16818000  0.44360838  1.0
  O  O48  1  0.35373852  0.76642883  0.90268299  1.0
  O  O49  1  0.35373852  0.73357117  0.40268299  1.0
  O  O50  1  0.64626148  0.26642883  0.59731701  1.0
  O  O51  1  0.64626148  0.23357117  0.09731701  1.0
