# generated using pymatgen
data_La5(BN3)2
_symmetry_space_group_name_H-M   'P 1'
_cell_length_a   6.55471546
_cell_length_b   6.55471546
_cell_length_c   9.06790060
_cell_angle_alpha   75.08057479
_cell_angle_beta   104.91942521
_cell_angle_gamma   147.11309305
_symmetry_Int_Tables_number   1
_chemical_formula_structural   La5(BN3)2
_chemical_formula_sum   'La5 B2 N6'
_cell_volume   203.77941084
_cell_formula_units_Z   1
loop_
 _symmetry_equiv_pos_site_id
 _symmetry_equiv_pos_as_xyz
  1  'x, y, z'
loop_
 _atom_site_type_symbol
 _atom_site_label
 _atom_site_symmetry_multiplicity
 _atom_site_fract_x
 _atom_site_fract_y
 _atom_site_fract_z
 _atom_site_occupancy
  La  La0  1  0.69168651  0.30831349  0.31879983  1.0
  La  La1  1  0.30831349  -0.30831349  0.68120017  1.0
  La  La2  1  0.62479424  0.37520576  0.87462447  1.0
  La  La3  1  0.37520576  -0.37520576  0.12537553  1.0
  La  La4  1  0.00000000  -0.00000000  0.50000000  1.0
  B  B5  1  0.94532874  0.05467126  0.91095060  1.0
  B  B6  1  0.05467126  -0.05467126  0.08904940  1.0
  N  N7  1  0.97432505  0.02567495  0.76358582  1.0
  N  N8  1  0.02567495  -0.02567495  0.23641418  1.0
  N  N9  1  0.82904759  0.17095241  0.91727725  1.0
  N  N10  1  0.17095241  -0.17095241  0.08272275  1.0
  N  N11  1  0.65636649  0.34363351  0.57798143  1.0
  N  N12  1  0.34363351  -0.34363351  0.42201857  1.0
