# generated using pymatgen
data_Cs2CdI4
_symmetry_space_group_name_H-M   'P 1'
_cell_length_a   11.09983478
_cell_length_b   8.67761734
_cell_length_c   15.66479800
_cell_angle_alpha   90.00000000
_cell_angle_beta   90.00000000
_cell_angle_gamma   90.00000000
_symmetry_Int_Tables_number   1
_chemical_formula_structural   Cs2CdI4
_chemical_formula_sum   'Cs8 Cd4 I16'
_cell_volume   1508.83520398
_cell_formula_units_Z   4
loop_
 _symmetry_equiv_pos_site_id
 _symmetry_equiv_pos_as_xyz
  1  'x, y, z'
loop_
 _atom_site_type_symbol
 _atom_site_label
 _atom_site_symmetry_multiplicity
 _atom_site_fract_x
 _atom_site_fract_y
 _atom_site_fract_z
 _atom_site_occupancy
  Cs  Cs0  1  0.88700776  0.75000000  0.43317216  1.0
  Cs  Cs1  1  0.38700776  0.75000000  0.06682784  1.0
  Cs  Cs2  1  0.11299224  0.25000000  0.56682784  1.0
  Cs  Cs3  1  0.61299224  0.25000000  0.93317216  1.0
  Cs  Cs4  1  0.52204318  0.75000000  0.66866413  1.0
  Cs  Cs5  1  0.02204318  0.75000000  0.83133587  1.0
  Cs  Cs6  1  0.47795682  0.25000000  0.33133587  1.0
  Cs  Cs7  1  0.97795682  0.25000000  0.16866413  1.0
  Cd  Cd8  1  0.77703882  0.75000000  0.07371632  1.0
  Cd  Cd9  1  0.27703882  0.75000000  0.42628368  1.0
  Cd  Cd10  1  0.22296118  0.25000000  0.92628368  1.0
  Cd  Cd11  1  0.72296118  0.25000000  0.57371632  1.0
  I  I12  1  0.67071367  0.01166212  0.14961085  1.0
  I  I13  1  0.67071367  0.48833788  0.14961085  1.0
  I  I14  1  0.17071367  0.01166212  0.35038915  1.0
  I  I15  1  0.17071367  0.48833788  0.35038915  1.0
  I  I16  1  0.32928633  0.51166212  0.85038915  1.0
  I  I17  1  0.32928633  0.98833788  0.85038915  1.0
  I  I18  1  0.82928633  0.51166212  0.64961085  1.0
  I  I19  1  0.82928633  0.98833788  0.64961085  1.0
  I  I20  1  0.02841548  0.75000000  0.08624261  1.0
  I  I21  1  0.52841548  0.75000000  0.41375739  1.0
  I  I22  1  0.97158452  0.25000000  0.91375739  1.0
  I  I23  1  0.47158452  0.25000000  0.58624261  1.0
  I  I24  1  0.18700099  0.75000000  0.59629341  1.0
  I  I25  1  0.68700099  0.75000000  0.90370659  1.0
  I  I26  1  0.81299901  0.25000000  0.40370659  1.0
  I  I27  1  0.31299901  0.25000000  0.09629341  1.0
