# generated using pymatgen
data_CdP2
_symmetry_space_group_name_H-M   'P 1'
_cell_length_a   5.96532691
_cell_length_b   5.96532691
_cell_length_c   5.96532691
_cell_angle_alpha   98.19739235
_cell_angle_beta   98.19739235
_cell_angle_gamma   135.62945121
_symmetry_Int_Tables_number   1
_chemical_formula_structural   CdP2
_chemical_formula_sum   'Cd2 P4'
_cell_volume   137.45470408
_cell_formula_units_Z   2
loop_
 _symmetry_equiv_pos_site_id
 _symmetry_equiv_pos_as_xyz
  1  'x, y, z'
loop_
 _atom_site_type_symbol
 _atom_site_label
 _atom_site_symmetry_multiplicity
 _atom_site_fract_x
 _atom_site_fract_y
 _atom_site_fract_z
 _atom_site_occupancy
  Cd  Cd0  1  0.00000000  0.00000000  0.00000000  1.0
  Cd  Cd1  1  0.75000000  1.25000000  0.50000000  1.0
  P  P2  1  0.87500000  0.70180392  1.32680392  1.0
  P  P3  1  0.45180392  0.62500000  0.32680392  1.0
  P  P4  1  1.29819608  1.12500000  1.67319608  1.0
  P  P5  1  0.37500000  0.54819608  0.67319608  1.0
