# generated using pymatgen
data_La3PI3
_symmetry_space_group_name_H-M   'P 1'
_cell_length_a   10.87752422
_cell_length_b   10.87752422
_cell_length_c   10.87752422
_cell_angle_alpha   109.47122063
_cell_angle_beta   109.47122063
_cell_angle_gamma   109.47122063
_symmetry_Int_Tables_number   1
_chemical_formula_structural   La3PI3
_chemical_formula_sum   'La12 P4 I12'
_cell_volume   990.75959437
_cell_formula_units_Z   4
loop_
 _symmetry_equiv_pos_site_id
 _symmetry_equiv_pos_as_xyz
  1  'x, y, z'
loop_
 _atom_site_type_symbol
 _atom_site_label
 _atom_site_symmetry_multiplicity
 _atom_site_fract_x
 _atom_site_fract_y
 _atom_site_fract_z
 _atom_site_occupancy
  La  La0  1  1.75000000  1.23183315  1.26816685  1.0
  La  La1  1  0.75000000  1.01816685  0.48183315  1.0
  La  La2  1  1.03633371  0.26816685  1.01816685  1.0
  La  La3  1  0.46366629  0.48183315  0.23183315  1.0
  La  La4  1  1.26816685  1.01816685  1.03633371  1.0
  La  La5  1  1.23183315  1.26816685  0.75000000  1.0
  La  La6  1  1.01816685  1.03633371  0.26816685  1.0
  La  La7  1  1.48183315  0.75000000  1.01816685  1.0
  La  La8  1  1.01816685  1.48183315  0.75000000  1.0
  La  La9  1  1.48183315  1.23183315  1.46366629  1.0
  La  La10  1  0.23183315  0.46366629  0.48183315  1.0
  La  La11  1  1.26816685  0.75000000  1.23183315  1.0
  P  P12  1  1.50000000  1.00000000  1.25000000  1.0
  P  P13  1  1.00000000  1.25000000  0.50000000  1.0
  P  P14  1  0.25000000  0.25000000  0.25000000  1.0
  P  P15  1  1.25000000  0.50000000  1.00000000  1.0
  I  I16  1  0.51846978  0.50923489  0.75923489  1.0
  I  I17  1  0.98153022  0.74076511  0.99076511  1.0
  I  I18  1  1.25000000  0.75923489  0.74076511  1.0
  I  I19  1  1.25000000  0.99076511  0.50923489  1.0
  I  I20  1  0.99076511  1.50923489  1.25000000  1.0
  I  I21  1  1.50923489  1.75923489  1.51846978  1.0
  I  I22  1  0.74076511  0.25000000  0.75923489  1.0
  I  I23  1  0.75923489  0.51846978  0.50923489  1.0
  I  I24  1  0.99076511  0.98153022  0.74076511  1.0
  I  I25  1  1.50923489  1.25000000  0.99076511  1.0
  I  I26  1  0.75923489  0.74076511  0.25000000  1.0
  I  I27  1  1.74076511  0.99076511  0.98153022  1.0
