# generated using pymatgen
data_Hf2Ni
_symmetry_space_group_name_H-M   'P 1'
_cell_length_a   5.24102157
_cell_length_b   5.24102157
_cell_length_c   5.24102157
_cell_angle_alpha   104.43942135
_cell_angle_beta   104.43942135
_cell_angle_gamma   120.08521761
_symmetry_Int_Tables_number   1
_chemical_formula_structural   Hf2Ni
_chemical_formula_sum   'Hf4 Ni2'
_cell_volume   107.92494562
_cell_formula_units_Z   2
loop_
 _symmetry_equiv_pos_site_id
 _symmetry_equiv_pos_as_xyz
  1  'x, y, z'
loop_
 _atom_site_type_symbol
 _atom_site_label
 _atom_site_symmetry_multiplicity
 _atom_site_fract_x
 _atom_site_fract_y
 _atom_site_fract_z
 _atom_site_occupancy
  Hf  Hf0  1  0.83580451  0.33580451  1.17160903  1.0
  Hf  Hf1  1  0.66419549  0.83580451  0.50000000  1.0
  Hf  Hf2  1  1.33580451  1.16419549  1.50000000  1.0
  Hf  Hf3  1  0.16419549  0.66419549  0.82839097  1.0
  Ni  Ni4  1  0.25000000  0.25000000  0.00000000  1.0
  Ni  Ni5  1  0.75000000  0.75000000  0.00000000  1.0
