# generated using pymatgen
data_WO2
_symmetry_space_group_name_H-M   'P 1'
_cell_length_a   5.00184740
_cell_length_b   5.00184740
_cell_length_c   2.70549844
_cell_angle_alpha   90.00000000
_cell_angle_beta   90.00000000
_cell_angle_gamma   90.00000000
_symmetry_Int_Tables_number   1
_chemical_formula_structural   WO2
_chemical_formula_sum   'W2 O4'
_cell_volume   67.68745145
_cell_formula_units_Z   2
loop_
 _symmetry_equiv_pos_site_id
 _symmetry_equiv_pos_as_xyz
  1  'x, y, z'
loop_
 _atom_site_type_symbol
 _atom_site_label
 _atom_site_symmetry_multiplicity
 _atom_site_fract_x
 _atom_site_fract_y
 _atom_site_fract_z
 _atom_site_occupancy
  W  W0  1  0.50000000  0.50000000  0.50000000  1.0
  W  W1  1  0.00000000  0.00000000  0.00000000  1.0
  O  O2  1  0.21964786  0.78035214  0.50000000  1.0
  O  O3  1  0.71964786  0.71964786  0.00000000  1.0
  O  O4  1  0.78035214  0.21964786  0.50000000  1.0
  O  O5  1  0.28035214  0.28035214  0.00000000  1.0
