# generated using pymatgen
data_Ca5P3CO12
_symmetry_space_group_name_H-M   'P 1'
_cell_length_a   9.76708788
_cell_length_b   9.76708788
_cell_length_c   6.82667741
_cell_angle_alpha   90.00000000
_cell_angle_beta   90.00000000
_cell_angle_gamma   120.00000000
_symmetry_Int_Tables_number   1
_chemical_formula_structural   Ca5P3CO12
_chemical_formula_sum   'Ca10 P6 C2 O24'
_cell_volume   563.98844196
_cell_formula_units_Z   2
loop_
 _symmetry_equiv_pos_site_id
 _symmetry_equiv_pos_as_xyz
  1  'x, y, z'
loop_
 _atom_site_type_symbol
 _atom_site_label
 _atom_site_symmetry_multiplicity
 _atom_site_fract_x
 _atom_site_fract_y
 _atom_site_fract_z
 _atom_site_occupancy
  Ca  Ca0  1  -0.01227942  0.73387040  0.25000000  1.0
  Ca  Ca1  1  0.73387040  0.74614983  0.75000000  1.0
  Ca  Ca2  1  0.74614983  1.01227942  0.25000000  1.0
  Ca  Ca3  1  0.26612960  0.25385017  0.25000000  1.0
  Ca  Ca4  1  1.01227942  0.26612960  0.75000000  1.0
  Ca  Ca5  1  0.25385017  -0.01227942  0.75000000  1.0
  Ca  Ca6  1  0.33333333  0.66666667  0.49659538  1.0
  Ca  Ca7  1  0.33333333  0.66666667  0.00340462  1.0
  Ca  Ca8  1  0.66666667  0.33333333  0.99659538  1.0
  Ca  Ca9  1  0.66666667  0.33333333  0.50340462  1.0
  P  P10  1  0.62664401  0.59497396  0.25000000  1.0
  P  P11  1  0.59497396  0.96832995  0.75000000  1.0
  P  P12  1  0.96832995  0.37335599  0.25000000  1.0
  P  P13  1  0.40502604  0.03167005  0.25000000  1.0
  P  P14  1  0.37335599  0.40502604  0.75000000  1.0
  P  P15  1  0.03167005  0.62664401  0.75000000  1.0
  C  C16  1  -0.00000000  0.00000000  0.25000000  1.0
  C  C17  1  0.00000000  0.00000000  0.75000000  1.0
  O  O18  1  0.73596558  0.65190832  0.43395026  1.0
  O  O19  1  0.73596558  0.65190832  0.06604974  1.0
  O  O20  1  0.65190832  0.91594274  0.93395026  1.0
  O  O21  1  0.65190832  0.91594274  0.56604974  1.0
  O  O22  1  0.91594274  0.26403442  0.43395026  1.0
  O  O23  1  0.91594274  0.26403442  0.06604974  1.0
  O  O24  1  0.34809168  0.08405726  0.43395026  1.0
  O  O25  1  0.34809168  0.08405726  0.06604974  1.0
  O  O26  1  0.26403442  0.34809168  0.93395026  1.0
  O  O27  1  0.26403442  0.34809168  0.56604974  1.0
  O  O28  1  0.08405726  0.73596558  0.93395026  1.0
  O  O29  1  0.08405726  0.73596558  0.56604974  1.0
  O  O30  1  0.34741385  0.85182304  0.25000000  1.0
  O  O31  1  0.85182304  0.50440919  0.75000000  1.0
  O  O32  1  0.50440919  0.65258615  0.25000000  1.0
  O  O33  1  0.14817696  0.49559081  0.25000000  1.0
  O  O34  1  0.65258615  0.14817696  0.75000000  1.0
  O  O35  1  0.49559081  0.34741385  0.75000000  1.0
  O  O36  1  0.53991183  0.40894460  0.25000000  1.0
  O  O37  1  0.40894460  0.86903277  0.75000000  1.0
  O  O38  1  0.86903277  0.46008817  0.25000000  1.0
  O  O39  1  0.59105540  0.13096723  0.25000000  1.0
  O  O40  1  0.46008817  0.59105540  0.75000000  1.0
  O  O41  1  0.13096723  0.53991183  0.75000000  1.0
