# generated using pymatgen
data_CN
_symmetry_space_group_name_H-M   'P 1'
_cell_length_a   3.94717897
_cell_length_b   5.32854267
_cell_length_c   2.37195611
_cell_angle_alpha   90.00000000
_cell_angle_beta   90.00000000
_cell_angle_gamma   90.00000000
_symmetry_Int_Tables_number   1
_chemical_formula_structural   CN
_chemical_formula_sum   'C4 N4'
_cell_volume   49.88866858
_cell_formula_units_Z   4
loop_
 _symmetry_equiv_pos_site_id
 _symmetry_equiv_pos_as_xyz
  1  'x, y, z'
loop_
 _atom_site_type_symbol
 _atom_site_label
 _atom_site_symmetry_multiplicity
 _atom_site_fract_x
 _atom_site_fract_y
 _atom_site_fract_z
 _atom_site_occupancy
  C  C0  1  0.04849607  0.14624848  0.00000000  1.0
  C  C1  1  0.95150393  0.85375152  0.00000000  1.0
  C  C2  1  0.45150393  0.64624848  0.50000000  1.0
  C  C3  1  0.54849607  0.35375152  0.50000000  1.0
  N  N4  1  0.25845123  0.69251872  0.00000000  1.0
  N  N5  1  0.74154877  0.30748128  0.00000000  1.0
  N  N6  1  0.24154877  0.19251872  0.50000000  1.0
  N  N7  1  0.75845123  0.80748128  0.50000000  1.0
