# generated using pymatgen
data_Ca2ZnN2
_symmetry_space_group_name_H-M   'P 1'
_cell_length_a   6.78706403
_cell_length_b   6.78706403
_cell_length_c   6.78706403
_cell_angle_alpha   149.31181271
_cell_angle_beta   149.31181271
_cell_angle_gamma   43.95253485
_symmetry_Int_Tables_number   1
_chemical_formula_structural   Ca2ZnN2
_chemical_formula_sum   'Ca2 Zn1 N2'
_cell_volume   81.20338784
_cell_formula_units_Z   1
loop_
 _symmetry_equiv_pos_site_id
 _symmetry_equiv_pos_as_xyz
  1  'x, y, z'
loop_
 _atom_site_type_symbol
 _atom_site_label
 _atom_site_symmetry_multiplicity
 _atom_site_fract_x
 _atom_site_fract_y
 _atom_site_fract_z
 _atom_site_occupancy
  Ca  Ca0  1  0.66343965  0.66343965  1.00000000  1.0
  Ca  Ca1  1  0.33656035  0.33656035  -0.00000000  1.0
  Zn  Zn2  1  0.00000000  0.00000000  0.00000000  1.0
  N  N3  1  0.85376997  0.85376997  1.00000000  1.0
  N  N4  1  0.14623003  0.14623003  -0.00000000  1.0
