# generated using pymatgen
data_Mn2FeC
_symmetry_space_group_name_H-M   'P 1'
_cell_length_a   4.96666606
_cell_length_b   6.63119526
_cell_length_c   4.41767945
_cell_angle_alpha   90.00000000
_cell_angle_beta   90.00000000
_cell_angle_gamma   90.00000000
_symmetry_Int_Tables_number   1
_chemical_formula_structural   Mn2FeC
_chemical_formula_sum   'Mn8 Fe4 C4'
_cell_volume   145.49597418
_cell_formula_units_Z   4
loop_
 _symmetry_equiv_pos_site_id
 _symmetry_equiv_pos_as_xyz
  1  'x, y, z'
loop_
 _atom_site_type_symbol
 _atom_site_label
 _atom_site_symmetry_multiplicity
 _atom_site_fract_x
 _atom_site_fract_y
 _atom_site_fract_z
 _atom_site_occupancy
  Mn  Mn0  1  0.68517592  0.06618139  0.15670287  1.0
  Mn  Mn1  1  0.18517592  0.43381861  0.34329713  1.0
  Mn  Mn2  1  0.31482408  0.56618139  0.84329713  1.0
  Mn  Mn3  1  0.81482408  0.93381861  0.65670287  1.0
  Mn  Mn4  1  0.31482408  0.93381861  0.84329713  1.0
  Mn  Mn5  1  0.81482408  0.56618139  0.65670287  1.0
  Mn  Mn6  1  0.68517592  0.43381861  0.15670287  1.0
  Mn  Mn7  1  0.18517592  0.06618139  0.34329713  1.0
  Fe  Fe8  1  0.53180696  0.25000000  0.65500579  1.0
  Fe  Fe9  1  0.03180696  0.25000000  0.84499421  1.0
  Fe  Fe10  1  0.46819304  0.75000000  0.34499421  1.0
  Fe  Fe11  1  0.96819304  0.75000000  0.15500579  1.0
  C  C12  1  0.87824822  0.25000000  0.44093062  1.0
  C  C13  1  0.37824822  0.25000000  0.05906938  1.0
  C  C14  1  0.12175178  0.75000000  0.55906938  1.0
  C  C15  1  0.62175178  0.75000000  0.94093062  1.0
