# generated using pymatgen
data_PH15C3SN6
_symmetry_space_group_name_H-M   'P 1'
_cell_length_a   9.26196393
_cell_length_b   9.26196393
_cell_length_c   7.76837614
_cell_angle_alpha   90.00000000
_cell_angle_beta   90.00000000
_cell_angle_gamma   120.00000000
_symmetry_Int_Tables_number   1
_chemical_formula_structural   PH15C3SN6
_chemical_formula_sum   'P2 H30 C6 S2 N12'
_cell_volume   577.12122716
_cell_formula_units_Z   2
loop_
 _symmetry_equiv_pos_site_id
 _symmetry_equiv_pos_as_xyz
  1  'x, y, z'
loop_
 _atom_site_type_symbol
 _atom_site_label
 _atom_site_symmetry_multiplicity
 _atom_site_fract_x
 _atom_site_fract_y
 _atom_site_fract_z
 _atom_site_occupancy
  P  P0  1  0.66666667  0.33333333  0.66721507  1.0
  P  P1  1  0.33333333  0.66666667  0.16721507  1.0
  H  H2  1  0.71199840  0.97000935  0.61868378  1.0
  H  H3  1  0.25801094  0.28800160  0.61868378  1.0
  H  H4  1  0.02999065  0.74198906  0.61868378  1.0
  H  H5  1  0.28800160  0.02999065  0.11868378  1.0
  H  H6  1  0.74198906  0.71199840  0.11868378  1.0
  H  H7  1  0.97000935  0.25801094  0.11868378  1.0
  H  H8  1  0.80965501  0.13973358  0.76630977  1.0
  H  H9  1  0.33007857  0.19034499  0.76630977  1.0
  H  H10  1  0.86026642  0.66992143  0.76630977  1.0
  H  H11  1  0.19034499  0.86026642  0.26630977  1.0
  H  H12  1  0.66992143  0.80965501  0.26630977  1.0
  H  H13  1  0.13973358  0.33007857  0.26630977  1.0
  H  H14  1  0.88173550  0.16698747  0.54761730  1.0
  H  H15  1  0.28525197  0.11826450  0.54761730  1.0
  H  H16  1  0.83301253  0.71474803  0.54761730  1.0
  H  H17  1  0.11826450  0.83301253  0.04761730  1.0
  H  H18  1  0.71474803  0.88173550  0.04761730  1.0
  H  H19  1  0.16698747  0.28525197  0.04761730  1.0
  H  H20  1  0.67893834  0.16688860  0.33043721  1.0
  H  H21  1  0.48795026  0.32106166  0.33043721  1.0
  H  H22  1  0.83311140  0.51204974  0.33043721  1.0
  H  H23  1  0.32106166  0.83311140  0.83043721  1.0
  H  H24  1  0.51204974  0.67893834  0.83043721  1.0
  H  H25  1  0.16688860  0.48795026  0.83043721  1.0
  H  H26  1  0.51558429  -0.00979977  0.40576008  1.0
  H  H27  1  0.47461595  0.48441571  0.40576008  1.0
  H  H28  1  1.00979977  0.52538405  0.40576008  1.0
  H  H29  1  0.48441571  1.00979977  0.90576008  1.0
  H  H30  1  0.52538405  0.51558429  0.90576008  1.0
  H  H31  1  -0.00979977  0.47461595  0.90576008  1.0
  C  C32  1  0.77098304  0.10611195  0.63182924  1.0
  C  C33  1  0.33512891  0.22901696  0.63182924  1.0
  C  C34  1  0.89388805  0.66487109  0.63182924  1.0
  C  C35  1  0.22901696  0.89388805  0.13182924  1.0
  C  C36  1  0.66487109  0.77098304  0.13182924  1.0
  C  C37  1  0.10611195  0.33512891  0.13182924  1.0
  S  S38  1  0.66666667  0.33333333  0.92192968  1.0
  S  S39  1  0.33333333  0.66666667  0.42192968  1.0
  N  N40  1  0.58281207  0.11767722  0.41767365  1.0
  N  N41  1  0.53486514  0.41718793  0.41767365  1.0
  N  N42  1  0.88232278  0.46513486  0.41767365  1.0
  N  N43  1  0.41718793  0.88232278  0.91767365  1.0
  N  N44  1  0.46513486  0.58281207  0.91767365  1.0
  N  N45  1  0.11767722  0.53486514  0.91767365  1.0
  N  N46  1  0.64934271  0.15647148  0.58680739  1.0
  N  N47  1  0.50712878  0.35065729  0.58680739  1.0
  N  N48  1  0.84352852  0.49287122  0.58680739  1.0
  N  N49  1  0.35065729  0.84352852  0.08680739  1.0
  N  N50  1  0.49287122  0.64934271  0.08680739  1.0
  N  N51  1  0.15647148  0.50712878  0.08680739  1.0
