# generated using pymatgen
data_ZnWO4
_symmetry_space_group_name_H-M   'P 1'
_cell_length_a   8.16445570
_cell_length_b   8.16445570
_cell_length_c   5.08754603
_cell_angle_alpha   90.00000000
_cell_angle_beta   90.00000000
_cell_angle_gamma   126.72315767
_symmetry_Int_Tables_number   1
_chemical_formula_structural   ZnWO4
_chemical_formula_sum   'Zn4 W4 O16'
_cell_volume   271.82211791
_cell_formula_units_Z   4
loop_
 _symmetry_equiv_pos_site_id
 _symmetry_equiv_pos_as_xyz
  1  'x, y, z'
loop_
 _atom_site_type_symbol
 _atom_site_label
 _atom_site_symmetry_multiplicity
 _atom_site_fract_x
 _atom_site_fract_y
 _atom_site_fract_z
 _atom_site_occupancy
  Zn  Zn0  1  0.04993385  1.45006615  0.75000000  1.0
  Zn  Zn1  1  0.45006615  1.04993385  0.25000000  1.0
  Zn  Zn2  1  -0.04993385  0.54993385  0.25000000  1.0
  Zn  Zn3  1  -0.45006615  0.95006615  0.75000000  1.0
  W  W4  1  -0.09041201  1.09041201  0.33389689  1.0
  W  W5  1  0.09041201  0.90958799  0.66610311  1.0
  W  W6  1  -0.40958799  1.40958799  0.83389689  1.0
  W  W7  1  0.40958799  0.59041201  0.16610311  1.0
  O  O8  1  0.40923818  1.09076182  0.75000000  1.0
  O  O9  1  0.09076182  1.40923818  0.25000000  1.0
  O  O10  1  -0.40923818  0.90923818  0.25000000  1.0
  O  O11  1  -0.09076182  0.59076182  0.75000000  1.0
  O  O12  1  -0.19037216  1.19037216  0.58323880  1.0
  O  O13  1  0.19037216  0.80962784  0.41676120  1.0
  O  O14  1  -0.30962784  1.30962784  0.08323880  1.0
  O  O15  1  0.30962784  0.69037216  0.91676120  1.0
  O  O16  1  0.34060981  1.34060981  0.00000000  1.0
  O  O17  1  -0.15939019  0.84060981  0.50000000  1.0
  O  O18  1  -0.34060981  0.65939019  0.00000000  1.0
  O  O19  1  0.15939019  1.15939019  0.50000000  1.0
  O  O20  1  -0.08538567  1.08538567  0.99240907  1.0
  O  O21  1  0.08538567  0.91461433  0.00759093  1.0
  O  O22  1  -0.41461433  1.41461433  0.49240907  1.0
  O  O23  1  0.41461433  0.58538567  0.50759093  1.0
