# generated using pymatgen
data_Lu5Re2C7
_symmetry_space_group_name_H-M   'P 1'
_cell_length_a   8.14018896
_cell_length_b   8.14018896
_cell_length_c   3.33911704
_cell_angle_alpha   90.00000000
_cell_angle_beta   90.00000000
_cell_angle_gamma   121.67273757
_symmetry_Int_Tables_number   1
_chemical_formula_structural   Lu5Re2C7
_chemical_formula_sum   'Lu5 Re2 C7'
_cell_volume   188.30477192
_cell_formula_units_Z   1
loop_
 _symmetry_equiv_pos_site_id
 _symmetry_equiv_pos_as_xyz
  1  'x, y, z'
loop_
 _atom_site_type_symbol
 _atom_site_label
 _atom_site_symmetry_multiplicity
 _atom_site_fract_x
 _atom_site_fract_y
 _atom_site_fract_z
 _atom_site_occupancy
  Lu  Lu0  1  -0.07822793  0.66314273  0.50000000  1.0
  Lu  Lu1  1  0.66314273  0.92177207  0.50000000  1.0
  Lu  Lu2  1  0.33685727  1.07822793  0.50000000  1.0
  Lu  Lu3  1  0.07822793  0.33685727  0.50000000  1.0
  Lu  Lu4  1  0.50000000  0.50000000  0.00000000  1.0
  Re  Re5  1  0.28425199  0.71574801  0.00000000  1.0
  Re  Re6  1  -0.28425199  0.28425199  0.00000000  1.0
  C  C7  1  0.37692716  0.62307284  0.50000000  1.0
  C  C8  1  -0.37692716  0.37692716  0.50000000  1.0
  C  C9  1  0.82894170  0.82894170  0.00000000  1.0
  C  C10  1  0.17105830  0.17105830  0.00000000  1.0
  C  C11  1  0.00000000  0.50000000  0.00000000  1.0
  C  C12  1  0.50000000  1.00000000  0.00000000  1.0
  C  C13  1  0.00000000  0.00000000  0.00000000  1.0
