# generated using pymatgen
data_NaLaMgWO6
_symmetry_space_group_name_H-M   'P 1'
_cell_length_a   5.57406415
_cell_length_b   5.57407640
_cell_length_c   8.00754611
_cell_angle_alpha   90.00000000
_cell_angle_beta   90.00112480
_cell_angle_gamma   90.00000000
_symmetry_Int_Tables_number   1
_chemical_formula_structural   NaLaMgWO6
_chemical_formula_sum   'Na2 La2 Mg2 W2 O12'
_cell_volume   248.79653533
_cell_formula_units_Z   2
loop_
 _symmetry_equiv_pos_site_id
 _symmetry_equiv_pos_as_xyz
  1  'x, y, z'
loop_
 _atom_site_type_symbol
 _atom_site_label
 _atom_site_symmetry_multiplicity
 _atom_site_fract_x
 _atom_site_fract_y
 _atom_site_fract_z
 _atom_site_occupancy
  Na  Na0  1  0.24999235  0.75000000  0.50000099  1.0
  Na  Na1  1  0.75000765  0.25000000  0.49999901  1.0
  La  La2  1  0.24999473  0.75000000  0.00000001  1.0
  La  La3  1  0.75000527  0.25000000  -0.00000001  1.0
  Mg  Mg4  1  0.75000405  0.75000000  0.25399178  1.0
  Mg  Mg5  1  0.24999595  0.25000000  0.74600822  1.0
  W  W6  1  0.74999253  0.75000000  0.74072696  1.0
  W  W7  1  0.25000747  0.25000000  0.25927304  1.0
  O  O8  1  -0.00765522  0.50765964  0.76895497  1.0
  O  O9  1  -0.00765522  -0.00765964  0.76895497  1.0
  O  O10  1  0.00765522  0.00765964  0.23104503  1.0
  O  O11  1  0.00765522  0.49234036  0.23104503  1.0
  O  O12  1  0.50765774  -0.00765443  0.76892054  1.0
  O  O13  1  0.50765774  0.50765443  0.76892054  1.0
  O  O14  1  0.49234226  0.49234557  0.23107946  1.0
  O  O15  1  0.49234226  0.00765443  0.23107946  1.0
  O  O16  1  0.75002525  0.75000000  0.51008789  1.0
  O  O17  1  0.24997475  0.25000000  0.48991211  1.0
  O  O18  1  0.74997136  0.75000000  -0.00402437  1.0
  O  O19  1  0.25002864  0.25000000  0.00402437  1.0
