# generated using pymatgen
data_GdMgIn
_symmetry_space_group_name_H-M   'P 1'
_cell_length_a   7.60555463
_cell_length_b   7.60555463
_cell_length_c   4.71765021
_cell_angle_alpha   90.00000000
_cell_angle_beta   90.00000000
_cell_angle_gamma   120.00000000
_symmetry_Int_Tables_number   1
_chemical_formula_structural   GdMgIn
_chemical_formula_sum   'Gd3 Mg3 In3'
_cell_volume   236.32961607
_cell_formula_units_Z   3
loop_
 _symmetry_equiv_pos_site_id
 _symmetry_equiv_pos_as_xyz
  1  'x, y, z'
loop_
 _atom_site_type_symbol
 _atom_site_label
 _atom_site_symmetry_multiplicity
 _atom_site_fract_x
 _atom_site_fract_y
 _atom_site_fract_z
 _atom_site_occupancy
  Gd  Gd0  1  0.43319891  0.43319891  0.00000000  1.0
  Gd  Gd1  1  -0.00000000  0.56680109  0.00000000  1.0
  Gd  Gd2  1  0.56680109  0.00000000  0.00000000  1.0
  Mg  Mg3  1  0.75835417  0.75835417  0.50000000  1.0
  Mg  Mg4  1  -0.00000000  0.24164583  0.50000000  1.0
  Mg  Mg5  1  0.24164583  0.00000000  0.50000000  1.0
  In  In6  1  0.33333333  0.66666667  0.50000000  1.0
  In  In7  1  0.66666667  0.33333333  0.50000000  1.0
  In  In8  1  0.00000000  0.00000000  0.00000000  1.0
