# generated using pymatgen
data_NiH12S2(NO5)2
_symmetry_space_group_name_H-M   'P 1'
_cell_length_a   6.63536422
_cell_length_b   6.82506265
_cell_length_c   6.60897453
_cell_angle_alpha   113.24785503
_cell_angle_beta   110.55341154
_cell_angle_gamma   89.62802078
_symmetry_Int_Tables_number   1
_chemical_formula_structural   NiH12S2(NO5)2
_chemical_formula_sum   'Ni1 H12 S2 N2 O10'
_cell_volume   254.44022105
_cell_formula_units_Z   1
loop_
 _symmetry_equiv_pos_site_id
 _symmetry_equiv_pos_as_xyz
  1  'x, y, z'
loop_
 _atom_site_type_symbol
 _atom_site_label
 _atom_site_symmetry_multiplicity
 _atom_site_fract_x
 _atom_site_fract_y
 _atom_site_fract_z
 _atom_site_occupancy
  Ni  Ni0  1  0.00000000  0.00000000  0.00000000  1.0
  H  H1  1  0.70504360  0.17103215  -0.82277773  1.0
  H  H2  1  0.29495640  0.82896785  -0.17722227  1.0
  H  H3  1  0.71495448  0.95314308  -0.79214892  1.0
  H  H4  1  0.28504552  0.04685692  -0.20785108  1.0
  H  H5  1  0.29956331  0.81874491  -0.76523888  1.0
  H  H6  1  0.70043669  0.18125509  -0.23476112  1.0
  H  H7  1  0.07124786  0.75937248  -0.75926936  1.0
  H  H8  1  0.92875214  0.24062752  -0.24073064  1.0
  H  H9  1  0.90615340  0.59511189  -0.27669942  1.0
  H  H10  1  0.09384660  0.40488811  -0.72330058  1.0
  H  H11  1  0.66966070  0.67874117  -0.27582054  1.0
  H  H12  1  0.33033930  0.32125883  -0.72417946  1.0
  S  S13  1  0.73230350  0.64978807  -0.59890421  1.0
  S  S14  1  0.26769650  0.35021193  -0.40109579  1.0
  N  N15  1  0.80922510  0.70946369  -0.30165007  1.0
  N  N16  1  0.19077490  0.29053631  -0.69834993  1.0
  O  O17  1  0.74287616  0.02477613  -0.88508077  1.0
  O  O18  1  0.25712384  0.97522387  -0.11491923  1.0
  O  O19  1  0.14122273  0.78829393  -0.85635163  1.0
  O  O20  1  0.85877727  0.21170607  -0.14364837  1.0
  O  O21  1  0.60271511  0.43198107  -0.72874737  1.0
  O  O22  1  0.39728489  0.56801893  -0.27125263  1.0
  O  O23  1  0.94051316  0.65828957  -0.62986993  1.0
  O  O24  1  0.05948684  0.34171043  -0.37013007  1.0
  O  O25  1  0.60719560  0.81947617  -0.63734654  1.0
  O  O26  1  0.39280440  0.18052383  -0.36265346  1.0
