# generated using pymatgen
data_Rb2SbF5
_symmetry_space_group_name_H-M   'P 1'
_cell_length_a   8.01857213
_cell_length_b   8.01857213
_cell_length_c   6.89570677
_cell_angle_alpha   90.00000000
_cell_angle_beta   90.00000000
_cell_angle_gamma   131.36475975
_symmetry_Int_Tables_number   1
_chemical_formula_structural   Rb2SbF5
_chemical_formula_sum   'Rb4 Sb2 F10'
_cell_volume   332.76204876
_cell_formula_units_Z   2
loop_
 _symmetry_equiv_pos_site_id
 _symmetry_equiv_pos_as_xyz
  1  'x, y, z'
loop_
 _atom_site_type_symbol
 _atom_site_label
 _atom_site_symmetry_multiplicity
 _atom_site_fract_x
 _atom_site_fract_y
 _atom_site_fract_z
 _atom_site_occupancy
  Rb  Rb0  1  -0.56856305  0.56856305  0.25000000  1.0
  Rb  Rb1  1  -0.43143695  1.43143695  0.75000000  1.0
  Rb  Rb2  1  -0.24644069  1.24644069  0.25000000  1.0
  Rb  Rb3  1  -0.75355931  0.75355931  0.75000000  1.0
  Sb  Sb4  1  -0.90458802  0.90458802  0.25000000  1.0
  Sb  Sb5  1  -0.09541198  1.09541198  0.75000000  1.0
  F  F6  1  -0.10914541  1.65239213  0.46254503  1.0
  F  F7  1  -0.10914541  1.65239213  0.03745497  1.0
  F  F8  1  -0.34760787  0.89085459  0.96254503  1.0
  F  F9  1  -0.34760787  0.89085459  0.53745497  1.0
  F  F10  1  -0.65239213  1.10914541  0.46254503  1.0
  F  F11  1  -0.65239213  1.10914541  0.03745497  1.0
  F  F12  1  0.10914541  1.34760787  0.96254503  1.0
  F  F13  1  0.10914541  1.34760787  0.53745497  1.0
  F  F14  1  -0.76787110  0.76787110  0.25000000  1.0
  F  F15  1  -0.23212890  1.23212890  0.75000000  1.0
