# generated using pymatgen
data_Te3SeO8
_symmetry_space_group_name_H-M   'P 1'
_cell_length_a   11.95630747
_cell_length_b   6.98537300
_cell_length_c   5.08603886
_cell_angle_alpha   69.09719623
_cell_angle_beta   77.74397060
_cell_angle_gamma   77.16612003
_symmetry_Int_Tables_number   1
_chemical_formula_structural   Te3SeO8
_chemical_formula_sum   'Te6 Se2 O16'
_cell_volume   382.76381011
_cell_formula_units_Z   2
loop_
 _symmetry_equiv_pos_site_id
 _symmetry_equiv_pos_as_xyz
  1  'x, y, z'
loop_
 _atom_site_type_symbol
 _atom_site_label
 _atom_site_symmetry_multiplicity
 _atom_site_fract_x
 _atom_site_fract_y
 _atom_site_fract_z
 _atom_site_occupancy
  Te  Te0  1  -0.69504007  -0.53272849  -0.89777225  1.0
  Te  Te1  1  -0.30495993  -0.46727151  -0.10222775  1.0
  Te  Te2  1  -0.93246458  -0.25636081  -0.49931437  1.0
  Te  Te3  1  -0.06753542  -0.74363919  -0.50068563  1.0
  Te  Te4  1  -0.80250807  -0.86554566  -0.14563779  1.0
  Te  Te5  1  -0.19749193  -0.13445434  -0.85436221  1.0
  Se  Se6  1  -0.40178026  -0.82777488  -0.34296740  1.0
  Se  Se7  1  -0.59821974  -0.17222512  -0.65703260  1.0
  O  O8  1  -0.93917070  -0.95995654  -0.74596085  1.0
  O  O9  1  -0.06082930  -0.04004346  -0.25403915  1.0
  O  O10  1  -0.83056164  -0.62658430  -1.00330926  1.0
  O  O11  1  -0.16943836  -0.37341570  0.00330926  1.0
  O  O12  1  -0.64588287  -0.94709870  -0.92919473  1.0
  O  O13  1  -0.35411713  -0.05290130  -0.07080527  1.0
  O  O14  1  -0.82212270  -0.30482515  -0.84784977  1.0
  O  O15  1  -0.17787730  -0.69517485  -0.15215023  1.0
  O  O16  1  -0.57235475  -0.36159638  -0.81901335  1.0
  O  O17  1  -0.42764525  -0.63840362  -0.18098665  1.0
  O  O18  1  -0.27903462  -0.77905701  -0.58641433  1.0
  O  O19  1  -0.72096538  -0.22094299  -0.41358567  1.0
  O  O20  1  -0.69057921  -0.71342799  -0.49734969  1.0
  O  O21  1  -0.30942079  -0.28657201  -0.50265031  1.0
  O  O22  1  -0.93870011  -0.68357261  -0.36769173  1.0
  O  O23  1  -0.06129989  -0.31642739  -0.63230827  1.0
