# generated using pymatgen
data_I(NO3)2
_symmetry_space_group_name_H-M   'P 1'
_cell_length_a   6.94207577
_cell_length_b   6.94207577
_cell_length_c   6.94207577
_cell_angle_alpha   44.28285938
_cell_angle_beta   44.28285938
_cell_angle_gamma   44.28285938
_symmetry_Int_Tables_number   1
_chemical_formula_structural   I(NO3)2
_chemical_formula_sum   'I1 N2 O6'
_cell_volume   148.21801568
_cell_formula_units_Z   1
loop_
 _symmetry_equiv_pos_site_id
 _symmetry_equiv_pos_as_xyz
  1  'x, y, z'
loop_
 _atom_site_type_symbol
 _atom_site_label
 _atom_site_symmetry_multiplicity
 _atom_site_fract_x
 _atom_site_fract_y
 _atom_site_fract_z
 _atom_site_occupancy
  I  I0  1  0.00000000  0.00000000  -0.00000000  1.0
  N  N1  1  0.59309501  0.59309501  -0.40690499  1.0
  N  N2  1  0.40690499  0.40690499  -0.59309501  1.0
  O  O3  1  0.87245545  -0.54567069  0.45444559  1.0
  O  O4  1  0.54567069  -0.45444559  0.12754455  1.0
  O  O5  1  0.54555441  0.12754455  -0.45432931  1.0
  O  O6  1  1.12754455  -0.45432931  -0.45444559  1.0
  O  O7  1  0.45432931  0.45444559  -0.12754455  1.0
  O  O8  1  1.45444559  -0.12754455  -0.54567069  1.0
