# generated using pymatgen
data_H2Pd(S2O7)2
_symmetry_space_group_name_H-M   'P 1'
_cell_length_a   9.44844490
_cell_length_b   7.00133267
_cell_length_c   9.55694990
_cell_angle_alpha   90.00000000
_cell_angle_beta   116.25039428
_cell_angle_gamma   90.00000000
_symmetry_Int_Tables_number   1
_chemical_formula_structural   H2Pd(S2O7)2
_chemical_formula_sum   'H4 Pd2 S8 O28'
_cell_volume   567.00868188
_cell_formula_units_Z   2
loop_
 _symmetry_equiv_pos_site_id
 _symmetry_equiv_pos_as_xyz
  1  'x, y, z'
loop_
 _atom_site_type_symbol
 _atom_site_label
 _atom_site_symmetry_multiplicity
 _atom_site_fract_x
 _atom_site_fract_y
 _atom_site_fract_z
 _atom_site_occupancy
  H  H0  1  0.47678465  0.71356609  0.05823649  1.0
  H  H1  1  0.52321535  0.21356609  0.44176351  1.0
  H  H2  1  0.52321535  0.28643391  0.94176351  1.0
  H  H3  1  0.47678465  0.78643391  0.55823649  1.0
  Pd  Pd4  1  0.00000000  0.00000000  0.00000000  1.0
  Pd  Pd5  1  -0.00000000  0.50000000  0.50000000  1.0
  S  S6  1  0.19535222  0.32862757  0.87645568  1.0
  S  S7  1  0.80464778  0.82862757  0.62354432  1.0
  S  S8  1  0.80464778  0.67137243  0.12354432  1.0
  S  S9  1  0.19535222  0.17137243  0.37645568  1.0
  S  S10  1  0.27736118  0.64256976  0.10071723  1.0
  S  S11  1  0.72263882  0.14256976  0.39928277  1.0
  S  S12  1  0.72263882  0.35743024  0.89928277  1.0
  S  S13  1  0.27736118  0.85743024  0.60071723  1.0
  O  O14  1  0.19040231  0.16383143  0.96904756  1.0
  O  O15  1  0.80959769  0.66383143  0.53095244  1.0
  O  O16  1  0.80959769  0.83616857  0.03095244  1.0
  O  O17  1  0.19040231  0.33616857  0.46904756  1.0
  O  O18  1  0.35075923  0.37075007  0.88829761  1.0
  O  O19  1  0.64924077  0.87075007  0.61170239  1.0
  O  O20  1  0.64924077  0.62924993  0.11170239  1.0
  O  O21  1  0.35075923  0.12924993  0.38829761  1.0
  O  O22  1  0.06364279  0.33240663  0.71951368  1.0
  O  O23  1  0.93635721  0.83240663  0.78048632  1.0
  O  O24  1  0.93635721  0.66759337  0.28048632  1.0
  O  O25  1  0.06364279  0.16759337  0.21951368  1.0
  O  O26  1  0.36465241  0.76019486  0.02585100  1.0
  O  O27  1  0.63534759  0.26019486  0.47414900  1.0
  O  O28  1  0.63534759  0.23980514  0.97414900  1.0
  O  O29  1  0.36465241  0.73980514  0.52585100  1.0
  O  O30  1  0.37973161  0.51901160  0.22304456  1.0
  O  O31  1  0.62026839  0.01901160  0.27695544  1.0
  O  O32  1  0.62026839  0.48098840  0.77695544  1.0
  O  O33  1  0.37973161  0.98098840  0.72304456  1.0
  O  O34  1  0.17543489  0.77315776  0.13323893  1.0
  O  O35  1  0.82456511  0.27315776  0.36676107  1.0
  O  O36  1  0.82456511  0.22684224  0.86676107  1.0
  O  O37  1  0.17543489  0.72684224  0.63323893  1.0
  O  O38  1  0.14854343  0.51955857  0.95623965  1.0
  O  O39  1  0.85145657  0.01955857  0.54376035  1.0
  O  O40  1  0.85145657  0.48044143  0.04376035  1.0
  O  O41  1  0.14854343  0.98044143  0.45623965  1.0
