# generated using pymatgen
data_AgTeO3
_symmetry_space_group_name_H-M   'P 1'
_cell_length_a   5.57902784
_cell_length_b   7.62948817
_cell_length_c   7.06343369
_cell_angle_alpha   90.00000000
_cell_angle_beta   100.81981128
_cell_angle_gamma   90.00000000
_symmetry_Int_Tables_number   1
_chemical_formula_structural   AgTeO3
_chemical_formula_sum   'Ag4 Te4 O12'
_cell_volume   295.31101045
_cell_formula_units_Z   4
loop_
 _symmetry_equiv_pos_site_id
 _symmetry_equiv_pos_as_xyz
  1  'x, y, z'
loop_
 _atom_site_type_symbol
 _atom_site_label
 _atom_site_symmetry_multiplicity
 _atom_site_fract_x
 _atom_site_fract_y
 _atom_site_fract_z
 _atom_site_occupancy
  Ag  Ag0  1  0.44096948  0.25000000  0.68660526  1.0
  Ag  Ag1  1  0.55903052  0.75000000  0.31339474  1.0
  Ag  Ag2  1  -0.00000000  0.50000000  0.50000000  1.0
  Ag  Ag3  1  -0.00000000  -0.00000000  0.50000000  1.0
  Te  Te4  1  0.52334396  0.25000000  0.18491348  1.0
  Te  Te5  1  0.47665604  0.75000000  0.81508652  1.0
  Te  Te6  1  0.00000000  0.50000000  0.00000000  1.0
  Te  Te7  1  0.00000000  0.00000000  0.00000000  1.0
  O  O8  1  0.73932736  0.93552429  0.77089928  1.0
  O  O9  1  0.73932736  0.56447571  0.77089928  1.0
  O  O10  1  0.26067264  0.43552429  0.22910072  1.0
  O  O11  1  0.26067264  0.06447571  0.22910072  1.0
  O  O12  1  0.23660919  0.48824734  0.81996903  1.0
  O  O13  1  0.23660919  0.01175266  0.81996903  1.0
  O  O14  1  0.76339081  0.98824734  0.18003097  1.0
  O  O15  1  0.76339081  0.51175266  0.18003097  1.0
  O  O16  1  0.88587123  0.25000000  0.92984268  1.0
  O  O17  1  0.11412877  0.75000000  0.07015732  1.0
  O  O18  1  0.66838526  0.25000000  0.45357088  1.0
  O  O19  1  0.33161474  0.75000000  0.54642912  1.0
