# generated using pymatgen
data_MnH2Cl2O
_symmetry_space_group_name_H-M   'P 1'
_cell_length_a   9.05505238
_cell_length_b   3.73535173
_cell_length_c   11.74727321
_cell_angle_alpha   90.00000000
_cell_angle_beta   90.00000000
_cell_angle_gamma   90.00000000
_symmetry_Int_Tables_number   1
_chemical_formula_structural   MnH2Cl2O
_chemical_formula_sum   'Mn4 H8 Cl8 O4'
_cell_volume   397.33748521
_cell_formula_units_Z   4
loop_
 _symmetry_equiv_pos_site_id
 _symmetry_equiv_pos_as_xyz
  1  'x, y, z'
loop_
 _atom_site_type_symbol
 _atom_site_label
 _atom_site_symmetry_multiplicity
 _atom_site_fract_x
 _atom_site_fract_y
 _atom_site_fract_z
 _atom_site_occupancy
  Mn  Mn0  1  0.68317160  0.75000000  0.01081611  1.0
  Mn  Mn1  1  0.18317160  0.75000000  0.48918389  1.0
  Mn  Mn2  1  0.31682840  0.25000000  0.98918389  1.0
  Mn  Mn3  1  0.81682840  0.25000000  0.51081611  1.0
  H  H4  1  0.95059156  0.75000000  0.13707767  1.0
  H  H5  1  0.45059156  0.75000000  0.36292233  1.0
  H  H6  1  0.04940844  0.25000000  0.86292233  1.0
  H  H7  1  0.54940844  0.25000000  0.63707767  1.0
  H  H8  1  0.81596304  0.75000000  0.22484332  1.0
  H  H9  1  0.31596304  0.75000000  0.27515668  1.0
  H  H10  1  0.18403696  0.25000000  0.77515668  1.0
  H  H11  1  0.68403696  0.25000000  0.72484332  1.0
  Cl  Cl12  1  0.95809107  0.75000000  0.62003186  1.0
  Cl  Cl13  1  0.45809107  0.75000000  0.87996814  1.0
  Cl  Cl14  1  0.04190893  0.25000000  0.37996814  1.0
  Cl  Cl15  1  0.54190893  0.25000000  0.12003186  1.0
  Cl  Cl16  1  0.69548664  0.75000000  0.39953982  1.0
  Cl  Cl17  1  0.19548664  0.75000000  0.10046018  1.0
  Cl  Cl18  1  0.30451336  0.25000000  0.60046018  1.0
  Cl  Cl19  1  0.80451336  0.25000000  0.89953982  1.0
  O  O20  1  0.84245400  0.75000000  0.14383092  1.0
  O  O21  1  0.34245400  0.75000000  0.35616908  1.0
  O  O22  1  0.15754600  0.25000000  0.85616908  1.0
  O  O23  1  0.65754600  0.25000000  0.64383092  1.0
