# generated using pymatgen
data_Li6Hf2O7
_symmetry_space_group_name_H-M   'P 1'
_cell_length_a   6.01500528
_cell_length_b   6.01500528
_cell_length_c   10.19678575
_cell_angle_alpha   81.02267971
_cell_angle_beta   98.97732029
_cell_angle_gamma   120.32225815
_symmetry_Int_Tables_number   1
_chemical_formula_structural   Li6Hf2O7
_chemical_formula_sum   'Li12 Hf4 O14'
_cell_volume   313.25869635
_cell_formula_units_Z   2
loop_
 _symmetry_equiv_pos_site_id
 _symmetry_equiv_pos_as_xyz
  1  'x, y, z'
loop_
 _atom_site_type_symbol
 _atom_site_label
 _atom_site_symmetry_multiplicity
 _atom_site_fract_x
 _atom_site_fract_y
 _atom_site_fract_z
 _atom_site_occupancy
  Li  Li0  1  0.79401258  -0.08313901  0.91563383  1.0
  Li  Li1  1  1.08313901  0.20598742  0.41563383  1.0
  Li  Li2  1  0.91686099  0.79401258  0.58436617  1.0
  Li  Li3  1  0.20598742  0.08313901  0.08436617  1.0
  Li  Li4  1  0.33604397  -0.07720240  0.89527413  1.0
  Li  Li5  1  1.07720240  0.66395603  0.39527413  1.0
  Li  Li6  1  0.92279760  0.33604397  0.60472587  1.0
  Li  Li7  1  0.66395603  0.07720240  0.10472587  1.0
  Li  Li8  1  1.33403733  0.46761277  0.89816522  1.0
  Li  Li9  1  0.53238723  -0.33403733  0.39816522  1.0
  Li  Li10  1  0.46761277  0.33403733  0.60183478  1.0
  Li  Li11  1  0.66596267  0.53238723  0.10183478  1.0
  Hf  Hf12  1  0.43877334  -0.19431866  0.63560385  1.0
  Hf  Hf13  1  1.19431866  0.56122666  0.13560385  1.0
  Hf  Hf14  1  0.80568134  0.43877334  0.86439615  1.0
  Hf  Hf15  1  0.56122666  0.19431866  0.36439615  1.0
  O  O16  1  0.73417478  0.00074688  0.49774862  1.0
  O  O17  1  0.99925312  0.26582522  0.99774862  1.0
  O  O18  1  1.00074688  0.73417478  0.00225138  1.0
  O  O19  1  0.26582522  -0.00074688  0.50225138  1.0
  O  O20  1  0.63707264  0.13988152  0.74428200  1.0
  O  O21  1  0.86011848  0.36292736  0.24428200  1.0
  O  O22  1  1.13988152  0.63707264  0.75571800  1.0
  O  O23  1  0.36292736  -0.13988152  0.25571800  1.0
  O  O24  1  0.49943923  0.25648041  0.97694933  1.0
  O  O25  1  0.74351959  0.50056077  0.47694933  1.0
  O  O26  1  1.25648041  0.49943923  0.52305067  1.0
  O  O27  1  0.50056077  -0.25648041  0.02305067  1.0
  O  O28  1  0.65392198  0.65392198  0.75000000  1.0
  O  O29  1  0.34607802  0.34607802  0.25000000  1.0
