# generated using pymatgen
data_SnH6Cl2O11
_symmetry_space_group_name_H-M   'P 1'
_cell_length_a   7.25423790
_cell_length_b   7.25423790
_cell_length_c   10.17409023
_cell_angle_alpha   90.00000000
_cell_angle_beta   90.00000000
_cell_angle_gamma   120.00000000
_symmetry_Int_Tables_number   1
_chemical_formula_structural   SnH6Cl2O11
_chemical_formula_sum   'Sn2 H12 Cl4 O22'
_cell_volume   463.67086169
_cell_formula_units_Z   2
loop_
 _symmetry_equiv_pos_site_id
 _symmetry_equiv_pos_as_xyz
  1  'x, y, z'
loop_
 _atom_site_type_symbol
 _atom_site_label
 _atom_site_symmetry_multiplicity
 _atom_site_fract_x
 _atom_site_fract_y
 _atom_site_fract_z
 _atom_site_occupancy
  Sn  Sn0  1  0.00000000  0.00000000  -0.00024823  1.0
  Sn  Sn1  1  -0.00000000  -0.00000000  0.49975177  1.0
  H  H2  1  0.17678398  0.77144016  0.12155048  1.0
  H  H3  1  0.77144016  0.59465617  0.62155048  1.0
  H  H4  1  0.59465617  0.82321602  0.12155048  1.0
  H  H5  1  0.22855984  0.40534383  0.12155048  1.0
  H  H6  1  0.82321602  0.22855984  0.62155048  1.0
  H  H7  1  0.40534383  0.17678398  0.62155048  1.0
  H  H8  1  0.96364111  0.70987216  0.19857096  1.0
  H  H9  1  0.70987216  0.74623105  0.69857096  1.0
  H  H10  1  0.74623105  0.03635889  0.19857096  1.0
  H  H11  1  0.29012784  0.25376895  0.19857096  1.0
  H  H12  1  0.03635889  0.29012784  0.69857096  1.0
  H  H13  1  0.25376895  0.96364111  0.69857096  1.0
  Cl  Cl14  1  0.33333333  0.66666667  0.45614997  1.0
  Cl  Cl15  1  0.66666667  0.33333333  0.95614997  1.0
  Cl  Cl16  1  0.33333333  0.66666667  0.88212072  1.0
  Cl  Cl17  1  0.66666667  0.33333333  0.38212072  1.0
  O  O18  1  0.08668691  0.82799338  0.15424239  1.0
  O  O19  1  0.82799338  0.74130647  0.65424239  1.0
  O  O20  1  0.74130647  0.91331309  0.15424239  1.0
  O  O21  1  0.17200662  0.25869353  0.15424239  1.0
  O  O22  1  0.91331309  0.17200662  0.65424239  1.0
  O  O23  1  0.25869353  0.08668691  0.65424239  1.0
  O  O24  1  0.69415746  0.53609619  0.00609928  1.0
  O  O25  1  0.53609619  0.84193874  0.50609928  1.0
  O  O26  1  0.84193874  0.30584254  0.00609928  1.0
  O  O27  1  0.46390381  0.15806126  0.00609928  1.0
  O  O28  1  0.30584254  0.46390381  0.50609928  1.0
  O  O29  1  0.15806126  0.69415746  0.50609928  1.0
  O  O30  1  0.75127543  0.55222888  0.33696780  1.0
  O  O31  1  0.55222888  0.80095345  0.83696780  1.0
  O  O32  1  0.80095345  0.24872457  0.33696780  1.0
  O  O33  1  0.44777112  0.19904655  0.33696780  1.0
  O  O34  1  0.24872457  0.44777112  0.83696780  1.0
  O  O35  1  0.19904655  0.75127543  0.83696780  1.0
  O  O36  1  0.33333333  0.66666667  0.02992637  1.0
  O  O37  1  0.66666667  0.33333333  0.52992637  1.0
  O  O38  1  0.33333333  0.66666667  0.31305845  1.0
  O  O39  1  0.66666667  0.33333333  0.81305845  1.0
