# generated using pymatgen
data_RbVBr3
_symmetry_space_group_name_H-M   'P 1'
_cell_length_a   12.98933637
_cell_length_b   12.98933637
_cell_length_c   6.58504148
_cell_angle_alpha   90.00000000
_cell_angle_beta   90.00000000
_cell_angle_gamma   120.00000000
_symmetry_Int_Tables_number   1
_chemical_formula_structural   RbVBr3
_chemical_formula_sum   'Rb6 V6 Br18'
_cell_volume   962.19495106
_cell_formula_units_Z   6
loop_
 _symmetry_equiv_pos_site_id
 _symmetry_equiv_pos_as_xyz
  1  'x, y, z'
loop_
 _atom_site_type_symbol
 _atom_site_label
 _atom_site_symmetry_multiplicity
 _atom_site_fract_x
 _atom_site_fract_y
 _atom_site_fract_z
 _atom_site_occupancy
  Rb  Rb0  1  0.33451564  0.33451564  0.22848954  1.0
  Rb  Rb1  1  0.33451564  0.00000000  0.72848954  1.0
  Rb  Rb2  1  -0.00000000  0.33451564  0.72848954  1.0
  Rb  Rb3  1  0.00000000  0.66548436  0.22848954  1.0
  Rb  Rb4  1  0.66548436  0.66548436  0.72848954  1.0
  Rb  Rb5  1  0.66548436  0.00000000  0.22848954  1.0
  V  V6  1  0.33333333  0.66666667  0.42235084  1.0
  V  V7  1  0.33333333  0.66666667  0.92235084  1.0
  V  V8  1  0.66666667  0.33333333  0.42235084  1.0
  V  V9  1  0.66666667  0.33333333  0.92235084  1.0
  V  V10  1  0.00000000  0.00000000  0.05569568  1.0
  V  V11  1  0.00000000  0.00000000  0.55569568  1.0
  Br  Br12  1  0.33250705  0.82569926  0.17155112  1.0
  Br  Br13  1  0.33250705  0.50680779  0.67155112  1.0
  Br  Br14  1  0.82569926  0.33250705  0.17155112  1.0
  Br  Br15  1  0.82569926  0.49319221  0.67155112  1.0
  Br  Br16  1  0.49319221  0.82569926  0.67155112  1.0
  Br  Br17  1  0.49319221  0.66749295  0.17155112  1.0
  Br  Br18  1  0.17430074  0.66749295  0.67155112  1.0
  Br  Br19  1  0.17430074  0.50680779  0.17155112  1.0
  Br  Br20  1  0.66749295  0.49319221  0.17155112  1.0
  Br  Br21  1  0.66749295  0.17430074  0.67155112  1.0
  Br  Br22  1  0.50680779  0.33250705  0.67155112  1.0
  Br  Br23  1  0.50680779  0.17430074  0.17155112  1.0
  Br  Br24  1  0.84056237  0.84056237  0.30694244  1.0
  Br  Br25  1  0.84056237  0.00000000  0.80694244  1.0
  Br  Br26  1  0.00000000  0.84056237  0.80694244  1.0
  Br  Br27  1  -0.00000000  0.15943763  0.30694244  1.0
  Br  Br28  1  0.15943763  0.15943763  0.80694244  1.0
  Br  Br29  1  0.15943763  0.00000000  0.30694244  1.0
