# generated using pymatgen
data_Li3Si
_symmetry_space_group_name_H-M   'P 1'
_cell_length_a   6.35402733
_cell_length_b   4.32244670
_cell_length_c   6.51134165
_cell_angle_alpha   90.00000000
_cell_angle_beta   103.02517727
_cell_angle_gamma   90.00000000
_symmetry_Int_Tables_number   1
_chemical_formula_structural   Li3Si
_chemical_formula_sum   'Li9 Si3'
_cell_volume   174.23244809
_cell_formula_units_Z   3
loop_
 _symmetry_equiv_pos_site_id
 _symmetry_equiv_pos_as_xyz
  1  'x, y, z'
loop_
 _atom_site_type_symbol
 _atom_site_label
 _atom_site_symmetry_multiplicity
 _atom_site_fract_x
 _atom_site_fract_y
 _atom_site_fract_z
 _atom_site_occupancy
  Li  Li0  1  0.42698057  0.00000000  0.19367934  1.0
  Li  Li1  1  0.57301943  0.00000000  0.80632066  1.0
  Li  Li2  1  0.16167435  0.50000000  0.16273851  1.0
  Li  Li3  1  0.83832565  0.50000000  0.83726149  1.0
  Li  Li4  1  0.76127985  0.00000000  0.49930286  1.0
  Li  Li5  1  0.23872015  0.00000000  0.50069714  1.0
  Li  Li6  1  0.32176897  0.50000000  0.81584957  1.0
  Li  Li7  1  0.67823103  0.50000000  0.18415043  1.0
  Li  Li8  1  -0.00000000  0.50000000  0.50000000  1.0
  Si  Si9  1  0.09649703  0.00000000  0.85996741  1.0
  Si  Si10  1  0.90350297  0.00000000  0.14003259  1.0
  Si  Si11  1  0.50000000  0.50000000  0.50000000  1.0
