# generated using pymatgen
data_K2H2IrCl5O
_symmetry_space_group_name_H-M   'P 1'
_cell_length_a   13.85124781
_cell_length_b   9.13948825
_cell_length_c   7.71791435
_cell_angle_alpha   90.00000000
_cell_angle_beta   90.00000000
_cell_angle_gamma   90.00000000
_symmetry_Int_Tables_number   1
_chemical_formula_structural   K2H2IrCl5O
_chemical_formula_sum   'K8 H8 Ir4 Cl20 O4'
_cell_volume   977.03637396
_cell_formula_units_Z   4
loop_
 _symmetry_equiv_pos_site_id
 _symmetry_equiv_pos_as_xyz
  1  'x, y, z'
loop_
 _atom_site_type_symbol
 _atom_site_label
 _atom_site_symmetry_multiplicity
 _atom_site_fract_x
 _atom_site_fract_y
 _atom_site_fract_z
 _atom_site_occupancy
  K  K0  1  0.65596960  0.49831333  0.38590676  1.0
  K  K1  1  0.65596960  0.00168667  0.38590676  1.0
  K  K2  1  0.15596960  0.49831333  0.11409324  1.0
  K  K3  1  0.15596960  0.00168667  0.11409324  1.0
  K  K4  1  0.34403040  0.99831333  0.61409324  1.0
  K  K5  1  0.34403040  0.50168667  0.61409324  1.0
  K  K6  1  0.84403040  0.99831333  0.88590676  1.0
  K  K7  1  0.84403040  0.50168667  0.88590676  1.0
  H  H8  1  0.96016467  0.83708014  0.48010175  1.0
  H  H9  1  0.96016467  0.66291986  0.48010175  1.0
  H  H10  1  0.46016467  0.83708014  0.01989825  1.0
  H  H11  1  0.46016467  0.66291986  0.01989825  1.0
  H  H12  1  0.03983533  0.33708014  0.51989825  1.0
  H  H13  1  0.03983533  0.16291986  0.51989825  1.0
  H  H14  1  0.53983533  0.33708014  0.98010175  1.0
  H  H15  1  0.53983533  0.16291986  0.98010175  1.0
  Ir  Ir16  1  0.89862869  0.25000000  0.30779973  1.0
  Ir  Ir17  1  0.39862869  0.25000000  0.19220027  1.0
  Ir  Ir18  1  0.10137131  0.75000000  0.69220027  1.0
  Ir  Ir19  1  0.60137131  0.75000000  0.80779973  1.0
  Cl  Cl20  1  0.89955722  0.50912400  0.30309235  1.0
  Cl  Cl21  1  0.89955722  -0.00912400  0.30309235  1.0
  Cl  Cl22  1  0.39955722  0.50912400  0.19690765  1.0
  Cl  Cl23  1  0.39955722  -0.00912400  0.19690765  1.0
  Cl  Cl24  1  0.10044278  1.00912400  0.69690765  1.0
  Cl  Cl25  1  0.10044278  0.49087600  0.69690765  1.0
  Cl  Cl26  1  0.60044278  1.00912400  0.80309235  1.0
  Cl  Cl27  1  0.60044278  0.49087600  0.80309235  1.0
  Cl  Cl28  1  0.75618770  0.25000000  0.14517600  1.0
  Cl  Cl29  1  0.25618770  0.25000000  0.35482400  1.0
  Cl  Cl30  1  0.24381230  0.75000000  0.85482400  1.0
  Cl  Cl31  1  0.74381230  0.75000000  0.64517600  1.0
  Cl  Cl32  1  0.99006220  0.25000000  0.04836900  1.0
  Cl  Cl33  1  0.49006220  0.25000000  0.45163100  1.0
  Cl  Cl34  1  0.00993780  0.75000000  0.95163100  1.0
  Cl  Cl35  1  0.50993780  0.75000000  0.54836900  1.0
  Cl  Cl36  1  0.80914086  0.25000000  0.57085566  1.0
  Cl  Cl37  1  0.30914086  0.25000000  0.92914434  1.0
  Cl  Cl38  1  0.19085914  0.75000000  0.42914434  1.0
  Cl  Cl39  1  0.69085914  0.75000000  0.07085566  1.0
  O  O40  1  0.02982894  0.25000000  0.44490436  1.0
  O  O41  1  0.52982894  0.25000000  0.05509564  1.0
  O  O42  1  0.97017106  0.75000000  0.55509564  1.0
  O  O43  1  0.47017106  0.75000000  0.94490436  1.0
