# generated using pymatgen
data_HgAs2H2F14
_symmetry_space_group_name_H-M   'P 1'
_cell_length_a   8.31627981
_cell_length_b   7.20588038
_cell_length_c   5.23392813
_cell_angle_alpha   76.34428404
_cell_angle_beta   80.29588381
_cell_angle_gamma   86.69182318
_symmetry_Int_Tables_number   1
_chemical_formula_structural   HgAs2H2F14
_chemical_formula_sum   'Hg1 As2 H2 F14'
_cell_volume   300.36916706
_cell_formula_units_Z   1
loop_
 _symmetry_equiv_pos_site_id
 _symmetry_equiv_pos_as_xyz
  1  'x, y, z'
loop_
 _atom_site_type_symbol
 _atom_site_label
 _atom_site_symmetry_multiplicity
 _atom_site_fract_x
 _atom_site_fract_y
 _atom_site_fract_z
 _atom_site_occupancy
  Hg  Hg0  1  0.00000000  0.00000000  0.00000000  1.0
  As  As1  1  -0.74654897  -0.72599306  -0.62131270  1.0
  As  As2  1  -0.25345103  -0.27400694  -0.37868730  1.0
  H  H3  1  -0.16367006  -0.62746300  -1.00289630  1.0
  H  H4  1  -0.83632994  -0.37253700  0.00289630  1.0
  F  F5  1  -0.85933443  -0.57667226  -0.87389225  1.0
  F  F6  1  -0.14066557  -0.42332774  -0.12610775  1.0
  F  F7  1  -0.17867554  -0.76245029  -0.90431342  1.0
  F  F8  1  -0.82132446  -0.23754971  -0.09568658  1.0
  F  F9  1  -0.56705662  -0.70996108  -0.85432575  1.0
  F  F10  1  -0.43294338  -0.29003892  -0.14567425  1.0
  F  F11  1  -0.81098708  -0.92993632  -0.73302759  1.0
  F  F12  1  -0.18901292  -0.07006368  -0.26697241  1.0
  F  F13  1  -0.70937809  -0.52047923  -0.51483942  1.0
  F  F14  1  -0.29062191  -0.47952077  -0.48516058  1.0
  F  F15  1  -0.94613375  -0.75053254  -0.39554258  1.0
  F  F16  1  -0.05386625  -0.24946746  -0.60445742  1.0
  F  F17  1  -0.66331353  -0.88612658  -0.36328732  1.0
  F  F18  1  -0.33668647  -0.11387342  -0.63671268  1.0
