# generated using pymatgen
data_Sr3TbRhO6
_symmetry_space_group_name_H-M   'P 1'
_cell_length_a   6.85592159
_cell_length_b   6.85592159
_cell_length_c   6.85592159
_cell_angle_alpha   92.02609830
_cell_angle_beta   92.02609830
_cell_angle_gamma   92.02609830
_symmetry_Int_Tables_number   1
_chemical_formula_structural   Sr3TbRhO6
_chemical_formula_sum   'Sr6 Tb2 Rh2 O12'
_cell_volume   321.63437437
_cell_formula_units_Z   2
loop_
 _symmetry_equiv_pos_site_id
 _symmetry_equiv_pos_as_xyz
  1  'x, y, z'
loop_
 _atom_site_type_symbol
 _atom_site_label
 _atom_site_symmetry_multiplicity
 _atom_site_fract_x
 _atom_site_fract_y
 _atom_site_fract_z
 _atom_site_occupancy
  Sr  Sr0  1  0.88126772  1.25000000  -0.38126772  1.0
  Sr  Sr1  1  1.38126772  0.11873228  -0.25000000  1.0
  Sr  Sr2  1  0.75000000  0.38126772  0.11873228  1.0
  Sr  Sr3  1  1.25000000  0.61873228  -0.11873228  1.0
  Sr  Sr4  1  1.11873228  -0.25000000  0.38126772  1.0
  Sr  Sr5  1  0.61873228  0.88126772  0.25000000  1.0
  Tb  Tb6  1  0.25000000  0.25000000  0.25000000  1.0
  Tb  Tb7  1  0.75000000  0.75000000  0.75000000  1.0
  Rh  Rh8  1  0.50000000  0.50000000  0.50000000  1.0
  Rh  Rh9  1  0.00000000  0.00000000  0.00000000  1.0
  O  O10  1  1.20888211  0.41054582  -0.45450022  1.0
  O  O11  1  0.70888211  1.04549978  -0.08945418  1.0
  O  O12  1  0.95450022  0.08945418  0.29111789  1.0
  O  O13  1  1.45450022  -0.20888211  0.58945418  1.0
  O  O14  1  1.58945418  0.45450022  -0.20888211  1.0
  O  O15  1  1.08945418  0.29111789  -0.04549978  1.0
  O  O16  1  0.79111789  0.58945418  0.45450022  1.0
  O  O17  1  1.29111789  -0.04549978  0.08945418  1.0
  O  O18  1  0.54549978  1.20888211  -0.58945418  1.0
  O  O19  1  1.04549978  0.91054582  -0.29111789  1.0
  O  O20  1  0.91054582  0.70888211  0.04549978  1.0
  O  O21  1  0.41054582  0.54549978  0.20888211  1.0
