# generated using pymatgen
data_LiH6NO6
_symmetry_space_group_name_H-M   'P 1'
_cell_length_a   7.13203846
_cell_length_b   7.13203846
_cell_length_c   6.14923503
_cell_angle_alpha   90.00000000
_cell_angle_beta   90.00000000
_cell_angle_gamma   122.63470014
_symmetry_Int_Tables_number   1
_chemical_formula_structural   LiH6NO6
_chemical_formula_sum   'Li2 H12 N2 O12'
_cell_volume   263.40589663
_cell_formula_units_Z   2
loop_
 _symmetry_equiv_pos_site_id
 _symmetry_equiv_pos_as_xyz
  1  'x, y, z'
loop_
 _atom_site_type_symbol
 _atom_site_label
 _atom_site_symmetry_multiplicity
 _atom_site_fract_x
 _atom_site_fract_y
 _atom_site_fract_z
 _atom_site_occupancy
  Li  Li0  1  0.00000000  0.00000000  0.00000000  1.0
  Li  Li1  1  0.00000000  0.00000000  0.50000000  1.0
  H  H2  1  0.21185513  0.36899824  0.75000000  1.0
  H  H3  1  0.36899824  1.21185513  0.25000000  1.0
  H  H4  1  0.63100176  0.78814487  0.75000000  1.0
  H  H5  1  -0.21185513  0.63100176  0.25000000  1.0
  H  H6  1  -0.25756235  0.65158728  0.75000000  1.0
  H  H7  1  0.65158728  0.74243765  0.25000000  1.0
  H  H8  1  0.34841272  1.25756235  0.75000000  1.0
  H  H9  1  0.25756235  0.34841272  0.25000000  1.0
  H  H10  1  -0.30683296  0.30683296  0.87665965  1.0
  H  H11  1  -0.30683296  0.30683296  0.62334035  1.0
  H  H12  1  0.30683296  0.69316704  0.37665965  1.0
  H  H13  1  0.30683296  0.69316704  0.12334035  1.0
  N  N14  1  0.22704493  0.77295507  0.75000000  1.0
  N  N15  1  -0.22704493  0.22704493  0.25000000  1.0
  O  O16  1  0.19387910  0.22266204  0.75000000  1.0
  O  O17  1  0.22266204  1.19387910  0.25000000  1.0
  O  O18  1  0.77733796  0.80612090  0.75000000  1.0
  O  O19  1  -0.19387910  0.77733796  0.25000000  1.0
  O  O20  1  0.17847892  0.82152108  0.92903476  1.0
  O  O21  1  0.17847892  0.82152108  0.57096524  1.0
  O  O22  1  -0.17847892  0.17847892  0.42903476  1.0
  O  O23  1  -0.17847892  0.17847892  0.07096524  1.0
  O  O24  1  0.32894206  0.67105794  0.75000000  1.0
  O  O25  1  -0.32894206  0.32894206  0.25000000  1.0
  O  O26  1  -0.35489116  0.35489116  0.75000000  1.0
  O  O27  1  0.35489116  0.64510884  0.25000000  1.0
