# generated using pymatgen
data_Na3SrPCO7
_symmetry_space_group_name_H-M   'P 1'
_cell_length_a   5.33868325
_cell_length_b   7.25651981
_cell_length_c   9.41800968
_cell_angle_alpha   90.00000000
_cell_angle_beta   88.87639377
_cell_angle_gamma   90.00000000
_symmetry_Int_Tables_number   1
_chemical_formula_structural   Na3SrPCO7
_chemical_formula_sum   'Na6 Sr2 P2 C2 O14'
_cell_volume   364.78599568
_cell_formula_units_Z   2
loop_
 _symmetry_equiv_pos_site_id
 _symmetry_equiv_pos_as_xyz
  1  'x, y, z'
loop_
 _atom_site_type_symbol
 _atom_site_label
 _atom_site_symmetry_multiplicity
 _atom_site_fract_x
 _atom_site_fract_y
 _atom_site_fract_z
 _atom_site_occupancy
  Na  Na0  1  1.00114088  0.79064155  1.00320952  1.0
  Na  Na1  1  -0.00114088  0.29064155  -0.00320952  1.0
  Na  Na2  1  0.96387751  0.54002294  0.32721023  1.0
  Na  Na3  1  0.03612249  0.04002294  0.67278977  1.0
  Na  Na4  1  0.49879599  0.78774580  0.50106971  1.0
  Na  Na5  1  0.50120401  0.28774580  0.49893029  1.0
  Sr  Sr6  1  0.49704622  0.53638157  0.79769402  1.0
  Sr  Sr7  1  0.50295378  0.03638157  0.20230598  1.0
  P  P8  1  0.49235029  0.03715588  0.83558006  1.0
  P  P9  1  0.50764971  0.53715588  0.16441994  1.0
  C  C10  1  0.99829081  0.53418908  0.63119219  1.0
  C  C11  1  0.00170919  0.03418908  0.36880781  1.0
  O  O12  1  1.00437760  0.52839738  0.76916601  1.0
  O  O13  1  -0.00437760  0.02839738  0.23083399  1.0
  O  O14  1  0.78164917  0.53795950  0.56900669  1.0
  O  O15  1  0.21835083  0.03795950  0.43099331  1.0
  O  O16  1  0.79692241  0.03641284  0.44521367  1.0
  O  O17  1  0.20307759  0.53641284  0.55478633  1.0
  O  O18  1  0.77052787  0.03524575  0.88398211  1.0
  O  O19  1  0.22947213  0.53524575  0.11601789  1.0
  O  O20  1  0.56307226  0.70966213  0.25828809  1.0
  O  O21  1  0.43692774  0.20966213  0.74171191  1.0
  O  O22  1  0.42904679  0.86285874  0.74516936  1.0
  O  O23  1  0.57095321  0.36285874  0.25483064  1.0
  O  O24  1  0.31377515  0.04132684  0.96939156  1.0
  O  O25  1  0.68622485  0.54132684  0.03060844  1.0
