# generated using pymatgen
data_VInO4
_symmetry_space_group_name_H-M   'P 1'
_cell_length_a   5.22506484
_cell_length_b   5.22506484
_cell_length_c   6.74494669
_cell_angle_alpha   90.00000000
_cell_angle_beta   90.00000000
_cell_angle_gamma   112.64412463
_symmetry_Int_Tables_number   1
_chemical_formula_structural   VInO4
_chemical_formula_sum   'V2 In2 O8'
_cell_volume   169.95076338
_cell_formula_units_Z   2
loop_
 _symmetry_equiv_pos_site_id
 _symmetry_equiv_pos_as_xyz
  1  'x, y, z'
loop_
 _atom_site_type_symbol
 _atom_site_label
 _atom_site_symmetry_multiplicity
 _atom_site_fract_x
 _atom_site_fract_y
 _atom_site_fract_z
 _atom_site_occupancy
  V  V0  1  0.35686046  0.64313954  0.25000000  1.0
  V  V1  1  -0.35686046  1.35686046  0.75000000  1.0
  In  In2  1  0.00000000  0.00000000  0.50000000  1.0
  In  In3  1  0.00000000  0.00000000  0.00000000  1.0
  O  O4  1  0.21517277  0.27174874  0.25000000  1.0
  O  O5  1  -0.72825126  1.21517277  0.75000000  1.0
  O  O6  1  0.72825126  0.78482723  0.25000000  1.0
  O  O7  1  -0.21517277  1.72825126  0.75000000  1.0
  O  O8  1  0.24581807  0.75418193  0.45155632  1.0
  O  O9  1  0.24581807  0.75418193  0.04844368  1.0
  O  O10  1  -0.24581807  1.24581807  0.95155632  1.0
  O  O11  1  -0.24581807  1.24581807  0.54844368  1.0
