# generated using pymatgen
data_NaMnAsO4
_symmetry_space_group_name_H-M   'P 1'
_cell_length_a   10.93027653
_cell_length_b   6.49151459
_cell_length_c   5.25559004
_cell_angle_alpha   90.00000000
_cell_angle_beta   90.00000000
_cell_angle_gamma   90.00000000
_symmetry_Int_Tables_number   1
_chemical_formula_structural   NaMnAsO4
_chemical_formula_sum   'Na4 Mn4 As4 O16'
_cell_volume   372.90539623
_cell_formula_units_Z   4
loop_
 _symmetry_equiv_pos_site_id
 _symmetry_equiv_pos_as_xyz
  1  'x, y, z'
loop_
 _atom_site_type_symbol
 _atom_site_label
 _atom_site_symmetry_multiplicity
 _atom_site_fract_x
 _atom_site_fract_y
 _atom_site_fract_z
 _atom_site_occupancy
  Na  Na0  1  0.00000000  0.50000000  0.00000000  1.0
  Na  Na1  1  -0.00000000  0.00000000  0.00000000  1.0
  Na  Na2  1  0.50000000  0.50000000  0.50000000  1.0
  Na  Na3  1  0.50000000  0.00000000  0.50000000  1.0
  Mn  Mn4  1  0.78136718  0.25000000  0.50666633  1.0
  Mn  Mn5  1  0.28136718  0.25000000  0.99333367  1.0
  Mn  Mn6  1  0.21863282  0.75000000  0.49333367  1.0
  Mn  Mn7  1  0.71863282  0.75000000  0.00666633  1.0
  As  As8  1  0.60502016  0.25000000  0.05447652  1.0
  As  As9  1  0.10502016  0.25000000  0.44552348  1.0
  As  As10  1  0.39497984  0.75000000  0.94552348  1.0
  As  As11  1  0.89497984  0.75000000  0.55447652  1.0
  O  O12  1  0.67867852  0.45821362  0.20320605  1.0
  O  O13  1  0.67867852  0.04178638  0.20320605  1.0
  O  O14  1  0.17867852  0.45821362  0.29679395  1.0
  O  O15  1  0.17867852  0.04178638  0.29679395  1.0
  O  O16  1  0.32132148  0.95821362  0.79679395  1.0
  O  O17  1  0.32132148  0.54178638  0.79679395  1.0
  O  O18  1  0.82132148  0.95821362  0.70320605  1.0
  O  O19  1  0.82132148  0.54178638  0.70320605  1.0
  O  O20  1  0.95446204  0.25000000  0.33281920  1.0
  O  O21  1  0.45446204  0.25000000  0.16718080  1.0
  O  O22  1  0.04553796  0.75000000  0.66718080  1.0
  O  O23  1  0.54553796  0.75000000  0.83281920  1.0
  O  O24  1  0.61292985  0.25000000  0.72588885  1.0
  O  O25  1  0.11292985  0.25000000  0.77411115  1.0
  O  O26  1  0.38707015  0.75000000  0.27411115  1.0
  O  O27  1  0.88707015  0.75000000  0.22588885  1.0
