# generated using pymatgen
data_Ni18Bi3AsS16
_symmetry_space_group_name_H-M   'P 1'
_cell_length_a   9.06367211
_cell_length_b   9.06367211
_cell_length_c   9.06367211
_cell_angle_alpha   110.83638697
_cell_angle_beta   110.83638697
_cell_angle_gamma   106.77409007
_symmetry_Int_Tables_number   1
_chemical_formula_structural   Ni18Bi3AsS16
_chemical_formula_sum   'Ni18 Bi3 As1 S16'
_cell_volume   572.23258113
_cell_formula_units_Z   1
loop_
 _symmetry_equiv_pos_site_id
 _symmetry_equiv_pos_as_xyz
  1  'x, y, z'
loop_
 _atom_site_type_symbol
 _atom_site_label
 _atom_site_symmetry_multiplicity
 _atom_site_fract_x
 _atom_site_fract_y
 _atom_site_fract_z
 _atom_site_occupancy
  Ni  Ni0  1  0.73459807  0.73459807  0.71288220  1.0
  Ni  Ni1  1  0.97828413  0.97828413  0.71288220  1.0
  Ni  Ni2  1  1.02171587  0.73459807  1.00000000  1.0
  Ni  Ni3  1  1.26540193  0.97828413  1.00000000  1.0
  Ni  Ni4  1  0.73459807  1.02171587  1.00000000  1.0
  Ni  Ni5  1  0.97828413  1.26540193  1.00000000  1.0
  Ni  Ni6  1  1.02171587  1.02171587  0.28711780  1.0
  Ni  Ni7  1  0.26540193  0.26540193  0.28711780  1.0
  Ni  Ni8  1  0.45372839  0.45372839  0.65565278  1.0
  Ni  Ni9  1  1.20192439  1.20192439  0.65565278  1.0
  Ni  Ni10  1  0.79807561  1.45372839  1.00000000  1.0
  Ni  Ni11  1  0.54627161  1.20192439  1.00000000  1.0
  Ni  Ni12  1  1.45372839  0.79807561  1.00000000  1.0
  Ni  Ni13  1  1.20192439  0.54627161  1.00000000  1.0
  Ni  Ni14  1  0.79807561  0.79807561  0.34434722  1.0
  Ni  Ni15  1  0.54627161  0.54627161  0.34434722  1.0
  Ni  Ni16  1  0.50000000  0.00000000  0.50000000  1.0
  Ni  Ni17  1  0.00000000  0.50000000  0.50000000  1.0
  Bi  Bi18  1  1.25000000  0.75000000  0.50000000  1.0
  Bi  Bi19  1  0.75000000  1.25000000  0.50000000  1.0
  Bi  Bi20  1  0.50000000  0.50000000  -0.00000000  1.0
  As  As21  1  0.00000000  0.00000000  0.00000000  1.0
  S  S22  1  0.51253636  0.73996201  0.77257434  1.0
  S  S23  1  1.03261233  1.26003799  0.77257434  1.0
  S  S24  1  0.96738767  0.73996201  0.22742566  1.0
  S  S25  1  0.48746364  0.26003799  0.22742566  1.0
  S  S26  1  0.73996201  0.51253636  0.77257434  1.0
  S  S27  1  1.26003799  1.03261233  0.77257434  1.0
  S  S28  1  0.73996201  0.96738767  0.22742566  1.0
  S  S29  1  0.26003799  0.48746364  0.22742566  1.0
  S  S30  1  0.66409032  0.84844944  0.51253976  1.0
  S  S31  1  1.33590968  0.84844944  1.18435912  1.0
  S  S32  1  0.84844944  0.66409032  0.51253976  1.0
  S  S33  1  0.15155056  0.66409032  0.81564088  1.0
  S  S34  1  0.66409032  0.15155056  0.81564088  1.0
  S  S35  1  0.33590968  0.15155056  0.48746024  1.0
  S  S36  1  0.84844944  1.33590968  1.18435912  1.0
  S  S37  1  0.15155056  0.33590968  0.48746024  1.0
