# generated using pymatgen
data_HgO
_symmetry_space_group_name_H-M   'P 1'
_cell_length_a   6.68012006
_cell_length_b   5.90177636
_cell_length_c   3.75939269
_cell_angle_alpha   90.00000000
_cell_angle_beta   90.00000000
_cell_angle_gamma   90.00000000
_symmetry_Int_Tables_number   1
_chemical_formula_structural   HgO
_chemical_formula_sum   'Hg4 O4'
_cell_volume   148.21245772
_cell_formula_units_Z   4
loop_
 _symmetry_equiv_pos_site_id
 _symmetry_equiv_pos_as_xyz
  1  'x, y, z'
loop_
 _atom_site_type_symbol
 _atom_site_label
 _atom_site_symmetry_multiplicity
 _atom_site_fract_x
 _atom_site_fract_y
 _atom_site_fract_z
 _atom_site_occupancy
  Hg  Hg0  1  0.88512136  0.25000000  0.24485332  1.0
  Hg  Hg1  1  0.38512136  0.25000000  0.25514668  1.0
  Hg  Hg2  1  0.11487864  0.75000000  0.75514668  1.0
  Hg  Hg3  1  0.61487864  0.75000000  0.74485332  1.0
  O  O4  1  0.63730067  0.25000000  0.55842792  1.0
  O  O5  1  0.13730067  0.25000000  0.94157208  1.0
  O  O6  1  0.36269933  0.75000000  0.44157208  1.0
  O  O7  1  0.86269933  0.75000000  0.05842792  1.0
