# generated using pymatgen
data_NaSrTiF6
_symmetry_space_group_name_H-M   'P 1'
_cell_length_a   5.49966856
_cell_length_b   9.69631999
_cell_length_c   10.49064414
_cell_angle_alpha   90.00000000
_cell_angle_beta   90.00000000
_cell_angle_gamma   90.00000000
_symmetry_Int_Tables_number   1
_chemical_formula_structural   NaSrTiF6
_chemical_formula_sum   'Na4 Sr4 Ti4 F24'
_cell_volume   559.42981993
_cell_formula_units_Z   4
loop_
 _symmetry_equiv_pos_site_id
 _symmetry_equiv_pos_as_xyz
  1  'x, y, z'
loop_
 _atom_site_type_symbol
 _atom_site_label
 _atom_site_symmetry_multiplicity
 _atom_site_fract_x
 _atom_site_fract_y
 _atom_site_fract_z
 _atom_site_occupancy
  Na  Na0  1  0.46245648  0.35189238  0.58440460  1.0
  Na  Na1  1  0.96245648  0.14810762  0.41559540  1.0
  Na  Na2  1  0.53754352  0.85189238  0.91559540  1.0
  Na  Na3  1  0.03754352  0.64810762  0.08440460  1.0
  Sr  Sr4  1  0.99009780  0.68880109  0.66954106  1.0
  Sr  Sr5  1  0.49009780  0.81119891  0.33045894  1.0
  Sr  Sr6  1  0.00990220  0.18880109  0.83045894  1.0
  Sr  Sr7  1  0.50990220  0.31119891  0.16954106  1.0
  Ti  Ti8  1  0.47206793  1.00518009  0.62720907  1.0
  Ti  Ti9  1  0.97206793  0.49481991  0.37279093  1.0
  Ti  Ti10  1  0.52793207  0.50518009  0.87279093  1.0
  Ti  Ti11  1  0.02793207  -0.00518009  0.12720907  1.0
  F  F12  1  0.31659024  0.66525494  0.82215244  1.0
  F  F13  1  0.81659024  0.83474506  0.17784756  1.0
  F  F14  1  0.68340976  0.16525494  0.67784756  1.0
  F  F15  1  0.18340976  0.33474506  0.32215244  1.0
  F  F16  1  0.28672503  0.37573647  0.79495340  1.0
  F  F17  1  0.78672503  0.12426353  0.20504660  1.0
  F  F18  1  0.71327497  0.87573647  0.70504660  1.0
  F  F19  1  0.21327497  0.62426353  0.29495340  1.0
  F  F20  1  0.27923116  0.85323081  0.08801731  1.0
  F  F21  1  0.77923116  0.64676919  0.91198269  1.0
  F  F22  1  0.72076884  0.35323081  0.41198269  1.0
  F  F23  1  0.22076884  0.14676919  0.58801731  1.0
  F  F24  1  0.28490975  0.84054131  0.55297867  1.0
  F  F25  1  0.78490975  0.65945869  0.44702133  1.0
  F  F26  1  0.71509025  0.34054131  0.94702133  1.0
  F  F27  1  0.21509025  0.15945869  0.05297867  1.0
  F  F28  1  0.29488428  0.99467477  0.79004948  1.0
  F  F29  1  0.79488428  0.50532523  0.20995052  1.0
  F  F30  1  0.70511572  0.49467477  0.70995052  1.0
  F  F31  1  0.20511572  0.00532523  0.29004948  1.0
  F  F32  1  0.15405646  0.50245196  0.53230627  1.0
  F  F33  1  0.65405646  -0.00245196  0.46769373  1.0
  F  F34  1  0.84594354  1.00245196  0.96769373  1.0
  F  F35  1  0.34594354  0.49754804  0.03230627  1.0
