# generated using pymatgen
data_PdSe
_symmetry_space_group_name_H-M   'P 1'
_cell_length_a   11.74911526
_cell_length_b   11.74911526
_cell_length_c   7.10921692
_cell_angle_alpha   90.00000000
_cell_angle_beta   90.00000000
_cell_angle_gamma   90.00000000
_symmetry_Int_Tables_number   1
_chemical_formula_structural   PdSe
_chemical_formula_sum   'Pd24 Se24'
_cell_volume   981.36845560
_cell_formula_units_Z   24
loop_
 _symmetry_equiv_pos_site_id
 _symmetry_equiv_pos_as_xyz
  1  'x, y, z'
loop_
 _atom_site_type_symbol
 _atom_site_label
 _atom_site_symmetry_multiplicity
 _atom_site_fract_x
 _atom_site_fract_y
 _atom_site_fract_z
 _atom_site_occupancy
  Pd  Pd0  1  0.45436997  0.62932036  -0.00000000  1.0
  Pd  Pd1  1  0.95436997  0.87067964  0.00000000  1.0
  Pd  Pd2  1  0.37067964  0.45436997  0.50000000  1.0
  Pd  Pd3  1  0.87067964  0.04563003  0.50000000  1.0
  Pd  Pd4  1  0.54563003  0.37067964  -0.00000000  1.0
  Pd  Pd5  1  0.04563003  0.12932036  0.00000000  1.0
  Pd  Pd6  1  0.62932036  0.54563003  0.50000000  1.0
  Pd  Pd7  1  0.12932036  0.95436997  0.50000000  1.0
  Pd  Pd8  1  0.26921212  0.85722235  0.00000000  1.0
  Pd  Pd9  1  0.76921212  0.64277765  -0.00000000  1.0
  Pd  Pd10  1  0.14277765  0.26921212  0.50000000  1.0
  Pd  Pd11  1  0.64277765  0.23078788  0.50000000  1.0
  Pd  Pd12  1  0.73078788  0.14277765  -0.00000000  1.0
  Pd  Pd13  1  0.23078788  0.35722235  -0.00000000  1.0
  Pd  Pd14  1  0.85722235  0.73078788  0.50000000  1.0
  Pd  Pd15  1  0.35722235  0.76921212  0.50000000  1.0
  Pd  Pd16  1  0.38676611  0.11323389  0.75000000  1.0
  Pd  Pd17  1  0.38676611  0.11323389  0.25000000  1.0
  Pd  Pd18  1  0.88676611  0.38676611  0.75000000  1.0
  Pd  Pd19  1  0.88676611  0.38676611  0.25000000  1.0
  Pd  Pd20  1  0.61323389  0.88676611  0.75000000  1.0
  Pd  Pd21  1  0.61323389  0.88676611  0.25000000  1.0
  Pd  Pd22  1  0.11323389  0.61323389  0.75000000  1.0
  Pd  Pd23  1  0.11323389  0.61323389  0.25000000  1.0
  Se  Se24  1  0.32326165  0.61014326  0.72331428  1.0
  Se  Se25  1  0.32326165  0.61014326  0.27668572  1.0
  Se  Se26  1  0.82326165  0.88985674  0.72331428  1.0
  Se  Se27  1  0.82326165  0.88985674  0.27668572  1.0
  Se  Se28  1  0.38985674  0.32326165  0.22331428  1.0
  Se  Se29  1  0.38985674  0.32326165  0.77668572  1.0
  Se  Se30  1  0.88985674  0.17673835  0.22331428  1.0
  Se  Se31  1  0.88985674  0.17673835  0.77668572  1.0
  Se  Se32  1  0.67673835  0.38985674  0.72331428  1.0
  Se  Se33  1  0.67673835  0.38985674  0.27668572  1.0
  Se  Se34  1  0.17673835  0.11014326  0.72331428  1.0
  Se  Se35  1  0.17673835  0.11014326  0.27668572  1.0
  Se  Se36  1  0.61014326  0.67673835  0.22331428  1.0
  Se  Se37  1  0.61014326  0.67673835  0.77668572  1.0
  Se  Se38  1  0.11014326  0.82326165  0.22331428  1.0
  Se  Se39  1  0.11014326  0.82326165  0.77668572  1.0
  Se  Se40  1  0.90364665  0.59635335  0.75000000  1.0
  Se  Se41  1  0.90364665  0.59635335  0.25000000  1.0
  Se  Se42  1  0.40364665  0.90364665  0.75000000  1.0
  Se  Se43  1  0.40364665  0.90364665  0.25000000  1.0
  Se  Se44  1  0.09635335  0.40364665  0.75000000  1.0
  Se  Se45  1  0.09635335  0.40364665  0.25000000  1.0
  Se  Se46  1  0.59635335  0.09635335  0.75000000  1.0
  Se  Se47  1  0.59635335  0.09635335  0.25000000  1.0
