# generated using pymatgen
data_IBrO
_symmetry_space_group_name_H-M   'P 1'
_cell_length_a   3.54600660
_cell_length_b   4.52479465
_cell_length_c   10.95550579
_cell_angle_alpha   90.00000000
_cell_angle_beta   90.00000000
_cell_angle_gamma   90.00000000
_symmetry_Int_Tables_number   1
_chemical_formula_structural   IBrO
_chemical_formula_sum   'I2 Br2 O2'
_cell_volume   175.78056105
_cell_formula_units_Z   2
loop_
 _symmetry_equiv_pos_site_id
 _symmetry_equiv_pos_as_xyz
  1  'x, y, z'
loop_
 _atom_site_type_symbol
 _atom_site_label
 _atom_site_symmetry_multiplicity
 _atom_site_fract_x
 _atom_site_fract_y
 _atom_site_fract_z
 _atom_site_occupancy
  I  I0  1  0.00000000  0.50000000  0.15966935  1.0
  I  I1  1  0.50000000  0.00000000  0.84033065  1.0
  Br  Br2  1  0.50000000  0.50000000  0.36247440  1.0
  Br  Br3  1  0.00000000  0.00000000  0.63752560  1.0
  O  O4  1  0.50000000  0.50000000  1.05314080  1.0
  O  O5  1  0.00000000  0.00000000  -0.05314080  1.0
