# generated using pymatgen
data_Nb2CoO6
_symmetry_space_group_name_H-M   'P 1'
_cell_length_a   14.22193508
_cell_length_b   5.77294403
_cell_length_c   5.04723664
_cell_angle_alpha   90.00000000
_cell_angle_beta   90.00000000
_cell_angle_gamma   90.00000000
_symmetry_Int_Tables_number   1
_chemical_formula_structural   Nb2CoO6
_chemical_formula_sum   'Nb8 Co4 O24'
_cell_volume   414.39041957
_cell_formula_units_Z   4
loop_
 _symmetry_equiv_pos_site_id
 _symmetry_equiv_pos_as_xyz
  1  'x, y, z'
loop_
 _atom_site_type_symbol
 _atom_site_label
 _atom_site_symmetry_multiplicity
 _atom_site_fract_x
 _atom_site_fract_y
 _atom_site_fract_z
 _atom_site_occupancy
  Nb  Nb0  1  0.65966953  0.67948710  0.75563778  1.0
  Nb  Nb1  1  0.65966953  0.32051290  0.25563778  1.0
  Nb  Nb2  1  0.15966953  0.17948710  0.74436222  1.0
  Nb  Nb3  1  0.15966953  0.82051290  0.24436222  1.0
  Nb  Nb4  1  0.34033047  0.67948710  0.74436222  1.0
  Nb  Nb5  1  0.34033047  0.32051290  0.24436222  1.0
  Nb  Nb6  1  0.84033047  0.17948710  0.75563778  1.0
  Nb  Nb7  1  0.84033047  0.82051290  0.25563778  1.0
  Co  Co8  1  0.00000000  0.64609000  0.75000000  1.0
  Co  Co9  1  0.00000000  0.35391000  0.25000000  1.0
  Co  Co10  1  0.50000000  0.14609000  0.75000000  1.0
  Co  Co11  1  0.50000000  0.85391000  0.25000000  1.0
  O  O12  1  0.90465255  0.89039757  0.58084490  1.0
  O  O13  1  0.90465255  0.10960243  0.08084490  1.0
  O  O14  1  0.40465255  0.39039757  0.91915510  1.0
  O  O15  1  0.40465255  0.60960243  0.41915510  1.0
  O  O16  1  0.09534745  0.89039757  0.91915510  1.0
  O  O17  1  0.09534745  0.10960243  0.41915510  1.0
  O  O18  1  0.59534745  0.39039757  0.58084490  1.0
  O  O19  1  0.59534745  0.60960243  0.08084490  1.0
  O  O20  1  0.75523214  0.87659005  0.92413518  1.0
  O  O21  1  0.75523214  0.12340995  0.42413518  1.0
  O  O22  1  0.25523214  0.37659005  0.57586482  1.0
  O  O23  1  0.25523214  0.62340995  0.07586482  1.0
  O  O24  1  0.24476786  0.87659005  0.57586482  1.0
  O  O25  1  0.24476786  0.12340995  0.07586482  1.0
  O  O26  1  0.74476786  0.37659005  0.92413518  1.0
  O  O27  1  0.74476786  0.62340995  0.42413518  1.0
  O  O28  1  0.57828490  0.87839767  0.58824081  1.0
  O  O29  1  0.57828490  0.12160233  0.08824081  1.0
  O  O30  1  0.07828490  0.37839767  0.91175919  1.0
  O  O31  1  0.07828490  0.62160233  0.41175919  1.0
  O  O32  1  0.42171510  0.87839767  0.91175919  1.0
  O  O33  1  0.42171510  0.12160233  0.41175919  1.0
  O  O34  1  0.92171510  0.37839767  0.58824081  1.0
  O  O35  1  0.92171510  0.62160233  0.08824081  1.0
