# generated using pymatgen
data_Nb8Zn4C3
_symmetry_space_group_name_H-M   'P 1'
_cell_length_a   8.46451364
_cell_length_b   8.46451364
_cell_length_c   8.46451364
_cell_angle_alpha   60.00000000
_cell_angle_beta   60.00000000
_cell_angle_gamma   60.00000000
_symmetry_Int_Tables_number   1
_chemical_formula_structural   Nb8Zn4C3
_chemical_formula_sum   'Nb16 Zn8 C6'
_cell_volume   428.83579516
_cell_formula_units_Z   2
loop_
 _symmetry_equiv_pos_site_id
 _symmetry_equiv_pos_as_xyz
  1  'x, y, z'
loop_
 _atom_site_type_symbol
 _atom_site_label
 _atom_site_symmetry_multiplicity
 _atom_site_fract_x
 _atom_site_fract_y
 _atom_site_fract_z
 _atom_site_occupancy
  Nb  Nb0  1  1.43941018  0.43941018  0.06058982  1.0
  Nb  Nb1  1  1.06058982  0.43941018  0.06058982  1.0
  Nb  Nb2  1  1.43941018  0.06058982  0.06058982  1.0
  Nb  Nb3  1  1.06058982  0.06058982  0.43941018  1.0
  Nb  Nb4  1  1.43941018  0.06058982  0.43941018  1.0
  Nb  Nb5  1  1.06058982  0.43941018  0.43941018  1.0
  Nb  Nb6  1  0.81058982  0.81058982  -0.81058982  1.0
  Nb  Nb7  1  1.18941018  -0.18941018  0.18941018  1.0
  Nb  Nb8  1  -0.18941018  0.18941018  0.18941018  1.0
  Nb  Nb9  1  0.18941018  0.18941018  -0.18941018  1.0
  Nb  Nb10  1  0.81058982  -0.81058982  0.81058982  1.0
  Nb  Nb11  1  -0.81058982  0.81058982  0.81058982  1.0
  Nb  Nb12  1  0.62500000  0.62500000  1.12500000  1.0
  Nb  Nb13  1  0.62500000  1.12500000  0.62500000  1.0
  Nb  Nb14  1  1.12500000  0.62500000  0.62500000  1.0
  Nb  Nb15  1  0.62500000  0.62500000  0.62500000  1.0
  Zn  Zn16  1  0.83789962  -0.16210038  0.48630115  1.0
  Zn  Zn17  1  0.83789962  -0.51369885  0.83789962  1.0
  Zn  Zn18  1  0.48630115  0.83789962  0.83789962  1.0
  Zn  Zn19  1  0.83789962  0.83789962  0.83789962  1.0
  Zn  Zn20  1  1.41210038  0.41210038  -0.23630115  1.0
  Zn  Zn21  1  1.41210038  -0.23630115  0.41210038  1.0
  Zn  Zn22  1  0.76369885  0.41210038  0.41210038  1.0
  Zn  Zn23  1  1.41210038  0.41210038  0.41210038  1.0
  C  C24  1  0.12500000  0.12500000  1.62500000  1.0
  C  C25  1  0.12500000  0.62500000  1.12500000  1.0
  C  C26  1  1.62500000  0.12500000  0.12500000  1.0
  C  C27  1  1.12500000  0.12500000  0.12500000  1.0
  C  C28  1  1.25000000  0.25000000  0.25000000  1.0
  C  C29  1  -0.00000000  0.00000000  0.00000000  1.0
