# generated using pymatgen
data_PdPb2
_symmetry_space_group_name_H-M   'P 1'
_cell_length_a   5.77985388
_cell_length_b   5.77985388
_cell_length_c   5.77985388
_cell_angle_alpha   105.27452313
_cell_angle_beta   105.27452313
_cell_angle_gamma   118.23647687
_symmetry_Int_Tables_number   1
_chemical_formula_structural   PdPb2
_chemical_formula_sum   'Pd2 Pb4'
_cell_volume   145.99249507
_cell_formula_units_Z   2
loop_
 _symmetry_equiv_pos_site_id
 _symmetry_equiv_pos_as_xyz
  1  'x, y, z'
loop_
 _atom_site_type_symbol
 _atom_site_label
 _atom_site_symmetry_multiplicity
 _atom_site_fract_x
 _atom_site_fract_y
 _atom_site_fract_z
 _atom_site_occupancy
  Pd  Pd0  1  0.25000000  0.25000000  -0.00000000  1.0
  Pd  Pd1  1  0.75000000  0.75000000  -0.00000000  1.0
  Pb  Pb2  1  0.83705516  0.33705516  1.17411031  1.0
  Pb  Pb3  1  0.66294484  0.83705516  0.50000000  1.0
  Pb  Pb4  1  0.33705516  0.16294484  0.50000000  1.0
  Pb  Pb5  1  1.16294484  0.66294484  0.82588969  1.0
