# generated using pymatgen
data_BaLaAgTe3
_symmetry_space_group_name_H-M   'P 1'
_cell_length_a   7.97819825
_cell_length_b   7.97819825
_cell_length_c   11.90578693
_cell_angle_alpha   90.00000000
_cell_angle_beta   90.00000000
_cell_angle_gamma   146.17791933
_symmetry_Int_Tables_number   1
_chemical_formula_structural   BaLaAgTe3
_chemical_formula_sum   'Ba2 La2 Ag2 Te6'
_cell_volume   421.81624234
_cell_formula_units_Z   2
loop_
 _symmetry_equiv_pos_site_id
 _symmetry_equiv_pos_as_xyz
  1  'x, y, z'
loop_
 _atom_site_type_symbol
 _atom_site_label
 _atom_site_symmetry_multiplicity
 _atom_site_fract_x
 _atom_site_fract_y
 _atom_site_fract_z
 _atom_site_occupancy
  Ba  Ba0  1  -0.24557054  0.24557054  0.75000000  1.0
  Ba  Ba1  1  0.24557054  0.75442946  0.25000000  1.0
  La  La2  1  0.00000000  0.00000000  0.00000000  1.0
  La  La3  1  0.00000000  0.00000000  0.50000000  1.0
  Ag  Ag4  1  0.47201256  0.52798744  0.75000000  1.0
  Ag  Ag5  1  -0.47201256  0.47201256  0.25000000  1.0
  Te  Te6  1  0.35832295  0.64167705  0.93857047  1.0
  Te  Te7  1  0.35832295  0.64167705  0.56142953  1.0
  Te  Te8  1  -0.35832295  0.35832295  0.43857047  1.0
  Te  Te9  1  -0.35832295  0.35832295  0.06142953  1.0
  Te  Te10  1  0.08265426  0.91734574  0.75000000  1.0
  Te  Te11  1  -0.08265426  0.08265426  0.25000000  1.0
