# generated using pymatgen
data_Co2Ag3SbO6
_symmetry_space_group_name_H-M   'P 1'
_cell_length_a   5.40321220
_cell_length_b   5.40321220
_cell_length_c   19.07647724
_cell_angle_alpha   90.00000000
_cell_angle_beta   90.00000000
_cell_angle_gamma   120.00000000
_symmetry_Int_Tables_number   1
_chemical_formula_structural   Co2Ag3SbO6
_chemical_formula_sum   'Co6 Ag9 Sb3 O18'
_cell_volume   482.31732074
_cell_formula_units_Z   3
loop_
 _symmetry_equiv_pos_site_id
 _symmetry_equiv_pos_as_xyz
  1  'x, y, z'
loop_
 _atom_site_type_symbol
 _atom_site_label
 _atom_site_symmetry_multiplicity
 _atom_site_fract_x
 _atom_site_fract_y
 _atom_site_fract_z
 _atom_site_occupancy
  Co  Co0  1  0.88920867  0.44460433  0.00000000  1.0
  Co  Co1  1  0.55539567  0.44460433  0.33333333  1.0
  Co  Co2  1  0.55539567  0.11079133  0.66666667  1.0
  Co  Co3  1  0.55572629  0.77786315  0.00000000  1.0
  Co  Co4  1  0.22213685  0.77786315  0.33333333  1.0
  Co  Co5  1  0.22213685  0.44427371  0.66666667  1.0
  Ag  Ag6  1  0.88862531  0.44431266  0.50000000  1.0
  Ag  Ag7  1  0.55568734  0.44431266  0.83333333  1.0
  Ag  Ag8  1  0.55568734  0.11137469  0.16666667  1.0
  Ag  Ag9  1  0.55873710  0.77936855  0.50000000  1.0
  Ag  Ag10  1  0.22063145  0.77936855  0.83333333  1.0
  Ag  Ag11  1  0.22063145  0.44126290  0.16666667  1.0
  Ag  Ag12  1  0.21913840  0.10956920  0.50000000  1.0
  Ag  Ag13  1  0.89043080  0.10956920  0.83333333  1.0
  Ag  Ag14  1  0.89043080  0.78086160  0.16666667  1.0
  Sb  Sb15  1  0.22259494  0.11129747  0.00000000  1.0
  Sb  Sb16  1  0.88870253  0.11129747  0.33333333  1.0
  Sb  Sb17  1  0.88870253  0.77740506  0.66666667  1.0
  O  O18  1  0.56286862  0.45144915  0.72147595  1.0
  O  O19  1  0.56286862  0.11141947  0.27852405  1.0
  O  O20  1  0.88858053  0.45144915  0.61185738  1.0
  O  O21  1  0.88858053  0.43713138  0.38814262  1.0
  O  O22  1  0.54855085  0.43713138  0.94519071  1.0
  O  O23  1  0.54855085  0.11141947  0.05480929  1.0
  O  O24  1  0.21475347  0.77691404  0.72142498  1.0
  O  O25  1  0.21475347  0.43783943  0.27857502  1.0
  O  O26  1  0.56216057  0.77691404  0.61190836  1.0
  O  O27  1  0.56216057  0.78524653  0.38809164  1.0
  O  O28  1  0.22308596  0.78524653  0.94524169  1.0
  O  O29  1  0.22308596  0.43783943  0.05475831  1.0
  O  O30  1  0.89631361  0.78465285  0.05469236  1.0
  O  O31  1  0.89631361  0.11166076  0.94530764  1.0
  O  O32  1  0.88833924  0.78465285  0.27864097  1.0
  O  O33  1  0.88833924  0.10368639  0.72135903  1.0
  O  O34  1  0.21534715  0.10368639  0.61197431  1.0
  O  O35  1  0.21534715  0.11166076  0.38802569  1.0
