# generated using pymatgen
data_Na2TiF6
_symmetry_space_group_name_H-M   'P 1'
_cell_length_a   9.37896849
_cell_length_b   9.37896849
_cell_length_c   5.22435521
_cell_angle_alpha   90.00000000
_cell_angle_beta   90.00000000
_cell_angle_gamma   120.00000000
_symmetry_Int_Tables_number   1
_chemical_formula_structural   Na2TiF6
_chemical_formula_sum   'Na6 Ti3 F18'
_cell_volume   397.99121209
_cell_formula_units_Z   3
loop_
 _symmetry_equiv_pos_site_id
 _symmetry_equiv_pos_as_xyz
  1  'x, y, z'
loop_
 _atom_site_type_symbol
 _atom_site_label
 _atom_site_symmetry_multiplicity
 _atom_site_fract_x
 _atom_site_fract_y
 _atom_site_fract_z
 _atom_site_occupancy
  Na  Na0  1  0.70877067  0.70877067  0.50000000  1.0
  Na  Na1  1  -0.00000000  0.29122933  0.50000000  1.0
  Na  Na2  1  0.29122933  0.00000000  0.50000000  1.0
  Na  Na3  1  0.37348009  0.37348009  0.00000000  1.0
  Na  Na4  1  0.00000000  0.62651991  0.00000000  1.0
  Na  Na5  1  0.62651991  0.00000000  0.00000000  1.0
  Ti  Ti6  1  0.33333333  0.66666667  0.49536974  1.0
  Ti  Ti7  1  0.66666667  0.33333333  0.50463026  1.0
  Ti  Ti8  1  0.00000000  0.00000000  0.00000000  1.0
  F  F9  1  0.77540026  0.52435296  0.29853389  1.0
  F  F10  1  0.52435296  0.77540026  0.70146611  1.0
  F  F11  1  0.74895269  0.22459974  0.29853389  1.0
  F  F12  1  0.47564704  0.25104731  0.29853389  1.0
  F  F13  1  0.22459974  0.74895269  0.70146611  1.0
  F  F14  1  0.25104731  0.47564704  0.70146611  1.0
  F  F15  1  0.08488374  0.89403020  0.20563931  1.0
  F  F16  1  0.89403020  0.08488374  0.79436069  1.0
  F  F17  1  0.80914646  0.91511626  0.20563931  1.0
  F  F18  1  0.10596980  0.19085354  0.20563931  1.0
  F  F19  1  0.91511626  0.80914646  0.79436069  1.0
  F  F20  1  0.19085354  0.10596980  0.79436069  1.0
  F  F21  1  0.40783594  0.85648829  0.28867245  1.0
  F  F22  1  0.85648829  0.40783594  0.71132755  1.0
  F  F23  1  0.44865235  0.59216406  0.28867245  1.0
  F  F24  1  0.14351171  0.55134765  0.28867245  1.0
  F  F25  1  0.59216406  0.44865235  0.71132755  1.0
  F  F26  1  0.55134765  0.14351171  0.71132755  1.0
