# generated using pymatgen
data_GeP2O7
_symmetry_space_group_name_H-M   'P 1'
_cell_length_a   7.90958683
_cell_length_b   6.80893240
_cell_length_c   4.73895319
_cell_angle_alpha   104.93263418
_cell_angle_beta   92.98562097
_cell_angle_gamma   91.57141348
_symmetry_Int_Tables_number   1
_chemical_formula_structural   GeP2O7
_chemical_formula_sum   'Ge2 P4 O14'
_cell_volume   246.04593438
_cell_formula_units_Z   2
loop_
 _symmetry_equiv_pos_site_id
 _symmetry_equiv_pos_as_xyz
  1  'x, y, z'
loop_
 _atom_site_type_symbol
 _atom_site_label
 _atom_site_symmetry_multiplicity
 _atom_site_fract_x
 _atom_site_fract_y
 _atom_site_fract_z
 _atom_site_occupancy
  Ge  Ge0  1  -0.50000000  -0.50000000  0.00000000  1.0
  Ge  Ge1  1  0.00000000  0.00000000  -0.50000000  1.0
  P  P2  1  -0.81023393  -0.75417639  -0.88985393  1.0
  P  P3  1  -0.18976607  -0.24582361  -0.11014607  1.0
  P  P4  1  -0.73696812  -0.36162389  -0.48588840  1.0
  P  P5  1  -0.26303188  -0.63837611  -0.51411160  1.0
  O  O6  1  -0.62224939  -0.73396973  -0.95400493  1.0
  O  O7  1  -0.37775061  -0.26603027  -0.04599507  1.0
  O  O8  1  -0.30989247  -0.56128139  -0.78383583  1.0
  O  O9  1  -0.69010753  -0.43871861  -0.21616417  1.0
  O  O10  1  -0.82631774  -0.90641269  -0.70263950  1.0
  O  O11  1  -0.17368226  -0.09358731  -0.29736050  1.0
  O  O12  1  -0.86328699  -0.53333785  -0.70024438  1.0
  O  O13  1  -0.13671301  -0.46666215  -0.29975562  1.0
  O  O14  1  -0.58326194  -0.32863963  -0.65695886  1.0
  O  O15  1  -0.41673806  -0.67136037  -0.34304114  1.0
  O  O16  1  -0.15884242  -0.82717077  -0.61358983  1.0
  O  O17  1  -0.84115758  -0.17282923  -0.38641017  1.0
  O  O18  1  -0.93551164  -0.79422156  -0.15842629  1.0
  O  O19  1  -0.06448836  -0.20577844  -0.84157371  1.0
