# generated using pymatgen
data_S2Xe(O3F)2
_symmetry_space_group_name_H-M   'P 1'
_cell_length_a   6.81221873
_cell_length_b   15.44817739
_cell_length_c   10.71255751
_cell_angle_alpha   90.00000000
_cell_angle_beta   129.39314382
_cell_angle_gamma   90.00000000
_symmetry_Int_Tables_number   1
_chemical_formula_structural   S2Xe(O3F)2
_chemical_formula_sum   'S8 Xe4 O24 F8'
_cell_volume   871.22727418
_cell_formula_units_Z   4
loop_
 _symmetry_equiv_pos_site_id
 _symmetry_equiv_pos_as_xyz
  1  'x, y, z'
loop_
 _atom_site_type_symbol
 _atom_site_label
 _atom_site_symmetry_multiplicity
 _atom_site_fract_x
 _atom_site_fract_y
 _atom_site_fract_z
 _atom_site_occupancy
  S  S0  1  0.94351451  0.46009738  0.25143532  1.0
  S  S1  1  0.94351451  0.03990262  0.75143532  1.0
  S  S2  1  0.05648549  0.96009738  0.24856468  1.0
  S  S3  1  0.05648549  0.53990262  0.74856468  1.0
  S  S4  1  0.42010504  0.28207990  0.23505000  1.0
  S  S5  1  0.42010504  0.21792010  0.73505000  1.0
  S  S6  1  0.57989496  0.78207990  0.26495000  1.0
  S  S7  1  0.57989496  0.71792010  0.76495000  1.0
  Xe  Xe8  1  0.73444600  0.12069080  0.23717017  1.0
  Xe  Xe9  1  0.73444600  0.37930920  0.73717017  1.0
  Xe  Xe10  1  0.26555400  0.62069080  0.26282983  1.0
  Xe  Xe11  1  0.26555400  0.87930920  0.76282983  1.0
  O  O12  1  0.96416065  0.39033752  0.34772641  1.0
  O  O13  1  0.96416065  0.10966248  0.84772641  1.0
  O  O14  1  0.03583935  0.89033752  0.15227359  1.0
  O  O15  1  0.03583935  0.60966248  0.65227359  1.0
  O  O16  1  0.81971905  0.01870163  0.13244252  1.0
  O  O17  1  0.81971905  0.48129837  0.63244252  1.0
  O  O18  1  0.18028095  0.51870163  0.36755748  1.0
  O  O19  1  0.18028095  0.98129837  0.86755748  1.0
  O  O20  1  0.88380913  0.44673184  0.09813281  1.0
  O  O21  1  0.88380913  0.05326816  0.59813281  1.0
  O  O22  1  0.11619087  0.94673184  0.40186719  1.0
  O  O23  1  0.11619087  0.55326816  0.90186719  1.0
  O  O24  1  0.64408611  0.79962843  0.41852323  1.0
  O  O25  1  0.64408611  0.70037157  0.91852323  1.0
  O  O26  1  0.35591389  0.29962843  0.08147677  1.0
  O  O27  1  0.35591389  0.20037157  0.58147677  1.0
  O  O28  1  0.65405116  0.22197493  0.34537085  1.0
  O  O29  1  0.65405116  0.27802507  0.84537085  1.0
  O  O30  1  0.34594884  0.72197493  0.15462915  1.0
  O  O31  1  0.34594884  0.77802507  0.65462915  1.0
  O  O32  1  0.44685949  0.34970465  0.33699584  1.0
  O  O33  1  0.44685949  0.15029535  0.83699584  1.0
  O  O34  1  0.55314051  0.84970465  0.16300416  1.0
  O  O35  1  0.55314051  0.65029535  0.66300416  1.0
  F  F36  1  0.80162358  0.72006368  0.30354552  1.0
  F  F37  1  0.80162358  0.77993632  0.80354552  1.0
  F  F38  1  0.19837642  0.22006368  0.19645448  1.0
  F  F39  1  0.19837642  0.27993632  0.69645448  1.0
  F  F40  1  0.27655466  0.02238673  0.28532216  1.0
  F  F41  1  0.27655466  0.47761327  0.78532216  1.0
  F  F42  1  0.72344534  0.52238673  0.21467784  1.0
  F  F43  1  0.72344534  0.97761327  0.71467784  1.0
