# generated using pymatgen
data_CaV2(HO2)4
_symmetry_space_group_name_H-M   'P 1'
_cell_length_a   7.87539522
_cell_length_b   7.11291149
_cell_length_c   6.38130497
_cell_angle_alpha   107.44111525
_cell_angle_beta   97.59970129
_cell_angle_gamma   92.22366869
_symmetry_Int_Tables_number   1
_chemical_formula_structural   CaV2(HO2)4
_chemical_formula_sum   'Ca2 V4 H8 O16'
_cell_volume   336.86696179
_cell_formula_units_Z   2
loop_
 _symmetry_equiv_pos_site_id
 _symmetry_equiv_pos_as_xyz
  1  'x, y, z'
loop_
 _atom_site_type_symbol
 _atom_site_label
 _atom_site_symmetry_multiplicity
 _atom_site_fract_x
 _atom_site_fract_y
 _atom_site_fract_z
 _atom_site_occupancy
  Ca  Ca0  1  -0.85394732  -0.53586842  -0.23564593  1.0
  Ca  Ca1  1  -0.14605268  -0.46413158  -0.76435407  1.0
  V  V2  1  -0.66483678  -0.89796278  -0.55848421  1.0
  V  V3  1  -0.33516322  -0.10203722  -0.44151579  1.0
  V  V4  1  -0.65784035  -0.41834682  -0.62201219  1.0
  V  V5  1  -0.34215965  -0.58165318  -0.37798781  1.0
  H  H6  1  -0.52658040  -0.28538903  -0.07081897  1.0
  H  H7  1  -0.47341960  -0.71461097  -0.92918103  1.0
  H  H8  1  -0.66423724  -0.12687523  -0.03293776  1.0
  H  H9  1  -0.33576276  -0.87312477  -0.96706224  1.0
  H  H10  1  -0.91751059  -0.15331329  -0.90805573  1.0
  H  H11  1  -0.08248941  -0.84668671  -0.09194427  1.0
  H  H12  1  -0.09315683  -0.21406041  -0.06334335  1.0
  H  H13  1  -0.90684317  -0.78593959  -0.93665665  1.0
  O  O14  1  -0.58599680  -0.15138671  -0.57700114  1.0
  O  O15  1  -0.41400320  -0.84861329  -0.42299886  1.0
  O  O16  1  -0.60898011  -0.61694605  -0.48641918  1.0
  O  O17  1  -0.39101989  -0.38305395  -0.51358082  1.0
  O  O18  1  -0.63415926  -0.24952048  -0.13905072  1.0
  O  O19  1  -0.36584074  -0.75047952  -0.86094928  1.0
  O  O20  1  -0.67057141  -0.52670058  -0.89123995  1.0
  O  O21  1  -0.32942859  -0.47329942  -0.10876005  1.0
  O  O22  1  -0.76234450  -0.94811818  -0.82176997  1.0
  O  O23  1  -0.23765550  -0.05188182  -0.17823003  1.0
  O  O24  1  -0.81000123  -0.87552942  -0.39359898  1.0
  O  O25  1  -0.18999877  -0.12447058  -0.60640102  1.0
  O  O26  1  -0.86029087  -0.40360670  -0.56655839  1.0
  O  O27  1  -0.13970913  -0.59639330  -0.43344161  1.0
  O  O28  1  -0.99719082  -0.27156155  -0.99328420  1.0
  O  O29  1  -0.00280918  -0.72843845  -0.00671580  1.0
