# generated using pymatgen
data_C3S8
_symmetry_space_group_name_H-M   'P 1'
_cell_length_a   9.31585317
_cell_length_b   5.18257116
_cell_length_c   12.71269906
_cell_angle_alpha   98.91126965
_cell_angle_beta   99.13492422
_cell_angle_gamma   90.56357240
_symmetry_Int_Tables_number   1
_chemical_formula_structural   C3S8
_chemical_formula_sum   'C6 S16'
_cell_volume   598.29806226
_cell_formula_units_Z   2
loop_
 _symmetry_equiv_pos_site_id
 _symmetry_equiv_pos_as_xyz
  1  'x, y, z'
loop_
 _atom_site_type_symbol
 _atom_site_label
 _atom_site_symmetry_multiplicity
 _atom_site_fract_x
 _atom_site_fract_y
 _atom_site_fract_z
 _atom_site_occupancy
  C  C0  1  -0.85449304  -0.67368889  -0.78326254  1.0
  C  C1  1  -0.14550696  -0.32631111  -0.21673746  1.0
  C  C2  1  -0.78923875  -0.63753230  -0.67716456  1.0
  C  C3  1  -0.21076125  -0.36246770  -0.32283544  1.0
  C  C4  1  -0.97384588  -0.64001728  -0.32069051  1.0
  C  C5  1  -0.02615412  -0.35998272  -0.67930949  1.0
  S  S6  1  -0.80111447  -0.88174484  -0.89276325  1.0
  S  S7  1  -0.19888553  -0.11825516  -0.10723675  1.0
  S  S8  1  -0.84048371  -0.82717808  -0.35367406  1.0
  S  S9  1  -0.15951629  -0.17282192  -0.64632594  1.0
  S  S10  1  -0.63334442  -0.78980224  -0.62062050  1.0
  S  S11  1  -0.36665558  -0.21019776  -0.37937950  1.0
  S  S12  1  -0.44559839  -0.83025130  -0.82024193  1.0
  S  S13  1  -0.55440161  -0.16974870  -0.17975807  1.0
  S  S14  1  -0.61590190  -0.70052093  -0.92278347  1.0
  S  S15  1  -0.38409810  -0.29947907  -0.07721653  1.0
  S  S16  1  -0.46097502  -0.61249182  -0.67114343  1.0
  S  S17  1  -0.53902498  -0.38750818  -0.32885657  1.0
  S  S18  1  -0.98492824  -0.49182374  -0.18907501  1.0
  S  S19  1  -0.01507176  -0.50817626  -0.81092499  1.0
  S  S20  1  -0.87660630  -0.42974506  -0.58760170  1.0
  S  S21  1  -0.12339370  -0.57025494  -0.41239830  1.0
