# generated using pymatgen
data_CuH10C2(NCl2)2
_symmetry_space_group_name_H-M   'P 1'
_cell_length_a   8.32446986
_cell_length_b   7.59957739
_cell_length_c   7.23770277
_cell_angle_alpha   90.00000000
_cell_angle_beta   88.45660594
_cell_angle_gamma   90.00000000
_symmetry_Int_Tables_number   1
_chemical_formula_structural   CuH10C2(NCl2)2
_chemical_formula_sum   'Cu2 H20 C4 N4 Cl8'
_cell_volume   457.70871933
_cell_formula_units_Z   2
loop_
 _symmetry_equiv_pos_site_id
 _symmetry_equiv_pos_as_xyz
  1  'x, y, z'
loop_
 _atom_site_type_symbol
 _atom_site_label
 _atom_site_symmetry_multiplicity
 _atom_site_fract_x
 _atom_site_fract_y
 _atom_site_fract_z
 _atom_site_occupancy
  Cu  Cu0  1  0.50000000  0.50000000  0.00000000  1.0
  Cu  Cu1  1  0.50000000  0.00000000  0.50000000  1.0
  H  H2  1  0.68380103  0.96645652  0.93116605  1.0
  H  H3  1  0.31619897  0.46645652  0.56883395  1.0
  H  H4  1  0.31619897  0.03354348  0.06883395  1.0
  H  H5  1  0.68380103  0.53354348  0.43116605  1.0
  H  H6  1  0.74899148  0.01479588  0.14608200  1.0
  H  H7  1  0.25100852  0.51479588  0.35391800  1.0
  H  H8  1  0.25100852  0.98520412  0.85391800  1.0
  H  H9  1  0.74899148  0.48520412  0.64608200  1.0
  H  H10  1  0.76730075  0.16492138  0.97765203  1.0
  H  H11  1  0.23269925  0.66492138  0.52234797  1.0
  H  H12  1  0.23269925  0.83507862  0.02234797  1.0
  H  H13  1  0.76730075  0.33507862  0.47765203  1.0
  H  H14  1  0.94662641  0.96990061  0.79903938  1.0
  H  H15  1  0.05337359  0.46990061  0.70096062  1.0
  H  H16  1  0.05337359  0.03009939  0.20096062  1.0
  H  H17  1  0.94662641  0.53009939  0.29903938  1.0
  H  H18  1  0.92832015  0.81274850  0.98086250  1.0
  H  H19  1  0.07167985  0.31274850  0.51913750  1.0
  H  H20  1  0.07167985  0.18725150  0.01913750  1.0
  H  H21  1  0.92832015  0.68725150  0.48086250  1.0
  C  C22  1  0.93257502  0.95411489  0.94939797  1.0
  C  C23  1  0.06742498  0.45411489  0.55060203  1.0
  C  C24  1  0.06742498  0.04588511  0.05060203  1.0
  C  C25  1  0.93257502  0.54588511  0.44939797  1.0
  N  N26  1  0.77360530  0.02988482  1.00523915  1.0
  N  N27  1  0.22639470  0.52988482  0.49476085  1.0
  N  N28  1  0.22639470  0.97011518  -0.00523915  1.0
  N  N29  1  0.77360530  0.47011518  0.50523915  1.0
  Cl  Cl30  1  0.77619353  0.45218034  0.96123974  1.0
  Cl  Cl31  1  0.22380647  0.95218034  0.53876026  1.0
  Cl  Cl32  1  0.22380647  0.54781966  0.03876026  1.0
  Cl  Cl33  1  0.77619353  0.04781966  0.46123974  1.0
  Cl  Cl34  1  0.45360658  0.18682216  0.25760873  1.0
  Cl  Cl35  1  0.54639342  0.68682216  0.24239127  1.0
  Cl  Cl36  1  0.54639342  0.81317784  0.74239127  1.0
  Cl  Cl37  1  0.45360658  0.31317784  0.75760873  1.0
