# generated using pymatgen
data_CsHCO3
_symmetry_space_group_name_H-M   'P 1'
_cell_length_a   4.37682073
_cell_length_b   11.62415246
_cell_length_c   8.22711821
_cell_angle_alpha   90.00000000
_cell_angle_beta   105.27386590
_cell_angle_gamma   90.00000000
_symmetry_Int_Tables_number   1
_chemical_formula_structural   CsHCO3
_chemical_formula_sum   'Cs4 H4 C4 O12'
_cell_volume   403.78485179
_cell_formula_units_Z   4
loop_
 _symmetry_equiv_pos_site_id
 _symmetry_equiv_pos_as_xyz
  1  'x, y, z'
loop_
 _atom_site_type_symbol
 _atom_site_label
 _atom_site_symmetry_multiplicity
 _atom_site_fract_x
 _atom_site_fract_y
 _atom_site_fract_z
 _atom_site_occupancy
  Cs  Cs0  1  0.42945264  0.16457618  0.09323705  1.0
  Cs  Cs1  1  0.42945264  0.33542382  0.59323705  1.0
  Cs  Cs2  1  0.57054736  0.66457618  0.40676295  1.0
  Cs  Cs3  1  0.57054736  0.83542382  0.90676295  1.0
  H  H4  1  0.96314821  0.40891263  -0.02427505  1.0
  H  H5  1  0.96314821  0.09108737  0.47572495  1.0
  H  H6  1  0.03685179  0.90891263  0.52427505  1.0
  H  H7  1  0.03685179  0.59108737  1.02427505  1.0
  C  C8  1  0.86816432  0.43932692  0.19446110  1.0
  C  C9  1  0.86816432  0.06067308  0.69446110  1.0
  C  C10  1  0.13183568  0.93932692  0.30553890  1.0
  C  C11  1  0.13183568  0.56067308  0.80553890  1.0
  O  O12  1  0.05784177  0.04506204  0.31833214  1.0
  O  O13  1  0.05784177  0.45493796  0.81833214  1.0
  O  O14  1  0.94215823  0.54506204  0.18166786  1.0
  O  O15  1  0.94215823  0.95493796  0.68166786  1.0
  O  O16  1  0.89484892  0.36551686  0.06948494  1.0
  O  O17  1  0.89484892  0.13448314  0.56948494  1.0
  O  O18  1  0.10515108  0.86551686  0.43051506  1.0
  O  O19  1  0.10515108  0.63448314  0.93051506  1.0
  O  O20  1  0.77430306  0.39655111  0.31328799  1.0
  O  O21  1  0.77430306  0.10344889  0.81328799  1.0
  O  O22  1  0.22569694  0.89655111  0.18671201  1.0
  O  O23  1  0.22569694  0.60344889  0.68671201  1.0
