# generated using pymatgen
data_K2SiH4(NO)2
_symmetry_space_group_name_H-M   'P 1'
_cell_length_a   6.85504701
_cell_length_b   10.03428604
_cell_length_c   7.68104380
_cell_angle_alpha   90.00000000
_cell_angle_beta   90.69986474
_cell_angle_gamma   90.00000000
_symmetry_Int_Tables_number   1
_chemical_formula_structural   K2SiH4(NO)2
_chemical_formula_sum   'K8 Si4 H16 N8 O8'
_cell_volume   528.30504260
_cell_formula_units_Z   4
loop_
 _symmetry_equiv_pos_site_id
 _symmetry_equiv_pos_as_xyz
  1  'x, y, z'
loop_
 _atom_site_type_symbol
 _atom_site_label
 _atom_site_symmetry_multiplicity
 _atom_site_fract_x
 _atom_site_fract_y
 _atom_site_fract_z
 _atom_site_occupancy
  K  K0  1  0.64881699  0.06230593  0.33923713  1.0
  K  K1  1  0.64881699  0.43769407  0.83923713  1.0
  K  K2  1  0.35118301  0.56230593  0.16076287  1.0
  K  K3  1  0.35118301  0.93769407  0.66076287  1.0
  K  K4  1  0.34043984  0.30458777  0.48107256  1.0
  K  K5  1  0.34043984  0.19541223  0.98107256  1.0
  K  K6  1  0.65956016  0.80458777  0.01892744  1.0
  K  K7  1  0.65956016  0.69541223  0.51892744  1.0
  Si  Si8  1  0.78502814  0.42431174  0.25172561  1.0
  Si  Si9  1  0.78502814  0.07568826  0.75172561  1.0
  Si  Si10  1  0.21497186  0.92431174  0.24827439  1.0
  Si  Si11  1  0.21497186  0.57568826  0.74827439  1.0
  H  H12  1  0.94730588  0.88104215  0.43800802  1.0
  H  H13  1  0.94730588  0.61895785  0.93800802  1.0
  H  H14  1  0.05269412  0.38104215  0.06199198  1.0
  H  H15  1  0.05269412  0.11895785  0.56199198  1.0
  H  H16  1  0.95328484  0.76687089  0.28182635  1.0
  H  H17  1  0.95328484  0.73312911  0.78182635  1.0
  H  H18  1  0.04671516  0.26687089  0.21817365  1.0
  H  H19  1  0.04671516  0.23312911  0.71817365  1.0
  H  H20  1  0.89794008  0.05765369  0.05066446  1.0
  H  H21  1  0.89794008  0.44234631  0.55066446  1.0
  H  H22  1  0.10205992  0.55765369  0.44933554  1.0
  H  H23  1  0.10205992  0.94234631  0.94933554  1.0
  H  H24  1  0.74488194  0.18290905  0.03131376  1.0
  H  H25  1  0.74488194  0.31709095  0.53131376  1.0
  H  H26  1  0.25511806  0.68290905  0.46868624  1.0
  H  H27  1  0.25511806  0.81709095  0.96868624  1.0
  N  N28  1  0.97782666  0.86588127  0.30867171  1.0
  N  N29  1  0.97782666  0.63411873  0.80867171  1.0
  N  N30  1  0.02217334  0.36588127  0.19132829  1.0
  N  N31  1  0.02217334  0.13411873  0.69132829  1.0
  N  N32  1  0.77749532  0.41026149  0.48308858  1.0
  N  N33  1  0.77749532  0.08973851  0.98308858  1.0
  N  N34  1  0.22250468  0.91026149  0.01691142  1.0
  N  N35  1  0.22250468  0.58973851  0.51691142  1.0
  O  O36  1  0.60802418  0.33026180  0.17902443  1.0
  O  O37  1  0.60802418  0.16973820  0.67902443  1.0
  O  O38  1  0.39197582  0.83026180  0.32097557  1.0
  O  O39  1  0.39197582  0.66973820  0.82097557  1.0
  O  O40  1  0.22883061  0.07927924  0.30687171  1.0
  O  O41  1  0.22883061  0.42072076  0.80687171  1.0
  O  O42  1  0.77116939  0.57927924  0.19312829  1.0
  O  O43  1  0.77116939  0.92072076  0.69312829  1.0
