# generated using pymatgen
data_Mn2BiO5
_symmetry_space_group_name_H-M   'P 1'
_cell_length_a   7.61652638
_cell_length_b   8.60330484
_cell_length_c   5.80495768
_cell_angle_alpha   90.00000000
_cell_angle_beta   90.00000000
_cell_angle_gamma   90.00000000
_symmetry_Int_Tables_number   1
_chemical_formula_structural   Mn2BiO5
_chemical_formula_sum   'Mn8 Bi4 O20'
_cell_volume   380.38319309
_cell_formula_units_Z   4
loop_
 _symmetry_equiv_pos_site_id
 _symmetry_equiv_pos_as_xyz
  1  'x, y, z'
loop_
 _atom_site_type_symbol
 _atom_site_label
 _atom_site_symmetry_multiplicity
 _atom_site_fract_x
 _atom_site_fract_y
 _atom_site_fract_z
 _atom_site_occupancy
  Mn  Mn0  1  0.40504380  0.64930763  -0.00000000  1.0
  Mn  Mn1  1  0.90504380  0.85069237  0.00000000  1.0
  Mn  Mn2  1  0.59495620  0.35069237  -0.00000000  1.0
  Mn  Mn3  1  0.09495620  0.14930763  0.00000000  1.0
  Mn  Mn4  1  0.50000000  0.00000000  0.75923340  1.0
  Mn  Mn5  1  0.50000000  0.00000000  0.24076660  1.0
  Mn  Mn6  1  0.00000000  0.50000000  0.75923340  1.0
  Mn  Mn7  1  0.00000000  0.50000000  0.24076660  1.0
  Bi  Bi8  1  0.15611796  0.83403227  0.50000000  1.0
  Bi  Bi9  1  0.65611796  0.66596773  0.50000000  1.0
  Bi  Bi10  1  0.84388204  0.16596773  0.50000000  1.0
  Bi  Bi11  1  0.34388204  0.33403227  0.50000000  1.0
  O  O12  1  0.39016634  0.79753979  0.75426779  1.0
  O  O13  1  0.39016634  0.79753979  0.24573221  1.0
  O  O14  1  0.89016634  0.70246021  0.75426779  1.0
  O  O15  1  0.89016634  0.70246021  0.24573221  1.0
  O  O16  1  0.60983366  0.20246021  0.75426779  1.0
  O  O17  1  0.60983366  0.20246021  0.24573221  1.0
  O  O18  1  0.10983366  0.29753979  0.75426779  1.0
  O  O19  1  0.10983366  0.29753979  0.24573221  1.0
  O  O20  1  0.15422079  0.55533134  0.50000000  1.0
  O  O21  1  0.65422079  0.94466866  0.50000000  1.0
  O  O22  1  0.84577921  0.44466866  0.50000000  1.0
  O  O23  1  0.34577921  0.05533134  0.50000000  1.0
  O  O24  1  0.50000000  0.50000000  0.78502425  1.0
  O  O25  1  0.50000000  0.50000000  0.21497575  1.0
  O  O26  1  0.00000000  0.00000000  0.78502425  1.0
  O  O27  1  0.00000000  0.00000000  0.21497575  1.0
  O  O28  1  0.14802161  0.56895208  -0.00000000  1.0
  O  O29  1  0.64802161  0.93104792  -0.00000000  1.0
  O  O30  1  0.85197839  0.43104792  -0.00000000  1.0
  O  O31  1  0.35197839  0.06895208  -0.00000000  1.0
