# generated using pymatgen
data_ZnS
_symmetry_space_group_name_H-M   'P 1'
_cell_length_a   3.85004413
_cell_length_b   3.85004413
_cell_length_c   75.50321804
_cell_angle_alpha   90.00000000
_cell_angle_beta   90.00000000
_cell_angle_gamma   120.00000000
_symmetry_Int_Tables_number   1
_chemical_formula_structural   ZnS
_chemical_formula_sum   'Zn24 S24'
_cell_volume   969.23147672
_cell_formula_units_Z   24
loop_
 _symmetry_equiv_pos_site_id
 _symmetry_equiv_pos_as_xyz
  1  'x, y, z'
loop_
 _atom_site_type_symbol
 _atom_site_label
 _atom_site_symmetry_multiplicity
 _atom_site_fract_x
 _atom_site_fract_y
 _atom_site_fract_z
 _atom_site_occupancy
  Zn  Zn0  1  0.00000000  0.00000000  0.09377395  1.0
  Zn  Zn1  1  0.00000000  0.00000000  0.21876316  1.0
  Zn  Zn2  1  -0.00000000  -0.00000000  0.34374894  1.0
  Zn  Zn3  1  0.00000000  0.00000000  0.51044119  1.0
  Zn  Zn4  1  0.00000000  0.00000000  0.63541084  1.0
  Zn  Zn5  1  -0.00000000  -0.00000000  0.80210904  1.0
  Zn  Zn6  1  0.00000000  0.00000000  0.92707850  1.0
  Zn  Zn7  1  0.66666667  0.33333333  0.01042688  1.0
  Zn  Zn8  1  0.66666667  0.33333333  0.13541438  1.0
  Zn  Zn9  1  0.66666667  0.33333333  0.30210563  1.0
  Zn  Zn10  1  0.66666667  0.33333333  0.42709591  1.0
  Zn  Zn11  1  0.66666667  0.33333333  0.55209866  1.0
  Zn  Zn12  1  0.66666667  0.33333333  0.67705873  1.0
  Zn  Zn13  1  0.66666667  0.33333333  0.76046899  1.0
  Zn  Zn14  1  0.66666667  0.33333333  0.88542434  1.0
  Zn  Zn15  1  0.33333333  0.66666667  0.05213540  1.0
  Zn  Zn16  1  0.33333333  0.66666667  0.17705956  1.0
  Zn  Zn17  1  0.33333333  0.66666667  0.26046883  1.0
  Zn  Zn18  1  0.33333333  0.66666667  0.38539337  1.0
  Zn  Zn19  1  0.33333333  0.66666667  0.46880245  1.0
  Zn  Zn20  1  0.33333333  0.66666667  0.59376020  1.0
  Zn  Zn21  1  0.33333333  0.66666667  0.71876277  1.0
  Zn  Zn22  1  0.33333333  0.66666667  0.84376460  1.0
  Zn  Zn23  1  0.33333333  0.66666667  0.96872583  1.0
  S  S24  1  -0.00000000  -0.00000000  0.12500585  1.0
  S  S25  1  -0.00000000  -0.00000000  0.25004838  1.0
  S  S26  1  0.00000000  0.00000000  0.37498209  1.0
  S  S27  1  0.00000000  0.00000000  0.54168026  1.0
  S  S28  1  0.00000000  0.00000000  0.66664786  1.0
  S  S29  1  0.00000000  0.00000000  0.83334553  1.0
  S  S30  1  -0.00000000  -0.00000000  0.95831375  1.0
  S  S31  1  0.66666667  0.33333333  0.04171482  1.0
  S  S32  1  0.66666667  0.33333333  0.16664956  1.0
  S  S33  1  0.66666667  0.33333333  0.33333716  1.0
  S  S34  1  0.66666667  0.33333333  0.45838177  1.0
  S  S35  1  0.66666667  0.33333333  0.58333817  1.0
  S  S36  1  0.66666667  0.33333333  0.70829069  1.0
  S  S37  1  0.66666667  0.33333333  0.79169702  1.0
  S  S38  1  0.66666667  0.33333333  0.91666411  1.0
  S  S39  1  0.33333333  0.66666667  -0.00004219  1.0
  S  S40  1  0.33333333  0.66666667  0.08336085  1.0
  S  S41  1  0.33333333  0.66666667  0.20829101  1.0
  S  S42  1  0.33333333  0.66666667  0.29169536  1.0
  S  S43  1  0.33333333  0.66666667  0.41662701  1.0
  S  S44  1  0.33333333  0.66666667  0.50002883  1.0
  S  S45  1  0.33333333  0.66666667  0.62499731  1.0
  S  S46  1  0.33333333  0.66666667  0.75004852  1.0
  S  S47  1  0.33333333  0.66666667  0.87500414  1.0
