# generated using pymatgen
data_Mn2GeO4
_symmetry_space_group_name_H-M   'P 1'
_cell_length_a   10.81353197
_cell_length_b   6.34741344
_cell_length_c   5.10581014
_cell_angle_alpha   90.00000000
_cell_angle_beta   90.00000000
_cell_angle_gamma   90.00000000
_symmetry_Int_Tables_number   1
_chemical_formula_structural   Mn2GeO4
_chemical_formula_sum   'Mn8 Ge4 O16'
_cell_volume   350.45238235
_cell_formula_units_Z   4
loop_
 _symmetry_equiv_pos_site_id
 _symmetry_equiv_pos_as_xyz
  1  'x, y, z'
loop_
 _atom_site_type_symbol
 _atom_site_label
 _atom_site_symmetry_multiplicity
 _atom_site_fract_x
 _atom_site_fract_y
 _atom_site_fract_z
 _atom_site_occupancy
  Mn  Mn0  1  0.00000000  0.50000000  0.00000000  1.0
  Mn  Mn1  1  -0.00000000  -0.00000000  -0.00000000  1.0
  Mn  Mn2  1  0.50000000  0.50000000  0.50000000  1.0
  Mn  Mn3  1  0.50000000  -0.00000000  0.50000000  1.0
  Mn  Mn4  1  0.78030730  0.25000000  0.51201938  1.0
  Mn  Mn5  1  0.28030730  0.25000000  0.98798062  1.0
  Mn  Mn6  1  0.21969270  0.75000000  0.48798062  1.0
  Mn  Mn7  1  0.71969270  0.75000000  0.01201938  1.0
  O  O8  1  0.59365529  0.25000000  0.71813301  1.0
  O  O9  1  0.09365529  0.25000000  0.78186699  1.0
  O  O10  1  0.40634471  0.75000000  0.28186699  1.0
  O  O11  1  0.90634471  0.75000000  0.21813301  1.0
  O  O12  1  0.94576038  0.25000000  0.27886318  1.0
  O  O13  1  0.44576038  0.25000000  0.22113682  1.0
  O  O14  1  0.05423962  0.75000000  0.72113682  1.0
  O  O15  1  0.55423962  0.75000000  0.77886318  1.0
  O  O16  1  0.66490409  0.47239728  0.22499529  1.0
  O  O17  1  0.66490409  0.02760272  0.22499529  1.0
  O  O18  1  0.16490409  0.47239728  0.27500471  1.0
  O  O19  1  0.16490409  0.02760272  0.27500471  1.0
  O  O20  1  0.33509591  0.97239728  0.77500471  1.0
  O  O21  1  0.33509591  0.52760272  0.77500471  1.0
  O  O22  1  0.83509591  0.97239728  0.72499529  1.0
  O  O23  1  0.83509591  0.52760272  0.72499529  1.0
  Ge  Ge24  1  0.59673856  0.25000000  0.06432006  1.0
  Ge  Ge25  1  0.09673856  0.25000000  0.43567994  1.0
  Ge  Ge26  1  0.40326144  0.75000000  0.93567994  1.0
  Ge  Ge27  1  0.90326144  0.75000000  0.56432006  1.0
