# generated using pymatgen
data_PrSeF
_symmetry_space_group_name_H-M   'P 1'
_cell_length_a   4.05416327
_cell_length_b   4.05416327
_cell_length_c   7.27931976
_cell_angle_alpha   90.00000000
_cell_angle_beta   90.00000000
_cell_angle_gamma   90.00000000
_symmetry_Int_Tables_number   1
_chemical_formula_structural   PrSeF
_chemical_formula_sum   'Pr2 Se2 F2'
_cell_volume   119.64464515
_cell_formula_units_Z   2
loop_
 _symmetry_equiv_pos_site_id
 _symmetry_equiv_pos_as_xyz
  1  'x, y, z'
loop_
 _atom_site_type_symbol
 _atom_site_label
 _atom_site_symmetry_multiplicity
 _atom_site_fract_x
 _atom_site_fract_y
 _atom_site_fract_z
 _atom_site_occupancy
  Pr  Pr0  1  0.50000000  0.00000000  0.21838640  1.0
  Pr  Pr1  1  0.00000000  0.50000000  0.78161360  1.0
  Se  Se2  1  0.50000000  0.00000000  0.64533517  1.0
  Se  Se3  1  0.00000000  0.50000000  0.35466483  1.0
  F  F4  1  0.00000000  0.00000000  0.00000000  1.0
  F  F5  1  0.50000000  0.50000000  0.00000000  1.0
