# generated using pymatgen
data_Sb2H8Pt(OF3)4
_symmetry_space_group_name_H-M   'P 1'
_cell_length_a   5.32234425
_cell_length_b   8.61357332
_cell_length_c   8.71997661
_cell_angle_alpha   69.10250257
_cell_angle_beta   74.31488317
_cell_angle_gamma   88.85586452
_symmetry_Int_Tables_number   1
_chemical_formula_structural   Sb2H8Pt(OF3)4
_chemical_formula_sum   'Sb2 H8 Pt1 O4 F12'
_cell_volume   358.25693436
_cell_formula_units_Z   1
loop_
 _symmetry_equiv_pos_site_id
 _symmetry_equiv_pos_as_xyz
  1  'x, y, z'
loop_
 _atom_site_type_symbol
 _atom_site_label
 _atom_site_symmetry_multiplicity
 _atom_site_fract_x
 _atom_site_fract_y
 _atom_site_fract_z
 _atom_site_occupancy
  Sb  Sb0  1  -0.62468059  -0.66525442  -0.67412183  1.0
  Sb  Sb1  1  -0.37531941  -0.33474558  -0.32587817  1.0
  H  H2  1  -0.80167237  -0.68733238  -0.11846647  1.0
  H  H3  1  -0.19832763  -0.31266762  -0.88153353  1.0
  H  H4  1  -0.94634653  -0.17554083  -0.70202328  1.0
  H  H5  1  -0.05365347  -0.82445917  -0.29797672  1.0
  H  H6  1  -0.81534384  0.00714664  -0.75639833  1.0
  H  H7  1  -0.18465616  -1.00714664  -0.24360167  1.0
  H  H8  1  -0.08666213  -0.71102260  -0.98153643  1.0
  H  H9  1  -0.91333787  -0.28897740  -0.01846357  1.0
  Pt  Pt10  1  0.00000000  0.00000000  0.00000000  1.0
  O  O11  1  -0.92411089  -0.76526727  -0.01194078  1.0
  O  O12  1  -0.07588911  -0.23473273  -0.98805922  1.0
  O  O13  1  -0.83819027  -0.08103841  -0.80174559  1.0
  O  O14  1  -0.16180973  -0.91896159  -0.19825441  1.0
  F  F15  1  -0.87231701  -0.55442336  -0.79022817  1.0
  F  F16  1  -0.12768299  -0.44557664  -0.20977183  1.0
  F  F17  1  -0.86215342  -0.66943126  -0.45943370  1.0
  F  F18  1  -0.13784658  -0.33056874  -0.54056630  1.0
  F  F19  1  -0.79089720  -0.87836670  -0.63909374  1.0
  F  F20  1  -0.20910280  -0.12163330  -0.36090626  1.0
  F  F21  1  -0.45737878  -0.44887410  -0.72101934  1.0
  F  F22  1  -0.54262122  -0.55112590  -0.27898066  1.0
  F  F23  1  -0.39319648  -0.67150032  -0.88609276  1.0
  F  F24  1  -0.60680352  -0.32849968  -0.11390724  1.0
  F  F25  1  -0.38556104  -0.77611846  -0.55212598  1.0
  F  F26  1  -0.61443896  -0.22388154  -0.44787402  1.0
