# generated using pymatgen
data_Tl(TeMo)3
_symmetry_space_group_name_H-M   'P 1'
_cell_length_a   9.76024938
_cell_length_b   9.76024938
_cell_length_c   4.60363233
_cell_angle_alpha   90.00000000
_cell_angle_beta   90.00000000
_cell_angle_gamma   120.00000000
_symmetry_Int_Tables_number   1
_chemical_formula_structural   Tl(TeMo)3
_chemical_formula_sum   'Tl2 Te6 Mo6'
_cell_volume   379.79836578
_cell_formula_units_Z   2
loop_
 _symmetry_equiv_pos_site_id
 _symmetry_equiv_pos_as_xyz
  1  'x, y, z'
loop_
 _atom_site_type_symbol
 _atom_site_label
 _atom_site_symmetry_multiplicity
 _atom_site_fract_x
 _atom_site_fract_y
 _atom_site_fract_z
 _atom_site_occupancy
  Tl  Tl0  1  0.33333333  0.66666667  0.25000000  1.0
  Tl  Tl1  1  0.66666667  0.33333333  0.75000000  1.0
  Te  Te2  1  0.36109717  1.05443070  0.25000000  1.0
  Te  Te3  1  0.69333354  0.63890283  0.25000000  1.0
  Te  Te4  1  -0.05443070  0.30666646  0.25000000  1.0
  Te  Te5  1  0.63890283  -0.05443070  0.75000000  1.0
  Te  Te6  1  0.30666646  0.36109717  0.75000000  1.0
  Te  Te7  1  1.05443070  0.69333354  0.75000000  1.0
  Mo  Mo8  1  1.02528452  0.85746213  0.25000000  1.0
  Mo  Mo9  1  0.83217762  -0.02528452  0.25000000  1.0
  Mo  Mo10  1  0.14253787  0.16782238  0.25000000  1.0
  Mo  Mo11  1  -0.02528452  0.14253787  0.75000000  1.0
  Mo  Mo12  1  0.16782238  1.02528452  0.75000000  1.0
  Mo  Mo13  1  0.85746213  0.83217762  0.75000000  1.0
