# generated using pymatgen
data_CaZrTlF7
_symmetry_space_group_name_H-M   'P 1'
_cell_length_a   6.65813122
_cell_length_b   6.65813122
_cell_length_c   8.62244591
_cell_angle_alpha   90.00000000
_cell_angle_beta   90.00000000
_cell_angle_gamma   116.75266663
_symmetry_Int_Tables_number   1
_chemical_formula_structural   CaZrTlF7
_chemical_formula_sum   'Ca2 Zr2 Tl2 F14'
_cell_volume   341.32351416
_cell_formula_units_Z   2
loop_
 _symmetry_equiv_pos_site_id
 _symmetry_equiv_pos_as_xyz
  1  'x, y, z'
loop_
 _atom_site_type_symbol
 _atom_site_label
 _atom_site_symmetry_multiplicity
 _atom_site_fract_x
 _atom_site_fract_y
 _atom_site_fract_z
 _atom_site_occupancy
  Ca  Ca0  1  -0.31004909  1.31004909  0.25000000  1.0
  Ca  Ca1  1  0.31004909  0.68995091  0.75000000  1.0
  Zr  Zr2  1  0.30702998  0.69297002  0.25000000  1.0
  Zr  Zr3  1  -0.30702998  1.30702998  0.75000000  1.0
  Tl  Tl4  1  0.00000000  0.00000000  0.50000000  1.0
  Tl  Tl5  1  0.00000000  0.00000000  0.00000000  1.0
  F  F6  1  -0.02155314  1.67158655  0.25000000  1.0
  F  F7  1  0.67158655  0.97844686  0.75000000  1.0
  F  F8  1  -0.67158655  1.02155314  0.25000000  1.0
  F  F9  1  0.02155314  0.32841345  0.75000000  1.0
  F  F10  1  0.06416008  0.35042910  0.25000000  1.0
  F  F11  1  -0.64957090  1.06416008  0.75000000  1.0
  F  F12  1  0.64957090  0.93583992  0.25000000  1.0
  F  F13  1  -0.06416008  1.64957090  0.75000000  1.0
  F  F14  1  0.29979031  0.70020969  0.48571612  1.0
  F  F15  1  0.29979031  0.70020969  0.01428388  1.0
  F  F16  1  -0.29979031  1.29979031  0.98571612  1.0
  F  F17  1  -0.29979031  1.29979031  0.51428388  1.0
  F  F18  1  0.48811123  0.51188877  0.25000000  1.0
  F  F19  1  -0.48811123  1.48811123  0.75000000  1.0
