# generated using pymatgen
data_CoPPd
_symmetry_space_group_name_H-M   'P 1'
_cell_length_a   3.60244739
_cell_length_b   3.60244739
_cell_length_c   5.84649752
_cell_angle_alpha   90.00000000
_cell_angle_beta   90.00000000
_cell_angle_gamma   90.00000000
_symmetry_Int_Tables_number   1
_chemical_formula_structural   CoPPd
_chemical_formula_sum   'Co2 P2 Pd2'
_cell_volume   75.87366502
_cell_formula_units_Z   2
loop_
 _symmetry_equiv_pos_site_id
 _symmetry_equiv_pos_as_xyz
  1  'x, y, z'
loop_
 _atom_site_type_symbol
 _atom_site_label
 _atom_site_symmetry_multiplicity
 _atom_site_fract_x
 _atom_site_fract_y
 _atom_site_fract_z
 _atom_site_occupancy
  Co  Co0  1  0.00000000  0.00000000  -0.00000000  1.0
  Co  Co1  1  0.50000000  0.50000000  0.00000000  1.0
  P  P2  1  0.00000000  0.50000000  0.77849445  1.0
  P  P3  1  0.50000000  0.00000000  0.22150555  1.0
  Pd  Pd4  1  0.00000000  0.50000000  0.37874915  1.0
  Pd  Pd5  1  0.50000000  0.00000000  0.62125085  1.0
