# generated using pymatgen
data_Hf8FeTe6
_symmetry_space_group_name_H-M   'P 1'
_cell_length_a   3.75613631
_cell_length_b   26.05564654
_cell_length_c   7.69417223
_cell_angle_alpha   90.00000000
_cell_angle_beta   90.00000000
_cell_angle_gamma   90.00000000
_symmetry_Int_Tables_number   1
_chemical_formula_structural   Hf8FeTe6
_chemical_formula_sum   'Hf16 Fe2 Te12'
_cell_volume   753.01755679
_cell_formula_units_Z   2
loop_
 _symmetry_equiv_pos_site_id
 _symmetry_equiv_pos_as_xyz
  1  'x, y, z'
loop_
 _atom_site_type_symbol
 _atom_site_label
 _atom_site_symmetry_multiplicity
 _atom_site_fract_x
 _atom_site_fract_y
 _atom_site_fract_z
 _atom_site_occupancy
  Hf  Hf0  1  0.50000000  0.59854814  0.05372679  1.0
  Hf  Hf1  1  0.50000000  0.40145186  0.05372679  1.0
  Hf  Hf2  1  0.00000000  0.09854814  0.94627321  1.0
  Hf  Hf3  1  0.00000000  0.90145186  0.94627321  1.0
  Hf  Hf4  1  0.50000000  0.19761284  0.06021139  1.0
  Hf  Hf5  1  0.50000000  0.80238716  0.06021139  1.0
  Hf  Hf6  1  0.00000000  0.69761284  0.93978861  1.0
  Hf  Hf7  1  0.00000000  0.30238716  0.93978861  1.0
  Hf  Hf8  1  0.50000000  0.06551672  0.26265863  1.0
  Hf  Hf9  1  0.50000000  0.93448328  0.26265863  1.0
  Hf  Hf10  1  0.00000000  0.56551672  0.73734137  1.0
  Hf  Hf11  1  0.00000000  0.43448328  0.73734137  1.0
  Hf  Hf12  1  0.50000000  0.00000000  0.93005594  1.0
  Hf  Hf13  1  0.00000000  0.50000000  0.06994406  1.0
  Hf  Hf14  1  0.50000000  0.50000000  0.45580070  1.0
  Hf  Hf15  1  0.00000000  0.00000000  0.54419930  1.0
  Fe  Fe16  1  0.50000000  0.50000000  0.79960075  1.0
  Fe  Fe17  1  0.00000000  0.00000000  0.20039925  1.0
  Te  Te18  1  0.50000000  0.70224975  0.21984687  1.0
  Te  Te19  1  0.50000000  0.29775025  0.21984687  1.0
  Te  Te20  1  0.00000000  0.20224975  0.78015313  1.0
  Te  Te21  1  0.00000000  0.79775025  0.78015313  1.0
  Te  Te22  1  0.50000000  0.65556497  0.69739160  1.0
  Te  Te23  1  0.50000000  0.34443503  0.69739160  1.0
  Te  Te24  1  0.00000000  0.15556497  0.30260840  1.0
  Te  Te25  1  0.00000000  0.84443503  0.30260840  1.0
  Te  Te26  1  0.50000000  0.08203245  0.65186608  1.0
  Te  Te27  1  0.50000000  0.91796755  0.65186608  1.0
  Te  Te28  1  0.00000000  0.58203245  0.34813392  1.0
  Te  Te29  1  0.00000000  0.41796755  0.34813392  1.0
