# generated using pymatgen
data_La3Co3O8
_symmetry_space_group_name_H-M   'P 1'
_cell_length_a   5.58723221
_cell_length_b   5.40829608
_cell_length_c   11.81235180
_cell_angle_alpha   90.00000000
_cell_angle_beta   90.43619920
_cell_angle_gamma   90.00000000
_symmetry_Int_Tables_number   1
_chemical_formula_structural   La3Co3O8
_chemical_formula_sum   'La6 Co6 O16'
_cell_volume   356.92828675
_cell_formula_units_Z   2
loop_
 _symmetry_equiv_pos_site_id
 _symmetry_equiv_pos_as_xyz
  1  'x, y, z'
loop_
 _atom_site_type_symbol
 _atom_site_label
 _atom_site_symmetry_multiplicity
 _atom_site_fract_x
 _atom_site_fract_y
 _atom_site_fract_z
 _atom_site_occupancy
  O  O0  1  1.00346185  0.24652451  0.69216687  1.0
  O  O1  1  -0.00346185  0.74652451  0.30783313  1.0
  O  O2  1  1.00520915  0.75677302  0.69280653  1.0
  O  O3  1  -0.00520915  0.25677302  0.30719347  1.0
  O  O4  1  0.82636389  0.00051781  0.50745395  1.0
  O  O5  1  0.17363611  0.50051781  0.49254605  1.0
  O  O6  1  0.69675564  -0.00719034  0.84234863  1.0
  O  O7  1  0.30324436  0.49280966  0.15765137  1.0
  O  O8  1  0.51177226  0.25034021  0.64501271  1.0
  O  O9  1  0.48822774  0.75034021  0.35498729  1.0
  O  O10  1  0.49247753  0.25706720  0.35497283  1.0
  O  O11  1  0.50752247  0.75706720  0.64502717  1.0
  O  O12  1  0.86826174  0.40811238  -0.00104747  1.0
  O  O13  1  0.13173826  0.90811238  0.00104747  1.0
  O  O14  1  0.31827426  0.48612848  0.85513696  1.0
  O  O15  1  0.68172574  -0.01387152  0.14486304  1.0
  Co  Co16  1  0.80829828  0.04827632  0.99740677  1.0
  Co  Co17  1  0.19170172  0.54827632  0.00259323  1.0
  Co  Co18  1  0.75085089  0.00157731  0.33587940  1.0
  Co  Co19  1  0.24914911  0.50157731  0.66412060  1.0
  Co  Co20  1  0.75980266  0.00120906  0.66757775  1.0
  Co  Co21  1  0.24019734  0.50120906  0.33242225  1.0
  La  La22  1  0.74597523  0.50184236  0.49820513  1.0
  La  La23  1  0.25402477  0.00184236  0.50179487  1.0
  La  La24  1  0.73824157  0.50192623  0.80866737  1.0
  La  La25  1  0.26175843  0.00192623  0.19133263  1.0
  La  La26  1  0.26713571  0.00389542  0.81394312  1.0
  La  La27  1  0.73286429  0.50389542  0.18605688  1.0
