# generated using pymatgen
data_Na2ZnCl4
_symmetry_space_group_name_H-M   'P 1'
_cell_length_a   13.99858960
_cell_length_b   8.20972305
_cell_length_c   6.47809201
_cell_angle_alpha   90.00000000
_cell_angle_beta   90.00000000
_cell_angle_gamma   90.00000000
_symmetry_Int_Tables_number   1
_chemical_formula_structural   Na2ZnCl4
_chemical_formula_sum   'Na8 Zn4 Cl16'
_cell_volume   744.49176863
_cell_formula_units_Z   4
loop_
 _symmetry_equiv_pos_site_id
 _symmetry_equiv_pos_as_xyz
  1  'x, y, z'
loop_
 _atom_site_type_symbol
 _atom_site_label
 _atom_site_symmetry_multiplicity
 _atom_site_fract_x
 _atom_site_fract_y
 _atom_site_fract_z
 _atom_site_occupancy
  Na  Na0  1  0.77154102  0.25000000  0.50744810  1.0
  Na  Na1  1  0.27154102  0.25000000  0.99255190  1.0
  Na  Na2  1  0.22845898  0.75000000  0.49255190  1.0
  Na  Na3  1  0.72845898  0.75000000  0.00744810  1.0
  Na  Na4  1  -0.00000000  0.50000000  0.00000000  1.0
  Na  Na5  1  -0.00000000  0.00000000  0.00000000  1.0
  Na  Na6  1  0.50000000  0.50000000  0.50000000  1.0
  Na  Na7  1  0.50000000  0.00000000  0.50000000  1.0
  Zn  Zn8  1  0.59192955  0.25000000  0.08742909  1.0
  Zn  Zn9  1  0.09192955  0.25000000  0.41257091  1.0
  Zn  Zn10  1  0.40807045  0.75000000  0.91257091  1.0
  Zn  Zn11  1  0.90807045  0.75000000  0.58742909  1.0
  Cl  Cl12  1  0.66484867  0.47178262  0.23926045  1.0
  Cl  Cl13  1  0.66484867  0.02821738  0.23926045  1.0
  Cl  Cl14  1  0.16484867  0.47178262  0.26073955  1.0
  Cl  Cl15  1  0.16484867  0.02821738  0.26073955  1.0
  Cl  Cl16  1  0.33515133  0.97178262  0.76073955  1.0
  Cl  Cl17  1  0.33515133  0.52821738  0.76073955  1.0
  Cl  Cl18  1  0.83515133  0.97178262  0.73926045  1.0
  Cl  Cl19  1  0.83515133  0.52821738  0.73926045  1.0
  Cl  Cl20  1  0.94015194  0.25000000  0.26822282  1.0
  Cl  Cl21  1  0.44015194  0.25000000  0.23177718  1.0
  Cl  Cl22  1  0.05984806  0.75000000  0.73177718  1.0
  Cl  Cl23  1  0.55984806  0.75000000  0.76822282  1.0
  Cl  Cl24  1  0.59258687  0.25000000  0.73789824  1.0
  Cl  Cl25  1  0.09258687  0.25000000  0.76210176  1.0
  Cl  Cl26  1  0.40741313  0.75000000  0.26210176  1.0
  Cl  Cl27  1  0.90741313  0.75000000  0.23789824  1.0
