# generated using pymatgen
data_SbN9
_symmetry_space_group_name_H-M   'P 1'
_cell_length_a   8.38326312
_cell_length_b   8.38326312
_cell_length_c   8.38326312
_cell_angle_alpha   51.22164734
_cell_angle_beta   51.22164734
_cell_angle_gamma   51.22164734
_symmetry_Int_Tables_number   1
_chemical_formula_structural   SbN9
_chemical_formula_sum   'Sb2 N18'
_cell_volume   330.44211711
_cell_formula_units_Z   2
loop_
 _symmetry_equiv_pos_site_id
 _symmetry_equiv_pos_as_xyz
  1  'x, y, z'
loop_
 _atom_site_type_symbol
 _atom_site_label
 _atom_site_symmetry_multiplicity
 _atom_site_fract_x
 _atom_site_fract_y
 _atom_site_fract_z
 _atom_site_occupancy
  Sb  Sb0  1  0.18508164  0.18508164  0.18508164  1.0
  Sb  Sb1  1  0.81491836  -0.18508164  -0.18508164  1.0
  N  N2  1  0.12818368  0.88173995  -0.62864525  1.0
  N  N3  1  0.62864525  -0.12818368  0.11826005  1.0
  N  N4  1  1.11826005  -0.37135475  -0.12818368  1.0
  N  N5  1  0.87181632  0.11826005  -0.37135475  1.0
  N  N6  1  0.37135475  0.12818368  -0.11826005  1.0
  N  N7  1  0.88173995  0.37135475  -0.87181632  1.0
  N  N8  1  0.22362075  0.76898705  -0.73255584  1.0
  N  N9  1  0.73255584  -0.22362075  0.23101295  1.0
  N  N10  1  1.23101295  -0.26744416  -0.22362075  1.0
  N  N11  1  0.77637925  0.23101295  -0.26744416  1.0
  N  N12  1  0.26744416  0.22362075  -0.23101295  1.0
  N  N13  1  0.76898705  0.26744416  -0.77637925  1.0
  N  N14  1  0.31176223  0.66077730  -0.82617155  1.0
  N  N15  1  0.82617155  0.68823777  -0.66077730  1.0
  N  N16  1  0.33922270  0.82617155  -0.31176223  1.0
  N  N17  1  0.68823777  0.33922270  -0.17382845  1.0
  N  N18  1  0.17382845  0.31176223  -0.33922270  1.0
  N  N19  1  0.66077730  0.17382845  -0.68823777  1.0
