# generated using pymatgen
data_CuO2
_symmetry_space_group_name_H-M   'P 1'
_cell_length_a   5.56377877
_cell_length_b   5.56377877
_cell_length_c   4.58174471
_cell_angle_alpha   90.00000000
_cell_angle_beta   90.00000000
_cell_angle_gamma   151.07130524
_symmetry_Int_Tables_number   1
_chemical_formula_structural   CuO2
_chemical_formula_sum   'Cu2 O4'
_cell_volume   68.60651029
_cell_formula_units_Z   2
loop_
 _symmetry_equiv_pos_site_id
 _symmetry_equiv_pos_as_xyz
  1  'x, y, z'
loop_
 _atom_site_type_symbol
 _atom_site_label
 _atom_site_symmetry_multiplicity
 _atom_site_fract_x
 _atom_site_fract_y
 _atom_site_fract_z
 _atom_site_occupancy
  Cu  Cu0  1  -0.33975068  1.33975068  0.25000000  1.0
  Cu  Cu1  1  -0.66024932  0.66024932  0.75000000  1.0
  O  O2  1  -0.95099381  0.95099381  0.25000000  1.0
  O  O3  1  -0.04900619  1.04900619  0.75000000  1.0
  O  O4  1  -0.72538123  0.72538123  0.25000000  1.0
  O  O5  1  -0.27461877  1.27461877  0.75000000  1.0
