# generated using pymatgen
data_PbIO
_symmetry_space_group_name_H-M   'P 1'
_cell_length_a   8.58379527
_cell_length_b   3.50238202
_cell_length_c   12.48211244
_cell_angle_alpha   90.00000000
_cell_angle_beta   90.00000000
_cell_angle_gamma   90.00000000
_symmetry_Int_Tables_number   1
_chemical_formula_structural   PbIO
_chemical_formula_sum   'Pb4 I4 O4'
_cell_volume   375.25886148
_cell_formula_units_Z   4
loop_
 _symmetry_equiv_pos_site_id
 _symmetry_equiv_pos_as_xyz
  1  'x, y, z'
loop_
 _atom_site_type_symbol
 _atom_site_label
 _atom_site_symmetry_multiplicity
 _atom_site_fract_x
 _atom_site_fract_y
 _atom_site_fract_z
 _atom_site_occupancy
  Pb  Pb0  1  0.62514375  0.75000000  0.41316857  1.0
  Pb  Pb1  1  0.12514375  0.75000000  0.08683143  1.0
  Pb  Pb2  1  0.37485625  0.25000000  0.58683143  1.0
  Pb  Pb3  1  0.87485625  0.25000000  0.91316857  1.0
  I  I4  1  1.01390921  0.75000000  0.67422169  1.0
  I  I5  1  0.51390921  0.75000000  0.82577831  1.0
  I  I6  1  -0.01390921  0.25000000  0.32577831  1.0
  I  I7  1  0.48609079  0.25000000  0.17422169  1.0
  O  O8  1  0.87301883  0.75000000  0.02504364  1.0
  O  O9  1  0.37301883  0.75000000  0.47495636  1.0
  O  O10  1  0.12698117  0.25000000  0.97495636  1.0
  O  O11  1  0.62698117  0.25000000  0.52504364  1.0
