# generated using pymatgen
data_HgH3CN3
_symmetry_space_group_name_H-M   'P 1'
_cell_length_a   9.30845418
_cell_length_b   7.24895154
_cell_length_c   7.55722882
_cell_angle_alpha   90.00000000
_cell_angle_beta   103.09566080
_cell_angle_gamma   90.00000000
_symmetry_Int_Tables_number   1
_chemical_formula_structural   HgH3CN3
_chemical_formula_sum   'Hg4 H12 C4 N12'
_cell_volume   496.67377244
_cell_formula_units_Z   4
loop_
 _symmetry_equiv_pos_site_id
 _symmetry_equiv_pos_as_xyz
  1  'x, y, z'
loop_
 _atom_site_type_symbol
 _atom_site_label
 _atom_site_symmetry_multiplicity
 _atom_site_fract_x
 _atom_site_fract_y
 _atom_site_fract_z
 _atom_site_occupancy
  Hg  Hg0  1  0.67273809  0.37606539  0.73267698  1.0
  Hg  Hg1  1  0.32726191  0.87606539  0.76732302  1.0
  Hg  Hg2  1  0.32726191  0.62393461  0.26732302  1.0
  Hg  Hg3  1  0.67273809  0.12393461  0.23267698  1.0
  H  H4  1  0.86578843  0.43347228  0.53087919  1.0
  H  H5  1  0.13421157  0.93347228  0.96912081  1.0
  H  H6  1  0.13421157  0.56652772  0.46912081  1.0
  H  H7  1  0.86578843  0.06652772  0.03087919  1.0
  H  H8  1  0.86581822  0.62416537  0.68217355  1.0
  H  H9  1  0.13418178  0.12416537  0.81782645  1.0
  H  H10  1  0.13418178  0.37583463  0.31782645  1.0
  H  H11  1  0.86581822  0.87583463  0.18217355  1.0
  H  H12  1  0.95956915  0.41439874  0.76594543  1.0
  H  H13  1  0.04043085  0.91439874  0.73405457  1.0
  H  H14  1  0.04043085  0.58560126  0.23405457  1.0
  H  H15  1  0.95956915  0.08560126  0.26594543  1.0
  C  C16  1  0.86463591  0.47357276  0.67023701  1.0
  C  C17  1  0.13536409  0.97357276  0.82976299  1.0
  C  C18  1  0.13536409  0.52642724  0.32976299  1.0
  C  C19  1  0.86463591  0.02642724  0.17023701  1.0
  N  N20  1  0.48281405  0.26084763  0.80059189  1.0
  N  N21  1  0.51718595  0.76084763  0.69940811  1.0
  N  N22  1  0.51718595  0.73915237  0.19940811  1.0
  N  N23  1  0.48281405  0.23915237  0.30059189  1.0
  N  N24  1  0.38673695  0.36271502  0.82697139  1.0
  N  N25  1  0.61326305  0.86271502  0.67302861  1.0
  N  N26  1  0.61326305  0.63728498  0.17302861  1.0
  N  N27  1  0.38673695  0.13728498  0.32697139  1.0
  N  N28  1  0.28958128  0.44980573  0.85403211  1.0
  N  N29  1  0.71041872  0.94980573  0.64596789  1.0
  N  N30  1  0.71041872  0.55019427  0.14596789  1.0
  N  N31  1  0.28958128  0.05019427  0.35403211  1.0
