# generated using pymatgen
data_Cu3Sn4PbO12
_symmetry_space_group_name_H-M   'P 1'
_cell_length_a   6.76939583
_cell_length_b   6.76939583
_cell_length_c   6.76939583
_cell_angle_alpha   109.47122063
_cell_angle_beta   109.47122063
_cell_angle_gamma   109.47122063
_symmetry_Int_Tables_number   1
_chemical_formula_structural   Cu3Sn4PbO12
_chemical_formula_sum   'Cu3 Sn4 Pb1 O12'
_cell_volume   238.79643417
_cell_formula_units_Z   1
loop_
 _symmetry_equiv_pos_site_id
 _symmetry_equiv_pos_as_xyz
  1  'x, y, z'
loop_
 _atom_site_type_symbol
 _atom_site_label
 _atom_site_symmetry_multiplicity
 _atom_site_fract_x
 _atom_site_fract_y
 _atom_site_fract_z
 _atom_site_occupancy
  Cu  Cu0  1  0.50000000  0.50000000  0.00000000  1.0
  Cu  Cu1  1  0.00000000  0.50000000  0.50000000  1.0
  Cu  Cu2  1  0.50000000  0.00000000  0.50000000  1.0
  Sn  Sn3  1  0.50000000  1.00000000  1.00000000  1.0
  Sn  Sn4  1  0.50000000  0.50000000  0.50000000  1.0
  Sn  Sn5  1  1.00000000  1.00000000  0.50000000  1.0
  Sn  Sn6  1  1.00000000  0.50000000  1.00000000  1.0
  Pb  Pb7  1  0.00000000  0.00000000  0.00000000  1.0
  O  O8  1  0.82685443  1.31249847  1.13935290  1.0
  O  O9  1  0.82685443  0.68750153  0.51435596  1.0
  O  O10  1  0.17314557  0.31249847  0.48564404  1.0
  O  O11  1  0.17314557  0.68750153  0.86064710  1.0
  O  O12  1  0.51435596  0.82685443  0.68750153  1.0
  O  O13  1  1.13935290  0.82685443  1.31249847  1.0
  O  O14  1  0.68750153  0.86064710  0.17314557  1.0
  O  O15  1  0.68750153  0.51435596  0.82685443  1.0
  O  O16  1  0.86064710  0.17314557  0.68750153  1.0
  O  O17  1  0.48564404  0.17314557  0.31249847  1.0
  O  O18  1  0.31249847  0.48564404  0.17314557  1.0
  O  O19  1  1.31249847  1.13935290  0.82685443  1.0
