# generated using pymatgen
data_La2Re2Si2C
_symmetry_space_group_name_H-M   'P 1'
_cell_length_a   6.03173159
_cell_length_b   6.03173159
_cell_length_c   7.34774600
_cell_angle_alpha   54.34846721
_cell_angle_beta   125.65153279
_cell_angle_gamma   140.09520231
_symmetry_Int_Tables_number   1
_chemical_formula_structural   La2Re2Si2C
_chemical_formula_sum   'La2 Re2 Si2 C1'
_cell_volume   134.54313832
_cell_formula_units_Z   1
loop_
 _symmetry_equiv_pos_site_id
 _symmetry_equiv_pos_as_xyz
  1  'x, y, z'
loop_
 _atom_site_type_symbol
 _atom_site_label
 _atom_site_symmetry_multiplicity
 _atom_site_fract_x
 _atom_site_fract_y
 _atom_site_fract_z
 _atom_site_occupancy
  La  La0  1  1.42901387  -0.42901387  0.69506723  1.0
  La  La1  1  0.57098613  0.42901387  0.30493277  1.0
  Re  Re2  1  0.79884089  0.20115911  0.91530611  1.0
  Re  Re3  1  1.20115911  -0.20115911  0.08469389  1.0
  Si  Si4  1  0.84444987  -0.84444987  0.28912912  1.0
  Si  Si5  1  0.15555013  -0.15555013  0.71087088  1.0
  C  C6  1  0.00000000  0.00000000  0.00000000  1.0
