# generated using pymatgen
data_Y2Si3Rh
_symmetry_space_group_name_H-M   'P 1'
_cell_length_a   8.17206345
_cell_length_b   8.17206345
_cell_length_c   7.91967833
_cell_angle_alpha   90.00000000
_cell_angle_beta   90.00000000
_cell_angle_gamma   120.00000000
_symmetry_Int_Tables_number   1
_chemical_formula_structural   Y2Si3Rh
_chemical_formula_sum   'Y8 Si12 Rh4'
_cell_volume   458.03813173
_cell_formula_units_Z   4
loop_
 _symmetry_equiv_pos_site_id
 _symmetry_equiv_pos_as_xyz
  1  'x, y, z'
loop_
 _atom_site_type_symbol
 _atom_site_label
 _atom_site_symmetry_multiplicity
 _atom_site_fract_x
 _atom_site_fract_y
 _atom_site_fract_z
 _atom_site_occupancy
  Y  Y0  1  0.50819669  0.49180331  0.25000000  1.0
  Y  Y1  1  0.50819669  0.01639338  0.25000000  1.0
  Y  Y2  1  0.49180331  0.50819669  0.75000000  1.0
  Y  Y3  1  0.49180331  0.98360662  0.75000000  1.0
  Y  Y4  1  0.98360662  0.49180331  0.25000000  1.0
  Y  Y5  1  0.01639338  0.50819669  0.75000000  1.0
  Y  Y6  1  0.00000000  0.00000000  0.25000000  1.0
  Y  Y7  1  0.00000000  0.00000000  0.75000000  1.0
  Si  Si8  1  0.16708054  0.83291946  0.49956505  1.0
  Si  Si9  1  0.16708054  0.83291946  0.00043495  1.0
  Si  Si10  1  0.16708054  0.33416107  0.49956505  1.0
  Si  Si11  1  0.16708054  0.33416107  0.00043495  1.0
  Si  Si12  1  0.83291946  0.16708054  0.99956505  1.0
  Si  Si13  1  0.83291946  0.16708054  0.50043495  1.0
  Si  Si14  1  0.83291946  0.66583893  0.99956505  1.0
  Si  Si15  1  0.83291946  0.66583893  0.50043495  1.0
  Si  Si16  1  0.66583893  0.83291946  0.49956505  1.0
  Si  Si17  1  0.66583893  0.83291946  0.00043495  1.0
  Si  Si18  1  0.33416107  0.16708054  0.99956505  1.0
  Si  Si19  1  0.33416107  0.16708054  0.50043495  1.0
  Rh  Rh20  1  0.33333333  0.66666667  0.46885018  1.0
  Rh  Rh21  1  0.33333333  0.66666667  0.03114982  1.0
  Rh  Rh22  1  0.66666667  0.33333333  0.96885018  1.0
  Rh  Rh23  1  0.66666667  0.33333333  0.53114982  1.0
