# generated using pymatgen
data_CsYCdSe3
_symmetry_space_group_name_H-M   'P 1'
_cell_length_a   8.44262541
_cell_length_b   8.44262541
_cell_length_c   11.19789648
_cell_angle_alpha   90.00000000
_cell_angle_beta   90.00000000
_cell_angle_gamma   150.51612810
_symmetry_Int_Tables_number   1
_chemical_formula_structural   CsYCdSe3
_chemical_formula_sum   'Cs2 Y2 Cd2 Se6'
_cell_volume   392.83861179
_cell_formula_units_Z   2
loop_
 _symmetry_equiv_pos_site_id
 _symmetry_equiv_pos_as_xyz
  1  'x, y, z'
loop_
 _atom_site_type_symbol
 _atom_site_label
 _atom_site_symmetry_multiplicity
 _atom_site_fract_x
 _atom_site_fract_y
 _atom_site_fract_z
 _atom_site_occupancy
  Cs  Cs0  1  -0.25552901  0.25552901  0.75000000  1.0
  Cs  Cs1  1  0.25552901  0.74447099  0.25000000  1.0
  Y  Y2  1  0.00000000  0.00000000  0.00000000  1.0
  Y  Y3  1  0.00000000  0.00000000  0.50000000  1.0
  Cd  Cd4  1  0.46076897  0.53923103  0.75000000  1.0
  Cd  Cd5  1  -0.46076897  0.46076897  0.25000000  1.0
  Se  Se6  1  0.38308984  0.61691016  0.95455257  1.0
  Se  Se7  1  0.38308984  0.61691016  0.54544743  1.0
  Se  Se8  1  -0.38308984  0.38308984  0.45455257  1.0
  Se  Se9  1  -0.38308984  0.38308984  0.04544743  1.0
  Se  Se10  1  0.06071348  0.93928652  0.75000000  1.0
  Se  Se11  1  -0.06071348  0.06071348  0.25000000  1.0
