# generated using pymatgen
data_AgAs3H2O9
_symmetry_space_group_name_H-M   'P 1'
_cell_length_a   7.85336052
_cell_length_b   7.39150096
_cell_length_c   8.07588594
_cell_angle_alpha   106.16269143
_cell_angle_beta   110.90866829
_cell_angle_gamma   105.75492541
_symmetry_Int_Tables_number   1
_chemical_formula_structural   AgAs3H2O9
_chemical_formula_sum   'Ag2 As6 H4 O18'
_cell_volume   382.99798798
_cell_formula_units_Z   2
loop_
 _symmetry_equiv_pos_site_id
 _symmetry_equiv_pos_as_xyz
  1  'x, y, z'
loop_
 _atom_site_type_symbol
 _atom_site_label
 _atom_site_symmetry_multiplicity
 _atom_site_fract_x
 _atom_site_fract_y
 _atom_site_fract_z
 _atom_site_occupancy
  Ag  Ag0  1  -0.32110056  -0.81021459  -0.54468947  1.0
  Ag  Ag1  1  -0.67889944  -0.18978541  -0.45531053  1.0
  As  As2  1  -0.84626359  -0.87326949  -0.67003838  1.0
  As  As3  1  -0.15373641  -0.12673051  -0.32996162  1.0
  As  As4  1  -0.32603857  -0.67993423  -0.94481389  1.0
  As  As5  1  -0.67396143  -0.32006577  -0.05518611  1.0
  As  As6  1  -0.93672623  -0.65612334  -0.97809433  1.0
  As  As7  1  -0.06327377  -0.34387666  -0.02190567  1.0
  H  H8  1  -0.67455051  -0.84557607  -0.09924252  1.0
  H  H9  1  -0.32544949  -0.15442393  -0.90075748  1.0
  H  H10  1  -0.86217499  -0.63124743  -0.43165149  1.0
  H  H11  1  -0.13782501  -0.36875257  -0.56834851  1.0
  O  O12  1  -0.94215747  -0.89429892  -0.14822987  1.0
  O  O13  1  -0.05784253  -0.10570108  -0.85177013  1.0
  O  O14  1  -0.64042803  -0.90436322  -0.54672446  1.0
  O  O15  1  -0.35957197  -0.09563678  -0.45327554  1.0
  O  O16  1  -0.56588711  -0.88020486  -0.11404327  1.0
  O  O17  1  -0.43411289  -0.11979514  -0.88595673  1.0
  O  O18  1  -0.18298173  -0.81618880  -0.99639048  1.0
  O  O19  1  -0.81701827  -0.18381120  -0.00360952  1.0
  O  O20  1  -0.96006762  -0.78025695  -0.53322953  1.0
  O  O21  1  -0.03993238  -0.21974305  -0.46677047  1.0
  O  O22  1  -0.77691032  -0.69106450  -0.76491606  1.0
  O  O23  1  -0.22308968  -0.30893550  -0.23508394  1.0
  O  O24  1  -0.28630002  -0.59695377  -0.71048585  1.0
  O  O25  1  -0.71369998  -0.40304623  -0.28951415  1.0
  O  O26  1  -0.68665177  -0.51405860  -0.96460677  1.0
  O  O27  1  -0.31334823  -0.48594140  -0.03539323  1.0
  O  O28  1  -0.93154628  -0.41298444  -0.81847434  1.0
  O  O29  1  -0.06845372  -0.58701556  -0.18152566  1.0
