# generated using pymatgen
data_C6BrNF4
_symmetry_space_group_name_H-M   'P 1'
_cell_length_a   11.61268754
_cell_length_b   8.18581684
_cell_length_c   9.20163144
_cell_angle_alpha   90.00000000
_cell_angle_beta   112.18341369
_cell_angle_gamma   90.00000000
_symmetry_Int_Tables_number   1
_chemical_formula_structural   C6BrNF4
_chemical_formula_sum   'C24 Br4 N4 F16'
_cell_volume   809.95551999
_cell_formula_units_Z   4
loop_
 _symmetry_equiv_pos_site_id
 _symmetry_equiv_pos_as_xyz
  1  'x, y, z'
loop_
 _atom_site_type_symbol
 _atom_site_label
 _atom_site_symmetry_multiplicity
 _atom_site_fract_x
 _atom_site_fract_y
 _atom_site_fract_z
 _atom_site_occupancy
  C  C0  1  0.88474759  0.97446495  0.81005188  1.0
  C  C1  1  0.88474759  0.52553505  0.31005188  1.0
  C  C2  1  0.11525241  0.47446495  0.68994812  1.0
  C  C3  1  0.11525241  0.02553505  0.18994812  1.0
  C  C4  1  0.84357601  0.12893634  0.74026604  1.0
  C  C5  1  0.84357601  0.37106366  0.24026604  1.0
  C  C6  1  0.15642399  0.62893634  0.75973396  1.0
  C  C7  1  0.15642399  0.87106366  0.25973396  1.0
  C  C8  1  0.82826116  0.83608006  0.71878709  1.0
  C  C9  1  0.82826116  0.66391994  0.21878709  1.0
  C  C10  1  0.17173884  0.33608006  0.78121291  1.0
  C  C11  1  0.17173884  0.16391994  0.28121291  1.0
  C  C12  1  0.73672185  0.84974854  0.56930828  1.0
  C  C13  1  0.73672185  0.65025146  0.06930828  1.0
  C  C14  1  0.26327815  0.34974854  0.93069172  1.0
  C  C15  1  0.26327815  0.15025146  0.43069172  1.0
  C  C16  1  0.69713715  0.49679126  1.00322557  1.0
  C  C17  1  0.69713715  0.00320874  0.50322557  1.0
  C  C18  1  0.30286285  0.99679126  0.49677443  1.0
  C  C19  1  0.30286285  0.50320874  -0.00322557  1.0
  C  C20  1  0.24796540  0.64199432  0.90957248  1.0
  C  C21  1  0.24796540  0.85800568  0.40957248  1.0
  C  C22  1  0.75203460  0.14199432  0.59042752  1.0
  C  C23  1  0.75203460  0.35800568  0.09042752  1.0
  Br  Br24  1  0.42777622  0.97665549  0.69780830  1.0
  Br  Br25  1  0.42777622  0.52334451  0.19780830  1.0
  Br  Br26  1  0.57222378  0.47665549  0.80219170  1.0
  Br  Br27  1  0.57222378  0.02334451  0.30219170  1.0
  N  N28  1  0.97359422  0.93867249  0.95819907  1.0
  N  N29  1  0.97359422  0.56132751  0.45819907  1.0
  N  N30  1  0.02640578  0.43867249  0.54180093  1.0
  N  N31  1  0.02640578  0.06132751  0.04180093  1.0
  F  F32  1  0.89057467  0.26879553  0.81576492  1.0
  F  F33  1  0.89057467  0.23120447  0.31576492  1.0
  F  F34  1  0.10942533  0.76879553  0.68423508  1.0
  F  F35  1  0.10942533  0.73120447  0.18423508  1.0
  F  F36  1  0.86292277  0.68538151  0.77690241  1.0
  F  F37  1  0.86292277  0.81461849  0.27690241  1.0
  F  F38  1  0.13707723  0.18538151  0.72309759  1.0
  F  F39  1  0.13707723  0.31461849  0.22309759  1.0
  F  F40  1  0.68643994  0.78731143  0.98898843  1.0
  F  F41  1  0.68643994  0.71268857  0.48898843  1.0
  F  F42  1  0.31356006  0.28731143  0.51101157  1.0
  F  F43  1  0.31356006  0.21268857  0.01101157  1.0
  F  F44  1  0.28400388  0.79201077  0.97026266  1.0
  F  F45  1  0.28400388  0.70798923  0.47026266  1.0
  F  F46  1  0.71599612  0.29201077  0.52973734  1.0
  F  F47  1  0.71599612  0.20798923  0.02973734  1.0
