# generated using pymatgen
data_MgV2O6
_symmetry_space_group_name_H-M   'P 1'
_cell_length_a   5.39715278
_cell_length_b   5.39715278
_cell_length_c   8.76448189
_cell_angle_alpha   70.97852131
_cell_angle_beta   109.02147869
_cell_angle_gamma   146.29036225
_symmetry_Int_Tables_number   1
_chemical_formula_structural   MgV2O6
_chemical_formula_sum   'Mg1 V2 O6'
_cell_volume   133.21973252
_cell_formula_units_Z   1
loop_
 _symmetry_equiv_pos_site_id
 _symmetry_equiv_pos_as_xyz
  1  'x, y, z'
loop_
 _atom_site_type_symbol
 _atom_site_label
 _atom_site_symmetry_multiplicity
 _atom_site_fract_x
 _atom_site_fract_y
 _atom_site_fract_z
 _atom_site_occupancy
  Mg  Mg0  1  -0.00000000  0.00000000  0.50000000  1.0
  V  V1  1  0.78816937  0.21183063  0.76615053  1.0
  V  V2  1  0.21183063  -0.21183063  0.23384947  1.0
  O  O3  1  0.89345726  0.10654274  0.66290133  1.0
  O  O4  1  0.10654274  -0.10654274  0.33709867  1.0
  O  O5  1  0.62544393  0.37455607  0.63090693  1.0
  O  O6  1  0.37455607  -0.37455607  0.36909307  1.0
  O  O7  1  0.31225460  -0.31225460  0.87466289  1.0
  O  O8  1  0.68774540  0.31225460  0.12533711  1.0
