# generated using pymatgen
data_Gd2Fe17
_symmetry_space_group_name_H-M   'P 1'
_cell_length_a   6.40513066
_cell_length_b   6.40513066
_cell_length_c   6.40513066
_cell_angle_alpha   82.70135237
_cell_angle_beta   82.70135237
_cell_angle_gamma   82.70135237
_symmetry_Int_Tables_number   1
_chemical_formula_structural   Gd2Fe17
_chemical_formula_sum   'Gd2 Fe17'
_cell_volume   256.88619368
_cell_formula_units_Z   1
loop_
 _symmetry_equiv_pos_site_id
 _symmetry_equiv_pos_as_xyz
  1  'x, y, z'
loop_
 _atom_site_type_symbol
 _atom_site_label
 _atom_site_symmetry_multiplicity
 _atom_site_fract_x
 _atom_site_fract_y
 _atom_site_fract_z
 _atom_site_occupancy
  Gd  Gd0  1  0.65916215  0.65916215  -0.34083785  1.0
  Gd  Gd1  1  1.34083785  1.34083785  0.34083785  1.0
  Fe  Fe2  1  0.34179499  0.34179499  -0.15745160  1.0
  Fe  Fe3  1  0.34179499  0.84254840  -0.65820501  1.0
  Fe  Fe4  1  0.15745160  0.65820501  -0.34179499  1.0
  Fe  Fe5  1  0.65820501  0.15745160  -0.34179499  1.0
  Fe  Fe6  1  0.65820501  -0.34179499  0.15745160  1.0
  Fe  Fe7  1  0.84254840  0.34179499  -0.65820501  1.0
  Fe  Fe8  1  0.70506067  -0.00000000  0.29493933  1.0
  Fe  Fe9  1  0.70506067  -0.70506067  0.00000000  1.0
  Fe  Fe10  1  0.00000000  0.70506067  -0.70506067  1.0
  Fe  Fe11  1  0.00000000  0.29493933  -0.29493933  1.0
  Fe  Fe12  1  1.29493933  -0.00000000  -0.29493933  1.0
  Fe  Fe13  1  0.29493933  -0.29493933  0.00000000  1.0
  Fe  Fe14  1  1.00000000  1.50000000  0.00000000  1.0
  Fe  Fe15  1  1.00000000  -0.00000000  -0.50000000  1.0
  Fe  Fe16  1  0.50000000  -0.00000000  -0.00000000  1.0
  Fe  Fe17  1  0.90386218  0.90386218  -0.09613782  1.0
  Fe  Fe18  1  1.09613782  1.09613782  0.09613782  1.0
