# generated using pymatgen
data_Ca3(AlN2)2
_symmetry_space_group_name_H-M   'P 1'
_cell_length_a   9.60523361
_cell_length_b   5.82662453
_cell_length_c   9.57670389
_cell_angle_alpha   90.00000000
_cell_angle_beta   111.67774190
_cell_angle_gamma   90.00000000
_symmetry_Int_Tables_number   1
_chemical_formula_structural   Ca3(AlN2)2
_chemical_formula_sum   'Ca12 Al8 N16'
_cell_volume   498.06475432
_cell_formula_units_Z   4
loop_
 _symmetry_equiv_pos_site_id
 _symmetry_equiv_pos_as_xyz
  1  'x, y, z'
loop_
 _atom_site_type_symbol
 _atom_site_label
 _atom_site_symmetry_multiplicity
 _atom_site_fract_x
 _atom_site_fract_y
 _atom_site_fract_z
 _atom_site_occupancy
  Ca  Ca0  1  0.94759148  0.90671703  0.81498559  1.0
  Ca  Ca1  1  0.94759148  0.59328297  0.31498559  1.0
  Ca  Ca2  1  0.05240852  0.40671703  0.68501441  1.0
  Ca  Ca3  1  0.05240852  0.09328297  0.18501441  1.0
  Ca  Ca4  1  0.81799278  0.38107754  0.89908732  1.0
  Ca  Ca5  1  0.81799278  0.11892246  0.39908732  1.0
  Ca  Ca6  1  0.18200722  0.88107754  0.60091268  1.0
  Ca  Ca7  1  0.18200722  0.61892246  0.10091268  1.0
  Ca  Ca8  1  0.53478050  0.65419317  0.67164365  1.0
  Ca  Ca9  1  0.53478050  0.84580683  0.17164365  1.0
  Ca  Ca10  1  0.46521950  0.15419317  0.82835635  1.0
  Ca  Ca11  1  0.46521950  0.34580683  0.32835635  1.0
  Al  Al12  1  0.74148883  0.85730795  0.98939746  1.0
  Al  Al13  1  0.74148883  0.64269205  0.48939746  1.0
  Al  Al14  1  0.25851117  0.35730795  0.51060254  1.0
  Al  Al15  1  0.25851117  0.14269205  0.01060254  1.0
  Al  Al16  1  0.38110894  0.61199694  0.89122104  1.0
  Al  Al17  1  0.38110894  0.88800306  0.39122104  1.0
  Al  Al18  1  0.61889106  0.11199694  0.60877896  1.0
  Al  Al19  1  0.61889106  0.38800306  0.10877896  1.0
  N  N20  1  0.93908242  0.76098243  0.56352398  1.0
  N  N21  1  0.93908242  0.73901757  0.06352398  1.0
  N  N22  1  0.06091758  0.26098243  0.93647602  1.0
  N  N23  1  0.06091758  0.23901757  0.43647602  1.0
  N  N24  1  0.69939789  0.99057418  0.79889152  1.0
  N  N25  1  0.69939789  0.50942582  0.29889152  1.0
  N  N26  1  0.30060211  0.49057418  0.70110848  1.0
  N  N27  1  0.30060211  0.00942582  0.20110848  1.0
  N  N28  1  0.60184336  0.60026197  0.94813931  1.0
  N  N29  1  0.60184336  0.89973803  0.44813931  1.0
  N  N30  1  0.39815664  0.10026197  0.55186069  1.0
  N  N31  1  0.39815664  0.39973803  0.05186069  1.0
  N  N32  1  0.29763383  0.90403606  0.89246702  1.0
  N  N33  1  0.29763383  0.59596394  0.39246702  1.0
  N  N34  1  0.70236617  0.40403606  0.60753298  1.0
  N  N35  1  0.70236617  0.09596394  0.10753298  1.0
