# generated using pymatgen
data_KNbO3
_symmetry_space_group_name_H-M   'P 1'
_cell_length_a   5.69489251
_cell_length_b   8.05377624
_cell_length_c   5.69452893
_cell_angle_alpha   90.00000000
_cell_angle_beta   90.00000000
_cell_angle_gamma   90.00000000
_symmetry_Int_Tables_number   1
_chemical_formula_structural   KNbO3
_chemical_formula_sum   'K4 Nb4 O12'
_cell_volume   261.18179060
_cell_formula_units_Z   4
loop_
 _symmetry_equiv_pos_site_id
 _symmetry_equiv_pos_as_xyz
  1  'x, y, z'
loop_
 _atom_site_type_symbol
 _atom_site_label
 _atom_site_symmetry_multiplicity
 _atom_site_fract_x
 _atom_site_fract_y
 _atom_site_fract_z
 _atom_site_occupancy
  K  K0  1  -0.00000184  0.25000000  0.49995530  1.0
  K  K1  1  0.49999816  0.25000000  0.00004470  1.0
  K  K2  1  1.00000184  0.75000000  0.50004470  1.0
  K  K3  1  0.50000184  0.75000000  0.99995530  1.0
  Nb  Nb4  1  0.50000000  0.50000000  0.50000000  1.0
  Nb  Nb5  1  0.50000000  0.00000000  0.50000000  1.0
  Nb  Nb6  1  0.00000000  0.50000000  0.00000000  1.0
  Nb  Nb7  1  0.00000000  0.00000000  0.00000000  1.0
  O  O8  1  0.25011641  0.50001730  0.75012154  1.0
  O  O9  1  0.25011641  -0.00001730  0.75012154  1.0
  O  O10  1  0.75011641  0.50001730  0.74987846  1.0
  O  O11  1  0.75011641  -0.00001730  0.74987846  1.0
  O  O12  1  0.74988359  1.00001730  0.24987846  1.0
  O  O13  1  0.74988359  0.49998270  0.24987846  1.0
  O  O14  1  0.24988359  1.00001730  0.25012154  1.0
  O  O15  1  0.24988359  0.49998270  0.25012154  1.0
  O  O16  1  -0.00005075  0.25000000  -0.00003615  1.0
  O  O17  1  0.49994925  0.25000000  0.50003615  1.0
  O  O18  1  1.00005075  0.75000000  0.00003615  1.0
  O  O19  1  0.50005075  0.75000000  0.49996385  1.0
