# generated using pymatgen
data_ZrMnGe2
_symmetry_space_group_name_H-M   'P 1'
_cell_length_a   9.27507303
_cell_length_b   10.18068859
_cell_length_c   8.10106374
_cell_angle_alpha   90.00000000
_cell_angle_beta   90.00000000
_cell_angle_gamma   90.00000000
_symmetry_Int_Tables_number   1
_chemical_formula_structural   ZrMnGe2
_chemical_formula_sum   'Zr12 Mn12 Ge24'
_cell_volume   764.95615016
_cell_formula_units_Z   12
loop_
 _symmetry_equiv_pos_site_id
 _symmetry_equiv_pos_as_xyz
  1  'x, y, z'
loop_
 _atom_site_type_symbol
 _atom_site_label
 _atom_site_symmetry_multiplicity
 _atom_site_fract_x
 _atom_site_fract_y
 _atom_site_fract_z
 _atom_site_occupancy
  Zr  Zr0  1  0.17263640  0.54781927  0.75549366  1.0
  Zr  Zr1  1  0.17263640  0.54781927  0.24450634  1.0
  Zr  Zr2  1  0.67263640  0.95218073  0.75549366  1.0
  Zr  Zr3  1  0.67263640  0.95218073  0.24450634  1.0
  Zr  Zr4  1  0.82736360  0.45218073  0.75549366  1.0
  Zr  Zr5  1  0.82736360  0.45218073  0.24450634  1.0
  Zr  Zr6  1  0.32736360  0.04781927  0.75549366  1.0
  Zr  Zr7  1  0.32736360  0.04781927  0.24450634  1.0
  Zr  Zr8  1  0.16470450  0.82053971  0.00000000  1.0
  Zr  Zr9  1  0.66470450  0.67946029  0.00000000  1.0
  Zr  Zr10  1  0.83529550  0.17946029  0.00000000  1.0
  Zr  Zr11  1  0.33529550  0.32053971  0.00000000  1.0
  Mn  Mn12  1  0.41554208  0.74762557  0.74974257  1.0
  Mn  Mn13  1  0.41554208  0.74762557  0.25025743  1.0
  Mn  Mn14  1  0.91554208  0.75237443  0.74974257  1.0
  Mn  Mn15  1  0.91554208  0.75237443  0.25025743  1.0
  Mn  Mn16  1  0.58445792  0.25237443  0.74974257  1.0
  Mn  Mn17  1  0.58445792  0.25237443  0.25025743  1.0
  Mn  Mn18  1  0.08445792  0.24762557  0.74974257  1.0
  Mn  Mn19  1  0.08445792  0.24762557  0.25025743  1.0
  Mn  Mn20  1  0.50000000  0.50000000  0.75354847  1.0
  Mn  Mn21  1  0.50000000  0.50000000  0.24645153  1.0
  Mn  Mn22  1  0.00000000  0.00000000  0.75354847  1.0
  Mn  Mn23  1  0.00000000  0.00000000  0.24645153  1.0
  Ge  Ge24  1  0.16645791  0.81819926  0.65731627  1.0
  Ge  Ge25  1  0.16645791  0.81819926  0.34268373  1.0
  Ge  Ge26  1  0.66645791  0.68180074  0.65731627  1.0
  Ge  Ge27  1  0.66645791  0.68180074  0.34268373  1.0
  Ge  Ge28  1  0.83354209  0.18180074  0.65731627  1.0
  Ge  Ge29  1  0.83354209  0.18180074  0.34268373  1.0
  Ge  Ge30  1  0.33354209  0.31819926  0.65731627  1.0
  Ge  Ge31  1  0.33354209  0.31819926  0.34268373  1.0
  Ge  Ge32  1  0.45999230  0.87777983  0.50000000  1.0
  Ge  Ge33  1  0.95999230  0.62222017  0.50000000  1.0
  Ge  Ge34  1  0.54000770  0.12222017  0.50000000  1.0
  Ge  Ge35  1  0.04000770  0.37777983  0.50000000  1.0
  Ge  Ge36  1  0.37746156  0.60052748  0.50000000  1.0
  Ge  Ge37  1  0.87746156  0.89947252  0.50000000  1.0
  Ge  Ge38  1  0.62253844  0.39947252  0.50000000  1.0
  Ge  Ge39  1  0.12253844  0.10052748  0.50000000  1.0
  Ge  Ge40  1  0.45920277  0.87934769  0.00000000  1.0
  Ge  Ge41  1  0.95920277  0.62065231  0.00000000  1.0
  Ge  Ge42  1  0.54079723  0.12065231  0.00000000  1.0
  Ge  Ge43  1  0.04079723  0.37934769  0.00000000  1.0
  Ge  Ge44  1  0.37072604  0.60391371  0.00000000  1.0
  Ge  Ge45  1  0.87072604  0.89608629  0.00000000  1.0
  Ge  Ge46  1  0.62927396  0.39608629  0.00000000  1.0
  Ge  Ge47  1  0.12927396  0.10391371  0.00000000  1.0
