# generated using pymatgen
data_Sr3Co2Cl2O5
_symmetry_space_group_name_H-M   'P 1'
_cell_length_a   12.85037141
_cell_length_b   12.85037141
_cell_length_c   12.85037141
_cell_angle_alpha   162.69838375
_cell_angle_beta   162.69838375
_cell_angle_gamma   24.56298909
_symmetry_Int_Tables_number   1
_chemical_formula_structural   Sr3Co2Cl2O5
_chemical_formula_sum   'Sr3 Co2 Cl2 O5'
_cell_volume   187.63673418
_cell_formula_units_Z   1
loop_
 _symmetry_equiv_pos_site_id
 _symmetry_equiv_pos_as_xyz
  1  'x, y, z'
loop_
 _atom_site_type_symbol
 _atom_site_label
 _atom_site_symmetry_multiplicity
 _atom_site_fract_x
 _atom_site_fract_y
 _atom_site_fract_z
 _atom_site_occupancy
  O  O0  1  0.41637052  0.91637052  0.50000000  1.0
  O  O1  1  0.58362948  0.08362948  0.50000000  1.0
  O  O2  1  0.91637052  0.41637052  0.50000000  1.0
  O  O3  1  0.08362948  0.58362948  0.50000000  1.0
  O  O4  1  0.00000000  0.00000000  0.00000000  1.0
  Co  Co5  1  0.92628158  0.92628158  1.00000000  1.0
  Co  Co6  1  0.07371842  0.07371842  -0.00000000  1.0
  Sr  Sr7  1  0.64929900  0.64929900  1.00000000  1.0
  Sr  Sr8  1  0.35070100  0.35070100  0.00000000  1.0
  Sr  Sr9  1  0.50000000  0.50000000  1.00000000  1.0
  Cl  Cl10  1  0.80086113  0.80086113  1.00000000  1.0
  Cl  Cl11  1  0.19913887  0.19913887  0.00000000  1.0
