# generated using pymatgen
data_La3(NbN3)2
_symmetry_space_group_name_H-M   'P 1'
_cell_length_a   10.48714641
_cell_length_b   10.48714641
_cell_length_c   10.48714641
_cell_angle_alpha   157.50576114
_cell_angle_beta   157.50576114
_cell_angle_gamma   32.02292335
_symmetry_Int_Tables_number   1
_chemical_formula_structural   La3(NbN3)2
_chemical_formula_sum   'La3 Nb2 N6'
_cell_volume   168.69436873
_cell_formula_units_Z   1
loop_
 _symmetry_equiv_pos_site_id
 _symmetry_equiv_pos_as_xyz
  1  'x, y, z'
loop_
 _atom_site_type_symbol
 _atom_site_label
 _atom_site_symmetry_multiplicity
 _atom_site_fract_x
 _atom_site_fract_y
 _atom_site_fract_z
 _atom_site_occupancy
  La  La0  1  0.82050566  0.82050566  1.00000000  1.0
  La  La1  1  0.17949434  0.17949434  -0.00000000  1.0
  La  La2  1  0.00000000  0.00000000  0.00000000  1.0
  Nb  Nb3  1  0.60176557  0.60176557  1.00000000  1.0
  Nb  Nb4  1  0.39823443  0.39823443  -0.00000000  1.0
  N  N5  1  0.41503144  0.91503144  0.50000000  1.0
  N  N6  1  0.58496856  0.08496856  0.50000000  1.0
  N  N7  1  0.91503144  0.41503144  0.50000000  1.0
  N  N8  1  0.08496856  0.58496856  0.50000000  1.0
  N  N9  1  0.69820635  0.69820635  1.00000000  1.0
  N  N10  1  0.30179365  0.30179365  -0.00000000  1.0
