# generated using pymatgen
data_MnP2HO7
_symmetry_space_group_name_H-M   'P 1'
_cell_length_a   5.07958576
_cell_length_b   12.75238093
_cell_length_c   8.84707799
_cell_angle_alpha   90.00000000
_cell_angle_beta   112.81468569
_cell_angle_gamma   90.00000000
_symmetry_Int_Tables_number   1
_chemical_formula_structural   MnP2HO7
_chemical_formula_sum   'Mn4 P8 H4 O28'
_cell_volume   528.24947742
_cell_formula_units_Z   4
loop_
 _symmetry_equiv_pos_site_id
 _symmetry_equiv_pos_as_xyz
  1  'x, y, z'
loop_
 _atom_site_type_symbol
 _atom_site_label
 _atom_site_symmetry_multiplicity
 _atom_site_fract_x
 _atom_site_fract_y
 _atom_site_fract_z
 _atom_site_occupancy
  Mn  Mn0  1  0.84921448  0.36844576  0.49165242  1.0
  Mn  Mn1  1  0.84921448  0.13155424  0.99165242  1.0
  Mn  Mn2  1  0.15078552  0.86844576  0.00834758  1.0
  Mn  Mn3  1  0.15078552  0.63155424  0.50834758  1.0
  P  P4  1  0.82841959  0.82045397  0.25445766  1.0
  P  P5  1  0.82841959  0.67954603  0.75445766  1.0
  P  P6  1  0.17158041  0.32045397  0.24554234  1.0
  P  P7  1  0.17158041  0.17954603  0.74554234  1.0
  P  P8  1  0.59586395  0.03365714  0.24220897  1.0
  P  P9  1  0.59586395  0.46634286  0.74220897  1.0
  P  P10  1  0.40413605  0.53365714  0.25779103  1.0
  P  P11  1  0.40413605  0.96634286  0.75779103  1.0
  H  H12  1  0.50942077  0.16569799  0.38154172  1.0
  H  H13  1  0.50942077  0.33430201  0.88154172  1.0
  H  H14  1  0.49057923  0.66569799  0.11845828  1.0
  H  H15  1  0.49057923  0.83430201  0.61845828  1.0
  O  O16  1  0.92791715  0.34489002  0.30139555  1.0
  O  O17  1  0.92791715  0.15510998  0.80139555  1.0
  O  O18  1  0.07208285  0.84489002  0.19860445  1.0
  O  O19  1  0.07208285  0.65510998  0.69860445  1.0
  O  O20  1  0.92202946  0.74803419  0.40449501  1.0
  O  O21  1  0.92202946  0.75196581  0.90449501  1.0
  O  O22  1  0.07797054  0.24803419  0.09550499  1.0
  O  O23  1  0.07797054  0.25196581  0.59550499  1.0
  O  O24  1  0.79190840  0.10144250  0.18726012  1.0
  O  O25  1  0.79190840  0.39855750  0.68726012  1.0
  O  O26  1  0.20809160  0.60144250  0.31273988  1.0
  O  O27  1  0.20809160  0.89855750  0.81273988  1.0
  O  O28  1  0.75826092  0.92909372  0.32865768  1.0
  O  O29  1  0.75826092  0.57090628  0.82865768  1.0
  O  O30  1  0.24173908  0.42909372  0.17134232  1.0
  O  O31  1  0.24173908  0.07090628  0.67134232  1.0
  O  O32  1  0.68662185  0.99597993  0.90171364  1.0
  O  O33  1  0.68662185  0.50402007  0.40171364  1.0
  O  O34  1  0.31337815  0.49597993  0.59828636  1.0
  O  O35  1  0.31337815  0.00402007  0.09828636  1.0
  O  O36  1  0.54352627  0.08634279  0.38584658  1.0
  O  O37  1  0.54352627  0.41365721  0.88584658  1.0
  O  O38  1  0.45647373  0.58634279  0.11415342  1.0
  O  O39  1  0.45647373  0.91365721  0.61415342  1.0
  O  O40  1  0.45132704  0.28457605  0.38196129  1.0
  O  O41  1  0.45132704  0.21542395  0.88196129  1.0
  O  O42  1  0.54867296  0.78457605  0.11803871  1.0
  O  O43  1  0.54867296  0.71542395  0.61803871  1.0
