# generated using pymatgen
data_K2Ce(CuS2)2
_symmetry_space_group_name_H-M   'P 1'
_cell_length_a   7.52449151
_cell_length_b   7.52449151
_cell_length_c   7.60710230
_cell_angle_alpha   70.87230340
_cell_angle_beta   109.12769660
_cell_angle_gamma   149.20580644
_symmetry_Int_Tables_number   1
_chemical_formula_structural   K2Ce(CuS2)2
_chemical_formula_sum   'K2 Ce1 Cu2 S4'
_cell_volume   207.37270951
_cell_formula_units_Z   1
loop_
 _symmetry_equiv_pos_site_id
 _symmetry_equiv_pos_as_xyz
  1  'x, y, z'
loop_
 _atom_site_type_symbol
 _atom_site_label
 _atom_site_symmetry_multiplicity
 _atom_site_fract_x
 _atom_site_fract_y
 _atom_site_fract_z
 _atom_site_occupancy
  K  K0  1  0.86335744  0.13664256  0.43520352  1.0
  K  K1  1  0.13664256  -0.13664256  0.56479648  1.0
  Ce  Ce2  1  0.00000000  0.00000000  0.00000000  1.0
  Cu  Cu3  1  0.67913174  0.32086826  0.98595535  1.0
  Cu  Cu4  1  0.32086826  -0.32086826  0.01404465  1.0
  S  S5  1  0.79921269  0.20078731  0.83024093  1.0
  S  S6  1  0.20078731  -0.20078731  0.16975907  1.0
  S  S7  1  0.52187761  0.47812239  0.76588182  1.0
  S  S8  1  0.47812239  -0.47812239  0.23411818  1.0
