# generated using pymatgen
data_MgCrH10O9
_symmetry_space_group_name_H-M   'P 1'
_cell_length_a   6.22081249
_cell_length_b   10.97469080
_cell_length_c   6.36565833
_cell_angle_alpha   75.03947318
_cell_angle_beta   70.68150512
_cell_angle_gamma   81.33667447
_symmetry_Int_Tables_number   1
_chemical_formula_structural   MgCrH10O9
_chemical_formula_sum   'Mg2 Cr2 H20 O18'
_cell_volume   395.20603485
_cell_formula_units_Z   2
loop_
 _symmetry_equiv_pos_site_id
 _symmetry_equiv_pos_as_xyz
  1  'x, y, z'
loop_
 _atom_site_type_symbol
 _atom_site_label
 _atom_site_symmetry_multiplicity
 _atom_site_fract_x
 _atom_site_fract_y
 _atom_site_fract_z
 _atom_site_occupancy
  Mg  Mg0  1  0.00000000  -0.50000000  -0.50000000  1.0
  Mg  Mg1  1  0.00000000  0.00000000  0.00000000  1.0
  Cr  Cr2  1  -0.64617047  -0.28831311  -0.98369756  1.0
  Cr  Cr3  1  -0.35382953  -0.71168689  -0.01630244  1.0
  H  H4  1  -0.90402288  -0.78891740  -0.33082093  1.0
  H  H5  1  -0.09597712  -0.21108260  -0.66917907  1.0
  H  H6  1  -0.89650368  -0.40525086  -0.19642312  1.0
  H  H7  1  -0.10349632  -0.59474914  -0.80357688  1.0
  H  H8  1  -0.83438556  -0.62418888  -0.86232657  1.0
  H  H9  1  -0.16561444  -0.37581112  -0.13767343  1.0
  H  H10  1  -0.75912277  -0.99220983  -0.71737606  1.0
  H  H11  1  -0.24087723  -0.00779017  -0.28262394  1.0
  H  H12  1  -0.74372942  -0.85870906  -0.89667894  1.0
  H  H13  1  -0.25627058  -0.14129094  -0.10332106  1.0
  H  H14  1  -0.66806227  -0.86977698  -0.34985610  1.0
  H  H15  1  -0.33193773  -0.13022302  -0.65014390  1.0
  H  H16  1  -0.65982613  -0.62911721  -0.31140253  1.0
  H  H17  1  -0.34017387  -0.37088279  -0.68859747  1.0
  H  H18  1  -0.56280682  -0.60621143  -0.58579301  1.0
  H  H19  1  -0.43719318  -0.39378857  -0.41420699  1.0
  H  H20  1  -0.31152682  -0.87603026  -0.61352334  1.0
  H  H21  1  -0.68847318  -0.12396974  -0.38647665  1.0
  H  H22  1  -0.29477208  -0.80375191  -0.43851663  1.0
  H  H23  1  -0.70522792  -0.19624809  -0.56148337  1.0
  O  O24  1  -0.96848894  -0.58341908  -0.76291341  1.0
  O  O25  1  -0.03151106  -0.41658092  -0.23708659  1.0
  O  O26  1  -0.83583714  -0.87556832  -0.30003177  1.0
  O  O27  1  -0.16416286  -0.12443168  -0.69996823  1.0
  O  O28  1  -0.83323825  -0.93363929  -0.82401293  1.0
  O  O29  1  -0.16676175  -0.06636071  -0.17598707  1.0
  O  O30  1  -0.82410879  -0.33923816  -0.72652093  1.0
  O  O31  1  -0.17589121  -0.66076184  -0.27347907  1.0
  O  O32  1  -0.69952132  -0.59590900  -0.45478305  1.0
  O  O33  1  -0.30047868  -0.40409100  -0.54521695  1.0
  O  O34  1  -0.38427412  -0.29303133  -0.96442141  1.0
  O  O35  1  -0.61572588  -0.70696867  -0.03557859  1.0
  O  O36  1  -0.36278444  -0.87589765  -0.44823930  1.0
  O  O37  1  -0.63721556  -0.12410235  -0.55176070  1.0
  O  O38  1  -0.35536975  -0.62447130  -0.84134769  1.0
  O  O39  1  -0.64463025  -0.37552870  -0.15865231  1.0
  O  O40  1  -0.27023252  -0.85963866  -0.91336401  1.0
  O  O41  1  -0.72976748  -0.14036134  -0.08663599  1.0
