# generated using pymatgen
data_Eu2SO2
_symmetry_space_group_name_H-M   'P 1'
_cell_length_a   3.91159699
_cell_length_b   3.91159699
_cell_length_c   6.76712970
_cell_angle_alpha   90.00000000
_cell_angle_beta   90.00000000
_cell_angle_gamma   120.00000000
_symmetry_Int_Tables_number   1
_chemical_formula_structural   Eu2SO2
_chemical_formula_sum   'Eu2 S1 O2'
_cell_volume   89.66920883
_cell_formula_units_Z   1
loop_
 _symmetry_equiv_pos_site_id
 _symmetry_equiv_pos_as_xyz
  1  'x, y, z'
loop_
 _atom_site_type_symbol
 _atom_site_label
 _atom_site_symmetry_multiplicity
 _atom_site_fract_x
 _atom_site_fract_y
 _atom_site_fract_z
 _atom_site_occupancy
  Eu  Eu0  1  0.33333333  0.66666667  0.28036912  1.0
  Eu  Eu1  1  0.66666667  0.33333333  0.71963088  1.0
  S  S2  1  0.00000000  0.00000000  0.00000000  1.0
  O  O3  1  0.33333333  0.66666667  0.63115080  1.0
  O  O4  1  0.66666667  0.33333333  0.36884920  1.0
