# generated using pymatgen
data_K3SiN(OF2)3
_symmetry_space_group_name_H-M   'P 1'
_cell_length_a   5.72091917
_cell_length_b   5.72091917
_cell_length_c   14.95508631
_cell_angle_alpha   90.00000000
_cell_angle_beta   90.00000000
_cell_angle_gamma   120.00000000
_symmetry_Int_Tables_number   1
_chemical_formula_structural   K3SiN(OF2)3
_chemical_formula_sum   'K6 Si2 N2 O6 F12'
_cell_volume   423.88805501
_cell_formula_units_Z   2
loop_
 _symmetry_equiv_pos_site_id
 _symmetry_equiv_pos_as_xyz
  1  'x, y, z'
loop_
 _atom_site_type_symbol
 _atom_site_label
 _atom_site_symmetry_multiplicity
 _atom_site_fract_x
 _atom_site_fract_y
 _atom_site_fract_z
 _atom_site_occupancy
  K  K0  1  0.33333333  0.66666667  0.41225295  1.0
  K  K1  1  0.33333333  0.66666667  0.08774705  1.0
  K  K2  1  0.66666667  0.33333333  0.91225295  1.0
  K  K3  1  0.66666667  0.33333333  0.58774705  1.0
  K  K4  1  -0.00000000  -0.00000000  0.25000000  1.0
  K  K5  1  -0.00000000  -0.00000000  0.75000000  1.0
  Si  Si6  1  0.00000000  0.00000000  0.50000000  1.0
  Si  Si7  1  0.00000000  0.00000000  0.00000000  1.0
  N  N8  1  0.33333333  0.66666667  0.75000000  1.0
  N  N9  1  0.66666667  0.33333333  0.25000000  1.0
  O  O10  1  0.53899174  0.46100826  0.25000000  1.0
  O  O11  1  0.53899174  0.07798349  0.25000000  1.0
  O  O12  1  0.46100826  0.53899174  0.75000000  1.0
  O  O13  1  0.46100826  0.92201651  0.75000000  1.0
  O  O14  1  0.92201651  0.46100826  0.25000000  1.0
  O  O15  1  0.07798349  0.53899174  0.75000000  1.0
  F  F16  1  0.14166478  0.85833522  0.93367384  1.0
  F  F17  1  0.14166478  0.85833522  0.56632616  1.0
  F  F18  1  0.14166478  0.28332956  0.93367384  1.0
  F  F19  1  0.14166478  0.28332956  0.56632616  1.0
  F  F20  1  0.85833522  0.14166478  0.43367384  1.0
  F  F21  1  0.85833522  0.14166478  0.06632616  1.0
  F  F22  1  0.85833522  0.71667044  0.43367384  1.0
  F  F23  1  0.85833522  0.71667044  0.06632616  1.0
  F  F24  1  0.71667044  0.85833522  0.93367384  1.0
  F  F25  1  0.71667044  0.85833522  0.56632616  1.0
  F  F26  1  0.28332956  0.14166478  0.43367384  1.0
  F  F27  1  0.28332956  0.14166478  0.06632616  1.0
