# generated using pymatgen
data_Al12Ru
_symmetry_space_group_name_H-M   'P 1'
_cell_length_a   9.48647129
_cell_length_b   9.48647129
_cell_length_c   9.48647129
_cell_angle_alpha   90.00000000
_cell_angle_beta   90.00000000
_cell_angle_gamma   90.00000000
_symmetry_Int_Tables_number   1
_chemical_formula_structural   Al12Ru
_chemical_formula_sum   'Al48 Ru4'
_cell_volume   853.71731650
_cell_formula_units_Z   4
loop_
 _symmetry_equiv_pos_site_id
 _symmetry_equiv_pos_as_xyz
  1  'x, y, z'
loop_
 _atom_site_type_symbol
 _atom_site_label
 _atom_site_symmetry_multiplicity
 _atom_site_fract_x
 _atom_site_fract_y
 _atom_site_fract_z
 _atom_site_occupancy
  Al  Al0  1  0.44966275  0.19399061  0.80600939  1.0
  Al  Al1  1  0.19399061  0.19399061  0.55033725  1.0
  Al  Al2  1  0.19399061  0.44966275  0.80600939  1.0
  Al  Al3  1  0.44966275  0.80600939  0.19399061  1.0
  Al  Al4  1  0.19399061  0.80600939  0.44966275  1.0
  Al  Al5  1  0.19399061  0.55033725  0.19399061  1.0
  Al  Al6  1  0.55033725  0.19399061  0.19399061  1.0
  Al  Al7  1  0.80600939  0.19399061  0.44966275  1.0
  Al  Al8  1  0.80600939  0.44966275  0.19399061  1.0
  Al  Al9  1  0.55033725  0.80600939  0.80600939  1.0
  Al  Al10  1  0.80600939  0.80600939  0.55033725  1.0
  Al  Al11  1  0.80600939  0.55033725  0.80600939  1.0
  Al  Al12  1  0.15317746  0.15317746  0.84682254  1.0
  Al  Al13  1  0.15317746  0.84682254  0.15317746  1.0
  Al  Al14  1  0.84682254  0.15317746  0.15317746  1.0
  Al  Al15  1  0.84682254  0.84682254  0.84682254  1.0
  Al  Al16  1  0.39670118  0.39670118  0.60329882  1.0
  Al  Al17  1  0.39670118  0.60329882  0.39670118  1.0
  Al  Al18  1  0.60329882  0.39670118  0.39670118  1.0
  Al  Al19  1  0.60329882  0.60329882  0.60329882  1.0
  Al  Al20  1  0.67219436  0.67219436  0.32780564  1.0
  Al  Al21  1  0.67219436  0.32780564  0.67219436  1.0
  Al  Al22  1  0.32780564  0.67219436  0.67219436  1.0
  Al  Al23  1  0.32780564  0.32780564  0.32780564  1.0
  Al  Al24  1  0.00000000  0.00000000  0.34820393  1.0
  Al  Al25  1  0.00000000  0.65179607  0.00000000  1.0
  Al  Al26  1  0.65179607  0.00000000  0.00000000  1.0
  Al  Al27  1  0.00000000  0.00000000  0.65179607  1.0
  Al  Al28  1  0.00000000  0.34820393  0.00000000  1.0
  Al  Al29  1  0.34820393  0.00000000  0.00000000  1.0
  Al  Al30  1  0.50000000  0.50000000  0.86065871  1.0
  Al  Al31  1  0.50000000  0.13934129  0.50000000  1.0
  Al  Al32  1  0.13934129  0.50000000  0.50000000  1.0
  Al  Al33  1  0.50000000  0.50000000  0.13934129  1.0
  Al  Al34  1  0.50000000  0.86065871  0.50000000  1.0
  Al  Al35  1  0.86065871  0.50000000  0.50000000  1.0
  Al  Al36  1  0.95698357  0.69796676  0.30203324  1.0
  Al  Al37  1  0.69796676  0.69796676  0.04301643  1.0
  Al  Al38  1  0.69796676  0.95698357  0.30203324  1.0
  Al  Al39  1  0.95698357  0.30203324  0.69796676  1.0
  Al  Al40  1  0.69796676  0.30203324  0.95698357  1.0
  Al  Al41  1  0.69796676  0.04301643  0.69796676  1.0
  Al  Al42  1  0.04301643  0.69796676  0.69796676  1.0
  Al  Al43  1  0.30203324  0.69796676  0.95698357  1.0
  Al  Al44  1  0.30203324  0.95698357  0.69796676  1.0
  Al  Al45  1  0.04301643  0.30203324  0.30203324  1.0
  Al  Al46  1  0.30203324  0.30203324  0.04301643  1.0
  Al  Al47  1  0.30203324  0.04301643  0.30203324  1.0
  Ru  Ru48  1  0.88698282  0.88698282  0.11301718  1.0
  Ru  Ru49  1  0.88698282  0.11301718  0.88698282  1.0
  Ru  Ru50  1  0.11301718  0.88698282  0.88698282  1.0
  Ru  Ru51  1  0.11301718  0.11301718  0.11301718  1.0
