# generated using pymatgen
data_NiAs
_symmetry_space_group_name_H-M   'P 1'
_cell_length_a   6.32869721
_cell_length_b   6.32869721
_cell_length_c   5.05645912
_cell_angle_alpha   90.00000000
_cell_angle_beta   90.00000000
_cell_angle_gamma   59.91698210
_symmetry_Int_Tables_number   1
_chemical_formula_structural   NiAs
_chemical_formula_sum   'Ni6 As6'
_cell_volume   175.24347365
_cell_formula_units_Z   6
loop_
 _symmetry_equiv_pos_site_id
 _symmetry_equiv_pos_as_xyz
  1  'x, y, z'
loop_
 _atom_site_type_symbol
 _atom_site_label
 _atom_site_symmetry_multiplicity
 _atom_site_fract_x
 _atom_site_fract_y
 _atom_site_fract_z
 _atom_site_occupancy
  Ni  Ni0  1  0.84132334  0.82643460  0.25805868  1.0
  Ni  Ni1  1  -0.17356540  1.84132334  0.75805868  1.0
  Ni  Ni2  1  0.17356540  0.15867666  0.25805868  1.0
  Ni  Ni3  1  -0.84132334  1.17356540  0.75805868  1.0
  Ni  Ni4  1  0.48625466  0.51374534  0.25800569  1.0
  Ni  Ni5  1  -0.48625466  1.48625466  0.75800569  1.0
  As  As6  1  -0.16673451  1.49996295  0.01714401  1.0
  As  As7  1  0.49996295  0.83326549  0.51714401  1.0
  As  As8  1  -0.49996295  1.16673451  0.01714401  1.0
  As  As9  1  0.16673451  0.50003705  0.51714401  1.0
  As  As10  1  0.16737964  0.83262036  -0.00981107  1.0
  As  As11  1  -0.16737964  1.16737964  0.49018893  1.0
