# generated using pymatgen
data_Gd2(MoO4)3
_symmetry_space_group_name_H-M   'P 1'
_cell_length_a   6.98941541
_cell_length_b   6.98941541
_cell_length_c   11.52466044
_cell_angle_alpha   79.25227681
_cell_angle_beta   100.74772319
_cell_angle_gamma   67.03300291
_symmetry_Int_Tables_number   1
_chemical_formula_structural   Gd2(MoO4)3
_chemical_formula_sum   'Gd4 Mo6 O24'
_cell_volume   487.91518911
_cell_formula_units_Z   2
loop_
 _symmetry_equiv_pos_site_id
 _symmetry_equiv_pos_as_xyz
  1  'x, y, z'
loop_
 _atom_site_type_symbol
 _atom_site_label
 _atom_site_symmetry_multiplicity
 _atom_site_fract_x
 _atom_site_fract_y
 _atom_site_fract_z
 _atom_site_occupancy
  Gd  Gd0  1  1.54442924  0.21171254  0.09146478  1.0
  Gd  Gd1  1  0.78828746  -0.54442924  0.59146478  1.0
  Gd  Gd2  1  1.21171254  0.54442924  0.40853522  1.0
  Gd  Gd3  1  0.45557076  -0.21171254  0.90853522  1.0
  Mo  Mo4  1  1.74782564  0.03746983  0.44915578  1.0
  Mo  Mo5  1  0.96253017  -0.74782564  0.94915578  1.0
  Mo  Mo6  1  1.03746983  0.74782564  0.05084422  1.0
  Mo  Mo7  1  0.25217436  -0.03746983  0.55084422  1.0
  Mo  Mo8  1  0.62991988  -0.37008012  0.25000000  1.0
  Mo  Mo9  1  1.37008012  0.37008012  0.75000000  1.0
  O  O10  1  1.26637772  0.16431119  0.44318025  1.0
  O  O11  1  0.83568881  -0.26637772  0.94318025  1.0
  O  O12  1  1.16431119  0.26637772  0.05681975  1.0
  O  O13  1  0.73362228  -0.16431119  0.55681975  1.0
  O  O14  1  1.90029691  0.02216753  0.07578174  1.0
  O  O15  1  0.97783247  -0.90029691  0.57578174  1.0
  O  O16  1  1.02216753  0.90029691  0.42421826  1.0
  O  O17  1  0.09970309  -0.02216753  0.92421826  1.0
  O  O18  1  0.57959822  -0.16365796  0.11134328  1.0
  O  O19  1  1.16365796  0.42040178  0.61134328  1.0
  O  O20  1  0.83634204  -0.42040178  0.38865672  1.0
  O  O21  1  1.42040178  0.16365796  0.88865672  1.0
  O  O22  1  0.37927952  -0.29386087  0.28239332  1.0
  O  O23  1  1.29386087  0.62072048  0.78239332  1.0
  O  O24  1  0.70613913  -0.62072048  0.21760668  1.0
  O  O25  1  1.62072048  0.29386087  0.71760668  1.0
  O  O26  1  1.59752397  0.05400819  0.30173008  1.0
  O  O27  1  0.94599181  -0.59752397  0.80173008  1.0
  O  O28  1  1.05400819  0.59752397  0.19826992  1.0
  O  O29  1  0.40247603  -0.05400819  0.69826992  1.0
  O  O30  1  1.58727212  0.31102812  0.46252468  1.0
  O  O31  1  0.68897188  -0.58727212  0.96252468  1.0
  O  O32  1  1.31102812  0.58727212  0.03747532  1.0
  O  O33  1  0.41272788  -0.31102812  0.53747532  1.0
