# generated using pymatgen
data_CSN2
_symmetry_space_group_name_H-M   'P 1'
_cell_length_a   4.30258409
_cell_length_b   11.54020954
_cell_length_c   6.09063345
_cell_angle_alpha   90.00000000
_cell_angle_beta   104.15421693
_cell_angle_gamma   90.00000000
_symmetry_Int_Tables_number   1
_chemical_formula_structural   CSN2
_chemical_formula_sum   'C4 S4 N8'
_cell_volume   293.23548320
_cell_formula_units_Z   4
loop_
 _symmetry_equiv_pos_site_id
 _symmetry_equiv_pos_as_xyz
  1  'x, y, z'
loop_
 _atom_site_type_symbol
 _atom_site_label
 _atom_site_symmetry_multiplicity
 _atom_site_fract_x
 _atom_site_fract_y
 _atom_site_fract_z
 _atom_site_occupancy
  C  C0  1  0.89980463  0.45203841  0.44741088  1.0
  C  C1  1  0.89980463  0.04796159  0.94741088  1.0
  C  C2  1  0.10019537  0.95203841  0.05258912  1.0
  C  C3  1  0.10019537  0.54796159  0.55258912  1.0
  S  S4  1  0.20866059  0.11192066  0.30245365  1.0
  S  S5  1  0.20866059  0.38807934  0.80245365  1.0
  S  S6  1  0.79133941  0.61192066  0.19754635  1.0
  S  S7  1  0.79133941  0.88807934  0.69754635  1.0
  N  N8  1  0.93928829  0.14537395  0.07409919  1.0
  N  N9  1  0.93928829  0.35462605  0.57409919  1.0
  N  N10  1  0.06071171  0.64537395  0.42590081  1.0
  N  N11  1  0.06071171  0.85462605  0.92590081  1.0
  N  N12  1  0.70925235  0.47675866  0.24268787  1.0
  N  N13  1  0.70925235  0.02324134  0.74268787  1.0
  N  N14  1  0.29074765  0.97675866  0.25731213  1.0
  N  N15  1  0.29074765  0.52324134  0.75731213  1.0
