# generated using pymatgen
data_Sr11Bi10
_symmetry_space_group_name_H-M   'P 1'
_cell_length_a   13.03166764
_cell_length_b   13.03166764
_cell_length_c   13.03166764
_cell_angle_alpha   120.41619113
_cell_angle_beta   120.41619113
_cell_angle_gamma   89.28063484
_symmetry_Int_Tables_number   1
_chemical_formula_structural   Sr11Bi10
_chemical_formula_sum   'Sr22 Bi20'
_cell_volume   1554.91704038
_cell_formula_units_Z   2
loop_
 _symmetry_equiv_pos_site_id
 _symmetry_equiv_pos_as_xyz
  1  'x, y, z'
loop_
 _atom_site_type_symbol
 _atom_site_label
 _atom_site_symmetry_multiplicity
 _atom_site_fract_x
 _atom_site_fract_y
 _atom_site_fract_z
 _atom_site_occupancy
  Sr  Sr0  1  0.43934720  0.69004907  0.74929813  1.0
  Sr  Sr1  1  1.05924906  0.30995093  0.74929813  1.0
  Sr  Sr2  1  0.94075094  0.69004907  1.25070187  1.0
  Sr  Sr3  1  0.56065280  0.30995093  0.25070187  1.0
  Sr  Sr4  1  0.69004907  0.43934720  0.74929813  1.0
  Sr  Sr5  1  0.30995093  1.05924906  0.74929813  1.0
  Sr  Sr6  1  0.69004907  0.94075094  1.25070187  1.0
  Sr  Sr7  1  0.30995093  0.56065280  0.25070187  1.0
  Sr  Sr8  1  0.55708830  0.89614179  0.66094651  1.0
  Sr  Sr9  1  0.76480472  0.10385821  0.66094651  1.0
  Sr  Sr10  1  1.23519528  0.89614179  1.33905349  1.0
  Sr  Sr11  1  0.44291170  0.10385821  0.33905349  1.0
  Sr  Sr12  1  0.89614179  0.55708830  0.66094651  1.0
  Sr  Sr13  1  0.10385821  0.76480472  0.66094651  1.0
  Sr  Sr14  1  0.89614179  1.23519528  1.33905349  1.0
  Sr  Sr15  1  0.10385821  0.44291170  0.33905349  1.0
  Sr  Sr16  1  0.66528814  0.66528814  1.33057629  1.0
  Sr  Sr17  1  0.33471186  0.66528814  1.00000000  1.0
  Sr  Sr18  1  0.66528814  0.33471186  1.00000000  1.0
  Sr  Sr19  1  0.33471186  0.33471186  0.66942371  1.0
  Sr  Sr20  1  0.83787251  0.83787251  1.00000000  1.0
  Sr  Sr21  1  0.16212749  0.16212749  0.00000000  1.0
  Bi  Bi22  1  0.61991369  0.61991369  0.58757206  1.0
  Bi  Bi23  1  0.96765836  0.96765836  1.58757206  1.0
  Bi  Bi24  1  1.03234164  0.61991369  1.00000000  1.0
  Bi  Bi25  1  0.38008631  0.96765836  1.00000000  1.0
  Bi  Bi26  1  0.61991369  1.03234164  1.00000000  1.0
  Bi  Bi27  1  0.96765836  0.38008631  1.00000000  1.0
  Bi  Bi28  1  1.03234164  1.03234164  1.41242794  1.0
  Bi  Bi29  1  0.38008631  0.38008631  0.41242794  1.0
  Bi  Bi30  1  0.50000000  0.84975344  1.34975344  1.0
  Bi  Bi31  1  0.84975344  0.50000000  1.34975344  1.0
  Bi  Bi32  1  0.15024656  0.50000000  0.65024656  1.0
  Bi  Bi33  1  0.50000000  0.15024656  0.65024656  1.0
  Bi  Bi34  1  0.87483263  0.87483263  1.74966525  1.0
  Bi  Bi35  1  0.12516737  0.87483263  1.00000000  1.0
  Bi  Bi36  1  0.87483263  0.12516737  1.00000000  1.0
  Bi  Bi37  1  0.12516737  0.12516737  0.25033475  1.0
  Bi  Bi38  1  0.62585734  0.62585734  1.00000000  1.0
  Bi  Bi39  1  0.37414266  0.37414266  0.00000000  1.0
  Bi  Bi40  1  0.25000000  0.75000000  0.50000000  1.0
  Bi  Bi41  1  0.75000000  0.25000000  0.50000000  1.0
