# generated using pymatgen
data_NaSn
_symmetry_space_group_name_H-M   'P 1'
_cell_length_a   11.50961498
_cell_length_b   11.50961498
_cell_length_c   11.50961498
_cell_angle_alpha   125.77439525
_cell_angle_beta   125.77439525
_cell_angle_gamma   80.25925380
_symmetry_Int_Tables_number   1
_chemical_formula_structural   NaSn
_chemical_formula_sum   'Na16 Sn16'
_cell_volume   968.52657480
_cell_formula_units_Z   16
loop_
 _symmetry_equiv_pos_site_id
 _symmetry_equiv_pos_as_xyz
  1  'x, y, z'
loop_
 _atom_site_type_symbol
 _atom_site_label
 _atom_site_symmetry_multiplicity
 _atom_site_fract_x
 _atom_site_fract_y
 _atom_site_fract_z
 _atom_site_occupancy
  Na  Na0  1  0.87786359  0.87786359  1.25572718  1.0
  Na  Na1  1  0.62786359  0.87213641  1.50000000  1.0
  Na  Na2  1  0.62213641  0.62213641  0.74427282  1.0
  Na  Na3  1  0.37213641  0.12786359  0.50000000  1.0
  Na  Na4  1  0.87213641  0.37213641  1.24427282  1.0
  Na  Na5  1  1.12213641  0.37786359  1.00000000  1.0
  Na  Na6  1  0.12786359  0.62786359  0.75572718  1.0
  Na  Na7  1  0.37786359  1.12213641  1.00000000  1.0
  Na  Na8  1  0.62500000  0.99681115  0.87181115  1.0
  Na  Na9  1  0.74681115  0.37500000  0.87181115  1.0
  Na  Na10  1  1.12500000  0.75318885  1.12818885  1.0
  Na  Na11  1  0.50318885  0.87500000  1.12818885  1.0
  Na  Na12  1  1.12500000  1.25318885  1.62818885  1.0
  Na  Na13  1  1.00318885  0.87500000  1.62818885  1.0
  Na  Na14  1  0.62500000  0.49681115  0.37181115  1.0
  Na  Na15  1  0.24681115  0.37500000  0.37181115  1.0
  Sn  Sn16  1  1.00669205  1.06572469  1.19551801  1.0
  Sn  Sn17  1  0.81572469  1.12020668  1.55903264  1.0
  Sn  Sn18  1  0.87020668  0.81117405  0.80448199  1.0
  Sn  Sn19  1  0.56117405  0.25669205  0.44096736  1.0
  Sn  Sn20  1  1.24330795  0.93882595  1.55903264  1.0
  Sn  Sn21  1  0.68882595  0.62979332  1.19551801  1.0
  Sn  Sn22  1  0.37979332  0.68427531  0.44096736  1.0
  Sn  Sn23  1  0.43427531  0.49330795  0.80448199  1.0
  Sn  Sn24  1  0.74330795  1.18427531  1.30448199  1.0
  Sn  Sn25  1  0.93427531  0.12979332  0.94096736  1.0
  Sn  Sn26  1  0.87979332  0.43882595  0.69551801  1.0
  Sn  Sn27  1  0.18882595  0.99330795  1.05903264  1.0
  Sn  Sn28  1  0.50669205  1.31117405  0.94096736  1.0
  Sn  Sn29  1  1.06117405  0.62020668  1.30448199  1.0
  Sn  Sn30  1  1.37020668  0.56572469  1.05903264  1.0
  Sn  Sn31  1  0.31572469  0.75669205  0.69551801  1.0
