# generated using pymatgen
data_Na4Si4O9
_symmetry_space_group_name_H-M   'P 1'
_cell_length_a   10.15567544
_cell_length_b   10.15567544
_cell_length_c   10.15567544
_cell_angle_alpha   95.33021854
_cell_angle_beta   95.33021854
_cell_angle_gamma   144.50917859
_symmetry_Int_Tables_number   1
_chemical_formula_structural   Na4Si4O9
_chemical_formula_sum   'Na8 Si8 O18'
_cell_volume   579.17729378
_cell_formula_units_Z   2
loop_
 _symmetry_equiv_pos_site_id
 _symmetry_equiv_pos_as_xyz
  1  'x, y, z'
loop_
 _atom_site_type_symbol
 _atom_site_label
 _atom_site_symmetry_multiplicity
 _atom_site_fract_x
 _atom_site_fract_y
 _atom_site_fract_z
 _atom_site_occupancy
  Si  Si0  1  1.67775384  1.83408095  1.49310294  1.0
  Si  Si1  1  0.40902198  1.06534910  0.99310294  1.0
  Si  Si2  1  0.81534910  1.32224616  1.15632712  1.0
  Si  Si3  1  0.58408095  0.59097802  0.65632712  1.0
  Si  Si4  1  1.34097802  1.18465090  0.50689706  1.0
  Si  Si5  1  1.07224616  0.41591905  1.00689706  1.0
  Si  Si6  1  1.16591905  0.65902198  0.84367288  1.0
  Si  Si7  1  0.93465090  0.92775384  1.34367288  1.0
  O  O8  1  1.79313177  1.87147196  1.64970057  1.0
  O  O9  1  0.52822861  1.10656880  1.14970057  1.0
  O  O10  1  0.85656880  1.20686823  1.07834019  1.0
  O  O11  1  0.62147196  0.47177139  0.57834019  1.0
  O  O12  1  1.22177139  1.14343120  0.35029943  1.0
  O  O13  1  0.95686823  0.37852804  0.85029943  1.0
  O  O14  1  1.12852804  0.77822861  0.92165981  1.0
  O  O15  1  0.89343120  1.04313177  1.42165981  1.0
  O  O16  1  1.46852968  1.76179888  1.47258216  1.0
  O  O17  1  1.46078328  1.25405249  0.97258216  1.0
  O  O18  1  1.00405249  1.53147032  1.29326920  1.0
  O  O19  1  1.51179888  1.53921672  1.79326920  1.0
  O  O20  1  1.28921672  0.99594751  0.52741784  1.0
  O  O21  1  1.28147032  1.48820112  1.02741784  1.0
  O  O22  1  1.23820112  0.71078328  0.70673080  1.0
  O  O23  1  0.74594751  0.71852968  0.20673080  1.0
  O  O24  1  0.00000000  0.00000000  0.00000000  1.0
  O  O25  1  0.75000000  0.25000000  0.50000000  1.0
  Na  Na26  1  0.18853094  0.19360593  0.84672765  1.0
  Na  Na27  1  1.40312171  1.90819670  1.34672765  1.0
  Na  Na28  1  1.65819670  0.81146906  1.00507499  1.0
  Na  Na29  1  0.94360593  0.59687829  0.50507499  1.0
  Na  Na30  1  0.34687829  0.34180330  1.15327235  1.0
  Na  Na31  1  1.56146906  1.05639407  0.65327235  1.0
  Na  Na32  1  0.80639407  1.65312171  0.99492501  1.0
  Na  Na33  1  1.09180330  1.43853094  1.49492501  1.0
