# generated using pymatgen
data_Ba2V(SiO4)2
_symmetry_space_group_name_H-M   'P 1'
_cell_length_a   8.57313790
_cell_length_b   8.57313790
_cell_length_c   5.32369160
_cell_angle_alpha   90.00000000
_cell_angle_beta   90.00000000
_cell_angle_gamma   90.00000000
_symmetry_Int_Tables_number   1
_chemical_formula_structural   Ba2V(SiO4)2
_chemical_formula_sum   'Ba4 V2 Si4 O16'
_cell_volume   391.28437678
_cell_formula_units_Z   2
loop_
 _symmetry_equiv_pos_site_id
 _symmetry_equiv_pos_as_xyz
  1  'x, y, z'
loop_
 _atom_site_type_symbol
 _atom_site_label
 _atom_site_symmetry_multiplicity
 _atom_site_fract_x
 _atom_site_fract_y
 _atom_site_fract_z
 _atom_site_occupancy
  Ba  Ba0  1  0.82846283  0.67153717  0.45248095  1.0
  Ba  Ba1  1  0.32846283  0.82846283  0.45248095  1.0
  Ba  Ba2  1  0.17153717  0.32846283  0.45248095  1.0
  Ba  Ba3  1  0.67153717  0.17153717  0.45248095  1.0
  V  V4  1  0.50000000  0.50000000  -0.00277004  1.0
  V  V5  1  0.00000000  0.00000000  -0.00277004  1.0
  Si  Si6  1  0.36992633  0.13007367  0.97775551  1.0
  Si  Si7  1  0.86992633  0.36992633  0.97775551  1.0
  Si  Si8  1  0.63007367  0.86992633  0.97775551  1.0
  Si  Si9  1  0.13007367  0.63007367  0.97775551  1.0
  O  O10  1  0.29472795  0.57776591  0.11181162  1.0
  O  O11  1  0.79472795  0.92223409  0.11181162  1.0
  O  O12  1  0.42223409  0.29472795  0.11181162  1.0
  O  O13  1  0.92223409  0.20527205  0.11181162  1.0
  O  O14  1  0.70527205  0.42223409  0.11181162  1.0
  O  O15  1  0.20527205  0.07776591  0.11181162  1.0
  O  O16  1  0.57776591  0.70527205  0.11181162  1.0
  O  O17  1  0.07776591  0.79472795  0.11181162  1.0
  O  O18  1  0.37024499  0.12975501  0.67529638  1.0
  O  O19  1  0.87024499  0.37024499  0.67529638  1.0
  O  O20  1  0.62975501  0.87024499  0.67529638  1.0
  O  O21  1  0.12975501  0.62975501  0.67529638  1.0
  O  O22  1  0.00000000  0.50000000  0.08977123  1.0
  O  O23  1  0.50000000  0.00000000  0.08977123  1.0
  O  O24  1  0.50000000  0.50000000  0.69078665  1.0
  O  O25  1  0.00000000  0.00000000  0.69078665  1.0
