# generated using pymatgen
data_BePH3O5
_symmetry_space_group_name_H-M   'P 1'
_cell_length_a   8.60080396
_cell_length_b   8.72907564
_cell_length_c   5.03542250
_cell_angle_alpha   90.00000000
_cell_angle_beta   90.00000000
_cell_angle_gamma   90.00000000
_symmetry_Int_Tables_number   1
_chemical_formula_structural   BePH3O5
_chemical_formula_sum   'Be4 P4 H12 O20'
_cell_volume   378.04475907
_cell_formula_units_Z   4
loop_
 _symmetry_equiv_pos_site_id
 _symmetry_equiv_pos_as_xyz
  1  'x, y, z'
loop_
 _atom_site_type_symbol
 _atom_site_label
 _atom_site_symmetry_multiplicity
 _atom_site_fract_x
 _atom_site_fract_y
 _atom_site_fract_z
 _atom_site_occupancy
  Be  Be0  1  0.67749470  0.41019285  0.51348307  1.0
  Be  Be1  1  0.32250530  0.58980715  1.01348307  1.0
  Be  Be2  1  0.82250530  0.91019285  1.01348307  1.0
  Be  Be3  1  0.17749470  0.08980715  0.51348307  1.0
  P  P4  1  0.68826242  0.58608428  0.01809217  1.0
  P  P5  1  0.31173758  0.41391572  0.51809217  1.0
  P  P6  1  0.81173758  0.08608428  0.51809217  1.0
  P  P7  1  0.18826242  0.91391572  0.01809217  1.0
  H  H8  1  0.89743293  0.38977272  0.87122465  1.0
  H  H9  1  0.10256707  0.61022728  0.37122465  1.0
  H  H10  1  0.60256707  0.88977272  0.37122465  1.0
  H  H11  1  0.39743293  0.11022728  0.87122465  1.0
  H  H12  1  0.89732495  0.60678005  0.36574826  1.0
  H  H13  1  0.10267505  0.39321995  -0.13425174  1.0
  H  H14  1  0.60267505  0.10678005  -0.13425174  1.0
  H  H15  1  0.39732495  0.89321995  0.36574826  1.0
  H  H16  1  0.99922268  0.75988833  0.27615917  1.0
  H  H17  1  0.00077732  0.24011167  0.77615917  1.0
  H  H18  1  0.50077732  0.25988833  0.77615917  1.0
  H  H19  1  0.49922268  0.74011167  0.27615917  1.0
  O  O20  1  0.75005798  0.53330084  0.29872267  1.0
  O  O21  1  0.24994202  0.46669916  0.79872267  1.0
  O  O22  1  0.74994202  1.03330084  0.79872267  1.0
  O  O23  1  0.25005798  -0.03330084  0.29872267  1.0
  O  O24  1  0.74184308  0.46256995  0.81240703  1.0
  O  O25  1  0.25815692  0.53743005  0.31240703  1.0
  O  O26  1  0.75815692  -0.03743005  0.31240703  1.0
  O  O27  1  0.24184308  1.03743005  0.81240703  1.0
  O  O28  1  0.51029820  0.59870513  0.03723946  1.0
  O  O29  1  0.48970180  0.40129487  0.53723946  1.0
  O  O30  1  0.98970180  0.09870513  0.53723946  1.0
  O  O31  1  0.01029820  0.90129487  0.03723946  1.0
  O  O32  1  0.76066290  0.74062638  -0.04844729  1.0
  O  O33  1  0.23933710  0.25937362  0.45155271  1.0
  O  O34  1  0.73933710  0.24062638  0.45155271  1.0
  O  O35  1  0.26066290  0.75937362  -0.04844729  1.0
  O  O36  1  0.99969275  0.67078354  0.40347081  1.0
  O  O37  1  0.00030725  0.32921646  -0.09652919  1.0
  O  O38  1  0.50030725  0.17078354  -0.09652919  1.0
  O  O39  1  0.49969275  0.82921646  0.40347081  1.0
