# generated using pymatgen
data_Ag3Ge5P6
_symmetry_space_group_name_H-M   'P 1'
_cell_length_a   9.03127420
_cell_length_b   9.03127420
_cell_length_c   9.03127420
_cell_angle_alpha   109.47122063
_cell_angle_beta   109.47122063
_cell_angle_gamma   109.47122063
_symmetry_Int_Tables_number   1
_chemical_formula_structural   Ag3Ge5P6
_chemical_formula_sum   'Ag6 Ge10 P12'
_cell_volume   567.05501209
_cell_formula_units_Z   2
loop_
 _symmetry_equiv_pos_site_id
 _symmetry_equiv_pos_as_xyz
  1  'x, y, z'
loop_
 _atom_site_type_symbol
 _atom_site_label
 _atom_site_symmetry_multiplicity
 _atom_site_fract_x
 _atom_site_fract_y
 _atom_site_fract_z
 _atom_site_occupancy
  Ag  Ag0  1  0.80330150  0.80330150  -0.00000000  1.0
  Ag  Ag1  1  0.80330150  -0.00000000  0.80330150  1.0
  Ag  Ag2  1  -0.00000000  0.80330150  0.80330150  1.0
  Ag  Ag3  1  0.19669850  -0.00000000  0.19669850  1.0
  Ag  Ag4  1  0.00000000  0.19669850  0.19669850  1.0
  Ag  Ag5  1  0.19669850  0.19669850  0.00000000  1.0
  Ge  Ge6  1  0.25000000  0.75000000  0.50000000  1.0
  Ge  Ge7  1  0.75000000  0.25000000  0.50000000  1.0
  Ge  Ge8  1  0.25000000  0.50000000  0.75000000  1.0
  Ge  Ge9  1  0.50000000  0.25000000  0.75000000  1.0
  Ge  Ge10  1  0.75000000  0.50000000  0.25000000  1.0
  Ge  Ge11  1  0.50000000  0.75000000  0.25000000  1.0
  Ge  Ge12  1  0.42187083  0.42187083  0.42187083  1.0
  Ge  Ge13  1  1.00000000  1.00000000  0.57812917  1.0
  Ge  Ge14  1  1.00000000  0.57812917  1.00000000  1.0
  Ge  Ge15  1  0.57812917  1.00000000  1.00000000  1.0
  P  P16  1  0.74303833  0.51184037  0.51184037  1.0
  P  P17  1  0.51184037  0.74303833  0.51184037  1.0
  P  P18  1  1.00000000  1.23119796  0.48815963  1.0
  P  P19  1  1.23119796  1.00000000  0.48815963  1.0
  P  P20  1  0.51184037  0.51184037  0.74303833  1.0
  P  P21  1  0.76880204  0.76880204  0.25696167  1.0
  P  P22  1  1.00000000  0.48815963  1.23119796  1.0
  P  P23  1  0.76880204  0.25696167  0.76880204  1.0
  P  P24  1  0.25696167  0.76880204  0.76880204  1.0
  P  P25  1  0.48815963  1.00000000  1.23119796  1.0
  P  P26  1  1.23119796  0.48815963  1.00000000  1.0
  P  P27  1  0.48815963  1.23119796  1.00000000  1.0
