# generated using pymatgen
data_Mg2FeBO5
_symmetry_space_group_name_H-M   'P 1'
_cell_length_a   9.30140833
_cell_length_b   12.51166810
_cell_length_c   3.03511128
_cell_angle_alpha   90.00000000
_cell_angle_beta   90.00000000
_cell_angle_gamma   90.00000000
_symmetry_Int_Tables_number   1
_chemical_formula_structural   Mg2FeBO5
_chemical_formula_sum   'Mg8 Fe4 B4 O20'
_cell_volume   353.21451705
_cell_formula_units_Z   4
loop_
 _symmetry_equiv_pos_site_id
 _symmetry_equiv_pos_as_xyz
  1  'x, y, z'
loop_
 _atom_site_type_symbol
 _atom_site_label
 _atom_site_symmetry_multiplicity
 _atom_site_fract_x
 _atom_site_fract_y
 _atom_site_fract_z
 _atom_site_occupancy
  Fe  Fe0  1  0.26037968  0.88350935  0.00000000  1.0
  Fe  Fe1  1  0.76037968  0.61649065  0.00000000  1.0
  Fe  Fe2  1  0.73962032  0.11649065  0.00000000  1.0
  Fe  Fe3  1  0.23962032  0.38350935  0.00000000  1.0
  O  O4  1  0.37316877  0.64231263  0.00000000  1.0
  O  O5  1  0.87316877  0.85768737  0.00000000  1.0
  O  O6  1  0.62683123  0.35768737  0.00000000  1.0
  O  O7  1  0.12683123  0.14231263  0.00000000  1.0
  O  O8  1  0.14749320  0.54448786  0.00000000  1.0
  O  O9  1  0.64749320  0.95551214  0.00000000  1.0
  O  O10  1  0.85250680  0.45551214  0.00000000  1.0
  O  O11  1  0.35250680  0.04448786  0.00000000  1.0
  O  O12  1  0.39050596  0.85697227  0.50000000  1.0
  O  O13  1  0.89050596  0.64302773  0.50000000  1.0
  O  O14  1  0.60949404  0.14302773  0.50000000  1.0
  O  O15  1  0.10949404  0.35697227  0.50000000  1.0
  O  O16  1  0.11625021  0.92271557  0.50000000  1.0
  O  O17  1  0.61625021  0.57728443  0.50000000  1.0
  O  O18  1  0.88374979  0.07728443  0.50000000  1.0
  O  O19  1  0.38374979  0.42271557  0.50000000  1.0
  O  O20  1  0.14699314  0.73573933  0.00000000  1.0
  O  O21  1  0.64699314  0.76426067  0.00000000  1.0
  O  O22  1  0.85300686  0.26426067  0.00000000  1.0
  O  O23  1  0.35300686  0.23573933  0.00000000  1.0
  Mg  Mg24  1  0.49715953  0.71826896  0.50000000  1.0
  Mg  Mg25  1  -0.00284047  0.78173104  0.50000000  1.0
  Mg  Mg26  1  0.50284047  0.28173104  0.50000000  1.0
  Mg  Mg27  1  0.00284047  0.21826896  0.50000000  1.0
  Mg  Mg28  1  0.50000000  0.00000000  0.50000000  1.0
  Mg  Mg29  1  0.00000000  0.50000000  0.50000000  1.0
  Mg  Mg30  1  0.50000000  0.50000000  0.00000000  1.0
  Mg  Mg31  1  0.00000000  0.00000000  0.00000000  1.0
  B  B32  1  0.22458789  0.63999043  0.00000000  1.0
  B  B33  1  0.72458789  0.86000957  0.00000000  1.0
  B  B34  1  0.77541211  0.36000957  0.00000000  1.0
  B  B35  1  0.27541211  0.13999043  0.00000000  1.0
