# generated using pymatgen
data_NaV2O4
_symmetry_space_group_name_H-M   'P 1'
_cell_length_a   5.79895134
_cell_length_b   11.55811250
_cell_length_c   5.02253307
_cell_angle_alpha   90.00000000
_cell_angle_beta   90.00000000
_cell_angle_gamma   90.00000000
_symmetry_Int_Tables_number   1
_chemical_formula_structural   NaV2O4
_chemical_formula_sum   'Na4 V8 O16'
_cell_volume   336.63493777
_cell_formula_units_Z   4
loop_
 _symmetry_equiv_pos_site_id
 _symmetry_equiv_pos_as_xyz
  1  'x, y, z'
loop_
 _atom_site_type_symbol
 _atom_site_label
 _atom_site_symmetry_multiplicity
 _atom_site_fract_x
 _atom_site_fract_y
 _atom_site_fract_z
 _atom_site_occupancy
  Na  Na0  1  0.00000000  0.50000000  0.64278764  1.0
  Na  Na1  1  0.50000000  0.00000000  0.35721236  1.0
  Na  Na2  1  0.00000000  0.00000000  0.96593617  1.0
  Na  Na3  1  0.50000000  0.50000000  0.03406383  1.0
  V  V4  1  0.25000000  0.25000000  0.50000000  1.0
  V  V5  1  0.75000000  0.25000000  0.50000000  1.0
  V  V6  1  0.25000000  0.75000000  0.50000000  1.0
  V  V7  1  0.75000000  0.75000000  0.50000000  1.0
  V  V8  1  0.50000000  0.24150116  0.99779917  1.0
  V  V9  1  0.50000000  0.75849884  0.99779917  1.0
  V  V10  1  0.00000000  0.25849884  0.00220083  1.0
  V  V11  1  0.00000000  0.74150116  0.00220083  1.0
  O  O12  1  0.25268102  0.34307506  0.83422948  1.0
  O  O13  1  0.74731898  0.34307506  0.83422948  1.0
  O  O14  1  0.25268102  0.65692494  0.83422948  1.0
  O  O15  1  0.74731898  0.65692494  0.83422948  1.0
  O  O16  1  0.24731898  0.15692494  0.16577052  1.0
  O  O17  1  0.75268102  0.15692494  0.16577052  1.0
  O  O18  1  0.24731898  0.84307506  0.16577052  1.0
  O  O19  1  0.75268102  0.84307506  0.16577052  1.0
  O  O20  1  0.00000000  0.16302220  0.67267910  1.0
  O  O21  1  0.00000000  0.83697780  0.67267910  1.0
  O  O22  1  0.50000000  0.33697780  0.32732090  1.0
  O  O23  1  0.50000000  0.66302220  0.32732090  1.0
  O  O24  1  0.50000000  0.15713833  0.66190195  1.0
  O  O25  1  0.50000000  0.84286167  0.66190195  1.0
  O  O26  1  0.00000000  0.34286167  0.33809805  1.0
  O  O27  1  0.00000000  0.65713833  0.33809805  1.0
