# generated using pymatgen
data_Hg3(SeCl)2
_symmetry_space_group_name_H-M   'P 1'
_cell_length_a   8.09289518
_cell_length_b   8.09289518
_cell_length_c   8.09289518
_cell_angle_alpha   109.47122063
_cell_angle_beta   109.47122063
_cell_angle_gamma   109.47122063
_symmetry_Int_Tables_number   1
_chemical_formula_structural   Hg3(SeCl)2
_chemical_formula_sum   'Hg6 Se4 Cl4'
_cell_volume   408.02789622
_cell_formula_units_Z   2
loop_
 _symmetry_equiv_pos_site_id
 _symmetry_equiv_pos_as_xyz
  1  'x, y, z'
loop_
 _atom_site_type_symbol
 _atom_site_label
 _atom_site_symmetry_multiplicity
 _atom_site_fract_x
 _atom_site_fract_y
 _atom_site_fract_z
 _atom_site_occupancy
  Hg  Hg0  1  1.19203344  0.94203344  1.25000000  1.0
  Hg  Hg1  1  0.25000000  1.19203344  0.94203344  1.0
  Hg  Hg2  1  0.75000000  1.30796656  0.55796656  1.0
  Hg  Hg3  1  0.94203344  0.25000000  1.19203344  1.0
  Hg  Hg4  1  0.55796656  0.75000000  0.30796656  1.0
  Hg  Hg5  1  0.30796656  0.55796656  0.75000000  1.0
  Se  Se6  1  0.96017791  0.96017791  0.96017791  1.0
  Se  Se7  1  0.50000000  1.00000000  0.53982209  1.0
  Se  Se8  1  1.00000000  0.53982209  1.50000000  1.0
  Se  Se9  1  0.53982209  1.50000000  1.00000000  1.0
  Cl  Cl10  1  1.48543579  1.48543579  1.48543579  1.0
  Cl  Cl11  1  1.50000000  1.00000000  1.01456421  1.0
  Cl  Cl12  1  1.00000000  1.01456421  1.50000000  1.0
  Cl  Cl13  1  1.01456421  0.50000000  1.00000000  1.0
