# generated using pymatgen
data_SrH12(ClO3)2
_symmetry_space_group_name_H-M   'P 1'
_cell_length_a   7.97783523
_cell_length_b   7.97783523
_cell_length_c   4.23992757
_cell_angle_alpha   90.00000000
_cell_angle_beta   90.00000000
_cell_angle_gamma   120.00000000
_symmetry_Int_Tables_number   1
_chemical_formula_structural   SrH12(ClO3)2
_chemical_formula_sum   'Sr1 H12 Cl2 O6'
_cell_volume   233.70025948
_cell_formula_units_Z   1
loop_
 _symmetry_equiv_pos_site_id
 _symmetry_equiv_pos_as_xyz
  1  'x, y, z'
loop_
 _atom_site_type_symbol
 _atom_site_label
 _atom_site_symmetry_multiplicity
 _atom_site_fract_x
 _atom_site_fract_y
 _atom_site_fract_z
 _atom_site_occupancy
  Sr  Sr0  1  0.00000000  0.00000000  0.00000000  1.0
  H  H1  1  0.09823312  0.65427733  0.09613177  1.0
  H  H2  1  0.65427733  0.09823312  0.90386823  1.0
  H  H3  1  0.55604421  0.90176688  0.09613177  1.0
  H  H4  1  0.34572267  0.44395579  0.09613177  1.0
  H  H5  1  0.90176688  0.55604421  0.90386823  1.0
  H  H6  1  0.44395579  0.34572267  0.90386823  1.0
  H  H7  1  0.75735512  0.64482065  0.49229062  1.0
  H  H8  1  0.64482065  0.75735512  0.50770938  1.0
  H  H9  1  0.88746553  0.24264488  0.49229062  1.0
  H  H10  1  0.35517935  0.11253447  0.49229062  1.0
  H  H11  1  0.24264488  0.88746553  0.50770938  1.0
  H  H12  1  0.11253447  0.35517935  0.50770938  1.0
  Cl  Cl13  1  0.33333333  0.66666667  0.38789452  1.0
  Cl  Cl14  1  0.66666667  0.33333333  0.61210548  1.0
  O  O15  1  0.77703911  0.77703911  0.50000000  1.0
  O  O16  1  0.00000000  0.22296089  0.50000000  1.0
  O  O17  1  0.22296089  0.00000000  0.50000000  1.0
  O  O18  1  0.32158314  0.32158314  0.00000000  1.0
  O  O19  1  -0.00000000  0.67841686  0.00000000  1.0
  O  O20  1  0.67841686  0.00000000  0.00000000  1.0
