# generated using pymatgen
data_La3OsI3
_symmetry_space_group_name_H-M   'P 1'
_cell_length_a   10.98774084
_cell_length_b   10.98774084
_cell_length_c   10.98774084
_cell_angle_alpha   109.47122063
_cell_angle_beta   109.47122063
_cell_angle_gamma   109.47122063
_symmetry_Int_Tables_number   1
_chemical_formula_structural   La3OsI3
_chemical_formula_sum   'La12 Os4 I12'
_cell_volume   1021.18242459
_cell_formula_units_Z   4
loop_
 _symmetry_equiv_pos_site_id
 _symmetry_equiv_pos_as_xyz
  1  'x, y, z'
loop_
 _atom_site_type_symbol
 _atom_site_label
 _atom_site_symmetry_multiplicity
 _atom_site_fract_x
 _atom_site_fract_y
 _atom_site_fract_z
 _atom_site_occupancy
  La  La0  1  1.75000000  1.22801547  1.27198453  1.0
  La  La1  1  0.75000000  1.02198453  0.47801547  1.0
  La  La2  1  1.04396906  0.27198453  1.02198453  1.0
  La  La3  1  0.45603094  0.47801547  0.22801547  1.0
  La  La4  1  1.27198453  1.02198453  1.04396906  1.0
  La  La5  1  1.22801547  1.27198453  0.75000000  1.0
  La  La6  1  1.02198453  1.04396906  0.27198453  1.0
  La  La7  1  1.47801547  0.75000000  1.02198453  1.0
  La  La8  1  1.02198453  1.47801547  0.75000000  1.0
  La  La9  1  1.47801547  1.22801547  1.45603094  1.0
  La  La10  1  0.22801547  0.45603094  0.47801547  1.0
  La  La11  1  1.27198453  0.75000000  1.22801547  1.0
  Os  Os12  1  1.50000000  1.00000000  1.25000000  1.0
  Os  Os13  1  1.00000000  1.25000000  0.50000000  1.0
  Os  Os14  1  0.25000000  0.25000000  0.25000000  1.0
  Os  Os15  1  1.25000000  0.50000000  1.00000000  1.0
  I  I16  1  0.51819272  0.50909636  0.75909636  1.0
  I  I17  1  0.98180728  0.74090364  0.99090364  1.0
  I  I18  1  1.25000000  0.75909636  0.74090364  1.0
  I  I19  1  1.25000000  0.99090364  0.50909636  1.0
  I  I20  1  0.99090364  1.50909636  1.25000000  1.0
  I  I21  1  1.50909636  1.75909636  1.51819272  1.0
  I  I22  1  0.74090364  0.25000000  0.75909636  1.0
  I  I23  1  0.75909636  0.51819272  0.50909636  1.0
  I  I24  1  0.99090364  0.98180728  0.74090364  1.0
  I  I25  1  1.50909636  1.25000000  0.99090364  1.0
  I  I26  1  0.75909636  0.74090364  0.25000000  1.0
  I  I27  1  1.74090364  0.99090364  0.98180728  1.0
