# generated using pymatgen
data_CsH3CN2O
_symmetry_space_group_name_H-M   'P 1'
_cell_length_a   6.51838677
_cell_length_b   7.24099525
_cell_length_c   9.25133066
_cell_angle_alpha   90.00000000
_cell_angle_beta   90.00000000
_cell_angle_gamma   90.00000000
_symmetry_Int_Tables_number   1
_chemical_formula_structural   CsH3CN2O
_chemical_formula_sum   'Cs4 H12 C4 N8 O4'
_cell_volume   436.65917727
_cell_formula_units_Z   4
loop_
 _symmetry_equiv_pos_site_id
 _symmetry_equiv_pos_as_xyz
  1  'x, y, z'
loop_
 _atom_site_type_symbol
 _atom_site_label
 _atom_site_symmetry_multiplicity
 _atom_site_fract_x
 _atom_site_fract_y
 _atom_site_fract_z
 _atom_site_occupancy
  Cs  Cs0  1  0.34019147  0.57259408  0.63285505  1.0
  Cs  Cs1  1  0.84019147  0.92740592  0.36714495  1.0
  Cs  Cs2  1  0.65980853  0.07259408  0.86714495  1.0
  Cs  Cs3  1  0.15980853  0.42740592  0.13285505  1.0
  H  H4  1  0.44816957  0.82352864  0.13852665  1.0
  H  H5  1  0.94816957  0.67647136  0.86147335  1.0
  H  H6  1  0.55183043  0.32352864  0.36147335  1.0
  H  H7  1  0.05183043  0.17647136  0.63852665  1.0
  H  H8  1  0.32249425  0.74237763  0.93173960  1.0
  H  H9  1  0.82249425  0.75762237  0.06826040  1.0
  H  H10  1  0.67750575  0.24237763  0.56826040  1.0
  H  H11  1  0.17750575  0.25762237  0.43173960  1.0
  H  H12  1  0.31505454  -0.00700424  0.24202955  1.0
  H  H13  1  0.81505454  0.50700424  0.75797045  1.0
  H  H14  1  0.68494546  0.49299576  0.25797045  1.0
  H  H15  1  0.18494546  1.00700424  0.74202955  1.0
  C  C16  1  0.17745561  0.92459011  0.04506462  1.0
  C  C17  1  0.67745561  0.57540989  0.95493538  1.0
  C  C18  1  0.82254439  0.42459011  0.45493538  1.0
  C  C19  1  0.32254439  0.07540989  0.54506462  1.0
  N  N20  1  0.31884930  0.90298994  0.15593029  1.0
  N  N21  1  0.81884930  0.59701006  0.84406971  1.0
  N  N22  1  0.68115070  0.40298994  0.34406971  1.0
  N  N23  1  0.18115070  0.09701006  0.65593029  1.0
  N  N24  1  0.19598892  0.82620121  0.92268754  1.0
  N  N25  1  0.69598892  0.67379879  0.07731246  1.0
  N  N26  1  0.80401108  0.32620121  0.57731246  1.0
  N  N27  1  0.30401108  0.17379879  0.42268754  1.0
  O  O28  1  0.47191406  0.96236643  0.56662542  1.0
  O  O29  1  0.97191406  0.53763357  0.43337458  1.0
  O  O30  1  0.52808594  0.46236643  0.93337458  1.0
  O  O31  1  0.02808594  0.03763357  0.06662542  1.0
