# generated using pymatgen
data_BaZn2(BO3)2
_symmetry_space_group_name_H-M   'P 1'
_cell_length_a   4.97114120
_cell_length_b   9.56811710
_cell_length_c   12.17054959
_cell_angle_alpha   90.00000000
_cell_angle_beta   90.00000000
_cell_angle_gamma   90.00000000
_symmetry_Int_Tables_number   1
_chemical_formula_structural   BaZn2(BO3)2
_chemical_formula_sum   'Ba4 Zn8 B8 O24'
_cell_volume   578.88563279
_cell_formula_units_Z   4
loop_
 _symmetry_equiv_pos_site_id
 _symmetry_equiv_pos_as_xyz
  1  'x, y, z'
loop_
 _atom_site_type_symbol
 _atom_site_label
 _atom_site_symmetry_multiplicity
 _atom_site_fract_x
 _atom_site_fract_y
 _atom_site_fract_z
 _atom_site_occupancy
  Ba  Ba0  1  0.96779490  0.90372640  0.73120813  1.0
  Ba  Ba1  1  0.46779490  0.59627360  0.26879187  1.0
  Ba  Ba2  1  0.03220510  0.40372640  0.76879187  1.0
  Ba  Ba3  1  0.53220510  0.09627360  0.23120813  1.0
  Zn  Zn4  1  0.44925741  0.63196788  0.60293134  1.0
  Zn  Zn5  1  0.94925741  0.86803212  0.39706866  1.0
  Zn  Zn6  1  0.55074259  0.13196788  0.89706866  1.0
  Zn  Zn7  1  0.05074259  0.36803212  0.10293134  1.0
  Zn  Zn8  1  0.43985203  0.84156726  0.03159479  1.0
  Zn  Zn9  1  0.93985203  0.65843274  0.96840521  1.0
  Zn  Zn10  1  0.56014797  0.34156726  0.46840521  1.0
  Zn  Zn11  1  0.06014797  0.15843274  0.53159479  1.0
  B  B12  1  0.45671432  0.66692529  0.83280068  1.0
  B  B13  1  0.95671432  0.83307471  0.16719932  1.0
  B  B14  1  0.54328568  0.16692529  0.66719932  1.0
  B  B15  1  0.04328568  0.33307471  0.33280068  1.0
  B  B16  1  0.43877106  0.91101364  0.50938908  1.0
  B  B17  1  0.93877106  0.58898636  0.49061092  1.0
  B  B18  1  0.56122894  0.41101364  0.99061092  1.0
  B  B19  1  0.06122894  0.08898636  0.00938908  1.0
  O  O20  1  0.46675536  0.33246391  0.90403528  1.0
  O  O21  1  0.96675536  0.16753609  0.09596472  1.0
  O  O22  1  0.53324464  0.83246391  0.59596472  1.0
  O  O23  1  0.03324464  0.66753609  0.40403528  1.0
  O  O24  1  0.17958996  0.67192185  0.83977715  1.0
  O  O25  1  0.67958996  0.82807815  0.16022285  1.0
  O  O26  1  0.82041004  0.17192185  0.66022285  1.0
  O  O27  1  0.32041004  0.32807815  0.33977715  1.0
  O  O28  1  0.16850325  0.96050760  0.51538062  1.0
  O  O29  1  0.66850325  0.53949240  0.48461938  1.0
  O  O30  1  0.83149675  0.46050760  0.98461938  1.0
  O  O31  1  0.33149675  0.03949240  0.01538062  1.0
  O  O32  1  0.10961106  0.75239867  0.09296519  1.0
  O  O33  1  0.60961106  0.74760133  0.90703481  1.0
  O  O34  1  0.89038894  0.25239867  0.40703481  1.0
  O  O35  1  0.39038894  0.24760133  0.59296519  1.0
  O  O36  1  0.08381091  0.90920406  0.24704747  1.0
  O  O37  1  0.58381091  0.59079594  0.75295253  1.0
  O  O38  1  0.91618909  0.40920406  0.25295253  1.0
  O  O39  1  0.41618909  0.09079594  0.74704747  1.0
  O  O40  1  0.08760357  0.55704872  0.58187856  1.0
  O  O41  1  0.58760357  0.94295128  0.41812144  1.0
  O  O42  1  0.91239643  0.05704872  0.91812144  1.0
  O  O43  1  0.41239643  0.44295128  0.08187856  1.0
