# generated using pymatgen
data_YbTl(MoO4)2
_symmetry_space_group_name_H-M   'P 1'
_cell_length_a   16.20480637
_cell_length_b   6.04012644
_cell_length_c   9.50492686
_cell_angle_alpha   90.00000000
_cell_angle_beta   90.00000000
_cell_angle_gamma   90.00000000
_symmetry_Int_Tables_number   1
_chemical_formula_structural   YbTl(MoO4)2
_chemical_formula_sum   'Yb4 Tl4 Mo8 O32'
_cell_volume   930.33349021
_cell_formula_units_Z   4
loop_
 _symmetry_equiv_pos_site_id
 _symmetry_equiv_pos_as_xyz
  1  'x, y, z'
loop_
 _atom_site_type_symbol
 _atom_site_label
 _atom_site_symmetry_multiplicity
 _atom_site_fract_x
 _atom_site_fract_y
 _atom_site_fract_z
 _atom_site_occupancy
  Yb  Yb0  1  0.37856637  0.75000000  0.82629552  1.0
  Yb  Yb1  1  0.87856637  0.75000000  0.67370448  1.0
  Yb  Yb2  1  0.62143363  0.25000000  0.17370448  1.0
  Yb  Yb3  1  0.12143363  0.25000000  0.32629552  1.0
  Tl  Tl4  1  0.12813427  0.75000000  0.90922280  1.0
  Tl  Tl5  1  0.62813427  0.75000000  0.59077720  1.0
  Tl  Tl6  1  0.87186573  0.25000000  0.09077720  1.0
  Tl  Tl7  1  0.37186573  0.25000000  0.40922280  1.0
  Mo  Mo8  1  0.47339351  0.75000000  0.21265333  1.0
  Mo  Mo9  1  0.97339351  0.75000000  0.28734667  1.0
  Mo  Mo10  1  0.52660649  0.25000000  0.78734667  1.0
  Mo  Mo11  1  0.02660649  0.25000000  0.71265333  1.0
  Mo  Mo12  1  0.22058579  0.75000000  0.51554632  1.0
  Mo  Mo13  1  0.72058579  0.75000000  0.98445368  1.0
  Mo  Mo14  1  0.77941421  0.25000000  0.48445368  1.0
  Mo  Mo15  1  0.27941421  0.25000000  0.01554632  1.0
  O  O16  1  0.46546013  0.49027359  0.74846301  1.0
  O  O17  1  0.46546013  0.00972641  0.74846301  1.0
  O  O18  1  0.96546013  0.49027359  0.75153699  1.0
  O  O19  1  0.96546013  0.00972641  0.75153699  1.0
  O  O20  1  0.53453987  0.99027359  0.25153699  1.0
  O  O21  1  0.53453987  0.50972641  0.25153699  1.0
  O  O22  1  0.03453987  0.99027359  0.24846301  1.0
  O  O23  1  0.03453987  0.50972641  0.24846301  1.0
  O  O24  1  0.28703177  1.00364481  0.90951255  1.0
  O  O25  1  0.28703177  0.49635519  0.90951255  1.0
  O  O26  1  0.78703177  1.00364481  0.59048745  1.0
  O  O27  1  0.78703177  0.49635519  0.59048745  1.0
  O  O28  1  0.71296823  0.50364481  0.09048745  1.0
  O  O29  1  0.71296823  -0.00364481  0.09048745  1.0
  O  O30  1  0.21296823  0.50364481  0.40951255  1.0
  O  O31  1  0.21296823  -0.00364481  0.40951255  1.0
  O  O32  1  0.44123706  0.75000000  0.03344671  1.0
  O  O33  1  0.94123706  0.75000000  0.46655329  1.0
  O  O34  1  0.55876294  0.25000000  0.96655329  1.0
  O  O35  1  0.05876294  0.25000000  0.53344671  1.0
  O  O36  1  0.38770637  0.75000000  0.32339831  1.0
  O  O37  1  0.88770637  0.75000000  0.17660169  1.0
  O  O38  1  0.61229363  0.25000000  0.67660169  1.0
  O  O39  1  0.11229363  0.25000000  0.82339831  1.0
  O  O40  1  0.31315618  0.75000000  0.61655003  1.0
  O  O41  1  0.81315618  0.75000000  0.88344997  1.0
  O  O42  1  0.68684382  0.25000000  0.38344997  1.0
  O  O43  1  0.18684382  0.25000000  0.11655003  1.0
  O  O44  1  0.13842804  0.75000000  0.63392055  1.0
  O  O45  1  0.63842804  0.75000000  0.86607945  1.0
  O  O46  1  0.86157196  0.25000000  0.36607945  1.0
  O  O47  1  0.36157196  0.25000000  0.13392055  1.0
