# generated using pymatgen
data_RbCuSnS3
_symmetry_space_group_name_H-M   'P 1'
_cell_length_a   7.94355628
_cell_length_b   7.94355628
_cell_length_c   20.50206936
_cell_angle_alpha   84.44490339
_cell_angle_beta   95.55509661
_cell_angle_gamma   90.00084835
_symmetry_Int_Tables_number   1
_chemical_formula_structural   RbCuSnS3
_chemical_formula_sum   'Rb8 Cu8 Sn8 S24'
_cell_volume   1281.50234927
_cell_formula_units_Z   8
loop_
 _symmetry_equiv_pos_site_id
 _symmetry_equiv_pos_as_xyz
  1  'x, y, z'
loop_
 _atom_site_type_symbol
 _atom_site_label
 _atom_site_symmetry_multiplicity
 _atom_site_fract_x
 _atom_site_fract_y
 _atom_site_fract_z
 _atom_site_occupancy
  Rb  Rb0  1  1.22695660  -0.10101300  0.90784101  1.0
  Rb  Rb1  1  1.10101300  -0.22695660  0.40784101  1.0
  Rb  Rb2  1  0.89898700  0.22695660  0.59215899  1.0
  Rb  Rb3  1  0.77304340  0.10101300  0.09215899  1.0
  Rb  Rb4  1  0.39706184  0.22692602  0.59212935  1.0
  Rb  Rb5  1  0.77307398  0.60293816  0.09212935  1.0
  Rb  Rb6  1  1.22692602  -0.60293816  0.90787065  1.0
  Rb  Rb7  1  1.60293816  -0.22692602  0.40787065  1.0
  Cu  Cu8  1  1.43905093  -0.06404539  0.75001392  1.0
  Cu  Cu9  1  1.06404539  -0.43905093  0.25001392  1.0
  Cu  Cu10  1  0.93595461  0.43905093  0.74998608  1.0
  Cu  Cu11  1  0.56094907  0.06404539  0.24998608  1.0
  Cu  Cu12  1  0.93590686  0.93590686  0.75000000  1.0
  Cu  Cu13  1  0.06409314  0.06409314  0.25000000  1.0
  Cu  Cu14  1  0.43900406  0.43900406  0.75000000  1.0
  Cu  Cu15  1  0.56099594  0.56099594  0.25000000  1.0
  Sn  Sn16  1  1.65688637  -0.28196636  0.62783325  1.0
  Sn  Sn17  1  1.28196636  -0.65688637  0.12783325  1.0
  Sn  Sn18  1  0.71803364  0.65688637  0.87216675  1.0
  Sn  Sn19  1  0.34311363  0.28196636  0.37216675  1.0
  Sn  Sn20  1  0.71773309  0.15734166  0.87090549  1.0
  Sn  Sn21  1  0.84265834  0.28226691  0.37090549  1.0
  Sn  Sn22  1  1.15734166  -0.28226691  0.62909451  1.0
  Sn  Sn23  1  1.28226691  -0.15734166  0.12909451  1.0
  S  S24  1  1.73710227  -0.11017380  0.94836786  1.0
  S  S25  1  1.11017380  -0.73710227  0.44836786  1.0
  S  S26  1  0.88982620  0.73710227  0.55163214  1.0
  S  S27  1  0.26289773  0.11017380  0.05163214  1.0
  S  S28  1  1.44290143  -0.32819728  0.81263238  1.0
  S  S29  1  1.32819728  -0.44290143  0.31263238  1.0
  S  S30  1  0.67180272  0.44290143  0.68736762  1.0
  S  S31  1  0.55709857  0.32819728  0.18736762  1.0
  S  S32  1  1.67179419  -0.03660935  0.68738780  1.0
  S  S33  1  1.03660935  -0.67179419  0.18738780  1.0
  S  S34  1  0.96339065  0.67179419  0.81261220  1.0
  S  S35  1  0.32820581  0.03660935  0.31261220  1.0
  S  S36  1  0.61404933  0.26283856  0.44843741  1.0
  S  S37  1  0.73716144  0.38595067  0.94843741  1.0
  S  S38  1  1.26283856  -0.38595067  0.05156259  1.0
  S  S39  1  1.38595067  -0.26283856  0.55156259  1.0
  S  S40  1  0.44316584  0.17263372  0.80950984  1.0
  S  S41  1  0.82736628  0.55683416  0.30950984  1.0
  S  S42  1  1.17263372  -0.55683416  0.69049016  1.0
  S  S43  1  1.55683416  -0.17263372  0.19049016  1.0
  S  S44  1  1.17266712  -0.03845299  0.69053580  1.0
  S  S45  1  1.03845299  -0.17266712  0.19053580  1.0
  S  S46  1  0.96154701  0.17266712  0.80946420  1.0
  S  S47  1  0.82733288  0.03845299  0.30946420  1.0
