# generated using pymatgen
data_Cs2Ni3Se4
_symmetry_space_group_name_H-M   'P 1'
_cell_length_a   9.34490634
_cell_length_b   8.28953414
_cell_length_c   6.16796447
_cell_angle_alpha   79.04512846
_cell_angle_beta   60.56334955
_cell_angle_gamma   40.39152199
_symmetry_Int_Tables_number   1
_chemical_formula_structural   Cs2Ni3Se4
_chemical_formula_sum   'Cs2 Ni3 Se4'
_cell_volume   254.86625317
_cell_formula_units_Z   1
loop_
 _symmetry_equiv_pos_site_id
 _symmetry_equiv_pos_as_xyz
  1  'x, y, z'
loop_
 _atom_site_type_symbol
 _atom_site_label
 _atom_site_symmetry_multiplicity
 _atom_site_fract_x
 _atom_site_fract_y
 _atom_site_fract_z
 _atom_site_occupancy
  Cs  Cs0  1  -0.34600937  0.65399063  0.34600937  1.0
  Cs  Cs1  1  0.34600937  0.34600937  -0.34600937  1.0
  Ni  Ni2  1  -0.00000000  0.00000000  1.50000000  1.0
  Ni  Ni3  1  -0.50000000  0.50000000  1.00000000  1.0
  Ni  Ni4  1  0.00000000  0.00000000  0.00000000  1.0
  Se  Se5  1  0.73404570  0.06838746  -0.06838746  1.0
  Se  Se6  1  -0.06838746  0.26595430  0.73404570  1.0
  Se  Se7  1  1.06838746  -0.26595430  0.26595430  1.0
  Se  Se8  1  0.26595430  -0.06838746  1.06838746  1.0
