# generated using pymatgen
data_Li2B2Rh3
_symmetry_space_group_name_H-M   'P 1'
_cell_length_a   5.79732892
_cell_length_b   9.48679715
_cell_length_c   2.83690469
_cell_angle_alpha   90.00000000
_cell_angle_beta   90.00000000
_cell_angle_gamma   90.00000000
_symmetry_Int_Tables_number   1
_chemical_formula_structural   Li2B2Rh3
_chemical_formula_sum   'Li4 B4 Rh6'
_cell_volume   156.02432113
_cell_formula_units_Z   2
loop_
 _symmetry_equiv_pos_site_id
 _symmetry_equiv_pos_as_xyz
  1  'x, y, z'
loop_
 _atom_site_type_symbol
 _atom_site_label
 _atom_site_symmetry_multiplicity
 _atom_site_fract_x
 _atom_site_fract_y
 _atom_site_fract_z
 _atom_site_occupancy
  Li  Li0  1  0.33887997  0.92593843  0.50000000  1.0
  Li  Li1  1  0.83887997  0.57406157  0.50000000  1.0
  Li  Li2  1  0.66112003  0.07406157  0.50000000  1.0
  Li  Li3  1  0.16112003  0.42593843  0.50000000  1.0
  B  B4  1  0.43764912  0.66930699  0.50000000  1.0
  B  B5  1  0.93764912  0.83069301  0.50000000  1.0
  B  B6  1  0.56235088  0.33069301  0.50000000  1.0
  B  B7  1  0.06235088  0.16930699  0.50000000  1.0
  Rh  Rh8  1  0.16576764  0.72029774  0.00000000  1.0
  Rh  Rh9  1  0.66576764  0.77970226  0.00000000  1.0
  Rh  Rh10  1  0.83423236  0.27970226  0.00000000  1.0
  Rh  Rh11  1  0.33423236  0.22029774  0.00000000  1.0
  Rh  Rh12  1  0.50000000  0.50000000  0.00000000  1.0
  Rh  Rh13  1  0.00000000  0.00000000  0.00000000  1.0
