# generated using pymatgen
data_Sn(BiTe2)2
_symmetry_space_group_name_H-M   'P 1'
_cell_length_a   14.46485279
_cell_length_b   14.46485279
_cell_length_c   14.46485279
_cell_angle_alpha   17.76251191
_cell_angle_beta   17.76251191
_cell_angle_gamma   17.76251191
_symmetry_Int_Tables_number   1
_chemical_formula_structural   Sn(BiTe2)2
_chemical_formula_sum   'Sn1 Bi2 Te4'
_cell_volume   245.89064425
_cell_formula_units_Z   1
loop_
 _symmetry_equiv_pos_site_id
 _symmetry_equiv_pos_as_xyz
  1  'x, y, z'
loop_
 _atom_site_type_symbol
 _atom_site_label
 _atom_site_symmetry_multiplicity
 _atom_site_fract_x
 _atom_site_fract_y
 _atom_site_fract_z
 _atom_site_occupancy
  Sn  Sn0  1  0.00000000  0.00000000  0.00000000  1.0
  Bi  Bi1  1  1.57458668  0.57458668  0.57458668  1.0
  Bi  Bi2  1  1.42541332  0.42541332  0.42541332  1.0
  Te  Te3  1  0.86797962  0.86797962  0.86797962  1.0
  Te  Te4  1  1.13202038  1.13202038  0.13202038  1.0
  Te  Te5  1  0.71053935  0.71053935  0.71053935  1.0
  Te  Te6  1  1.28946065  1.28946065  0.28946065  1.0
