# generated using pymatgen
data_CaMgPb
_symmetry_space_group_name_H-M   'P 1'
_cell_length_a   7.94729608
_cell_length_b   4.75762161
_cell_length_c   8.95629646
_cell_angle_alpha   90.00000000
_cell_angle_beta   90.00000000
_cell_angle_gamma   90.00000000
_symmetry_Int_Tables_number   1
_chemical_formula_structural   CaMgPb
_chemical_formula_sum   'Ca4 Mg4 Pb4'
_cell_volume   338.63960762
_cell_formula_units_Z   4
loop_
 _symmetry_equiv_pos_site_id
 _symmetry_equiv_pos_as_xyz
  1  'x, y, z'
loop_
 _atom_site_type_symbol
 _atom_site_label
 _atom_site_symmetry_multiplicity
 _atom_site_fract_x
 _atom_site_fract_y
 _atom_site_fract_z
 _atom_site_occupancy
  Ca  Ca0  1  0.97799348  0.75000000  0.68297232  1.0
  Ca  Ca1  1  0.47799348  0.75000000  0.81702768  1.0
  Ca  Ca2  1  0.02200652  0.25000000  0.31702768  1.0
  Ca  Ca3  1  0.52200652  0.25000000  0.18297232  1.0
  Mg  Mg4  1  0.85879004  0.75000000  0.06037685  1.0
  Mg  Mg5  1  0.35879004  0.75000000  0.43962315  1.0
  Mg  Mg6  1  0.14120996  0.25000000  0.93962315  1.0
  Mg  Mg7  1  0.64120996  0.25000000  0.56037685  1.0
  Pb  Pb8  1  0.73871055  0.75000000  0.38108069  1.0
  Pb  Pb9  1  0.23871055  0.75000000  0.11891931  1.0
  Pb  Pb10  1  0.26128945  0.25000000  0.61891931  1.0
  Pb  Pb11  1  0.76128945  0.25000000  0.88108069  1.0
