# generated using pymatgen
data_Rb2Zr(IO3)6
_symmetry_space_group_name_H-M   'P 1'
_cell_length_a   7.91989145
_cell_length_b   7.91989145
_cell_length_c   7.91989145
_cell_angle_alpha   97.26620023
_cell_angle_beta   97.26620023
_cell_angle_gamma   97.26620023
_symmetry_Int_Tables_number   1
_chemical_formula_structural   Rb2Zr(IO3)6
_chemical_formula_sum   'Rb2 Zr1 I6 O18'
_cell_volume   483.67451956
_cell_formula_units_Z   1
loop_
 _symmetry_equiv_pos_site_id
 _symmetry_equiv_pos_as_xyz
  1  'x, y, z'
loop_
 _atom_site_type_symbol
 _atom_site_label
 _atom_site_symmetry_multiplicity
 _atom_site_fract_x
 _atom_site_fract_y
 _atom_site_fract_z
 _atom_site_occupancy
  Rb  Rb0  1  0.67124852  0.67124852  0.67124852  1.0
  Rb  Rb1  1  0.32875148  0.32875148  0.32875148  1.0
  Zr  Zr2  1  -0.00000000  -0.00000000  -0.00000000  1.0
  I  I3  1  0.82964239  0.62029240  0.20545802  1.0
  I  I4  1  1.37970760  -0.20545802  0.17035761  1.0
  I  I5  1  0.79454198  0.17035761  0.37970760  1.0
  I  I6  1  1.17035761  0.37970760  -0.20545802  1.0
  I  I7  1  0.62029240  1.20545802  -0.17035761  1.0
  I  I8  1  1.20545802  0.82964239  -0.37970760  1.0
  O  O9  1  0.83629245  0.78830690  0.04827694  1.0
  O  O10  1  1.21169310  -0.04827694  0.16370755  1.0
  O  O11  1  0.95172306  0.16370755  0.21169310  1.0
  O  O12  1  1.16370755  0.21169310  -0.04827694  1.0
  O  O13  1  0.78830690  1.04827694  -0.16370755  1.0
  O  O14  1  1.04827694  0.83629245  -0.21169310  1.0
  O  O15  1  0.58860719  0.58579324  0.19364237  1.0
  O  O16  1  1.41420676  -0.19364237  0.41139281  1.0
  O  O17  1  0.80635763  0.41139281  0.41420676  1.0
  O  O18  1  1.41139281  0.41420676  -0.19364237  1.0
  O  O19  1  0.58579324  1.19364237  -0.41139281  1.0
  O  O20  1  1.19364237  0.58860719  -0.41420676  1.0
  O  O21  1  1.40619255  0.89843578  -0.21931048  1.0
  O  O22  1  1.10156422  0.21931048  -0.40619255  1.0
  O  O23  1  1.21931048  -0.40619255  0.10156422  1.0
  O  O24  1  0.59380745  0.10156422  0.21931048  1.0
  O  O25  1  0.89843578  0.78068952  0.40619255  1.0
  O  O26  1  0.78068952  1.40619255  -0.10156422  1.0
