# generated using pymatgen
data_Na3Y(BO3)2
_symmetry_space_group_name_H-M   'P 1'
_cell_length_a   6.59683188
_cell_length_b   8.57828039
_cell_length_c   12.17078625
_cell_angle_alpha   90.00000000
_cell_angle_beta   118.72445722
_cell_angle_gamma   90.00000000
_symmetry_Int_Tables_number   1
_chemical_formula_structural   Na3Y(BO3)2
_chemical_formula_sum   'Na12 Y4 B8 O24'
_cell_volume   603.98299544
_cell_formula_units_Z   4
loop_
 _symmetry_equiv_pos_site_id
 _symmetry_equiv_pos_as_xyz
  1  'x, y, z'
loop_
 _atom_site_type_symbol
 _atom_site_label
 _atom_site_symmetry_multiplicity
 _atom_site_fract_x
 _atom_site_fract_y
 _atom_site_fract_z
 _atom_site_occupancy
  Na  Na0  1  0.89867830  0.20254488  0.38460319  1.0
  Na  Na1  1  0.89867830  0.29745512  0.88460319  1.0
  Na  Na2  1  0.10132170  0.70254488  0.11539681  1.0
  Na  Na3  1  0.10132170  0.79745512  0.61539681  1.0
  Na  Na4  1  0.82089570  0.05492294  0.11503731  1.0
  Na  Na5  1  0.82089570  0.44507706  0.61503731  1.0
  Na  Na6  1  0.17910430  0.55492294  0.38496269  1.0
  Na  Na7  1  0.17910430  0.94507706  0.88496269  1.0
  Na  Na8  1  0.43950482  0.20221963  0.42837913  1.0
  Na  Na9  1  0.43950482  0.29778037  0.92837913  1.0
  Na  Na10  1  0.56049518  0.70221963  0.07162087  1.0
  Na  Na11  1  0.56049518  0.79778037  0.57162087  1.0
  Y  Y12  1  0.40555811  0.37397220  0.17135979  1.0
  Y  Y13  1  0.40555811  0.12602780  0.67135979  1.0
  Y  Y14  1  0.59444189  0.87397220  0.32864021  1.0
  Y  Y15  1  0.59444189  0.62602780  0.82864021  1.0
  B  B16  1  0.86376049  0.41252303  0.12355665  1.0
  B  B17  1  0.86376049  0.08747697  0.62355665  1.0
  B  B18  1  0.13623951  0.91252303  0.37644335  1.0
  B  B19  1  0.13623951  0.58747697  0.87644335  1.0
  B  B20  1  0.33493273  0.05931763  0.12049478  1.0
  B  B21  1  0.33493273  0.44068237  0.62049478  1.0
  B  B22  1  0.66506727  0.55931763  0.37950522  1.0
  B  B23  1  0.66506727  0.94068237  0.87950522  1.0
  O  O24  1  0.89948280  0.93264492  0.30046834  1.0
  O  O25  1  0.89948280  0.56735508  0.80046834  1.0
  O  O26  1  0.10051720  0.43264492  0.19953166  1.0
  O  O27  1  0.10051720  0.06735508  0.69953166  1.0
  O  O28  1  0.76225255  0.66494227  0.47648608  1.0
  O  O29  1  0.76225255  0.83505773  0.97648608  1.0
  O  O30  1  0.23774745  0.16494227  0.02351392  1.0
  O  O31  1  0.23774745  0.33505773  0.52351392  1.0
  O  O32  1  0.75242782  0.49214532  0.01005062  1.0
  O  O33  1  0.75242782  0.00785468  0.51005062  1.0
  O  O34  1  0.24757218  0.99214532  0.48994938  1.0
  O  O35  1  0.24757218  0.50785468  0.98994938  1.0
  O  O36  1  0.73785624  0.31430640  0.15943598  1.0
  O  O37  1  0.73785624  0.18569360  0.65943598  1.0
  O  O38  1  0.26214376  0.81430640  0.34056402  1.0
  O  O39  1  0.26214376  0.68569360  0.84056402  1.0
  O  O40  1  0.64078934  0.40220970  0.39297956  1.0
  O  O41  1  0.64078934  0.09779030  0.89297956  1.0
  O  O42  1  0.35921066  0.90220970  0.10702044  1.0
  O  O43  1  0.35921066  0.59779030  0.60702044  1.0
  O  O44  1  0.42879021  0.11808359  0.24349771  1.0
  O  O45  1  0.42879021  0.38191641  0.74349771  1.0
  O  O46  1  0.57120979  0.61808359  0.25650229  1.0
  O  O47  1  0.57120979  0.88191641  0.75650229  1.0
