# generated using pymatgen
data_LiNiPO4
_symmetry_space_group_name_H-M   'P 1'
_cell_length_a   10.13756321
_cell_length_b   5.92238663
_cell_length_c   4.72127886
_cell_angle_alpha   90.00000000
_cell_angle_beta   90.00000000
_cell_angle_gamma   90.00000000
_symmetry_Int_Tables_number   1
_chemical_formula_structural   LiNiPO4
_chemical_formula_sum   'Li4 Ni4 P4 O16'
_cell_volume   283.45882565
_cell_formula_units_Z   4
loop_
 _symmetry_equiv_pos_site_id
 _symmetry_equiv_pos_as_xyz
  1  'x, y, z'
loop_
 _atom_site_type_symbol
 _atom_site_label
 _atom_site_symmetry_multiplicity
 _atom_site_fract_x
 _atom_site_fract_y
 _atom_site_fract_z
 _atom_site_occupancy
  P  P0  1  0.59444812  0.25000000  0.07981858  1.0
  P  P1  1  0.09444812  0.25000000  0.42018142  1.0
  P  P2  1  0.40555188  0.75000000  0.92018142  1.0
  P  P3  1  0.90555188  0.75000000  0.57981858  1.0
  Ni  Ni4  1  0.77474065  0.25000000  0.51486791  1.0
  Ni  Ni5  1  0.27474065  0.25000000  0.98513209  1.0
  Ni  Ni6  1  0.22525935  0.75000000  0.48513209  1.0
  Ni  Ni7  1  0.72525935  0.75000000  0.01486791  1.0
  Li  Li8  1  0.00000000  0.50000000  0.00000000  1.0
  Li  Li9  1  0.00000000  0.00000000  0.00000000  1.0
  Li  Li10  1  0.50000000  0.50000000  0.50000000  1.0
  Li  Li11  1  0.50000000  0.00000000  0.50000000  1.0
  O  O12  1  0.95123369  0.25000000  0.29861894  1.0
  O  O13  1  0.45123369  0.25000000  0.20138106  1.0
  O  O14  1  0.04876631  0.75000000  0.70138106  1.0
  O  O15  1  0.54876631  0.75000000  0.79861894  1.0
  O  O16  1  0.59834201  0.25000000  0.75344987  1.0
  O  O17  1  0.09834201  0.25000000  0.74655013  1.0
  O  O18  1  0.40165799  0.75000000  0.24655013  1.0
  O  O19  1  0.90165799  0.75000000  0.25344987  1.0
  O  O20  1  0.66605237  0.45854551  0.22202369  1.0
  O  O21  1  0.66605237  0.04145449  0.22202369  1.0
  O  O22  1  0.16605237  0.45854551  0.27797631  1.0
  O  O23  1  0.16605237  0.04145449  0.27797631  1.0
  O  O24  1  0.33394763  0.95854551  0.77797631  1.0
  O  O25  1  0.33394763  0.54145449  0.77797631  1.0
  O  O26  1  0.83394763  0.95854551  0.72202369  1.0
  O  O27  1  0.83394763  0.54145449  0.72202369  1.0
