# generated using pymatgen
data_BaCo2(PO4)2
_symmetry_space_group_name_H-M   'P 1'
_cell_length_a   8.55650677
_cell_length_b   8.55650677
_cell_length_c   8.55650677
_cell_angle_alpha   32.73884727
_cell_angle_beta   32.73884727
_cell_angle_gamma   32.73884727
_symmetry_Int_Tables_number   1
_chemical_formula_structural   BaCo2(PO4)2
_chemical_formula_sum   'Ba1 Co2 P2 O8'
_cell_volume   162.98403041
_cell_formula_units_Z   1
loop_
 _symmetry_equiv_pos_site_id
 _symmetry_equiv_pos_as_xyz
  1  'x, y, z'
loop_
 _atom_site_type_symbol
 _atom_site_label
 _atom_site_symmetry_multiplicity
 _atom_site_fract_x
 _atom_site_fract_y
 _atom_site_fract_z
 _atom_site_occupancy
  Co  Co0  1  0.16813527  0.16813527  0.16813527  1.0
  Co  Co1  1  0.83186473  -0.16813527  -0.16813527  1.0
  Ba  Ba2  1  0.00000000  -0.00000000  -0.00000000  1.0
  O  O3  1  0.36347397  0.36347397  -0.63652603  1.0
  O  O4  1  0.63652603  0.63652603  -0.36347397  1.0
  O  O5  1  0.14306316  0.75989351  -0.55967983  1.0
  O  O6  1  0.55967983  -0.14306316  0.24010649  1.0
  O  O7  1  1.24010649  -0.44032017  -0.14306316  1.0
  O  O8  1  0.85693684  0.24010649  -0.44032017  1.0
  O  O9  1  0.44032017  0.14306316  -0.24010649  1.0
  O  O10  1  0.75989351  -0.55967983  0.14306316  1.0
  P  P11  1  0.42680977  0.42680977  -0.57319023  1.0
  P  P12  1  0.57319023  0.57319023  -0.42680977  1.0
