# generated using pymatgen
data_Ba2P7Cl
_symmetry_space_group_name_H-M   'P 1'
_cell_length_a   6.43681693
_cell_length_b   6.91598815
_cell_length_c   11.86882204
_cell_angle_alpha   90.00000000
_cell_angle_beta   94.98024483
_cell_angle_gamma   90.00000000
_symmetry_Int_Tables_number   1
_chemical_formula_structural   Ba2P7Cl
_chemical_formula_sum   'Ba4 P14 Cl2'
_cell_volume   526.36901538
_cell_formula_units_Z   2
loop_
 _symmetry_equiv_pos_site_id
 _symmetry_equiv_pos_as_xyz
  1  'x, y, z'
loop_
 _atom_site_type_symbol
 _atom_site_label
 _atom_site_symmetry_multiplicity
 _atom_site_fract_x
 _atom_site_fract_y
 _atom_site_fract_z
 _atom_site_occupancy
  Ba  Ba0  1  0.26759828  0.75000000  0.95347408  1.0
  Ba  Ba1  1  0.73240172  0.25000000  0.04652592  1.0
  Ba  Ba2  1  0.07104880  0.75000000  0.34664423  1.0
  Ba  Ba3  1  0.92895120  0.25000000  0.65335577  1.0
  P  P4  1  0.61581683  0.99488995  0.80713984  1.0
  P  P5  1  0.61581683  0.50511005  0.80713984  1.0
  P  P6  1  0.38418317  0.49488995  0.19286016  1.0
  P  P7  1  0.38418317  0.00511005  0.19286016  1.0
  P  P8  1  0.35410996  0.92080631  0.68961376  1.0
  P  P9  1  0.35410996  0.57919369  0.68961376  1.0
  P  P10  1  0.64589004  0.42080631  0.31038624  1.0
  P  P11  1  0.64589004  0.07919369  0.31038624  1.0
  P  P12  1  0.82405190  0.75000000  0.59452420  1.0
  P  P13  1  0.17594810  0.25000000  0.40547580  1.0
  P  P14  1  0.82010725  0.75000000  0.77935448  1.0
  P  P15  1  0.17989275  0.25000000  0.22064552  1.0
  P  P16  1  0.48962256  0.75000000  0.55255000  1.0
  P  P17  1  0.51037744  0.25000000  0.44745000  1.0
  Cl  Cl18  1  0.87349017  0.75000000  0.09128779  1.0
  Cl  Cl19  1  0.12650983  0.25000000  0.90871221  1.0
