# generated using pymatgen
data_P3RuO9
_symmetry_space_group_name_H-M   'P 1'
_cell_length_a   7.46488409
_cell_length_b   7.46488409
_cell_length_c   9.56286840
_cell_angle_alpha   57.43594126
_cell_angle_beta   122.56405874
_cell_angle_gamma   127.76113836
_symmetry_Int_Tables_number   1
_chemical_formula_structural   P3RuO9
_chemical_formula_sum   'P6 Ru2 O18'
_cell_volume   337.19765875
_cell_formula_units_Z   2
loop_
 _symmetry_equiv_pos_site_id
 _symmetry_equiv_pos_as_xyz
  1  'x, y, z'
loop_
 _atom_site_type_symbol
 _atom_site_label
 _atom_site_symmetry_multiplicity
 _atom_site_fract_x
 _atom_site_fract_y
 _atom_site_fract_z
 _atom_site_occupancy
  P  P0  1  0.79088146  0.01953237  0.82036685  1.0
  P  P1  1  0.98046763  -0.79088146  0.32036685  1.0
  P  P2  1  1.01953237  0.79088146  0.67963315  1.0
  P  P3  1  1.20911854  -0.01953237  0.17963315  1.0
  P  P4  1  0.54923254  0.54923254  0.75000000  1.0
  P  P5  1  0.45076746  0.45076746  0.25000000  1.0
  Ru  Ru6  1  0.50000000  -0.00000000  0.00000000  1.0
  Ru  Ru7  1  1.00000000  -0.50000000  0.50000000  1.0
  O  O8  1  1.63411716  -0.25214693  0.82164790  1.0
  O  O9  1  1.25214693  -0.63411716  0.32164790  1.0
  O  O10  1  0.74785307  0.63411716  0.67835210  1.0
  O  O11  1  0.36588284  0.25214693  0.17835210  1.0
  O  O12  1  0.64540440  0.09524148  0.82166520  1.0
  O  O13  1  0.90475852  -0.64540440  0.32166520  1.0
  O  O14  1  1.09524148  0.64540440  0.67833480  1.0
  O  O15  1  1.35459560  -0.09524148  0.17833480  1.0
  O  O16  1  0.16387832  -0.11134874  0.83173382  1.0
  O  O17  1  1.11134874  0.83612168  0.33173382  1.0
  O  O18  1  0.88865126  -0.83612168  0.66826618  1.0
  O  O19  1  1.83612168  0.11134874  0.16826618  1.0
  O  O20  1  0.53230053  0.33081847  0.90991955  1.0
  O  O21  1  0.66918153  0.46769947  0.40991955  1.0
  O  O22  1  1.33081847  -0.46769947  0.59008045  1.0
  O  O23  1  1.46769947  -0.33081847  0.09008045  1.0
  O  O24  1  0.00000000  0.00000000  0.00000000  1.0
  O  O25  1  0.00000000  -0.00000000  0.50000000  1.0
