# generated using pymatgen
data_CoSi(OF)6
_symmetry_space_group_name_H-M   'P 1'
_cell_length_a   5.74944590
_cell_length_b   8.17391480
_cell_length_c   7.72264210
_cell_angle_alpha   90.00000000
_cell_angle_beta   92.99894111
_cell_angle_gamma   90.00000000
_symmetry_Int_Tables_number   1
_chemical_formula_structural   CoSi(OF)6
_chemical_formula_sum   'Co2 Si2 O12 F12'
_cell_volume   362.43224841
_cell_formula_units_Z   2
loop_
 _symmetry_equiv_pos_site_id
 _symmetry_equiv_pos_as_xyz
  1  'x, y, z'
loop_
 _atom_site_type_symbol
 _atom_site_label
 _atom_site_symmetry_multiplicity
 _atom_site_fract_x
 _atom_site_fract_y
 _atom_site_fract_z
 _atom_site_occupancy
  Co  Co0  1  0.00000000  0.50000000  0.00000000  1.0
  Co  Co1  1  0.00000000  0.00000000  0.50000000  1.0
  Si  Si2  1  0.50000000  0.50000000  0.50000000  1.0
  Si  Si3  1  0.50000000  0.00000000  0.00000000  1.0
  O  O4  1  0.94428935  0.44781542  0.21952385  1.0
  O  O5  1  0.94428935  0.05218458  0.71952385  1.0
  O  O6  1  0.05571065  0.94781542  0.28047615  1.0
  O  O7  1  0.05571065  0.55218458  0.78047615  1.0
  O  O8  1  0.90474016  0.18183413  0.38755694  1.0
  O  O9  1  0.90474016  0.31816587  0.88755694  1.0
  O  O10  1  0.09525984  0.68183413  0.11244306  1.0
  O  O11  1  0.09525984  0.81816587  0.61244306  1.0
  O  O12  1  0.70950240  0.91491481  0.48112097  1.0
  O  O13  1  0.70950240  0.58508519  0.98112097  1.0
  O  O14  1  0.29049760  0.41491481  0.01887903  1.0
  O  O15  1  0.29049760  0.08508519  0.51887903  1.0
  F  F16  1  0.68781337  0.14901537  0.06842396  1.0
  F  F17  1  0.68781337  0.35098463  0.56842396  1.0
  F  F18  1  0.31218663  0.64901537  0.43157604  1.0
  F  F19  1  0.31218663  0.85098463  0.93157604  1.0
  F  F20  1  0.55003956  0.45699121  0.28573343  1.0
  F  F21  1  0.55003956  0.04300879  0.78573343  1.0
  F  F22  1  0.44996044  0.95699121  0.21426657  1.0
  F  F23  1  0.44996044  0.54300879  0.71426657  1.0
  F  F24  1  0.26999886  0.36206555  0.49104327  1.0
  F  F25  1  0.26999886  0.13793445  0.99104327  1.0
  F  F26  1  0.73000114  0.86206555  0.00895673  1.0
  F  F27  1  0.73000114  0.63793445  0.50895673  1.0
