# generated using pymatgen
data_LiGaH4
_symmetry_space_group_name_H-M   'P 1'
_cell_length_a   4.90370691
_cell_length_b   7.87793969
_cell_length_c   8.00335840
_cell_angle_alpha   90.00000000
_cell_angle_beta   112.88796012
_cell_angle_gamma   90.00000000
_symmetry_Int_Tables_number   1
_chemical_formula_structural   LiGaH4
_chemical_formula_sum   'Li4 Ga4 H16'
_cell_volume   284.83608581
_cell_formula_units_Z   4
loop_
 _symmetry_equiv_pos_site_id
 _symmetry_equiv_pos_as_xyz
  1  'x, y, z'
loop_
 _atom_site_type_symbol
 _atom_site_label
 _atom_site_symmetry_multiplicity
 _atom_site_fract_x
 _atom_site_fract_y
 _atom_site_fract_z
 _atom_site_occupancy
  Li  Li0  1  0.41672607  0.95925706  0.17455805  1.0
  Li  Li1  1  0.58327393  0.45925706  0.32544195  1.0
  Li  Li2  1  0.58327393  0.04074294  0.82544195  1.0
  Li  Li3  1  0.41672607  0.54074294  0.67455805  1.0
  Ga  Ga4  1  0.16294602  0.29505990  0.93343888  1.0
  Ga  Ga5  1  0.83705398  0.79505990  0.56656112  1.0
  Ga  Ga6  1  0.83705398  0.70494010  0.06656112  1.0
  Ga  Ga7  1  0.16294602  0.20494010  0.43343888  1.0
  H  H8  1  0.80622107  0.60613738  0.23192008  1.0
  H  H9  1  0.19377893  0.10613738  0.26807992  1.0
  H  H10  1  0.19377893  0.39386262  0.76807992  1.0
  H  H11  1  0.80622107  0.89386262  0.73192008  1.0
  H  H12  1  0.62863611  0.87328040  0.02146748  1.0
  H  H13  1  0.37136389  0.37328040  0.47853252  1.0
  H  H14  1  0.37136389  0.12671960  0.97853252  1.0
  H  H15  1  0.62863611  0.62671960  0.52146748  1.0
  H  H16  1  0.26264469  0.41180688  0.10897902  1.0
  H  H17  1  0.73735531  0.91180688  0.39102098  1.0
  H  H18  1  0.73735531  0.58819312  0.89102098  1.0
  H  H19  1  0.26264469  0.08819312  0.60897902  1.0
  H  H20  1  0.82801710  0.23608861  0.87889301  1.0
  H  H21  1  0.17198290  0.73608861  0.62110699  1.0
  H  H22  1  0.17198290  0.76391139  0.12110699  1.0
  H  H23  1  0.82801710  0.26391139  0.37889301  1.0
