# generated using pymatgen
data_LaMn2O5
_symmetry_space_group_name_H-M   'P 1'
_cell_length_a   7.73749937
_cell_length_b   8.74388630
_cell_length_c   5.76568940
_cell_angle_alpha   90.00000000
_cell_angle_beta   90.00000000
_cell_angle_gamma   90.00000000
_symmetry_Int_Tables_number   1
_chemical_formula_structural   LaMn2O5
_chemical_formula_sum   'La4 Mn8 O20'
_cell_volume   390.08241396
_cell_formula_units_Z   4
loop_
 _symmetry_equiv_pos_site_id
 _symmetry_equiv_pos_as_xyz
  1  'x, y, z'
loop_
 _atom_site_type_symbol
 _atom_site_label
 _atom_site_symmetry_multiplicity
 _atom_site_fract_x
 _atom_site_fract_y
 _atom_site_fract_z
 _atom_site_occupancy
  La  La0  1  0.14699667  0.82652116  0.50000000  1.0
  La  La1  1  0.64699667  0.67347884  0.50000000  1.0
  La  La2  1  0.85300333  0.17347884  0.50000000  1.0
  La  La3  1  0.35300333  0.32652116  0.50000000  1.0
  O  O4  1  0.40546380  0.79297523  0.75417474  1.0
  O  O5  1  0.40546380  0.79297523  0.24582526  1.0
  O  O6  1  0.90546380  0.70702477  0.75417474  1.0
  O  O7  1  0.90546380  0.70702477  0.24582526  1.0
  O  O8  1  0.59453620  0.20702477  0.75417474  1.0
  O  O9  1  0.59453620  0.20702477  0.24582526  1.0
  O  O10  1  0.09453620  0.29297523  0.75417474  1.0
  O  O11  1  0.09453620  0.29297523  0.24582526  1.0
  O  O12  1  0.15305294  0.54970056  0.50000000  1.0
  O  O13  1  0.65305294  0.95029944  0.50000000  1.0
  O  O14  1  0.84694706  0.45029944  0.50000000  1.0
  O  O15  1  0.34694706  0.04970056  0.50000000  1.0
  O  O16  1  0.50000000  0.50000000  0.78057474  1.0
  O  O17  1  0.50000000  0.50000000  0.21942526  1.0
  O  O18  1  0.00000000  0.00000000  0.78057474  1.0
  O  O19  1  0.00000000  0.00000000  0.21942526  1.0
  O  O20  1  0.15214698  0.56033394  0.00000000  1.0
  O  O21  1  0.65214698  0.93966606  0.00000000  1.0
  O  O22  1  0.84785302  0.43966606  0.00000000  1.0
  O  O23  1  0.34785302  0.06033394  0.00000000  1.0
  Mn  Mn24  1  0.41045263  0.64800963  0.00000000  1.0
  Mn  Mn25  1  0.91045263  0.85199037  0.00000000  1.0
  Mn  Mn26  1  0.58954737  0.35199037  0.00000000  1.0
  Mn  Mn27  1  0.08954737  0.14800963  0.00000000  1.0
  Mn  Mn28  1  0.50000000  0.00000000  0.75938185  1.0
  Mn  Mn29  1  0.50000000  0.00000000  0.24061815  1.0
  Mn  Mn30  1  0.00000000  0.50000000  0.75938185  1.0
  Mn  Mn31  1  0.00000000  0.50000000  0.24061815  1.0
