# generated using pymatgen
data_Be(BC)2
_symmetry_space_group_name_H-M   'P 1'
_cell_length_a   5.42925680
_cell_length_b   6.14005869
_cell_length_c   4.69711572
_cell_angle_alpha   90.00000000
_cell_angle_beta   90.00000000
_cell_angle_gamma   90.00000000
_symmetry_Int_Tables_number   1
_chemical_formula_structural   Be(BC)2
_chemical_formula_sum   'Be4 B8 C8'
_cell_volume   156.58284031
_cell_formula_units_Z   4
loop_
 _symmetry_equiv_pos_site_id
 _symmetry_equiv_pos_as_xyz
  1  'x, y, z'
loop_
 _atom_site_type_symbol
 _atom_site_label
 _atom_site_symmetry_multiplicity
 _atom_site_fract_x
 _atom_site_fract_y
 _atom_site_fract_z
 _atom_site_occupancy
  Be  Be0  1  0.00000000  0.29676938  0.81706903  1.0
  Be  Be1  1  0.00000000  0.70323062  0.81706903  1.0
  Be  Be2  1  0.50000000  0.20323062  0.18293097  1.0
  Be  Be3  1  0.50000000  0.79676938  0.18293097  1.0
  B  B4  1  0.24826292  0.00000000  0.00832868  1.0
  B  B5  1  0.75173708  0.00000000  0.00832868  1.0
  B  B6  1  0.25173708  0.50000000  0.99167132  1.0
  B  B7  1  0.74826292  0.50000000  0.99167132  1.0
  B  B8  1  0.00000000  0.00000000  0.49954674  1.0
  B  B9  1  0.50000000  0.50000000  0.50045326  1.0
  B  B10  1  0.50000000  0.00000000  0.52135297  1.0
  B  B11  1  0.00000000  0.50000000  0.47864703  1.0
  C  C12  1  0.25686208  0.00000000  0.33981961  1.0
  C  C13  1  0.74313792  0.00000000  0.33981961  1.0
  C  C14  1  0.24313792  0.50000000  0.66018039  1.0
  C  C15  1  0.75686208  0.50000000  0.66018039  1.0
  C  C16  1  0.00000000  0.00000000  0.83422472  1.0
  C  C17  1  0.50000000  0.50000000  0.16577528  1.0
  C  C18  1  0.50000000  0.00000000  0.85548798  1.0
  C  C19  1  0.00000000  0.50000000  0.14451202  1.0
