# generated using pymatgen
data_Na2SbAu
_symmetry_space_group_name_H-M   'P 1'
_cell_length_a   6.01928587
_cell_length_b   6.01928587
_cell_length_c   5.88256052
_cell_angle_alpha   90.00000000
_cell_angle_beta   90.00000000
_cell_angle_gamma   78.08497124
_symmetry_Int_Tables_number   1
_chemical_formula_structural   Na2SbAu
_chemical_formula_sum   'Na4 Sb2 Au2'
_cell_volume   208.54373138
_cell_formula_units_Z   2
loop_
 _symmetry_equiv_pos_site_id
 _symmetry_equiv_pos_as_xyz
  1  'x, y, z'
loop_
 _atom_site_type_symbol
 _atom_site_label
 _atom_site_symmetry_multiplicity
 _atom_site_fract_x
 _atom_site_fract_y
 _atom_site_fract_z
 _atom_site_occupancy
  Na  Na0  1  -0.15588925  1.51483358  0.25000000  1.0
  Na  Na1  1  0.51483358  0.84411075  0.75000000  1.0
  Na  Na2  1  -0.51483358  1.15588925  0.25000000  1.0
  Na  Na3  1  0.15588925  0.48516642  0.75000000  1.0
  Sb  Sb4  1  0.29897896  0.70102104  0.25000000  1.0
  Sb  Sb5  1  -0.29897896  1.29897896  0.75000000  1.0
  Au  Au6  1  0.00000000  0.00000000  0.50000000  1.0
  Au  Au7  1  0.00000000  0.00000000  0.00000000  1.0
