# generated using pymatgen
data_SbO2
_symmetry_space_group_name_H-M   'P 1'
_cell_length_a   5.56834548
_cell_length_b   4.91615636
_cell_length_c   11.97742917
_cell_angle_alpha   90.00000000
_cell_angle_beta   90.00000000
_cell_angle_gamma   90.00000000
_symmetry_Int_Tables_number   1
_chemical_formula_structural   SbO2
_chemical_formula_sum   'Sb8 O16'
_cell_volume   327.88041190
_cell_formula_units_Z   8
loop_
 _symmetry_equiv_pos_site_id
 _symmetry_equiv_pos_as_xyz
  1  'x, y, z'
loop_
 _atom_site_type_symbol
 _atom_site_label
 _atom_site_symmetry_multiplicity
 _atom_site_fract_x
 _atom_site_fract_y
 _atom_site_fract_z
 _atom_site_occupancy
  Sb  Sb0  1  0.36685634  0.50116976  0.05768590  1.0
  Sb  Sb1  1  0.86685634  0.99883024  0.05768590  1.0
  Sb  Sb2  1  0.63314366  0.49883024  0.55768590  1.0
  Sb  Sb3  1  0.13314366  0.00116976  0.55768590  1.0
  Sb  Sb4  1  0.01899105  0.53794810  0.30900463  1.0
  Sb  Sb5  1  0.51899105  0.96205190  0.30900463  1.0
  Sb  Sb6  1  0.98100895  0.46205190  0.80900463  1.0
  Sb  Sb7  1  0.48100895  0.03794810  0.80900463  1.0
  O  O8  1  0.42000813  0.79375728  0.61752928  1.0
  O  O9  1  0.92000813  0.70624272  0.61752928  1.0
  O  O10  1  0.57999187  0.20624272  0.11752928  1.0
  O  O11  1  0.07999187  0.29375728  0.11752928  1.0
  O  O12  1  0.34381498  0.66652070  0.21520567  1.0
  O  O13  1  0.84381498  0.83347930  0.21520567  1.0
  O  O14  1  0.65618502  0.33347930  0.71520567  1.0
  O  O15  1  0.15618502  0.16652070  0.71520567  1.0
  O  O16  1  0.18155153  0.83912472  0.40315033  1.0
  O  O17  1  0.68155153  0.66087528  0.40315033  1.0
  O  O18  1  0.81844847  0.16087528  0.90315033  1.0
  O  O19  1  0.31844847  0.33912472  0.90315033  1.0
  O  O20  1  0.14220518  0.78758434  -0.00227581  1.0
  O  O21  1  0.64220518  0.71241566  -0.00227581  1.0
  O  O22  1  0.85779482  0.21241566  0.49772419  1.0
  O  O23  1  0.35779482  0.28758434  0.49772419  1.0
