# generated using pymatgen
data_Ga11NO17
_symmetry_space_group_name_H-M   'P 1'
_cell_length_a   5.93121149
_cell_length_b   5.93121149
_cell_length_c   23.73278906
_cell_angle_alpha   90.00000000
_cell_angle_beta   90.00000000
_cell_angle_gamma   120.00000000
_symmetry_Int_Tables_number   1
_chemical_formula_structural   Ga11NO17
_chemical_formula_sum   'Ga22 N2 O34'
_cell_volume   723.04650439
_cell_formula_units_Z   2
loop_
 _symmetry_equiv_pos_site_id
 _symmetry_equiv_pos_as_xyz
  1  'x, y, z'
loop_
 _atom_site_type_symbol
 _atom_site_label
 _atom_site_symmetry_multiplicity
 _atom_site_fract_x
 _atom_site_fract_y
 _atom_site_fract_z
 _atom_site_occupancy
  N  N0  1  0.33333333  0.66666667  0.75000000  1.0
  N  N1  1  0.66666667  0.33333333  0.25000000  1.0
  Ga  Ga2  1  0.16723976  0.83276024  0.89274407  1.0
  Ga  Ga3  1  0.16723976  0.83276024  0.60725593  1.0
  Ga  Ga4  1  0.16723976  0.33447952  0.89274407  1.0
  Ga  Ga5  1  0.16723976  0.33447952  0.60725593  1.0
  Ga  Ga6  1  0.83276024  0.16723976  0.39274407  1.0
  Ga  Ga7  1  0.83276024  0.16723976  0.10725593  1.0
  Ga  Ga8  1  0.83276024  0.66552048  0.39274407  1.0
  Ga  Ga9  1  0.83276024  0.66552048  0.10725593  1.0
  Ga  Ga10  1  0.66552048  0.83276024  0.89274407  1.0
  Ga  Ga11  1  0.66552048  0.83276024  0.60725593  1.0
  Ga  Ga12  1  0.33447952  0.16723976  0.39274407  1.0
  Ga  Ga13  1  0.33447952  0.16723976  0.10725593  1.0
  Ga  Ga14  1  0.33333333  0.66666667  0.47603527  1.0
  Ga  Ga15  1  0.33333333  0.66666667  0.02396473  1.0
  Ga  Ga16  1  0.66666667  0.33333333  0.97603527  1.0
  Ga  Ga17  1  0.66666667  0.33333333  0.52396473  1.0
  Ga  Ga18  1  0.33333333  0.66666667  0.32589640  1.0
  Ga  Ga19  1  0.33333333  0.66666667  0.17410360  1.0
  Ga  Ga20  1  0.66666667  0.33333333  0.82589640  1.0
  Ga  Ga21  1  0.66666667  0.33333333  0.67410360  1.0
  Ga  Ga22  1  -0.00000000  -0.00000000  0.50000000  1.0
  Ga  Ga23  1  0.00000000  0.00000000  0.00000000  1.0
  O  O24  1  0.15764322  0.84235678  0.44996371  1.0
  O  O25  1  0.15764322  0.84235678  0.05003629  1.0
  O  O26  1  0.15764322  0.31528644  0.44996371  1.0
  O  O27  1  0.15764322  0.31528644  0.05003629  1.0
  O  O28  1  0.84235678  0.15764322  0.94996371  1.0
  O  O29  1  0.84235678  0.15764322  0.55003629  1.0
  O  O30  1  0.84235678  0.68471356  0.94996371  1.0
  O  O31  1  0.84235678  0.68471356  0.55003629  1.0
  O  O32  1  0.68471356  0.84235678  0.44996371  1.0
  O  O33  1  0.68471356  0.84235678  0.05003629  1.0
  O  O34  1  0.31528644  0.15764322  0.94996371  1.0
  O  O35  1  0.31528644  0.15764322  0.55003629  1.0
  O  O36  1  0.50313241  0.49686759  0.35412689  1.0
  O  O37  1  0.50313241  0.49686759  0.14587311  1.0
  O  O38  1  0.50313241  0.00626482  0.35412689  1.0
  O  O39  1  0.50313241  0.00626482  0.14587311  1.0
  O  O40  1  0.49686759  0.50313241  0.85412689  1.0
  O  O41  1  0.49686759  0.50313241  0.64587311  1.0
  O  O42  1  0.49686759  0.99373518  0.85412689  1.0
  O  O43  1  0.49686759  0.99373518  0.64587311  1.0
  O  O44  1  0.99373518  0.49686759  0.35412689  1.0
  O  O45  1  0.99373518  0.49686759  0.14587311  1.0
  O  O46  1  0.00626482  0.50313241  0.85412689  1.0
  O  O47  1  0.00626482  0.50313241  0.64587311  1.0
  O  O48  1  0.33333333  0.66666667  0.94322386  1.0
  O  O49  1  0.33333333  0.66666667  0.55677614  1.0
  O  O50  1  0.66666667  0.33333333  0.44322386  1.0
  O  O51  1  0.66666667  0.33333333  0.05677614  1.0
  O  O52  1  -0.00000000  -0.00000000  0.35829135  1.0
  O  O53  1  -0.00000000  -0.00000000  0.14170865  1.0
  O  O54  1  0.00000000  0.00000000  0.85829135  1.0
  O  O55  1  0.00000000  0.00000000  0.64170865  1.0
  O  O56  1  0.33333333  0.66666667  0.25000000  1.0
  O  O57  1  0.66666667  0.33333333  0.75000000  1.0
