# generated using pymatgen
data_Nb6Tl2VCl18
_symmetry_space_group_name_H-M   'P 1'
_cell_length_a   10.04273878
_cell_length_b   10.04273878
_cell_length_c   10.04273878
_cell_angle_alpha   55.26435037
_cell_angle_beta   55.26435037
_cell_angle_gamma   55.26435037
_symmetry_Int_Tables_number   1
_chemical_formula_structural   Nb6Tl2VCl18
_chemical_formula_sum   'Nb6 Tl2 V1 Cl18'
_cell_volume   637.38302854
_cell_formula_units_Z   1
loop_
 _symmetry_equiv_pos_site_id
 _symmetry_equiv_pos_as_xyz
  1  'x, y, z'
loop_
 _atom_site_type_symbol
 _atom_site_label
 _atom_site_symmetry_multiplicity
 _atom_site_fract_x
 _atom_site_fract_y
 _atom_site_fract_z
 _atom_site_occupancy
  Nb  Nb0  1  0.65415562  0.40565269  -0.70116449  1.0
  Nb  Nb1  1  0.70116449  0.34584438  -0.40565269  1.0
  Nb  Nb2  1  0.59434731  0.70116449  -0.65415562  1.0
  Nb  Nb3  1  0.34584438  0.59434731  -0.29883551  1.0
  Nb  Nb4  1  0.29883551  0.65415562  -0.59434731  1.0
  Nb  Nb5  1  0.40565269  0.29883551  -0.34584438  1.0
  Tl  Tl6  1  0.27723901  0.27723901  0.27723901  1.0
  Tl  Tl7  1  0.72276099  -0.27723901  -0.27723901  1.0
  V  V8  1  0.00000000  0.00000000  0.00000000  1.0
  Cl  Cl9  1  0.57019693  0.15379160  -0.55646516  1.0
  Cl  Cl10  1  0.55646516  0.42980307  -0.15379160  1.0
  Cl  Cl11  1  0.84620840  0.55646516  -0.57019693  1.0
  Cl  Cl12  1  0.42980307  0.84620840  -0.44353484  1.0
  Cl  Cl13  1  0.44353484  0.57019693  -0.84620840  1.0
  Cl  Cl14  1  0.15379160  0.44353484  -0.42980307  1.0
  Cl  Cl15  1  0.37119704  0.91794052  -0.78646726  1.0
  Cl  Cl16  1  0.78646726  -0.37119704  0.08205948  1.0
  Cl  Cl17  1  1.08205948  -0.21353274  -0.37119704  1.0
  Cl  Cl18  1  0.62880296  0.08205948  -0.21353274  1.0
  Cl  Cl19  1  0.21353274  0.37119704  -0.08205948  1.0
  Cl  Cl20  1  0.91794052  0.21353274  -0.62880296  1.0
  Cl  Cl21  1  0.29040617  0.03635115  -0.15421574  1.0
  Cl  Cl22  1  1.15421574  -0.29040617  -0.03635115  1.0
  Cl  Cl23  1  0.96364885  0.15421574  -0.29040617  1.0
  Cl  Cl24  1  0.70959383  -0.03635115  0.15421574  1.0
  Cl  Cl25  1  0.84578426  -0.70959383  0.03635115  1.0
  Cl  Cl26  1  1.03635115  -0.15421574  -0.70959383  1.0
