# generated using pymatgen
data_RbBrF6
_symmetry_space_group_name_H-M   'P 1'
_cell_length_a   5.32605244
_cell_length_b   5.32605244
_cell_length_c   5.32605244
_cell_angle_alpha   97.75718907
_cell_angle_beta   97.75718907
_cell_angle_gamma   97.75718906
_symmetry_Int_Tables_number   1
_chemical_formula_structural   RbBrF6
_chemical_formula_sum   'Rb1 Br1 F6'
_cell_volume   146.51391006
_cell_formula_units_Z   1
loop_
 _symmetry_equiv_pos_site_id
 _symmetry_equiv_pos_as_xyz
  1  'x, y, z'
loop_
 _atom_site_type_symbol
 _atom_site_label
 _atom_site_symmetry_multiplicity
 _atom_site_fract_x
 _atom_site_fract_y
 _atom_site_fract_z
 _atom_site_occupancy
  Rb  Rb0  1  0.50000000  0.50000000  0.50000000  1.0
  Br  Br1  1  0.00000000  0.00000000  0.00000000  1.0
  F  F2  1  1.25376671  0.25376671  -0.07825454  1.0
  F  F3  1  1.25376671  -0.07825454  0.25376671  1.0
  F  F4  1  1.07825454  0.74623329  -0.25376671  1.0
  F  F5  1  0.74623329  1.07825454  -0.25376671  1.0
  F  F6  1  0.74623329  0.74623329  0.07825454  1.0
  F  F7  1  0.92174546  0.25376671  0.25376671  1.0
