# generated using pymatgen
data_TaS2
_symmetry_space_group_name_H-M   'P 1'
_cell_length_a   6.89300226
_cell_length_b   6.89300226
_cell_length_c   6.89300226
_cell_angle_alpha   28.00676809
_cell_angle_beta   28.00676809
_cell_angle_gamma   28.00676809
_symmetry_Int_Tables_number   1
_chemical_formula_structural   TaS2
_chemical_formula_sum   'Ta1 S2'
_cell_volume   63.78528410
_cell_formula_units_Z   1
loop_
 _symmetry_equiv_pos_site_id
 _symmetry_equiv_pos_as_xyz
  1  'x, y, z'
loop_
 _atom_site_type_symbol
 _atom_site_label
 _atom_site_symmetry_multiplicity
 _atom_site_fract_x
 _atom_site_fract_y
 _atom_site_fract_z
 _atom_site_occupancy
  Ta  Ta0  1  0.58099892  0.58099892  -0.41900108  1.0
  S  S1  1  -0.00688040  -0.00688040  -0.00688040  1.0
  S  S2  1  0.83558147  -0.16441853  -0.16441853  1.0
