# generated using pymatgen
data_K3B12I
_symmetry_space_group_name_H-M   'P 1'
_cell_length_a   6.70045786
_cell_length_b   6.70045786
_cell_length_c   6.70045786
_cell_angle_alpha   89.89050081
_cell_angle_beta   89.89050081
_cell_angle_gamma   89.89050081
_symmetry_Int_Tables_number   1
_chemical_formula_structural   K3B12I
_chemical_formula_sum   'K3 B12 I1'
_cell_volume   300.82301790
_cell_formula_units_Z   1
loop_
 _symmetry_equiv_pos_site_id
 _symmetry_equiv_pos_as_xyz
  1  'x, y, z'
loop_
 _atom_site_type_symbol
 _atom_site_label
 _atom_site_symmetry_multiplicity
 _atom_site_fract_x
 _atom_site_fract_y
 _atom_site_fract_z
 _atom_site_occupancy
  K  K0  1  1.00000000  -0.50000000  -0.00000000  1.0
  K  K1  1  1.00000000  0.00000000  -0.50000000  1.0
  K  K2  1  0.50000000  0.00000000  -0.00000000  1.0
  B  B3  1  1.55089637  0.55089637  -0.26592195  1.0
  B  B4  1  1.55089637  -0.26592195  0.55089637  1.0
  B  B5  1  1.26592195  0.44910363  -0.55089637  1.0
  B  B6  1  0.44910363  1.26592195  -0.55089637  1.0
  B  B7  1  0.44910363  0.44910363  0.26592195  1.0
  B  B8  1  0.73407805  0.55089637  0.55089637  1.0
  B  B9  1  1.37411145  0.37411145  -0.32795210  1.0
  B  B10  1  1.37411145  -0.32795210  0.37411145  1.0
  B  B11  1  1.32795210  0.62588855  -0.37411145  1.0
  B  B12  1  0.62588855  1.32795210  -0.37411145  1.0
  B  B13  1  0.62588855  0.62588855  0.32795210  1.0
  B  B14  1  0.67204790  0.37411145  0.37411145  1.0
  I  I15  1  0.00000000  0.00000000  0.00000000  1.0
