# generated using pymatgen
data_Na2SrCdSb2
_symmetry_space_group_name_H-M   'P 1'
_cell_length_a   4.80676390
_cell_length_b   9.23450075
_cell_length_c   8.14639662
_cell_angle_alpha   90.00000000
_cell_angle_beta   90.00000000
_cell_angle_gamma   90.00000000
_symmetry_Int_Tables_number   1
_chemical_formula_structural   Na2SrCdSb2
_chemical_formula_sum   'Na4 Sr2 Cd2 Sb4'
_cell_volume   361.60278073
_cell_formula_units_Z   2
loop_
 _symmetry_equiv_pos_site_id
 _symmetry_equiv_pos_as_xyz
  1  'x, y, z'
loop_
 _atom_site_type_symbol
 _atom_site_label
 _atom_site_symmetry_multiplicity
 _atom_site_fract_x
 _atom_site_fract_y
 _atom_site_fract_z
 _atom_site_occupancy
  Na  Na0  1  0.50000000  0.58065944  0.46255390  1.0
  Na  Na1  1  0.50000000  0.41934056  0.96255390  1.0
  Na  Na2  1  0.00000000  0.66789836  0.13799638  1.0
  Na  Na3  1  0.00000000  0.33210164  0.63799638  1.0
  Sr  Sr4  1  0.00000000  0.94126172  0.50931788  1.0
  Sr  Sr5  1  0.00000000  0.05873828  0.00931788  1.0
  Cd  Cd6  1  0.50000000  0.81121332  0.85085241  1.0
  Cd  Cd7  1  0.50000000  0.18878668  0.35085241  1.0
  Sb  Sb8  1  0.50000000  0.87654311  0.22285080  1.0
  Sb  Sb9  1  0.50000000  0.12345689  0.72285080  1.0
  Sb  Sb10  1  0.00000000  0.34630599  0.25292862  1.0
  Sb  Sb11  1  0.00000000  0.65369401  0.75292862  1.0
