# generated using pymatgen
data_Y7Te2
_symmetry_space_group_name_H-M   'P 1'
_cell_length_a   23.19064797
_cell_length_b   3.94262501
_cell_length_c   12.18553051
_cell_angle_alpha   90.00000000
_cell_angle_beta   90.00000000
_cell_angle_gamma   90.00000000
_symmetry_Int_Tables_number   1
_chemical_formula_structural   Y7Te2
_chemical_formula_sum   'Y28 Te8'
_cell_volume   1114.14777590
_cell_formula_units_Z   4
loop_
 _symmetry_equiv_pos_site_id
 _symmetry_equiv_pos_as_xyz
  1  'x, y, z'
loop_
 _atom_site_type_symbol
 _atom_site_label
 _atom_site_symmetry_multiplicity
 _atom_site_fract_x
 _atom_site_fract_y
 _atom_site_fract_z
 _atom_site_occupancy
  Y  Y0  1  0.47507215  0.75000000  0.12044708  1.0
  Y  Y1  1  0.97507215  0.75000000  0.37955292  1.0
  Y  Y2  1  0.52492785  0.25000000  0.87955292  1.0
  Y  Y3  1  0.02492785  0.25000000  0.62044708  1.0
  Y  Y4  1  0.39717676  0.75000000  0.87115963  1.0
  Y  Y5  1  0.89717676  0.75000000  0.62884037  1.0
  Y  Y6  1  0.60282324  0.25000000  0.12884037  1.0
  Y  Y7  1  0.10282324  0.25000000  0.37115963  1.0
  Y  Y8  1  0.33055718  0.75000000  0.52666553  1.0
  Y  Y9  1  0.83055718  0.75000000  0.97333447  1.0
  Y  Y10  1  0.66944282  0.25000000  0.47333447  1.0
  Y  Y11  1  0.16944282  0.25000000  0.02666553  1.0
  Y  Y12  1  0.22387487  0.75000000  0.25373441  1.0
  Y  Y13  1  0.72387487  0.75000000  0.24626559  1.0
  Y  Y14  1  0.77612513  0.25000000  0.74626559  1.0
  Y  Y15  1  0.27612513  0.25000000  0.75373441  1.0
  Y  Y16  1  0.15585429  0.75000000  0.58885744  1.0
  Y  Y17  1  0.65585429  0.75000000  0.91114256  1.0
  Y  Y18  1  0.84414571  0.25000000  0.41114256  1.0
  Y  Y19  1  0.34414571  0.25000000  0.08885744  1.0
  Y  Y20  1  0.07408583  0.75000000  0.15901148  1.0
  Y  Y21  1  0.57408583  0.75000000  0.34098852  1.0
  Y  Y22  1  0.92591417  0.25000000  0.84098852  1.0
  Y  Y23  1  0.42591417  0.25000000  0.65901148  1.0
  Y  Y24  1  0.04651075  0.75000000  0.88360957  1.0
  Y  Y25  1  0.54651075  0.75000000  0.61639043  1.0
  Y  Y26  1  0.95348925  0.25000000  0.11639043  1.0
  Y  Y27  1  0.45348925  0.25000000  0.38360957  1.0
  Te  Te28  1  0.36156168  0.75000000  0.27973344  1.0
  Te  Te29  1  0.86156168  0.75000000  0.22026656  1.0
  Te  Te30  1  0.63843832  0.25000000  0.72026656  1.0
  Te  Te31  1  0.13843832  0.25000000  0.77973344  1.0
  Te  Te32  1  0.26637728  0.75000000  0.95800079  1.0
  Te  Te33  1  0.76637728  0.75000000  0.54199921  1.0
  Te  Te34  1  0.73362272  0.25000000  0.04199921  1.0
  Te  Te35  1  0.23362272  0.25000000  0.45800079  1.0
