# generated using pymatgen
data_Ti13Pd4O
_symmetry_space_group_name_H-M   'P 1'
_cell_length_a   10.30328623
_cell_length_b   10.30328623
_cell_length_c   10.30328623
_cell_angle_alpha   60.00000000
_cell_angle_beta   60.00000000
_cell_angle_gamma   60.00000000
_symmetry_Int_Tables_number   1
_chemical_formula_structural   Ti13Pd4O
_chemical_formula_sum   'Ti26 Pd8 O2'
_cell_volume   773.41447596
_cell_formula_units_Z   2
loop_
 _symmetry_equiv_pos_site_id
 _symmetry_equiv_pos_as_xyz
  1  'x, y, z'
loop_
 _atom_site_type_symbol
 _atom_site_label
 _atom_site_symmetry_multiplicity
 _atom_site_fract_x
 _atom_site_fract_y
 _atom_site_fract_z
 _atom_site_occupancy
  Ti  Ti0  1  0.98558589  -0.70409017  0.73291839  1.0
  Ti  Ti1  1  -0.01441411  0.73291839  0.29590983  1.0
  Ti  Ti2  1  -0.04590983  0.26441411  0.26441411  1.0
  Ti  Ti3  1  0.51708161  0.26441411  0.26441411  1.0
  Ti  Ti4  1  -0.70409017  0.98558589  0.73291839  1.0
  Ti  Ti5  1  0.98558589  -0.01441411  0.73291839  1.0
  Ti  Ti6  1  0.98558589  -0.26708161  0.98558589  1.0
  Ti  Ti7  1  -0.70409017  0.73291839  0.98558589  1.0
  Ti  Ti8  1  0.26441411  -0.04590983  0.26441411  1.0
  Ti  Ti9  1  0.26441411  0.26441411  -0.04590983  1.0
  Ti  Ti10  1  0.51708161  0.26441411  -0.04590983  1.0
  Ti  Ti11  1  0.51708161  -0.04590983  0.26441411  1.0
  Ti  Ti12  1  0.73291839  -0.01441411  0.98558589  1.0
  Ti  Ti13  1  -0.70409017  0.98558589  0.98558589  1.0
  Ti  Ti14  1  0.26441411  0.51708161  -0.04590983  1.0
  Ti  Ti15  1  0.26441411  -0.04590983  0.51708161  1.0
  Ti  Ti16  1  -0.26708161  0.98558589  0.29590983  1.0
  Ti  Ti17  1  0.73291839  -0.70409017  0.98558589  1.0
  Ti  Ti18  1  0.98558589  -0.70409017  0.98558589  1.0
  Ti  Ti19  1  -0.01441411  0.98558589  0.29590983  1.0
  Ti  Ti20  1  0.26441411  0.51708161  0.26441411  1.0
  Ti  Ti21  1  -0.04590983  0.51708161  0.26441411  1.0
  Ti  Ti22  1  -0.04590983  0.26441411  0.51708161  1.0
  Ti  Ti23  1  0.26441411  0.26441411  0.51708161  1.0
  Ti  Ti24  1  0.50000000  0.50000000  -0.50000000  1.0
  Ti  Ti25  1  0.75000000  -0.25000000  0.75000000  1.0
  Pd  Pd26  1  0.66948134  -0.33051866  0.99155598  1.0
  Pd  Pd27  1  0.66948134  -0.00844402  0.66948134  1.0
  Pd  Pd28  1  0.58051866  -0.41948134  0.58051866  1.0
  Pd  Pd29  1  1.25844402  -0.41948134  0.58051866  1.0
  Pd  Pd30  1  0.99155598  -0.33051866  0.66948134  1.0
  Pd  Pd31  1  0.66948134  -0.33051866  0.66948134  1.0
  Pd  Pd32  1  0.58051866  0.25844402  0.58051866  1.0
  Pd  Pd33  1  0.58051866  -0.41948134  1.25844402  1.0
  O  O34  1  -0.00000000  1.00000000  0.00000000  1.0
  O  O35  1  0.25000000  0.25000000  0.25000000  1.0
