# generated using pymatgen
data_LiH4SNO4
_symmetry_space_group_name_H-M   'P 1'
_cell_length_a   8.96606466
_cell_length_b   9.36876170
_cell_length_c   5.27124812
_cell_angle_alpha   90.00000000
_cell_angle_beta   90.00000000
_cell_angle_gamma   90.00000000
_symmetry_Int_Tables_number   1
_chemical_formula_structural   LiH4SNO4
_chemical_formula_sum   'Li4 H16 S4 N4 O16'
_cell_volume   442.78970794
_cell_formula_units_Z   4
loop_
 _symmetry_equiv_pos_site_id
 _symmetry_equiv_pos_as_xyz
  1  'x, y, z'
loop_
 _atom_site_type_symbol
 _atom_site_label
 _atom_site_symmetry_multiplicity
 _atom_site_fract_x
 _atom_site_fract_y
 _atom_site_fract_z
 _atom_site_occupancy
  Li  Li0  1  0.17153568  0.59256501  0.76780401  1.0
  Li  Li1  1  0.82846432  0.40743499  0.26780401  1.0
  Li  Li2  1  0.32846432  0.09256501  0.26780401  1.0
  Li  Li3  1  0.67153568  0.90743499  0.76780401  1.0
  H  H4  1  0.99008957  0.70604011  0.12349864  1.0
  H  H5  1  0.00991043  0.29395989  0.62349864  1.0
  H  H6  1  0.50991043  0.20604011  0.62349864  1.0
  H  H7  1  0.49008957  0.79395989  0.12349864  1.0
  H  H8  1  0.01986689  0.77153890  0.41920772  1.0
  H  H9  1  0.98013311  0.22846110  0.91920772  1.0
  H  H10  1  0.48013311  0.27153890  0.91920772  1.0
  H  H11  1  0.51986689  0.72846110  0.41920772  1.0
  H  H12  1  0.09169219  0.85544989  0.16315088  1.0
  H  H13  1  0.90830781  0.14455011  0.66315088  1.0
  H  H14  1  0.40830781  0.35544989  0.66315088  1.0
  H  H15  1  0.59169219  0.64455011  0.16315088  1.0
  H  H16  1  0.90241624  0.85674091  0.21152559  1.0
  H  H17  1  0.09758376  0.14325909  0.71152559  1.0
  H  H18  1  0.59758376  0.35674091  0.71152559  1.0
  H  H19  1  0.40241624  0.64325909  0.21152559  1.0
  S  S20  1  0.29237187  0.91852255  0.77174229  1.0
  S  S21  1  0.70762813  0.08147745  0.27174229  1.0
  S  S22  1  0.20762813  0.41852255  0.27174229  1.0
  S  S23  1  0.79237187  0.58147745  0.77174229  1.0
  N  N24  1  0.00037532  0.79712820  0.23224149  1.0
  N  N25  1  0.99962468  0.20287180  0.73224149  1.0
  N  N26  1  0.49962468  0.29712820  0.73224149  1.0
  N  N27  1  0.50037532  0.70287180  0.23224149  1.0
  O  O28  1  0.45608979  0.89147272  0.77281813  1.0
  O  O29  1  0.54391021  0.10852728  0.27281813  1.0
  O  O30  1  0.04391021  0.39147272  0.27281813  1.0
  O  O31  1  0.95608979  0.60852728  0.77281813  1.0
  O  O32  1  0.21156668  0.79055315  0.67759549  1.0
  O  O33  1  0.78843332  0.20944685  0.17759549  1.0
  O  O34  1  0.28843332  0.29055315  0.17759549  1.0
  O  O35  1  0.71156668  0.70944685  0.67759549  1.0
  O  O36  1  0.24218341  0.95220463  0.03802193  1.0
  O  O37  1  0.75781659  0.04779537  0.53802193  1.0
  O  O38  1  0.25781659  0.45220463  0.53802193  1.0
  O  O39  1  0.74218341  0.54779537  0.03802193  1.0
  O  O40  1  0.25733807  0.04500124  0.60679383  1.0
  O  O41  1  0.74266193  0.95499876  0.10679383  1.0
  O  O42  1  0.24266193  0.54500124  0.10679383  1.0
  O  O43  1  0.75733807  0.45499876  0.60679383  1.0
