# generated using pymatgen
data_GdBr3
_symmetry_space_group_name_H-M   'P 1'
_cell_length_a   7.59643500
_cell_length_b   7.59643500
_cell_length_c   9.22937362
_cell_angle_alpha   90.00000000
_cell_angle_beta   90.00000000
_cell_angle_gamma   149.44878270
_symmetry_Int_Tables_number   1
_chemical_formula_structural   GdBr3
_chemical_formula_sum   'Gd2 Br6'
_cell_volume   270.71925674
_cell_formula_units_Z   2
loop_
 _symmetry_equiv_pos_site_id
 _symmetry_equiv_pos_as_xyz
  1  'x, y, z'
loop_
 _atom_site_type_symbol
 _atom_site_label
 _atom_site_symmetry_multiplicity
 _atom_site_fract_x
 _atom_site_fract_y
 _atom_site_fract_z
 _atom_site_occupancy
  Gd  Gd0  1  -0.25736973  0.25736973  0.75000000  1.0
  Gd  Gd1  1  0.25736973  0.74263027  0.25000000  1.0
  Br  Br2  1  0.34076022  0.65923978  0.93130402  1.0
  Br  Br3  1  0.34076022  0.65923978  0.56869598  1.0
  Br  Br4  1  -0.34076022  0.34076022  0.43130402  1.0
  Br  Br5  1  -0.34076022  0.34076022  0.06869598  1.0
  Br  Br6  1  0.10397144  0.89602856  0.75000000  1.0
  Br  Br7  1  -0.10397144  0.10397144  0.25000000  1.0
