# generated using pymatgen
data_Li4TiO4
_symmetry_space_group_name_H-M   'P 1'
_cell_length_a   5.45106127
_cell_length_b   5.45106127
_cell_length_c   6.16870971
_cell_angle_alpha   90.00000000
_cell_angle_beta   90.00000000
_cell_angle_gamma   86.17235715
_symmetry_Int_Tables_number   1
_chemical_formula_structural   Li4TiO4
_chemical_formula_sum   'Li8 Ti2 O8'
_cell_volume   182.88859818
_cell_formula_units_Z   2
loop_
 _symmetry_equiv_pos_site_id
 _symmetry_equiv_pos_as_xyz
  1  'x, y, z'
loop_
 _atom_site_type_symbol
 _atom_site_label
 _atom_site_symmetry_multiplicity
 _atom_site_fract_x
 _atom_site_fract_y
 _atom_site_fract_z
 _atom_site_occupancy
  Li  Li0  1  -0.08461818  1.37536520  0.25000000  1.0
  Li  Li1  1  0.37536520  0.91538182  0.75000000  1.0
  Li  Li2  1  -0.37536520  1.08461818  0.25000000  1.0
  Li  Li3  1  0.08461818  0.62463480  0.75000000  1.0
  Li  Li4  1  0.65967971  0.65967971  0.50000000  1.0
  Li  Li5  1  0.65967971  0.65967971  0.00000000  1.0
  Li  Li6  1  0.34032029  0.34032029  0.50000000  1.0
  Li  Li7  1  0.34032029  0.34032029  0.00000000  1.0
  Ti  Ti8  1  0.15979436  0.84020564  0.25000000  1.0
  Ti  Ti9  1  -0.15979436  1.15979436  0.75000000  1.0
  O  O10  1  -0.16500899  1.77061541  0.25000000  1.0
  O  O11  1  0.77061541  0.83499101  0.75000000  1.0
  O  O12  1  -0.77061541  1.16500899  0.25000000  1.0
  O  O13  1  0.16500899  0.22938459  0.75000000  1.0
  O  O14  1  0.29718082  0.70281918  0.49781420  1.0
  O  O15  1  0.29718082  0.70281918  0.00218580  1.0
  O  O16  1  -0.29718082  1.29718082  0.99781420  1.0
  O  O17  1  -0.29718082  1.29718082  0.50218580  1.0
