# generated using pymatgen
data_GePb2(SeO3)4
_symmetry_space_group_name_H-M   'P 1'
_cell_length_a   9.22458205
_cell_length_b   6.87762690
_cell_length_c   9.47912426
_cell_angle_alpha   90.00000000
_cell_angle_beta   96.77155164
_cell_angle_gamma   90.00000000
_symmetry_Int_Tables_number   1
_chemical_formula_structural   GePb2(SeO3)4
_chemical_formula_sum   'Ge2 Pb4 Se8 O24'
_cell_volume   597.19112992
_cell_formula_units_Z   2
loop_
 _symmetry_equiv_pos_site_id
 _symmetry_equiv_pos_as_xyz
  1  'x, y, z'
loop_
 _atom_site_type_symbol
 _atom_site_label
 _atom_site_symmetry_multiplicity
 _atom_site_fract_x
 _atom_site_fract_y
 _atom_site_fract_z
 _atom_site_occupancy
  Ge  Ge0  1  -0.00000000  0.50000000  0.50000000  1.0
  Ge  Ge1  1  -0.00000000  0.00000000  -0.00000000  1.0
  Pb  Pb2  1  0.54622266  0.25190841  0.40180326  1.0
  Pb  Pb3  1  0.54622266  0.24809159  0.90180326  1.0
  Pb  Pb4  1  0.45377734  0.75190841  0.09819674  1.0
  Pb  Pb5  1  0.45377734  0.74809159  0.59819674  1.0
  Se  Se6  1  0.84600544  0.30528394  0.20713600  1.0
  Se  Se7  1  0.84600544  0.19471606  0.70713600  1.0
  Se  Se8  1  0.15399456  0.80528394  0.29286400  1.0
  Se  Se9  1  0.15399456  0.69471606  0.79286400  1.0
  Se  Se10  1  0.75585112  0.79853349  0.36800152  1.0
  Se  Se11  1  0.75585112  0.70146651  0.86800152  1.0
  Se  Se12  1  0.24414888  0.29853349  0.13199848  1.0
  Se  Se13  1  0.24414888  0.20146651  0.63199848  1.0
  O  O14  1  0.97086943  0.11555554  0.17791814  1.0
  O  O15  1  0.97086943  0.38444446  0.67791814  1.0
  O  O16  1  0.02913057  0.61555554  0.32208186  1.0
  O  O17  1  0.02913057  0.88444446  0.82208186  1.0
  O  O18  1  0.87721057  0.30313332  0.39451179  1.0
  O  O19  1  0.87721057  0.19686668  0.89451179  1.0
  O  O20  1  0.12278943  0.80313332  0.10548821  1.0
  O  O21  1  0.12278943  0.69686668  0.60548821  1.0
  O  O22  1  0.82967975  0.84157531  0.01482359  1.0
  O  O23  1  0.82967975  0.65842469  0.51482359  1.0
  O  O24  1  0.17032025  0.34157531  0.48517641  1.0
  O  O25  1  0.17032025  0.15842469  0.98517641  1.0
  O  O26  1  0.68324713  0.18821168  0.18713794  1.0
  O  O27  1  0.68324713  0.31178832  0.68713794  1.0
  O  O28  1  0.31675287  0.68821168  0.31286206  1.0
  O  O29  1  0.31675287  0.81178832  0.81286206  1.0
  O  O30  1  0.63048792  0.92921785  0.45352408  1.0
  O  O31  1  0.63048792  0.57078215  0.95352408  1.0
  O  O32  1  0.36951208  0.42921785  0.04647592  1.0
  O  O33  1  0.36951208  0.07078215  0.54647592  1.0
  O  O34  1  0.35621739  0.12924322  0.22136461  1.0
  O  O35  1  0.35621739  0.37075678  0.72136461  1.0
  O  O36  1  0.64378261  0.62924322  0.27863539  1.0
  O  O37  1  0.64378261  0.87075678  0.77863539  1.0
