# generated using pymatgen
data_LiSi
_symmetry_space_group_name_H-M   'P 1'
_cell_length_a   7.84356923
_cell_length_b   7.84356923
_cell_length_c   7.84356923
_cell_angle_alpha   97.18955186
_cell_angle_beta   97.18955186
_cell_angle_gamma   138.56399679
_symmetry_Int_Tables_number   1
_chemical_formula_structural   LiSi
_chemical_formula_sum   'Li8 Si8'
_cell_volume   298.69165454
_cell_formula_units_Z   8
loop_
 _symmetry_equiv_pos_site_id
 _symmetry_equiv_pos_as_xyz
  1  'x, y, z'
loop_
 _atom_site_type_symbol
 _atom_site_label
 _atom_site_symmetry_multiplicity
 _atom_site_fract_x
 _atom_site_fract_y
 _atom_site_fract_z
 _atom_site_occupancy
  Li  Li0  1  0.69906858  0.79698478  0.75042427  1.0
  Li  Li1  1  0.70343950  1.30135569  1.25042427  1.0
  Li  Li2  1  1.05135569  0.30093142  1.09791619  1.0
  Li  Li3  1  1.54698478  1.29656050  0.59791619  1.0
  Li  Li4  1  1.04656050  0.94864431  1.24957573  1.0
  Li  Li5  1  1.05093142  0.45301522  0.74957573  1.0
  Li  Li6  1  0.20301522  0.95343950  0.90208381  1.0
  Li  Li7  1  1.69864431  1.94906858  1.40208381  1.0
  Si  Si8  1  1.50256498  1.95134423  1.66441669  1.0
  Si  Si9  1  0.46307246  1.41185171  1.16441669  1.0
  Si  Si10  1  1.16185171  1.49743502  1.44877925  1.0
  Si  Si11  1  0.70134423  0.53692754  0.94877925  1.0
  Si  Si12  1  1.28692754  0.83814829  0.33558331  1.0
  Si  Si13  1  1.24743502  0.29865577  0.83558331  1.0
  Si  Si14  1  1.04865577  0.71307246  0.55122075  1.0
  Si  Si15  1  0.58814829  0.75256498  1.05122075  1.0
