# generated using pymatgen
data_NaZn2(MoO5)2
_symmetry_space_group_name_H-M   'P 1'
_cell_length_a   5.57710893
_cell_length_b   5.57710893
_cell_length_c   7.90913552
_cell_angle_alpha   71.03626127
_cell_angle_beta   108.96373873
_cell_angle_gamma   109.59200880
_symmetry_Int_Tables_number   1
_chemical_formula_structural   NaZn2(MoO5)2
_chemical_formula_sum   'Na1 Zn2 Mo2 O10'
_cell_volume   212.64630576
_cell_formula_units_Z   1
loop_
 _symmetry_equiv_pos_site_id
 _symmetry_equiv_pos_as_xyz
  1  'x, y, z'
loop_
 _atom_site_type_symbol
 _atom_site_label
 _atom_site_symmetry_multiplicity
 _atom_site_fract_x
 _atom_site_fract_y
 _atom_site_fract_z
 _atom_site_occupancy
  Zn  Zn0  1  1.50000000  -0.00000000  0.50000000  1.0
  Zn  Zn1  1  1.00000000  0.50000000  0.50000000  1.0
  Mo  Mo2  1  0.57177668  0.42822332  0.77409418  1.0
  Mo  Mo3  1  1.42822332  -0.42822332  0.22590582  1.0
  Na  Na4  1  0.00000000  0.00000000  0.00000000  1.0
  O  O5  1  1.67645846  -0.22555087  0.75295180  1.0
  O  O6  1  1.22555087  -0.67645846  0.75295180  1.0
  O  O7  1  0.77444913  0.67645846  0.24704820  1.0
  O  O8  1  0.32354154  0.22555087  0.24704820  1.0
  O  O9  1  0.66364804  0.33635196  0.60328454  1.0
  O  O10  1  1.33635196  -0.33635196  0.39671546  1.0
  O  O11  1  1.27440782  -0.27440782  1.01041258  1.0
  O  O12  1  0.72559218  0.27440782  -0.01041258  1.0
  O  O13  1  0.87047625  0.12952375  0.44499203  1.0
  O  O14  1  1.12952375  -0.12952375  0.55500797  1.0
