# generated using pymatgen
data_Mo3Br6O
_symmetry_space_group_name_H-M   'P 1'
_cell_length_a   9.30690246
_cell_length_b   9.30690246
_cell_length_c   9.30690246
_cell_angle_alpha   115.28184421
_cell_angle_beta   115.28184421
_cell_angle_gamma   98.38692577
_symmetry_Int_Tables_number   1
_chemical_formula_structural   Mo3Br6O
_chemical_formula_sum   'Mo6 Br12 O2'
_cell_volume   603.66533864
_cell_formula_units_Z   2
loop_
 _symmetry_equiv_pos_site_id
 _symmetry_equiv_pos_as_xyz
  1  'x, y, z'
loop_
 _atom_site_type_symbol
 _atom_site_label
 _atom_site_symmetry_multiplicity
 _atom_site_fract_x
 _atom_site_fract_y
 _atom_site_fract_z
 _atom_site_occupancy
  Mo  Mo0  1  0.83045714  1.08694007  0.91739721  1.0
  Mo  Mo1  1  0.08694007  0.16954286  0.25648293  1.0
  Mo  Mo2  1  0.16954286  0.91305993  1.08260279  1.0
  Mo  Mo3  1  0.91305993  0.83045714  0.74351707  1.0
  Mo  Mo4  1  0.17024344  0.17024344  -0.00000000  1.0
  Mo  Mo5  1  0.82975656  0.82975656  -0.00000000  1.0
  Br  Br6  1  1.06961799  0.40267909  1.17144727  1.0
  Br  Br7  1  0.76876818  1.10182928  1.17144727  1.0
  Br  Br8  1  0.40267909  0.23123182  0.33306109  1.0
  Br  Br9  1  1.10182928  0.93038201  1.33306109  1.0
  Br  Br10  1  0.23123182  0.89817072  0.82855273  1.0
  Br  Br11  1  0.93038201  0.59732091  0.82855273  1.0
  Br  Br12  1  0.89817072  1.06961799  1.66693891  1.0
  Br  Br13  1  0.59732091  0.76876818  0.66693891  1.0
  Br  Br14  1  0.60278742  1.20482014  0.80760756  1.0
  Br  Br15  1  0.20482014  0.39721258  0.60203271  1.0
  Br  Br16  1  0.39721258  0.79517986  1.19239244  1.0
  Br  Br17  1  0.79517986  0.60278742  0.39796729  1.0
  O  O18  1  0.31219869  0.31219869  -0.00000000  1.0
  O  O19  1  0.68780131  0.68780131  -0.00000000  1.0
