# generated using pymatgen
data_La2Ir7
_symmetry_space_group_name_H-M   'P 1'
_cell_length_a   5.39576465
_cell_length_b   5.39576465
_cell_length_c   26.46836110
_cell_angle_alpha   90.00000000
_cell_angle_beta   90.00000000
_cell_angle_gamma   120.00000000
_symmetry_Int_Tables_number   1
_chemical_formula_structural   La2Ir7
_chemical_formula_sum   'La8 Ir28'
_cell_volume   667.36538867
_cell_formula_units_Z   4
loop_
 _symmetry_equiv_pos_site_id
 _symmetry_equiv_pos_as_xyz
  1  'x, y, z'
loop_
 _atom_site_type_symbol
 _atom_site_label
 _atom_site_symmetry_multiplicity
 _atom_site_fract_x
 _atom_site_fract_y
 _atom_site_fract_z
 _atom_site_occupancy
  La  La0  1  0.33333333  0.66666667  0.97146126  1.0
  La  La1  1  0.33333333  0.66666667  0.52853874  1.0
  La  La2  1  0.66666667  0.33333333  0.47146126  1.0
  La  La3  1  0.66666667  0.33333333  0.02853874  1.0
  La  La4  1  0.33333333  0.66666667  0.82588869  1.0
  La  La5  1  0.33333333  0.66666667  0.67411131  1.0
  La  La6  1  0.66666667  0.33333333  0.32588869  1.0
  La  La7  1  0.66666667  0.33333333  0.17411131  1.0
  Ir  Ir8  1  0.16542233  0.83457767  0.41300596  1.0
  Ir  Ir9  1  0.16542233  0.83457767  0.08699404  1.0
  Ir  Ir10  1  0.16542233  0.33084465  0.41300596  1.0
  Ir  Ir11  1  0.16542233  0.33084465  0.08699404  1.0
  Ir  Ir12  1  0.83457767  0.16542233  0.91300596  1.0
  Ir  Ir13  1  0.83457767  0.16542233  0.58699404  1.0
  Ir  Ir14  1  0.83457767  0.66915535  0.91300596  1.0
  Ir  Ir15  1  0.83457767  0.66915535  0.58699404  1.0
  Ir  Ir16  1  0.66915535  0.83457767  0.41300596  1.0
  Ir  Ir17  1  0.66915535  0.83457767  0.08699404  1.0
  Ir  Ir18  1  0.33084465  0.16542233  0.91300596  1.0
  Ir  Ir19  1  0.33084465  0.16542233  0.58699404  1.0
  Ir  Ir20  1  0.16773152  0.83226848  0.25000000  1.0
  Ir  Ir21  1  0.16773152  0.33546304  0.25000000  1.0
  Ir  Ir22  1  0.83226848  0.16773152  0.75000000  1.0
  Ir  Ir23  1  0.83226848  0.66453696  0.75000000  1.0
  Ir  Ir24  1  0.66453696  0.83226848  0.25000000  1.0
  Ir  Ir25  1  0.33546304  0.16773152  0.75000000  1.0
  Ir  Ir26  1  0.33333333  0.66666667  0.33338482  1.0
  Ir  Ir27  1  0.33333333  0.66666667  0.16661518  1.0
  Ir  Ir28  1  0.66666667  0.33333333  0.83338482  1.0
  Ir  Ir29  1  0.66666667  0.33333333  0.66661518  1.0
  Ir  Ir30  1  0.00000000  0.00000000  0.33178710  1.0
  Ir  Ir31  1  0.00000000  0.00000000  0.16821290  1.0
  Ir  Ir32  1  0.00000000  0.00000000  0.83178710  1.0
  Ir  Ir33  1  0.00000000  0.00000000  0.66821290  1.0
  Ir  Ir34  1  0.00000000  0.00000000  0.50000000  1.0
  Ir  Ir35  1  0.00000000  0.00000000  0.00000000  1.0
