# generated using pymatgen
data_YGaO3
_symmetry_space_group_name_H-M   'P 1'
_cell_length_a   5.59494568
_cell_length_b   7.63183123
_cell_length_c   5.29756466
_cell_angle_alpha   90.00000000
_cell_angle_beta   90.00000000
_cell_angle_gamma   90.00000000
_symmetry_Int_Tables_number   1
_chemical_formula_structural   YGaO3
_chemical_formula_sum   'Y4 Ga4 O12'
_cell_volume   226.20432158
_cell_formula_units_Z   4
loop_
 _symmetry_equiv_pos_site_id
 _symmetry_equiv_pos_as_xyz
  1  'x, y, z'
loop_
 _atom_site_type_symbol
 _atom_site_label
 _atom_site_symmetry_multiplicity
 _atom_site_fract_x
 _atom_site_fract_y
 _atom_site_fract_z
 _atom_site_occupancy
  Y  Y0  1  0.06862118  0.75000000  0.51918360  1.0
  Y  Y1  1  0.56862118  0.75000000  0.98081640  1.0
  Y  Y2  1  0.93137882  0.25000000  0.48081640  1.0
  Y  Y3  1  0.43137882  0.25000000  0.01918360  1.0
  Ga  Ga4  1  0.50000000  0.00000000  0.50000000  1.0
  Ga  Ga5  1  0.50000000  0.50000000  0.50000000  1.0
  Ga  Ga6  1  0.00000000  0.00000000  0.00000000  1.0
  Ga  Ga7  1  0.00000000  0.50000000  0.00000000  1.0
  O  O8  1  0.30465273  0.94286260  0.80586944  1.0
  O  O9  1  0.30465273  0.55713740  0.80586944  1.0
  O  O10  1  0.80465273  0.94286260  0.69413056  1.0
  O  O11  1  0.80465273  0.55713740  0.69413056  1.0
  O  O12  1  0.69534727  0.44286260  0.19413056  1.0
  O  O13  1  0.69534727  0.05713740  0.19413056  1.0
  O  O14  1  0.19534727  0.44286260  0.30586944  1.0
  O  O15  1  0.19534727  0.05713740  0.30586944  1.0
  O  O16  1  0.96088437  0.75000000  0.11162256  1.0
  O  O17  1  0.46088437  0.75000000  0.38837744  1.0
  O  O18  1  0.03911563  0.25000000  0.88837744  1.0
  O  O19  1  0.53911563  0.25000000  0.61162256  1.0
