# generated using pymatgen
data_NaFeAs
_symmetry_space_group_name_H-M   'P 1'
_cell_length_a   8.50028981
_cell_length_b   8.50028981
_cell_length_c   3.90540055
_cell_angle_alpha   90.00000000
_cell_angle_beta   90.00000000
_cell_angle_gamma   153.71622339
_symmetry_Int_Tables_number   1
_chemical_formula_structural   NaFeAs
_chemical_formula_sum   'Na2 Fe2 As2'
_cell_volume   124.95615667
_cell_formula_units_Z   2
loop_
 _symmetry_equiv_pos_site_id
 _symmetry_equiv_pos_as_xyz
  1  'x, y, z'
loop_
 _atom_site_type_symbol
 _atom_site_label
 _atom_site_symmetry_multiplicity
 _atom_site_fract_x
 _atom_site_fract_y
 _atom_site_fract_z
 _atom_site_occupancy
  Na  Na0  1  -0.89939577  0.89939577  0.75000000  1.0
  Na  Na1  1  -0.10060423  1.10060423  0.25000000  1.0
  Fe  Fe2  1  -0.25051941  1.25051941  0.75000000  1.0
  Fe  Fe3  1  -0.74948059  0.74948059  0.25000000  1.0
  As  As4  1  -0.67149951  0.67149951  0.75000000  1.0
  As  As5  1  -0.32850049  1.32850049  0.25000000  1.0
