# generated using pymatgen
data_K4Br2O
_symmetry_space_group_name_H-M   'P 1'
_cell_length_a   9.14397110
_cell_length_b   9.14397110
_cell_length_c   9.14397110
_cell_angle_alpha   146.84084405
_cell_angle_beta   146.84084405
_cell_angle_gamma   47.59949649
_symmetry_Int_Tables_number   1
_chemical_formula_structural   K4Br2O
_chemical_formula_sum   'K4 Br2 O1'
_cell_volume   227.83122665
_cell_formula_units_Z   1
loop_
 _symmetry_equiv_pos_site_id
 _symmetry_equiv_pos_as_xyz
  1  'x, y, z'
loop_
 _atom_site_type_symbol
 _atom_site_label
 _atom_site_symmetry_multiplicity
 _atom_site_fract_x
 _atom_site_fract_y
 _atom_site_fract_z
 _atom_site_occupancy
  K  K0  1  0.84580131  0.84580131  1.00000000  1.0
  K  K1  1  0.15419869  0.15419869  0.00000000  1.0
  K  K2  1  0.50000000  0.00000000  0.50000000  1.0
  K  K3  1  -0.00000000  0.50000000  0.50000000  1.0
  Br  Br4  1  0.64509983  0.64509983  1.00000000  1.0
  Br  Br5  1  0.35490017  0.35490017  0.00000000  1.0
  O  O6  1  0.00000000  0.00000000  0.00000000  1.0
