# generated using pymatgen
data_Na4Zr2(SiO4)3
_symmetry_space_group_name_H-M   'P 1'
_cell_length_a   9.18534393
_cell_length_b   9.18534393
_cell_length_c   9.18534393
_cell_angle_alpha   60.82827335
_cell_angle_beta   60.82827335
_cell_angle_gamma   60.82827335
_symmetry_Int_Tables_number   1
_chemical_formula_structural   Na4Zr2(SiO4)3
_chemical_formula_sum   'Na8 Zr4 Si6 O24'
_cell_volume   558.22377909
_cell_formula_units_Z   2
loop_
 _symmetry_equiv_pos_site_id
 _symmetry_equiv_pos_as_xyz
  1  'x, y, z'
loop_
 _atom_site_type_symbol
 _atom_site_label
 _atom_site_symmetry_multiplicity
 _atom_site_fract_x
 _atom_site_fract_y
 _atom_site_fract_z
 _atom_site_occupancy
  Na  Na0  1  0.97160596  0.23726291  -0.39551425  1.0
  Na  Na1  1  0.47160596  0.10448575  -0.26273709  1.0
  Na  Na2  1  0.73726291  -0.52839404  0.10448575  1.0
  Na  Na3  1  1.23726291  -0.39551425  -0.02839404  1.0
  Na  Na4  1  1.10448575  -0.26273709  -0.52839404  1.0
  Na  Na5  1  0.60448575  -0.02839404  0.23726291  1.0
  Na  Na6  1  0.35444741  0.35444741  -0.64555259  1.0
  Na  Na7  1  0.85444741  0.85444741  -0.14555259  1.0
  Zr  Zr8  1  0.00089888  0.00089888  0.00089888  1.0
  Zr  Zr9  1  0.50089888  0.50089888  -0.49910112  1.0
  Zr  Zr10  1  1.20797560  1.20797560  0.20797560  1.0
  Zr  Zr11  1  0.70797560  0.70797560  -0.29202440  1.0
  Si  Si12  1  0.40056582  0.80829497  -0.89556490  1.0
  Si  Si13  1  0.90056582  0.60443510  -0.69170503  1.0
  Si  Si14  1  0.30829497  0.90056582  -0.39556490  1.0
  Si  Si15  1  0.80829497  0.10443510  -0.59943418  1.0
  Si  Si16  1  0.60443510  0.30829497  -0.09943418  1.0
  Si  Si17  1  0.10443510  0.40056582  -0.19170503  1.0
  O  O18  1  0.22979170  0.84540497  -0.93977337  1.0
  O  O19  1  0.72979170  0.56022663  -0.65459503  1.0
  O  O20  1  0.34540497  0.72979170  -0.43977337  1.0
  O  O21  1  0.84540497  0.06022663  -0.77020830  1.0
  O  O22  1  0.56022663  0.34540497  -0.27020830  1.0
  O  O23  1  0.06022663  0.22979170  -0.15459503  1.0
  O  O24  1  1.28966267  1.08461699  0.43644262  1.0
  O  O25  1  0.78966267  0.93644262  -0.41538301  1.0
  O  O26  1  0.58461699  0.78966267  -0.06355738  1.0
  O  O27  1  1.08461699  1.43644262  0.28966267  1.0
  O  O28  1  0.93644262  0.58461699  -0.21033733  1.0
  O  O29  1  1.43644262  1.28966267  0.08461699  1.0
  O  O30  1  0.27243133  0.41922976  -0.37575418  1.0
  O  O31  1  0.77243133  0.12424582  -0.08077024  1.0
  O  O32  1  0.91922976  -0.22756867  0.12424582  1.0
  O  O33  1  0.41922976  0.62424582  -0.72756867  1.0
  O  O34  1  1.12424582  -0.08077024  -0.22756867  1.0
  O  O35  1  0.62424582  0.27243133  -0.58077024  1.0
  O  O36  1  0.97906662  0.14864240  -0.63653392  1.0
  O  O37  1  0.47906662  0.86346608  -0.35135760  1.0
  O  O38  1  0.64864240  0.47906662  -0.13653392  1.0
  O  O39  1  1.14864240  -0.63653392  -0.02093338  1.0
  O  O40  1  0.86346608  0.64864240  -0.52093338  1.0
  O  O41  1  0.36346608  -0.02093338  0.14864240  1.0
