# generated using pymatgen
data_Ca7Tl3N2
_symmetry_space_group_name_H-M   'P 1'
_cell_length_a   12.71960164
_cell_length_b   12.71960164
_cell_length_c   4.86836288
_cell_angle_alpha   90.00000000
_cell_angle_beta   90.00000000
_cell_angle_gamma   157.62822247
_symmetry_Int_Tables_number   1
_chemical_formula_structural   Ca7Tl3N2
_chemical_formula_sum   'Ca7 Tl3 N2'
_cell_volume   299.78905478
_cell_formula_units_Z   1
loop_
 _symmetry_equiv_pos_site_id
 _symmetry_equiv_pos_as_xyz
  1  'x, y, z'
loop_
 _atom_site_type_symbol
 _atom_site_label
 _atom_site_symmetry_multiplicity
 _atom_site_fract_x
 _atom_site_fract_y
 _atom_site_fract_z
 _atom_site_occupancy
  Ca  Ca0  1  0.09879111  0.90120889  0.50000000  1.0
  Ca  Ca1  1  -0.09879111  0.09879111  0.50000000  1.0
  Ca  Ca2  1  0.19604548  0.80395452  0.00000000  1.0
  Ca  Ca3  1  -0.19604548  0.19604548  0.00000000  1.0
  Ca  Ca4  1  0.40028637  0.59971363  0.00000000  1.0
  Ca  Ca5  1  -0.40028637  0.40028637  0.00000000  1.0
  Ca  Ca6  1  0.00000000  0.00000000  0.00000000  1.0
  Tl  Tl7  1  0.29392428  0.70607572  0.50000000  1.0
  Tl  Tl8  1  -0.29392428  0.29392428  0.50000000  1.0
  Tl  Tl9  1  0.50000000  0.50000000  0.50000000  1.0
  N  N10  1  0.10273099  0.89726901  0.00000000  1.0
  N  N11  1  -0.10273099  0.10273099  0.00000000  1.0
