# generated using pymatgen
data_V3O5
_symmetry_space_group_name_H-M   'P 1'
_cell_length_a   9.89131652
_cell_length_b   4.97801621
_cell_length_c   7.08118083
_cell_angle_alpha   90.00000000
_cell_angle_beta   109.36790017
_cell_angle_gamma   90.00000000
_symmetry_Int_Tables_number   1
_chemical_formula_structural   V3O5
_chemical_formula_sum   'V12 O20'
_cell_volume   328.93942074
_cell_formula_units_Z   4
loop_
 _symmetry_equiv_pos_site_id
 _symmetry_equiv_pos_as_xyz
  1  'x, y, z'
loop_
 _atom_site_type_symbol
 _atom_site_label
 _atom_site_symmetry_multiplicity
 _atom_site_fract_x
 _atom_site_fract_y
 _atom_site_fract_z
 _atom_site_occupancy
  V  V0  1  0.87878640  0.74336217  0.65978826  1.0
  V  V1  1  0.87878640  0.75663783  0.15978826  1.0
  V  V2  1  0.12121360  0.24336217  0.84021174  1.0
  V  V3  1  0.12121360  0.25663783  0.34021174  1.0
  V  V4  1  0.74996678  0.24997925  0.74992923  1.0
  V  V5  1  0.74996678  0.25002075  0.24992923  1.0
  V  V6  1  0.25003322  0.74997925  0.75007077  1.0
  V  V7  1  0.25003322  0.75002075  0.25007077  1.0
  V  V8  1  0.62124775  0.75670819  0.84012682  1.0
  V  V9  1  0.62124775  0.74329181  0.34012682  1.0
  V  V10  1  0.37875225  0.25670819  0.65987318  1.0
  V  V11  1  0.37875225  0.24329181  0.15987318  1.0
  O  O12  1  0.94280981  0.40034222  0.77971907  1.0
  O  O13  1  0.94280981  0.09965778  0.27971907  1.0
  O  O14  1  0.05719019  0.90034222  0.72028093  1.0
  O  O15  1  0.05719019  0.59965778  0.22028093  1.0
  O  O16  1  0.83200465  0.90749291  0.88687006  1.0
  O  O17  1  0.83200465  0.59250709  0.38687006  1.0
  O  O18  1  0.16799535  0.40749291  0.61312994  1.0
  O  O19  1  0.16799535  0.09250709  0.11312994  1.0
  O  O20  1  0.74998005  0.44429172  0.99992758  1.0
  O  O21  1  0.74998005  0.05570828  0.49992758  1.0
  O  O22  1  0.25001995  0.94429172  0.50007242  1.0
  O  O23  1  0.25001995  0.55570828  0.00007242  1.0
  O  O24  1  0.66797492  0.59245326  0.61301635  1.0
  O  O25  1  0.66797492  0.90754674  0.11301635  1.0
  O  O26  1  0.33202508  0.09245326  0.88698365  1.0
  O  O27  1  0.33202508  0.40754674  0.38698365  1.0
  O  O28  1  0.44285689  0.59964031  0.77983005  1.0
  O  O29  1  0.44285689  0.90035969  0.27983005  1.0
  O  O30  1  0.55714311  0.09964031  0.72016995  1.0
  O  O31  1  0.55714311  0.40035969  0.22016995  1.0
