# generated using pymatgen
data_HgCSNCl
_symmetry_space_group_name_H-M   'P 1'
_cell_length_a   11.27940075
_cell_length_b   4.43417706
_cell_length_c   10.36164823
_cell_angle_alpha   90.00000000
_cell_angle_beta   90.00000000
_cell_angle_gamma   90.00000000
_symmetry_Int_Tables_number   1
_chemical_formula_structural   HgCSNCl
_chemical_formula_sum   'Hg4 C4 S4 N4 Cl4'
_cell_volume   518.23638648
_cell_formula_units_Z   4
loop_
 _symmetry_equiv_pos_site_id
 _symmetry_equiv_pos_as_xyz
  1  'x, y, z'
loop_
 _atom_site_type_symbol
 _atom_site_label
 _atom_site_symmetry_multiplicity
 _atom_site_fract_x
 _atom_site_fract_y
 _atom_site_fract_z
 _atom_site_occupancy
  Hg  Hg0  1  0.13880578  0.75000000  0.91904439  1.0
  Hg  Hg1  1  0.63880578  0.75000000  0.58095561  1.0
  Hg  Hg2  1  0.86119422  0.25000000  0.08095561  1.0
  Hg  Hg3  1  0.36119422  0.25000000  0.41904439  1.0
  C  C4  1  0.33125255  0.75000000  0.13606749  1.0
  C  C5  1  0.83125255  0.75000000  0.36393251  1.0
  C  C6  1  0.66874745  0.25000000  0.86393251  1.0
  C  C7  1  0.16874745  0.25000000  0.63606749  1.0
  S  S8  1  0.34463333  0.75000000  0.97596238  1.0
  S  S9  1  0.84463333  0.75000000  0.52403762  1.0
  S  S10  1  0.65536667  0.25000000  0.02403762  1.0
  S  S11  1  0.15536667  0.25000000  0.47596238  1.0
  N  N12  1  0.32978505  0.75000000  0.24966500  1.0
  N  N13  1  0.82978505  0.75000000  0.25033500  1.0
  N  N14  1  0.67021495  0.25000000  0.75033500  1.0
  N  N15  1  0.17021495  0.25000000  0.74966500  1.0
  Cl  Cl16  1  0.43492173  0.75000000  0.63328076  1.0
  Cl  Cl17  1  0.93492173  0.75000000  0.86671924  1.0
  Cl  Cl18  1  0.56507827  0.25000000  0.36671924  1.0
  Cl  Cl19  1  0.06507827  0.25000000  0.13328076  1.0
