# generated using pymatgen
data_S(NO2)2
_symmetry_space_group_name_H-M   'P 1'
_cell_length_a   7.23322250
_cell_length_b   8.09446096
_cell_length_c   10.56750964
_cell_angle_alpha   90.00000000
_cell_angle_beta   90.00000000
_cell_angle_gamma   90.00000000
_symmetry_Int_Tables_number   1
_chemical_formula_structural   S(NO2)2
_chemical_formula_sum   'S4 N8 O16'
_cell_volume   618.71751379
_cell_formula_units_Z   4
loop_
 _symmetry_equiv_pos_site_id
 _symmetry_equiv_pos_as_xyz
  1  'x, y, z'
loop_
 _atom_site_type_symbol
 _atom_site_label
 _atom_site_symmetry_multiplicity
 _atom_site_fract_x
 _atom_site_fract_y
 _atom_site_fract_z
 _atom_site_occupancy
  S  S0  1  0.24505121  0.96661221  0.05604895  1.0
  S  S1  1  0.74505121  0.53338779  0.94395105  1.0
  S  S2  1  0.75494879  0.46661221  0.44395105  1.0
  S  S3  1  0.25494879  0.03338779  0.55604895  1.0
  N  N4  1  0.28596745  0.61397939  0.70791423  1.0
  N  N5  1  0.78596745  0.88602061  0.29208577  1.0
  N  N6  1  0.71403255  0.11397939  0.79208577  1.0
  N  N7  1  0.21403255  0.38602061  0.20791423  1.0
  N  N8  1  0.23975858  0.48679664  0.72891498  1.0
  N  N9  1  0.73975858  0.01320336  0.27108502  1.0
  N  N10  1  0.76024142  0.98679664  0.77108502  1.0
  N  N11  1  0.26024142  0.51320336  0.22891498  1.0
  O  O12  1  0.43247924  0.95819968  0.51439731  1.0
  O  O13  1  0.93247924  0.54180032  0.48560269  1.0
  O  O14  1  0.56752076  0.45819968  0.98560269  1.0
  O  O15  1  0.06752076  0.04180032  0.01439731  1.0
  O  O16  1  0.24162004  0.80479582  0.98938313  1.0
  O  O17  1  0.74162004  0.69520418  0.01061687  1.0
  O  O18  1  0.75837996  0.30479582  0.51061687  1.0
  O  O19  1  0.25837996  0.19520418  0.48938313  1.0
  O  O20  1  0.26082141  0.95049658  0.19576549  1.0
  O  O21  1  0.76082141  0.54950342  0.80423451  1.0
  O  O22  1  0.73917859  0.45049658  0.30423451  1.0
  O  O23  1  0.23917859  0.04950342  0.69576549  1.0
  O  O24  1  0.09004227  0.93177155  0.52443867  1.0
  O  O25  1  0.59004227  0.56822845  0.47556133  1.0
  O  O26  1  0.90995773  0.43177155  0.97556133  1.0
  O  O27  1  0.40995773  0.06822845  0.02443867  1.0
