# generated using pymatgen
data_Sr2PIO4
_symmetry_space_group_name_H-M   'P 1'
_cell_length_a   9.37461934
_cell_length_b   9.01945272
_cell_length_c   8.55291763
_cell_angle_alpha   90.00000000
_cell_angle_beta   112.70735804
_cell_angle_gamma   90.00000000
_symmetry_Int_Tables_number   1
_chemical_formula_structural   Sr2PIO4
_chemical_formula_sum   'Sr8 P4 I4 O16'
_cell_volume   667.12787889
_cell_formula_units_Z   4
loop_
 _symmetry_equiv_pos_site_id
 _symmetry_equiv_pos_as_xyz
  1  'x, y, z'
loop_
 _atom_site_type_symbol
 _atom_site_label
 _atom_site_symmetry_multiplicity
 _atom_site_fract_x
 _atom_site_fract_y
 _atom_site_fract_z
 _atom_site_occupancy
  Sr  Sr0  1  0.85777862  0.80314236  0.46209872  1.0
  Sr  Sr1  1  0.85777862  0.69685764  0.96209872  1.0
  Sr  Sr2  1  0.14222138  0.30314236  0.03790128  1.0
  Sr  Sr3  1  0.14222138  0.19685764  0.53790128  1.0
  Sr  Sr4  1  0.75462659  0.17094263  0.04622467  1.0
  Sr  Sr5  1  0.75462659  0.32905737  0.54622467  1.0
  Sr  Sr6  1  0.24537341  0.67094263  0.45377533  1.0
  Sr  Sr7  1  0.24537341  0.82905737  0.95377533  1.0
  P  P8  1  0.95613835  0.44771976  0.25672216  1.0
  P  P9  1  0.95613835  0.05228024  0.75672216  1.0
  P  P10  1  0.04386165  0.94771976  0.24327784  1.0
  P  P11  1  0.04386165  0.55228024  0.74327784  1.0
  I  I12  1  0.49062442  0.11638337  0.22859153  1.0
  I  I13  1  0.49062442  0.38361663  0.72859153  1.0
  I  I14  1  0.50937558  0.61638337  0.27140847  1.0
  I  I15  1  0.50937558  0.88361663  0.77140847  1.0
  O  O16  1  0.92776303  0.61316648  0.28523282  1.0
  O  O17  1  0.92776303  0.88683352  0.78523282  1.0
  O  O18  1  0.07223697  0.11316648  0.21476718  1.0
  O  O19  1  0.07223697  0.38683352  0.71476718  1.0
  O  O20  1  0.89438476  0.41752928  0.06147375  1.0
  O  O21  1  0.89438476  0.08247072  0.56147375  1.0
  O  O22  1  0.10561524  0.91752928  0.43852625  1.0
  O  O23  1  0.10561524  0.58247072  0.93852625  1.0
  O  O24  1  0.87512096  0.33458448  0.33328513  1.0
  O  O25  1  0.87512096  0.16541552  0.83328513  1.0
  O  O26  1  0.12487904  0.83458448  0.16671487  1.0
  O  O27  1  0.12487904  0.66541552  0.66671487  1.0
  O  O28  1  0.86449252  0.91954488  0.16431054  1.0
  O  O29  1  0.86449252  0.58045512  0.66431054  1.0
  O  O30  1  0.13550748  0.41954488  0.33568946  1.0
  O  O31  1  0.13550748  0.08045512  0.83568946  1.0
