# generated using pymatgen
data_Rb2CuH4(Cl2O)2
_symmetry_space_group_name_H-M   'P 1'
_cell_length_a   7.81775506
_cell_length_b   7.81775506
_cell_length_c   8.11541357
_cell_angle_alpha   90.00000000
_cell_angle_beta   90.00000000
_cell_angle_gamma   90.00000000
_symmetry_Int_Tables_number   1
_chemical_formula_structural   Rb2CuH4(Cl2O)2
_chemical_formula_sum   'Rb4 Cu2 H8 Cl8 O4'
_cell_volume   495.99211807
_cell_formula_units_Z   2
loop_
 _symmetry_equiv_pos_site_id
 _symmetry_equiv_pos_as_xyz
  1  'x, y, z'
loop_
 _atom_site_type_symbol
 _atom_site_label
 _atom_site_symmetry_multiplicity
 _atom_site_fract_x
 _atom_site_fract_y
 _atom_site_fract_z
 _atom_site_occupancy
  Rb  Rb0  1  0.50000000  0.00000000  0.25000000  1.0
  Rb  Rb1  1  0.50000000  0.00000000  0.75000000  1.0
  Rb  Rb2  1  0.00000000  0.50000000  0.75000000  1.0
  Rb  Rb3  1  0.00000000  0.50000000  0.25000000  1.0
  Cu  Cu4  1  0.50000000  0.50000000  0.50000000  1.0
  Cu  Cu5  1  0.00000000  0.00000000  0.00000000  1.0
  H  H6  1  0.42726646  0.57273354  0.18324533  1.0
  H  H7  1  0.42726646  0.57273354  0.81675467  1.0
  H  H8  1  0.92726646  0.92726646  0.68324533  1.0
  H  H9  1  0.92726646  0.92726646  0.31675467  1.0
  H  H10  1  0.57273354  0.42726646  0.18324533  1.0
  H  H11  1  0.57273354  0.42726646  0.81675467  1.0
  H  H12  1  0.07273354  0.07273354  0.68324533  1.0
  H  H13  1  0.07273354  0.07273354  0.31675467  1.0
  Cl  Cl14  1  0.20775149  0.20775149  0.50000000  1.0
  Cl  Cl15  1  0.70775149  0.29224851  0.00000000  1.0
  Cl  Cl16  1  0.79224851  0.79224851  0.50000000  1.0
  Cl  Cl17  1  0.29224851  0.70775149  0.00000000  1.0
  Cl  Cl18  1  0.29481296  0.70518704  0.50000000  1.0
  Cl  Cl19  1  0.79481296  0.79481296  0.00000000  1.0
  Cl  Cl20  1  0.70518704  0.29481296  0.50000000  1.0
  Cl  Cl21  1  0.20518704  0.20518704  0.00000000  1.0
  O  O22  1  0.50000000  0.50000000  0.25557936  1.0
  O  O23  1  0.50000000  0.50000000  0.74442064  1.0
  O  O24  1  0.00000000  0.00000000  0.75557936  1.0
  O  O25  1  0.00000000  0.00000000  0.24442064  1.0
