# generated using pymatgen
data_KCdAu3(CN)6
_symmetry_space_group_name_H-M   'P 1'
_cell_length_a   7.13197870
_cell_length_b   7.13197870
_cell_length_c   8.13374113
_cell_angle_alpha   90.00000000
_cell_angle_beta   90.00000000
_cell_angle_gamma   120.00000000
_symmetry_Int_Tables_number   1
_chemical_formula_structural   KCdAu3(CN)6
_chemical_formula_sum   'K1 Cd1 Au3 C6 N6'
_cell_volume   358.29525163
_cell_formula_units_Z   1
loop_
 _symmetry_equiv_pos_site_id
 _symmetry_equiv_pos_as_xyz
  1  'x, y, z'
loop_
 _atom_site_type_symbol
 _atom_site_label
 _atom_site_symmetry_multiplicity
 _atom_site_fract_x
 _atom_site_fract_y
 _atom_site_fract_z
 _atom_site_occupancy
  K  K0  1  0.00000000  0.00000000  0.00000000  1.0
  Cd  Cd1  1  0.33333333  0.66666667  0.00000000  1.0
  Au  Au2  1  0.34520740  0.17260370  0.50000000  1.0
  Au  Au3  1  0.82739630  0.17260370  0.50000000  1.0
  Au  Au4  1  0.82739630  0.65479260  0.50000000  1.0
  C  C5  1  0.68501200  0.66237122  0.29328485  1.0
  C  C6  1  0.68501200  0.02264078  0.70671515  1.0
  C  C7  1  0.97735922  0.66237122  0.70671515  1.0
  C  C8  1  0.97735922  0.31498800  0.29328485  1.0
  C  C9  1  0.33762878  0.31498800  0.70671515  1.0
  C  C10  1  0.33762878  0.02264078  0.29328485  1.0
  N  N11  1  0.60375378  0.67428308  0.17176876  1.0
  N  N12  1  0.60375378  0.92947069  0.82823124  1.0
  N  N13  1  0.07052931  0.67428308  0.82823124  1.0
  N  N14  1  0.07052931  0.39624622  0.17176876  1.0
  N  N15  1  0.32571692  0.39624622  0.82823124  1.0
  N  N16  1  0.32571692  0.92947069  0.17176876  1.0
