# generated using pymatgen
data_Cu6Sn5
_symmetry_space_group_name_H-M   'P 1'
_cell_length_a   6.67433347
_cell_length_b   6.67433347
_cell_length_c   9.98427525
_cell_angle_alpha   82.82056007
_cell_angle_beta   97.17943993
_cell_angle_gamma   112.98745224
_symmetry_Int_Tables_number   1
_chemical_formula_structural   Cu6Sn5
_chemical_formula_sum   'Cu12 Sn10'
_cell_volume   404.82273163
_cell_formula_units_Z   2
loop_
 _symmetry_equiv_pos_site_id
 _symmetry_equiv_pos_as_xyz
  1  'x, y, z'
loop_
 _atom_site_type_symbol
 _atom_site_label
 _atom_site_symmetry_multiplicity
 _atom_site_fract_x
 _atom_site_fract_y
 _atom_site_fract_z
 _atom_site_occupancy
  Cu  Cu0  1  1.80201131  0.18835151  0.10962255  1.0
  Cu  Cu1  1  0.81164849  -0.80201131  0.60962255  1.0
  Cu  Cu2  1  1.18835151  0.80201131  0.39037745  1.0
  Cu  Cu3  1  0.19798869  -0.18835151  0.89037745  1.0
  Cu  Cu4  1  1.57409050  0.37066522  0.20387504  1.0
  Cu  Cu5  1  0.62933478  -0.57409050  0.70387504  1.0
  Cu  Cu6  1  1.37066522  0.57409050  0.29612496  1.0
  Cu  Cu7  1  0.42590950  -0.37066522  0.79612496  1.0
  Cu  Cu8  1  1.16070499  0.16070499  0.25000000  1.0
  Cu  Cu9  1  0.83929501  -0.16070499  0.75000000  1.0
  Cu  Cu10  1  0.00000000  -0.00000000  0.50000000  1.0
  Cu  Cu11  1  0.00000000  0.00000000  -0.00000000  1.0
  Sn  Sn12  1  0.36799814  -0.05896821  0.14242617  1.0
  Sn  Sn13  1  1.05896821  0.63200186  0.64242617  1.0
  Sn  Sn14  1  0.94103179  -0.63200186  0.35757383  1.0
  Sn  Sn15  1  1.63200186  0.05896821  0.85757383  1.0
  Sn  Sn16  1  1.44539446  0.22910878  0.47145133  1.0
  Sn  Sn17  1  0.77089122  -0.44539446  0.97145133  1.0
  Sn  Sn18  1  1.22910878  0.44539446  0.02854867  1.0
  Sn  Sn19  1  0.55460554  -0.22910878  0.52854867  1.0
  Sn  Sn20  1  0.79942040  -0.20057960  0.25000000  1.0
  Sn  Sn21  1  1.20057960  0.20057960  0.75000000  1.0
