# generated using pymatgen
data_NdH3(SeO4)3
_symmetry_space_group_name_H-M   'P 1'
_cell_length_a   9.76368620
_cell_length_b   9.76368620
_cell_length_c   6.27112970
_cell_angle_alpha   90.00000000
_cell_angle_beta   90.00000000
_cell_angle_gamma   120.00000000
_symmetry_Int_Tables_number   1
_chemical_formula_structural   NdH3(SeO4)3
_chemical_formula_sum   'Nd2 H6 Se6 O24'
_cell_volume   517.73084645
_cell_formula_units_Z   2
loop_
 _symmetry_equiv_pos_site_id
 _symmetry_equiv_pos_as_xyz
  1  'x, y, z'
loop_
 _atom_site_type_symbol
 _atom_site_label
 _atom_site_symmetry_multiplicity
 _atom_site_fract_x
 _atom_site_fract_y
 _atom_site_fract_z
 _atom_site_occupancy
  Nd  Nd0  1  0.33333333  0.66666667  0.25000000  1.0
  Nd  Nd1  1  0.66666667  0.33333333  0.75000000  1.0
  H  H2  1  0.93705308  0.82600267  0.25000000  1.0
  H  H3  1  0.82600267  0.88894959  0.75000000  1.0
  H  H4  1  0.88894959  0.06294692  0.25000000  1.0
  H  H5  1  0.17399733  0.11105041  0.25000000  1.0
  H  H6  1  0.06294692  0.17399733  0.75000000  1.0
  H  H7  1  0.11105041  0.93705308  0.75000000  1.0
  Se  Se8  1  0.70140676  0.59698664  0.25000000  1.0
  Se  Se9  1  0.59698664  0.89557988  0.75000000  1.0
  Se  Se10  1  0.89557988  0.29859324  0.25000000  1.0
  Se  Se11  1  0.40301336  0.10442012  0.25000000  1.0
  Se  Se12  1  0.29859324  0.40301336  0.75000000  1.0
  Se  Se13  1  0.10442012  0.70140676  0.75000000  1.0
  O  O14  1  0.75447416  0.54135150  0.46755055  1.0
  O  O15  1  0.75447416  0.54135150  0.03244945  1.0
  O  O16  1  0.54135150  0.78687734  0.96755055  1.0
  O  O17  1  0.54135150  0.78687734  0.53244945  1.0
  O  O18  1  0.78687734  0.24552584  0.46755055  1.0
  O  O19  1  0.78687734  0.24552584  0.03244945  1.0
  O  O20  1  0.45864850  0.21312266  0.46755055  1.0
  O  O21  1  0.45864850  0.21312266  0.03244945  1.0
  O  O22  1  0.24552584  0.45864850  0.96755055  1.0
  O  O23  1  0.24552584  0.45864850  0.53244945  1.0
  O  O24  1  0.21312266  0.75447416  0.96755055  1.0
  O  O25  1  0.21312266  0.75447416  0.53244945  1.0
  O  O26  1  0.43728575  0.95724324  0.25000000  1.0
  O  O27  1  0.95724324  0.51995750  0.75000000  1.0
  O  O28  1  0.51995750  0.56271425  0.25000000  1.0
  O  O29  1  0.04275676  0.48004250  0.25000000  1.0
  O  O30  1  0.56271425  0.04275676  0.75000000  1.0
  O  O31  1  0.48004250  0.43728575  0.75000000  1.0
  O  O32  1  0.82833356  0.80826547  0.25000000  1.0
  O  O33  1  0.80826547  0.97993191  0.75000000  1.0
  O  O34  1  0.97993191  0.17166644  0.25000000  1.0
  O  O35  1  0.19173453  0.02006809  0.25000000  1.0
  O  O36  1  0.17166644  0.19173453  0.75000000  1.0
  O  O37  1  0.02006809  0.82833356  0.75000000  1.0
