# generated using pymatgen
data_EuTiAgO4
_symmetry_space_group_name_H-M   'P 1'
_cell_length_a   13.47691502
_cell_length_b   5.28290960
_cell_length_c   5.22375957
_cell_angle_alpha   90.00000000
_cell_angle_beta   90.00000000
_cell_angle_gamma   90.00000000
_symmetry_Int_Tables_number   1
_chemical_formula_structural   EuTiAgO4
_chemical_formula_sum   'Eu4 Ti4 Ag4 O16'
_cell_volume   371.91770077
_cell_formula_units_Z   4
loop_
 _symmetry_equiv_pos_site_id
 _symmetry_equiv_pos_as_xyz
  1  'x, y, z'
loop_
 _atom_site_type_symbol
 _atom_site_label
 _atom_site_symmetry_multiplicity
 _atom_site_fract_x
 _atom_site_fract_y
 _atom_site_fract_z
 _atom_site_occupancy
  Ti  Ti0  1  0.76368420  -0.00539189  0.75000000  1.0
  Ti  Ti1  1  0.76368420  0.50539189  0.25000000  1.0
  Ti  Ti2  1  0.23631580  0.49460811  0.75000000  1.0
  Ti  Ti3  1  0.23631580  1.00539189  0.25000000  1.0
  Eu  Eu4  1  0.39677348  -0.01377863  0.75000000  1.0
  Eu  Eu5  1  0.39677348  0.51377863  0.25000000  1.0
  Eu  Eu6  1  0.60322652  0.48622137  0.75000000  1.0
  Eu  Eu7  1  0.60322652  1.01377863  0.25000000  1.0
  O  O8  1  0.89642066  -0.02667584  0.75000000  1.0
  O  O9  1  0.89642066  0.52667584  0.25000000  1.0
  O  O10  1  0.10357934  0.47332416  0.75000000  1.0
  O  O11  1  0.10357934  1.02667584  0.25000000  1.0
  O  O12  1  0.71756778  0.75000000  0.00000000  1.0
  O  O13  1  0.71756778  0.75000000  0.50000000  1.0
  O  O14  1  0.28243222  0.25000000  0.00000000  1.0
  O  O15  1  0.28243222  0.25000000  0.50000000  1.0
  O  O16  1  0.26836645  0.75000000  0.00000000  1.0
  O  O17  1  0.26836645  0.75000000  0.50000000  1.0
  O  O18  1  0.73163355  0.25000000  0.00000000  1.0
  O  O19  1  0.73163355  0.25000000  0.50000000  1.0
  O  O20  1  0.43449522  0.53807843  0.75000000  1.0
  O  O21  1  0.43449522  0.96192157  0.25000000  1.0
  O  O22  1  0.56550478  0.03807843  0.75000000  1.0
  O  O23  1  0.56550478  0.46192157  0.25000000  1.0
  Ag  Ag24  1  0.93032887  0.50853007  0.75000000  1.0
  Ag  Ag25  1  0.93032887  0.99146993  0.25000000  1.0
  Ag  Ag26  1  0.06967113  0.00853007  0.75000000  1.0
  Ag  Ag27  1  0.06967113  0.49146993  0.25000000  1.0
