# generated using pymatgen
data_LaCO
_symmetry_space_group_name_H-M   'P 1'
_cell_length_a   4.07846754
_cell_length_b   4.07846754
_cell_length_c   7.38876266
_cell_angle_alpha   85.58809986
_cell_angle_beta   94.41190014
_cell_angle_gamma   120.93922517
_symmetry_Int_Tables_number   1
_chemical_formula_structural   LaCO
_chemical_formula_sum   'La2 C2 O2'
_cell_volume   105.00350242
_cell_formula_units_Z   2
loop_
 _symmetry_equiv_pos_site_id
 _symmetry_equiv_pos_as_xyz
  1  'x, y, z'
loop_
 _atom_site_type_symbol
 _atom_site_label
 _atom_site_symmetry_multiplicity
 _atom_site_fract_x
 _atom_site_fract_y
 _atom_site_fract_z
 _atom_site_occupancy
  La  La0  1  0.31728601  -0.31728601  0.79272151  1.0
  La  La1  1  0.68271399  0.31728601  0.20727849  1.0
  C  C2  1  0.96267383  0.03732617  0.57416392  1.0
  C  C3  1  0.03732617  -0.03732617  0.42583608  1.0
  O  O4  1  0.65345669  0.34654331  0.87942091  1.0
  O  O5  1  0.34654331  -0.34654331  0.12057909  1.0
