# generated using pymatgen
data_CsMoP2O7
_symmetry_space_group_name_H-M   'P 1'
_cell_length_a   7.85466446
_cell_length_b   10.48753528
_cell_length_c   8.62657297
_cell_angle_alpha   90.00000000
_cell_angle_beta   105.20993621
_cell_angle_gamma   90.00000000
_symmetry_Int_Tables_number   1
_chemical_formula_structural   CsMoP2O7
_chemical_formula_sum   'Cs4 Mo4 P8 O28'
_cell_volume   685.73077255
_cell_formula_units_Z   4
loop_
 _symmetry_equiv_pos_site_id
 _symmetry_equiv_pos_as_xyz
  1  'x, y, z'
loop_
 _atom_site_type_symbol
 _atom_site_label
 _atom_site_symmetry_multiplicity
 _atom_site_fract_x
 _atom_site_fract_y
 _atom_site_fract_z
 _atom_site_occupancy
  Cs  Cs0  1  0.80405591  0.80749258  0.45034324  1.0
  Cs  Cs1  1  0.80405591  0.69250742  0.95034324  1.0
  Cs  Cs2  1  0.19594409  0.30749258  0.04965676  1.0
  Cs  Cs3  1  0.19594409  0.19250742  0.54965676  1.0
  Mo  Mo4  1  0.76055052  0.39863285  0.24213886  1.0
  Mo  Mo5  1  0.76055052  0.10136715  0.74213886  1.0
  Mo  Mo6  1  0.23944948  0.89863285  0.25786114  1.0
  Mo  Mo7  1  0.23944948  0.60136715  0.75786114  1.0
  P  P8  1  0.87232554  0.09840071  0.17110796  1.0
  P  P9  1  0.87232554  0.40159929  0.67110796  1.0
  P  P10  1  0.12767446  0.59840071  0.32889204  1.0
  P  P11  1  0.12767446  0.90159929  0.82889204  1.0
  P  P12  1  0.57416891  0.12877616  0.31389669  1.0
  P  P13  1  0.57416891  0.37122384  0.81389669  1.0
  P  P14  1  0.42583109  0.62877616  0.18610331  1.0
  P  P15  1  0.42583109  0.87122384  0.68610331  1.0
  O  O16  1  0.98946681  0.50571331  0.22922527  1.0
  O  O17  1  0.98946681  0.99428669  0.72922527  1.0
  O  O18  1  0.01053319  0.00571331  0.27077473  1.0
  O  O19  1  0.01053319  0.49428669  0.77077473  1.0
  O  O20  1  0.91443128  0.23450342  0.24024320  1.0
  O  O21  1  0.91443128  0.26549658  0.74024320  1.0
  O  O22  1  0.08556872  0.73450342  0.25975680  1.0
  O  O23  1  0.08556872  0.76549658  0.75975680  1.0
  O  O24  1  0.85261409  0.40976577  0.49182375  1.0
  O  O25  1  0.85261409  0.09023423  0.99182375  1.0
  O  O26  1  0.14738591  0.90976577  0.00817625  1.0
  O  O27  1  0.14738591  0.59023423  0.50817625  1.0
  O  O28  1  0.67752751  0.10240794  0.48717510  1.0
  O  O29  1  0.67752751  0.39759206  0.98717510  1.0
  O  O30  1  0.32247249  0.60240794  0.01282490  1.0
  O  O31  1  0.32247249  0.89759206  0.51282490  1.0
  O  O32  1  0.68353773  0.05550011  0.20139511  1.0
  O  O33  1  0.68353773  0.44449989  0.70139511  1.0
  O  O34  1  0.31646227  0.55550011  0.29860489  1.0
  O  O35  1  0.31646227  0.94449989  0.79860488  1.0
  O  O36  1  0.56070429  0.27111049  0.26562195  1.0
  O  O37  1  0.56070429  0.22888951  0.76562195  1.0
  O  O38  1  0.43929571  0.77111049  0.23437805  1.0
  O  O39  1  0.43929571  0.72888951  0.73437805  1.0
  O  O40  1  0.38842073  0.07060023  0.26433833  1.0
  O  O41  1  0.38842073  0.42939977  0.76433833  1.0
  O  O42  1  0.61157927  0.57060023  0.23566167  1.0
  O  O43  1  0.61157927  0.92939977  0.73566167  1.0
