# generated using pymatgen
data_KGaSb4
_symmetry_space_group_name_H-M   'P 1'
_cell_length_a   10.50381604
_cell_length_b   4.27414292
_cell_length_c   18.22953611
_cell_angle_alpha   90.00000000
_cell_angle_beta   90.00000000
_cell_angle_gamma   90.00000000
_symmetry_Int_Tables_number   1
_chemical_formula_structural   KGaSb4
_chemical_formula_sum   'K4 Ga4 Sb16'
_cell_volume   818.41157878
_cell_formula_units_Z   4
loop_
 _symmetry_equiv_pos_site_id
 _symmetry_equiv_pos_as_xyz
  1  'x, y, z'
loop_
 _atom_site_type_symbol
 _atom_site_label
 _atom_site_symmetry_multiplicity
 _atom_site_fract_x
 _atom_site_fract_y
 _atom_site_fract_z
 _atom_site_occupancy
  K  K0  1  0.67886837  0.75000000  0.06695337  1.0
  K  K1  1  0.17886837  0.75000000  0.43304663  1.0
  K  K2  1  0.32113163  0.25000000  0.93304663  1.0
  K  K3  1  0.82113163  0.25000000  0.56695337  1.0
  Ga  Ga4  1  0.81659177  0.75000000  0.86992925  1.0
  Ga  Ga5  1  0.31659177  0.75000000  0.63007075  1.0
  Ga  Ga6  1  0.18340823  0.25000000  0.13007075  1.0
  Ga  Ga7  1  0.68340823  0.25000000  0.36992925  1.0
  Sb  Sb8  1  0.93060436  0.75000000  0.25305178  1.0
  Sb  Sb9  1  0.43060436  0.75000000  0.24694822  1.0
  Sb  Sb10  1  0.06939564  0.25000000  0.74694822  1.0
  Sb  Sb11  1  0.56939564  0.25000000  0.75305178  1.0
  Sb  Sb12  1  0.88558538  0.75000000  0.72717058  1.0
  Sb  Sb13  1  0.38558538  0.75000000  0.77282942  1.0
  Sb  Sb14  1  0.11441462  0.25000000  0.27282942  1.0
  Sb  Sb15  1  0.61441462  0.25000000  0.22717058  1.0
  Sb  Sb16  1  0.83156126  0.75000000  0.39964532  1.0
  Sb  Sb17  1  0.33156126  0.75000000  0.10035468  1.0
  Sb  Sb18  1  0.16843874  0.25000000  0.60035468  1.0
  Sb  Sb19  1  0.66843874  0.25000000  0.89964532  1.0
  Sb  Sb20  1  0.53408201  0.75000000  0.54992485  1.0
  Sb  Sb21  1  0.03408201  0.75000000  0.95007515  1.0
  Sb  Sb22  1  0.46591799  0.25000000  0.45007515  1.0
  Sb  Sb23  1  0.96591799  0.25000000  0.04992485  1.0
