# generated using pymatgen
data_Cu3(CO4)2
_symmetry_space_group_name_H-M   'P 1'
_cell_length_a   4.60827683
_cell_length_b   4.82483057
_cell_length_c   13.51649262
_cell_angle_alpha   90.00000000
_cell_angle_beta   76.78667928
_cell_angle_gamma   90.00000000
_symmetry_Int_Tables_number   1
_chemical_formula_structural   Cu3(CO4)2
_chemical_formula_sum   'Cu6 C4 O16'
_cell_volume   292.57155399
_cell_formula_units_Z   2
loop_
 _symmetry_equiv_pos_site_id
 _symmetry_equiv_pos_as_xyz
  1  'x, y, z'
loop_
 _atom_site_type_symbol
 _atom_site_label
 _atom_site_symmetry_multiplicity
 _atom_site_fract_x
 _atom_site_fract_y
 _atom_site_fract_z
 _atom_site_occupancy
  C  C0  1  0.75823012  0.67320341  0.70369479  1.0
  C  C1  1  0.75823012  0.82679659  0.20369479  1.0
  C  C2  1  0.24176988  0.17320341  0.79630521  1.0
  C  C3  1  0.24176988  0.32679659  0.29630521  1.0
  O  O4  1  0.40362844  0.71739384  0.97294143  1.0
  O  O5  1  0.40362844  0.78260616  0.47294143  1.0
  O  O6  1  0.59637156  0.21739384  0.52705857  1.0
  O  O7  1  0.59637156  0.28260616  0.02705857  1.0
  O  O8  1  0.49605729  0.65188282  0.69546656  1.0
  O  O9  1  0.49605729  0.84811718  0.19546656  1.0
  O  O10  1  0.50394271  0.15188282  0.80453344  1.0
  O  O11  1  0.50394271  0.34811718  0.30453344  1.0
  O  O12  1  0.85524453  0.65570310  0.78468401  1.0
  O  O13  1  0.85524453  0.84429690  0.28468401  1.0
  O  O14  1  0.14475547  0.15570310  0.71531599  1.0
  O  O15  1  0.14475547  0.34429690  0.21531599  1.0
  O  O16  1  0.96895043  0.72049957  0.61684721  1.0
  O  O17  1  0.96895043  0.77950043  0.11684721  1.0
  O  O18  1  0.03104957  0.22049957  0.88315279  1.0
  O  O19  1  0.03104957  0.27950043  0.38315279  1.0
  Cu  Cu20  1  0.00000000  0.00000000  0.00000000  1.0
  Cu  Cu21  1  0.00000000  0.50000000  0.50000000  1.0
  Cu  Cu22  1  0.67837014  0.45848856  0.90264232  1.0
  Cu  Cu23  1  0.67837014  1.04151144  0.40264232  1.0
  Cu  Cu24  1  0.32162986  -0.04151144  0.59735768  1.0
  Cu  Cu25  1  0.32162986  0.54151144  0.09735768  1.0
