# generated using pymatgen
data_VH3CO5
_symmetry_space_group_name_H-M   'P 1'
_cell_length_a   7.21605110
_cell_length_b   5.87365678
_cell_length_c   5.23639514
_cell_angle_alpha   74.37581140
_cell_angle_beta   70.18936857
_cell_angle_gamma   77.40394549
_symmetry_Int_Tables_number   1
_chemical_formula_structural   VH3CO5
_chemical_formula_sum   'V2 H6 C2 O10'
_cell_volume   199.11297135
_cell_formula_units_Z   2
loop_
 _symmetry_equiv_pos_site_id
 _symmetry_equiv_pos_as_xyz
  1  'x, y, z'
loop_
 _atom_site_type_symbol
 _atom_site_label
 _atom_site_symmetry_multiplicity
 _atom_site_fract_x
 _atom_site_fract_y
 _atom_site_fract_z
 _atom_site_occupancy
  C  C0  1  -0.56281913  -0.94409413  -0.59777747  1.0
  C  C1  1  -0.43718087  -0.05590587  -0.40222253  1.0
  V  V2  1  -0.18290831  -0.80404242  -0.94159601  1.0
  V  V3  1  -0.81709169  -0.19595758  -0.05840399  1.0
  H  H4  1  -0.85960830  -0.88648679  -0.77606759  1.0
  H  H5  1  -0.14039170  -0.11351321  -0.22393241  1.0
  H  H6  1  -0.78688563  -0.43055229  -0.45423567  1.0
  H  H7  1  -0.21311437  -0.56944771  -0.54576433  1.0
  H  H8  1  -0.80279608  -0.61686157  -0.16054819  1.0
  H  H9  1  -0.19720392  -0.38313843  -0.83945181  1.0
  O  O10  1  -0.89830035  -0.87606278  -0.94480562  1.0
  O  O11  1  -0.10169965  -0.12393722  -0.05519438  1.0
  O  O12  1  -0.47578389  -0.83080998  -0.83615172  1.0
  O  O13  1  -0.52421611  -0.16919002  -0.16384828  1.0
  O  O14  1  -0.74448838  -0.97418061  -0.50457813  1.0
  O  O15  1  -0.25551162  -0.02581939  -0.49542187  1.0
  O  O16  1  -0.75467270  -0.46351036  -0.27517661  1.0
  O  O17  1  -0.24532730  -0.53648964  -0.72482339  1.0
  O  O18  1  -0.83023337  -0.37101837  -0.76023034  1.0
  O  O19  1  -0.16976663  -0.62898163  -0.23976966  1.0
