# generated using pymatgen
data_Cd(IO3)2
_symmetry_space_group_name_H-M   'P 1'
_cell_length_a   5.68590583
_cell_length_b   5.88673391
_cell_length_c   17.37809139
_cell_angle_alpha   90.00000000
_cell_angle_beta   90.00000000
_cell_angle_gamma   90.00000000
_symmetry_Int_Tables_number   1
_chemical_formula_structural   Cd(IO3)2
_chemical_formula_sum   'Cd4 I8 O24'
_cell_volume   581.66930314
_cell_formula_units_Z   4
loop_
 _symmetry_equiv_pos_site_id
 _symmetry_equiv_pos_as_xyz
  1  'x, y, z'
loop_
 _atom_site_type_symbol
 _atom_site_label
 _atom_site_symmetry_multiplicity
 _atom_site_fract_x
 _atom_site_fract_y
 _atom_site_fract_z
 _atom_site_occupancy
  Cd  Cd0  1  0.28778571  0.31715918  0.59383337  1.0
  Cd  Cd1  1  0.78778571  0.18284082  0.40616663  1.0
  Cd  Cd2  1  0.71221429  0.81715918  0.90616663  1.0
  Cd  Cd3  1  0.21221429  0.68284082  0.09383337  1.0
  I  I4  1  0.25132455  0.76490025  0.78912863  1.0
  I  I5  1  0.75132455  0.73509975  0.21087137  1.0
  I  I6  1  0.74867545  0.26490025  0.71087137  1.0
  I  I7  1  0.24867545  0.23509975  0.28912863  1.0
  I  I8  1  0.94663025  0.85450631  0.57629665  1.0
  I  I9  1  0.44663025  0.64549369  0.42370335  1.0
  I  I10  1  0.05336975  0.35450631  0.92370335  1.0
  I  I11  1  0.55336975  0.14549369  0.07629665  1.0
  O  O12  1  0.47109349  0.44482962  0.70903431  1.0
  O  O13  1  0.97109349  0.05517038  0.29096569  1.0
  O  O14  1  0.52890651  0.94482962  0.79096569  1.0
  O  O15  1  0.02890651  0.55517038  0.20903431  1.0
  O  O16  1  0.46137272  0.89246004  0.01467176  1.0
  O  O17  1  0.96137272  0.60753996  0.98532824  1.0
  O  O18  1  0.53862728  0.39246004  0.48532824  1.0
  O  O19  1  0.03862728  0.10753996  0.51467176  1.0
  O  O20  1  0.36698698  0.60112878  0.87771264  1.0
  O  O21  1  0.86698698  0.89887122  0.12228736  1.0
  O  O22  1  0.63301302  0.10112878  0.62228736  1.0
  O  O23  1  0.13301302  0.39887122  0.37771264  1.0
  O  O24  1  0.21206128  0.67411288  0.54399337  1.0
  O  O25  1  0.71206128  0.82588712  0.45600663  1.0
  O  O26  1  0.78793872  0.17411288  0.95600663  1.0
  O  O27  1  0.28793872  0.32588712  0.04399337  1.0
  O  O28  1  0.09491100  0.98947783  0.66614535  1.0
  O  O29  1  0.59491100  0.51052217  0.33385465  1.0
  O  O30  1  0.90508900  0.48947783  0.83385465  1.0
  O  O31  1  0.40508900  0.01052217  0.16614535  1.0
  O  O32  1  0.04669481  0.97471605  0.83815411  1.0
  O  O33  1  0.54669481  0.52528395  0.16184589  1.0
  O  O34  1  0.95330519  0.47471605  0.66184589  1.0
  O  O35  1  0.45330519  0.02528395  0.33815411  1.0
