# generated using pymatgen
data_Cu5Sn4
_symmetry_space_group_name_H-M   'P 1'
_cell_length_a   10.04109069
_cell_length_b   7.39370804
_cell_length_c   9.98699273
_cell_angle_alpha   90.00000000
_cell_angle_beta   118.08506747
_cell_angle_gamma   90.00000000
_symmetry_Int_Tables_number   1
_chemical_formula_structural   Cu5Sn4
_chemical_formula_sum   'Cu20 Sn16'
_cell_volume   654.13801271
_cell_formula_units_Z   4
loop_
 _symmetry_equiv_pos_site_id
 _symmetry_equiv_pos_as_xyz
  1  'x, y, z'
loop_
 _atom_site_type_symbol
 _atom_site_label
 _atom_site_symmetry_multiplicity
 _atom_site_fract_x
 _atom_site_fract_y
 _atom_site_fract_z
 _atom_site_occupancy
  Cu  Cu0  1  0.92968727  0.24300283  0.06856552  1.0
  Cu  Cu1  1  0.92968727  0.25699717  0.56856552  1.0
  Cu  Cu2  1  0.07031273  0.74300283  0.43143448  1.0
  Cu  Cu3  1  0.07031273  0.75699717  0.93143448  1.0
  Cu  Cu4  1  0.81590095  0.72427918  0.18303855  1.0
  Cu  Cu5  1  0.81590095  0.77572082  0.68303855  1.0
  Cu  Cu6  1  0.18409905  0.22427918  0.31696145  1.0
  Cu  Cu7  1  0.18409905  0.27572082  0.81696145  1.0
  Cu  Cu8  1  0.68962828  0.25620401  0.31306203  1.0
  Cu  Cu9  1  0.68962828  0.24379599  0.81306203  1.0
  Cu  Cu10  1  0.31037172  0.75620401  0.18693797  1.0
  Cu  Cu11  1  0.31037172  0.74379599  0.68693797  1.0
  Cu  Cu12  1  0.69139808  0.41164477  0.06217332  1.0
  Cu  Cu13  1  0.69139808  0.08835523  0.56217332  1.0
  Cu  Cu14  1  0.30860192  0.91164477  0.43782668  1.0
  Cu  Cu15  1  0.30860192  0.58835523  0.93782668  1.0
  Cu  Cu16  1  0.44398447  0.27628833  0.05699389  1.0
  Cu  Cu17  1  0.44398447  0.22371167  0.55699389  1.0
  Cu  Cu18  1  0.55601553  0.77628833  0.44300611  1.0
  Cu  Cu19  1  0.55601553  0.72371167  0.94300611  1.0
  Sn  Sn20  1  0.95632060  0.40483595  0.33130423  1.0
  Sn  Sn21  1  0.95632060  0.09516405  0.83130423  1.0
  Sn  Sn22  1  0.04367940  0.90483595  0.16869577  1.0
  Sn  Sn23  1  0.04367940  0.59516405  0.66869577  1.0
  Sn  Sn24  1  0.82449376  0.91534104  0.42255524  1.0
  Sn  Sn25  1  0.82449376  0.58465896  0.92255524  1.0
  Sn  Sn26  1  0.17550624  0.41534104  0.07744476  1.0
  Sn  Sn27  1  0.17550624  0.08465896  0.57744476  1.0
  Sn  Sn28  1  0.68338901  0.05265944  0.06449324  1.0
  Sn  Sn29  1  0.68338901  0.44734056  0.56449324  1.0
  Sn  Sn30  1  0.31661099  0.55265944  0.43550676  1.0
  Sn  Sn31  1  0.31661099  0.94734056  0.93550676  1.0
  Sn  Sn32  1  0.42918274  0.09852888  0.28476285  1.0
  Sn  Sn33  1  0.42918274  0.40147112  0.78476285  1.0
  Sn  Sn34  1  0.57081726  0.59852888  0.21523715  1.0
  Sn  Sn35  1  0.57081726  0.90147112  0.71523715  1.0
