# generated using pymatgen
data_Mg(Mo3Se4)2
_symmetry_space_group_name_H-M   'P 1'
_cell_length_a   6.76657682
_cell_length_b   6.76784899
_cell_length_c   6.76618481
_cell_angle_alpha   88.55491122
_cell_angle_beta   88.49529301
_cell_angle_gamma   91.63089953
_symmetry_Int_Tables_number   1
_chemical_formula_structural   Mg(Mo3Se4)2
_chemical_formula_sum   'Mg1 Mo6 Se8'
_cell_volume   309.52170306
_cell_formula_units_Z   1
loop_
 _symmetry_equiv_pos_site_id
 _symmetry_equiv_pos_as_xyz
  1  'x, y, z'
loop_
 _atom_site_type_symbol
 _atom_site_label
 _atom_site_symmetry_multiplicity
 _atom_site_fract_x
 _atom_site_fract_y
 _atom_site_fract_z
 _atom_site_occupancy
  Mg  Mg0  1  0.00000000  0.00000000  0.00000000  1.0
  Mo  Mo1  1  -0.57878809  -0.76810980  -0.55130355  1.0
  Mo  Mo2  1  -0.42121191  -0.23189020  -0.44869645  1.0
  Mo  Mo3  1  -0.44898835  -0.57838385  -0.23197576  1.0
  Mo  Mo4  1  -0.55101165  -0.42161615  -0.76802424  1.0
  Mo  Mo5  1  -0.76811275  -0.44908730  -0.42141293  1.0
  Mo  Mo6  1  -0.23188725  -0.55091270  -0.57858707  1.0
  Se  Se7  1  -0.25617987  -0.87240381  -0.36832593  1.0
  Se  Se8  1  -0.74382013  -0.12759619  -0.63167407  1.0
  Se  Se9  1  -0.77499362  -0.77465822  -0.22582461  1.0
  Se  Se10  1  -0.22500638  -0.22534178  -0.77417539  1.0
  Se  Se11  1  -0.87307936  -0.63235644  -0.74434612  1.0
  Se  Se12  1  -0.12692064  -0.36764356  -0.25565388  1.0
  Se  Se13  1  -0.63156038  -0.25583292  -0.12692312  1.0
  Se  Se14  1  -0.36843962  -0.74416708  -0.87307688  1.0
