# generated using pymatgen
data_GaGeAsO6
_symmetry_space_group_name_H-M   'P 1'
_cell_length_a   8.32199803
_cell_length_b   8.32199803
_cell_length_c   4.44183323
_cell_angle_alpha   90.00000000
_cell_angle_beta   90.00000000
_cell_angle_gamma   120.00000000
_symmetry_Int_Tables_number   1
_chemical_formula_structural   GaGeAsO6
_chemical_formula_sum   'Ga3 Ge3 As3 O18'
_cell_volume   266.40851307
_cell_formula_units_Z   3
loop_
 _symmetry_equiv_pos_site_id
 _symmetry_equiv_pos_as_xyz
  1  'x, y, z'
loop_
 _atom_site_type_symbol
 _atom_site_label
 _atom_site_symmetry_multiplicity
 _atom_site_fract_x
 _atom_site_fract_y
 _atom_site_fract_z
 _atom_site_occupancy
  Ga  Ga0  1  0.30617839  0.33333419  1.02030387  1.0
  Ga  Ga1  1  0.66666581  0.97284420  1.02030387  1.0
  Ga  Ga2  1  0.02715580  0.69382161  1.02030387  1.0
  Ge  Ge3  1  0.36034145  0.02700398  0.52029174  1.0
  Ge  Ge4  1  0.97299602  0.33333747  0.52029174  1.0
  Ge  Ge5  1  0.66666253  0.63965855  0.52029174  1.0
  As  As6  1  0.00000000  0.00000000  0.50393604  1.0
  As  As7  1  0.33333333  0.66666667  0.53650185  1.0
  As  As8  1  0.66666667  0.33333333  0.02026644  1.0
  O  O9  1  0.45102766  0.23337164  0.25169170  1.0
  O  O10  1  0.76662836  0.21765602  0.25169170  1.0
  O  O11  1  0.78234398  0.54897234  0.25169170  1.0
  O  O12  1  0.56671000  0.11768079  0.78884625  1.0
  O  O13  1  0.88231921  0.44902921  0.78884625  1.0
  O  O14  1  0.55097079  0.43329000  0.78884625  1.0
  O  O15  1  0.11551584  0.55757996  0.30424034  1.0
  O  O16  1  0.44242004  0.55793588  0.30424034  1.0
  O  O17  1  0.44206412  0.88448416  0.30424034  1.0
  O  O18  1  0.08523706  0.21609929  0.27820446  1.0
  O  O19  1  0.78390071  0.86913777  0.27820446  1.0
  O  O20  1  0.13086223  0.91476294  0.27820446  1.0
  O  O21  1  0.20250775  0.45055427  0.76222024  1.0
  O  O22  1  0.54944573  0.75195348  0.76222024  1.0
  O  O23  1  0.24804652  0.79749225  0.76222024  1.0
  O  O24  1  0.21782651  0.10877897  0.73619330  1.0
  O  O25  1  0.89122103  0.10904755  0.73619330  1.0
  O  O26  1  0.89095245  0.78217349  0.73619330  1.0
