# generated using pymatgen
data_RbTa(CuTe2)2
_symmetry_space_group_name_H-M   'P 1'
_cell_length_a   8.31715086
_cell_length_b   20.95021012
_cell_length_c   6.05282445
_cell_angle_alpha   90.00000000
_cell_angle_beta   90.00000000
_cell_angle_gamma   90.00000000
_symmetry_Int_Tables_number   1
_chemical_formula_structural   RbTa(CuTe2)2
_chemical_formula_sum   'Rb4 Ta4 Cu8 Te16'
_cell_volume   1054.68080130
_cell_formula_units_Z   4
loop_
 _symmetry_equiv_pos_site_id
 _symmetry_equiv_pos_as_xyz
  1  'x, y, z'
loop_
 _atom_site_type_symbol
 _atom_site_label
 _atom_site_symmetry_multiplicity
 _atom_site_fract_x
 _atom_site_fract_y
 _atom_site_fract_z
 _atom_site_occupancy
  Rb  Rb0  1  0.24444764  0.93753610  0.51984649  1.0
  Rb  Rb1  1  0.74444764  0.56246390  0.51984649  1.0
  Rb  Rb2  1  0.75555236  0.06246390  0.01984649  1.0
  Rb  Rb3  1  0.25555236  0.43753610  0.01984649  1.0
  Ta  Ta4  1  0.24474944  0.64724107  0.75796854  1.0
  Ta  Ta5  1  0.74474944  0.85275893  0.75796854  1.0
  Ta  Ta6  1  0.75525056  0.35275893  0.25796854  1.0
  Ta  Ta7  1  0.25525056  0.14724107  0.25796854  1.0
  Cu  Cu8  1  0.49601890  0.74951539  0.76675246  1.0
  Cu  Cu9  1  0.99601890  0.75048461  0.76675246  1.0
  Cu  Cu10  1  0.50398110  0.25048461  0.26675246  1.0
  Cu  Cu11  1  0.00398110  0.24951539  0.26675246  1.0
  Cu  Cu12  1  0.25498774  0.14677431  0.75794626  1.0
  Cu  Cu13  1  0.75498774  0.35322569  0.75794626  1.0
  Cu  Cu14  1  0.74501226  0.85322569  0.25794626  1.0
  Cu  Cu15  1  0.24501226  0.64677431  0.25794626  1.0
  Te  Te16  1  0.48477143  0.85334258  0.01039301  1.0
  Te  Te17  1  0.98477143  0.64665742  0.01039301  1.0
  Te  Te18  1  0.51522857  0.14665742  0.51039301  1.0
  Te  Te19  1  0.01522857  0.35334258  0.51039301  1.0
  Te  Te20  1  0.24601435  0.75106517  0.49959499  1.0
  Te  Te21  1  0.74601435  0.74893483  0.49959499  1.0
  Te  Te22  1  0.75398565  0.24893483  -0.00040501  1.0
  Te  Te23  1  0.25398565  0.25106517  -0.00040501  1.0
  Te  Te24  1  0.24230522  0.54383695  0.50951671  1.0
  Te  Te25  1  0.74230522  0.95616305  0.50951671  1.0
  Te  Te26  1  0.75769478  0.45616305  0.00951671  1.0
  Te  Te27  1  0.25769478  0.04383695  0.00951671  1.0
  Te  Te28  1  0.00519377  0.85456000  0.00998154  1.0
  Te  Te29  1  0.50519377  0.64544000  0.00998154  1.0
  Te  Te30  1  0.99480623  0.14544000  0.50998154  1.0
  Te  Te31  1  0.49480623  0.35456000  0.50998154  1.0
