# generated using pymatgen
data_Na5GaGe2
_symmetry_space_group_name_H-M   'P 1'
_cell_length_a   5.66523919
_cell_length_b   9.31322430
_cell_length_c   8.31746678
_cell_angle_alpha   90.00000000
_cell_angle_beta   98.23188992
_cell_angle_gamma   90.00000000
_symmetry_Int_Tables_number   1
_chemical_formula_structural   Na5GaGe2
_chemical_formula_sum   'Na10 Ga2 Ge4'
_cell_volume   434.32167857
_cell_formula_units_Z   2
loop_
 _symmetry_equiv_pos_site_id
 _symmetry_equiv_pos_as_xyz
  1  'x, y, z'
loop_
 _atom_site_type_symbol
 _atom_site_label
 _atom_site_symmetry_multiplicity
 _atom_site_fract_x
 _atom_site_fract_y
 _atom_site_fract_z
 _atom_site_occupancy
  Na  Na0  1  0.59770801  0.92533161  0.68933262  1.0
  Na  Na1  1  0.59770801  0.57466839  0.68933262  1.0
  Na  Na2  1  0.40229199  0.42533161  0.31066738  1.0
  Na  Na3  1  0.40229199  0.07466839  0.31066738  1.0
  Na  Na4  1  0.18139585  0.42782244  0.88503037  1.0
  Na  Na5  1  0.18139585  0.07217756  0.88503037  1.0
  Na  Na6  1  0.81860415  0.92782244  0.11496963  1.0
  Na  Na7  1  0.81860415  0.57217756  0.11496963  1.0
  Na  Na8  1  0.92690915  0.25000000  0.51880678  1.0
  Na  Na9  1  0.07309085  0.75000000  0.48119322  1.0
  Ga  Ga10  1  0.68991106  0.25000000  0.90536102  1.0
  Ga  Ga11  1  0.31008894  0.75000000  0.09463898  1.0
  Ge  Ge12  1  0.93428231  0.25000000  0.16203814  1.0
  Ge  Ge13  1  0.06571769  0.75000000  0.83796186  1.0
  Ge  Ge14  1  0.45431923  0.25000000  0.64342596  1.0
  Ge  Ge15  1  0.54568077  0.75000000  0.35657404  1.0
