# generated using pymatgen
data_LiGe2N3
_symmetry_space_group_name_H-M   'P 1'
_cell_length_a   5.55664362
_cell_length_b   5.55664362
_cell_length_c   5.09558267
_cell_angle_alpha   90.00000000
_cell_angle_beta   90.00000000
_cell_angle_gamma   60.10806621
_symmetry_Int_Tables_number   1
_chemical_formula_structural   LiGe2N3
_chemical_formula_sum   'Li2 Ge4 N6'
_cell_volume   136.40222812
_cell_formula_units_Z   2
loop_
 _symmetry_equiv_pos_site_id
 _symmetry_equiv_pos_as_xyz
  1  'x, y, z'
loop_
 _atom_site_type_symbol
 _atom_site_label
 _atom_site_symmetry_multiplicity
 _atom_site_fract_x
 _atom_site_fract_y
 _atom_site_fract_z
 _atom_site_occupancy
  Li  Li0  1  -0.34217119  0.34217119  0.49563184  1.0
  Li  Li1  1  -0.65782881  0.65782881  -0.00436816  1.0
  Ge  Ge2  1  -0.66986879  0.99622158  0.49234958  1.0
  Ge  Ge3  1  0.00377842  0.66986879  0.49234958  1.0
  Ge  Ge4  1  -0.33013121  1.00377842  0.99234958  1.0
  Ge  Ge5  1  -0.00377842  0.33013121  0.99234958  1.0
  N  N6  1  -0.66451768  1.03713623  0.12297420  1.0
  N  N7  1  -0.03713623  0.66451768  0.12297420  1.0
  N  N8  1  -0.33548232  0.96286377  0.62297420  1.0
  N  N9  1  0.03713623  0.33548232  0.62297420  1.0
  N  N10  1  -0.30030307  0.30030307  0.09472060  1.0
  N  N11  1  -0.69969693  0.69969693  0.59472060  1.0
