# generated using pymatgen
data_Si
_symmetry_space_group_name_H-M   'P 1'
_cell_length_a   10.81393414
_cell_length_b   10.81393414
_cell_length_c   10.81393414
_cell_angle_alpha   109.47122063
_cell_angle_beta   109.47122063
_cell_angle_gamma   109.47122063
_symmetry_Int_Tables_number   1
_chemical_formula_structural   Si
_chemical_formula_sum   Si41
_cell_volume   973.48501404
_cell_formula_units_Z   41
loop_
 _symmetry_equiv_pos_site_id
 _symmetry_equiv_pos_as_xyz
  1  'x, y, z'
loop_
 _atom_site_type_symbol
 _atom_site_label
 _atom_site_symmetry_multiplicity
 _atom_site_fract_x
 _atom_site_fract_y
 _atom_site_fract_z
 _atom_site_occupancy
  Si  Si0  1  1.21339362  1.34606188  0.60510877  1.0
  Si  Si1  1  0.60510877  1.21339362  1.34606188  1.0
  Si  Si2  1  1.34606188  0.60510877  1.21339362  1.0
  Si  Si3  1  1.34606188  1.21339362  0.60510877  1.0
  Si  Si4  1  1.21339362  0.60510877  1.34606188  1.0
  Si  Si5  1  0.60510877  1.34606188  1.21339362  1.0
  Si  Si6  1  0.74095311  0.60828485  0.39489123  1.0
  Si  Si7  1  0.86733174  0.25904689  0.65393812  1.0
  Si  Si8  1  1.39171515  1.13266826  0.78660638  1.0
  Si  Si9  1  0.60828485  0.74095311  0.39489123  1.0
  Si  Si10  1  0.25904689  0.86733174  0.65393812  1.0
  Si  Si11  1  1.13266826  1.39171515  0.78660638  1.0
  Si  Si12  1  0.25904689  0.65393812  0.86733174  1.0
  Si  Si13  1  1.13266826  0.78660638  1.39171515  1.0
  Si  Si14  1  0.60828485  0.39489123  0.74095311  1.0
  Si  Si15  1  1.39171515  0.78660638  1.13266826  1.0
  Si  Si16  1  0.74095311  0.39489123  0.60828485  1.0
  Si  Si17  1  0.86733174  0.65393812  0.25904689  1.0
  Si  Si18  1  0.78660638  1.39171515  1.13266826  1.0
  Si  Si19  1  0.39489123  0.74095311  0.60828485  1.0
  Si  Si20  1  0.65393812  0.86733174  0.25904689  1.0
  Si  Si21  1  0.65393812  0.25904689  0.86733174  1.0
  Si  Si22  1  0.78660638  1.13266826  1.39171515  1.0
  Si  Si23  1  0.39489123  0.60828485  0.74095311  1.0
  Si  Si24  1  1.00000000  0.21739694  1.00000000  1.0
  Si  Si25  1  1.00000000  1.00000000  0.21739694  1.0
  Si  Si26  1  0.21739694  1.00000000  1.00000000  1.0
  Si  Si27  1  0.78260306  0.78260306  0.78260306  1.0
  Si  Si28  1  0.00000000  0.00000000  0.00000000  1.0
  Si  Si29  1  1.00000000  1.22332024  0.35918300  1.0
  Si  Si30  1  0.35918300  1.00000000  1.22332024  1.0
  Si  Si31  1  1.22332024  0.35918300  1.00000000  1.0
  Si  Si32  1  1.22332024  1.00000000  0.35918300  1.0
  Si  Si33  1  1.00000000  0.35918300  1.22332024  1.0
  Si  Si34  1  0.35918300  1.22332024  1.00000000  1.0
  Si  Si35  1  0.86413724  0.64081700  0.64081700  1.0
  Si  Si36  1  0.77667976  0.13586276  0.77667976  1.0
  Si  Si37  1  0.64081700  0.86413724  0.64081700  1.0
  Si  Si38  1  0.13586276  0.77667976  0.77667976  1.0
  Si  Si39  1  0.64081700  0.64081700  0.86413724  1.0
  Si  Si40  1  0.77667976  0.77667976  0.13586276  1.0
