# generated using pymatgen
data_PNO4
_symmetry_space_group_name_H-M   'P 1'
_cell_length_a   8.37642636
_cell_length_b   8.42025366
_cell_length_c   8.50129161
_cell_angle_alpha   90.00000000
_cell_angle_beta   90.00000000
_cell_angle_gamma   90.00000000
_symmetry_Int_Tables_number   1
_chemical_formula_structural   PNO4
_chemical_formula_sum   'P4 N4 O16'
_cell_volume   599.60999433
_cell_formula_units_Z   4
loop_
 _symmetry_equiv_pos_site_id
 _symmetry_equiv_pos_as_xyz
  1  'x, y, z'
loop_
 _atom_site_type_symbol
 _atom_site_label
 _atom_site_symmetry_multiplicity
 _atom_site_fract_x
 _atom_site_fract_y
 _atom_site_fract_z
 _atom_site_occupancy
  P  P0  1  0.52484672  0.00318424  0.49894150  1.0
  P  P1  1  1.02484672  0.49681576  0.50105850  1.0
  P  P2  1  0.47515328  0.50318424  1.00105850  1.0
  P  P3  1  -0.02484672  -0.00318424  -0.00105850  1.0
  N  N4  1  0.52155727  0.50112188  0.50456979  1.0
  N  N5  1  1.02155727  0.99887812  0.49543021  1.0
  N  N6  1  0.47844273  0.00112188  0.99543021  1.0
  N  N7  1  -0.02155727  0.49887812  0.00456979  1.0
  O  O8  1  0.41311718  0.91820581  0.61614178  1.0
  O  O9  1  0.91311718  0.58179419  0.38385822  1.0
  O  O10  1  0.58688282  0.41820581  0.88385822  1.0
  O  O11  1  0.08688282  0.08179419  0.11614178  1.0
  O  O12  1  0.37082770  0.62398897  0.91112281  1.0
  O  O13  1  0.87082770  0.87601103  0.08887719  1.0
  O  O14  1  0.62917230  0.12398897  0.58887719  1.0
  O  O15  1  0.12917230  0.37601103  0.41112281  1.0
  O  O16  1  0.07462595  0.90907377  0.87330429  1.0
  O  O17  1  0.57462595  0.59092623  0.12669571  1.0
  O  O18  1  0.92537405  0.40907377  0.62669571  1.0
  O  O19  1  0.42537405  0.09092623  0.37330429  1.0
  O  O20  1  0.13311232  0.62028643  0.58251747  1.0
  O  O21  1  0.63311232  0.87971357  0.41748253  1.0
  O  O22  1  0.86688768  0.12028643  0.91748253  1.0
  O  O23  1  0.36688768  0.37971357  0.08251747  1.0
