# generated using pymatgen
data_Be2BHO4
_symmetry_space_group_name_H-M   'P 1'
_cell_length_a   4.45691641
_cell_length_b   9.92481038
_cell_length_c   12.25473287
_cell_angle_alpha   90.00000000
_cell_angle_beta   90.00000000
_cell_angle_gamma   90.00000000
_symmetry_Int_Tables_number   1
_chemical_formula_structural   Be2BHO4
_chemical_formula_sum   'Be16 B8 H8 O32'
_cell_volume   542.07646926
_cell_formula_units_Z   8
loop_
 _symmetry_equiv_pos_site_id
 _symmetry_equiv_pos_as_xyz
  1  'x, y, z'
loop_
 _atom_site_type_symbol
 _atom_site_label
 _atom_site_symmetry_multiplicity
 _atom_site_fract_x
 _atom_site_fract_y
 _atom_site_fract_z
 _atom_site_occupancy
  Be  Be0  1  0.23899997  0.50455649  0.18889741  1.0
  Be  Be1  1  0.76100003  0.00455649  0.31110259  1.0
  Be  Be2  1  0.26100003  0.49544351  0.68889741  1.0
  Be  Be3  1  0.73899997  0.99544351  0.81110259  1.0
  Be  Be4  1  0.76100003  0.49544351  0.81110259  1.0
  Be  Be5  1  0.23899997  0.99544351  0.68889741  1.0
  Be  Be6  1  0.73899997  0.50455649  0.31110259  1.0
  Be  Be7  1  0.26100003  0.00455649  0.18889741  1.0
  Be  Be8  1  0.22304567  0.73877885  0.06839374  1.0
  Be  Be9  1  0.77695433  0.23877885  0.43160626  1.0
  Be  Be10  1  0.27695433  0.26122115  0.56839374  1.0
  Be  Be11  1  0.72304567  0.76122115  0.93160626  1.0
  Be  Be12  1  0.77695433  0.26122115  0.93160626  1.0
  Be  Be13  1  0.22304567  0.76122115  0.56839374  1.0
  Be  Be14  1  0.72304567  0.73877885  0.43160626  1.0
  Be  Be15  1  0.27695433  0.23877885  0.06839374  1.0
  B  B16  1  0.72636621  0.60868248  0.10787715  1.0
  B  B17  1  0.27363379  0.10868248  0.39212285  1.0
  B  B18  1  0.77363379  0.39131752  0.60787715  1.0
  B  B19  1  0.22636621  0.89131752  0.89212285  1.0
  B  B20  1  0.27363379  0.39131752  0.89212285  1.0
  B  B21  1  0.72636621  0.89131752  0.60787715  1.0
  B  B22  1  0.22636621  0.60868248  0.39212285  1.0
  B  B23  1  0.77363379  0.10868248  0.10787715  1.0
  H  H24  1  0.04026027  0.81909395  0.22292860  1.0
  H  H25  1  0.95973973  0.31909395  0.27707140  1.0
  H  H26  1  0.45973973  0.18090605  0.72292860  1.0
  H  H27  1  0.54026027  0.68090605  0.77707140  1.0
  H  H28  1  0.95973973  0.18090605  0.77707140  1.0
  H  H29  1  0.04026027  0.68090605  0.72292860  1.0
  H  H30  1  0.54026027  0.81909395  0.27707140  1.0
  H  H31  1  0.45973973  0.31909395  0.22292860  1.0
  O  O32  1  0.88042205  0.53906972  0.18757647  1.0
  O  O33  1  0.11957795  0.03906972  0.31242353  1.0
  O  O34  1  0.61957795  0.46093028  0.68757647  1.0
  O  O35  1  0.38042205  0.96093028  0.81242353  1.0
  O  O36  1  0.11957795  0.46093028  0.81242353  1.0
  O  O37  1  0.88042205  0.96093028  0.68757647  1.0
  O  O38  1  0.38042205  0.53906972  0.31242353  1.0
  O  O39  1  0.61957795  0.03906972  0.18757647  1.0
  O  O40  1  0.41750021  0.60387255  0.10416030  1.0
  O  O41  1  0.58249979  0.10387255  0.39583970  1.0
  O  O42  1  0.08249979  0.39612745  0.60416030  1.0
  O  O43  1  0.91750021  0.89612745  0.89583970  1.0
  O  O44  1  0.58249979  0.39612745  0.89583970  1.0
  O  O45  1  0.41750021  0.89612745  0.60416030  1.0
  O  O46  1  0.91750021  0.60387255  0.39583970  1.0
  O  O47  1  0.08249979  0.10387255  0.10416030  1.0
  O  O48  1  0.88220345  0.68897774  0.03567721  1.0
  O  O49  1  0.11779655  0.18897774  0.46432279  1.0
  O  O50  1  0.61779655  0.31102226  0.53567721  1.0
  O  O51  1  0.38220345  0.81102226  0.96432279  1.0
  O  O52  1  0.11779655  0.31102226  0.96432279  1.0
  O  O53  1  0.88220345  0.81102226  0.53567721  1.0
  O  O54  1  0.38220345  0.68897774  0.46432279  1.0
  O  O55  1  0.61779655  0.18897774  0.03567721  1.0
  O  O56  1  0.20694111  0.84244355  0.17372191  1.0
  O  O57  1  0.79305889  0.34244355  0.32627809  1.0
  O  O58  1  0.29305889  0.15755645  0.67372191  1.0
  O  O59  1  0.70694111  0.65755645  0.82627809  1.0
  O  O60  1  0.79305889  0.15755645  0.82627809  1.0
  O  O61  1  0.20694111  0.65755645  0.67372191  1.0
  O  O62  1  0.70694111  0.84244355  0.32627809  1.0
  O  O63  1  0.29305889  0.34244355  0.17372191  1.0
