# generated using pymatgen
data_SrHgO2
_symmetry_space_group_name_H-M   'P 1'
_cell_length_a   3.89090184
_cell_length_b   3.89090184
_cell_length_c   19.10886834
_cell_angle_alpha   90.00000000
_cell_angle_beta   90.00000000
_cell_angle_gamma   120.00000000
_symmetry_Int_Tables_number   1
_chemical_formula_structural   SrHgO2
_chemical_formula_sum   'Sr3 Hg3 O6'
_cell_volume   250.53369775
_cell_formula_units_Z   3
loop_
 _symmetry_equiv_pos_site_id
 _symmetry_equiv_pos_as_xyz
  1  'x, y, z'
loop_
 _atom_site_type_symbol
 _atom_site_label
 _atom_site_symmetry_multiplicity
 _atom_site_fract_x
 _atom_site_fract_y
 _atom_site_fract_z
 _atom_site_occupancy
  Sr  Sr0  1  0.67121253  0.67121253  0.50000000  1.0
  Sr  Sr1  1  -0.00000000  0.32878747  0.16666667  1.0
  Sr  Sr2  1  0.32878747  0.00000000  0.83333333  1.0
  Hg  Hg3  1  0.66426310  0.66426310  0.00000000  1.0
  Hg  Hg4  1  -0.00000000  0.33573690  0.66666667  1.0
  Hg  Hg5  1  0.33573690  0.00000000  0.33333333  1.0
  O  O6  1  0.66202647  0.66670339  0.89637851  1.0
  O  O7  1  0.66670339  0.66202647  0.10362149  1.0
  O  O8  1  1.00467692  0.33797353  0.56304517  1.0
  O  O9  1  0.33329661  -0.00467692  0.22971184  1.0
  O  O10  1  0.33797353  1.00467692  0.43695483  1.0
  O  O11  1  -0.00467692  0.33329661  0.77028816  1.0
