# generated using pymatgen
data_MgZn2
_symmetry_space_group_name_H-M   'P 1'
_cell_length_a   4.60562008
_cell_length_b   4.60562008
_cell_length_c   5.43490471
_cell_angle_alpha   90.00000000
_cell_angle_beta   90.00000000
_cell_angle_gamma   114.46459672
_symmetry_Int_Tables_number   1
_chemical_formula_structural   MgZn2
_chemical_formula_sum   'Mg2 Zn4'
_cell_volume   104.93328229
_cell_formula_units_Z   2
loop_
 _symmetry_equiv_pos_site_id
 _symmetry_equiv_pos_as_xyz
  1  'x, y, z'
loop_
 _atom_site_type_symbol
 _atom_site_label
 _atom_site_symmetry_multiplicity
 _atom_site_fract_x
 _atom_site_fract_y
 _atom_site_fract_z
 _atom_site_occupancy
  Mg  Mg0  1  -0.35720952  1.35720952  0.25000000  1.0
  Mg  Mg1  1  0.35720952  0.64279048  0.75000000  1.0
  Zn  Zn2  1  0.00000000  0.00000000  0.50000000  1.0
  Zn  Zn3  1  0.00000000  0.00000000  -0.00000000  1.0
  Zn  Zn4  1  0.29523609  0.70476391  0.25000000  1.0
  Zn  Zn5  1  -0.29523609  1.29523609  0.75000000  1.0
