# generated using pymatgen
data_FeB
_symmetry_space_group_name_H-M   'P 1'
_cell_length_a   6.68462421
_cell_length_b   6.68462421
_cell_length_c   3.89570894
_cell_angle_alpha   90.00000000
_cell_angle_beta   90.00000000
_cell_angle_gamma   90.00000000
_symmetry_Int_Tables_number   1
_chemical_formula_structural   FeB
_chemical_formula_sum   'Fe8 B8'
_cell_volume   174.07664064
_cell_formula_units_Z   8
loop_
 _symmetry_equiv_pos_site_id
 _symmetry_equiv_pos_as_xyz
  1  'x, y, z'
loop_
 _atom_site_type_symbol
 _atom_site_label
 _atom_site_symmetry_multiplicity
 _atom_site_fract_x
 _atom_site_fract_y
 _atom_site_fract_z
 _atom_site_occupancy
  Fe  Fe0  1  0.87066153  0.37066153  0.62130853  1.0
  Fe  Fe1  1  0.87066153  0.62933847  0.12130853  1.0
  Fe  Fe2  1  0.12933847  0.37066153  0.12130853  1.0
  Fe  Fe3  1  0.12933847  0.62933847  0.62130853  1.0
  Fe  Fe4  1  0.62933847  0.12933847  0.87869147  1.0
  Fe  Fe5  1  0.62933847  0.87066153  0.37869147  1.0
  Fe  Fe6  1  0.37066153  0.12933847  0.37869147  1.0
  Fe  Fe7  1  0.37066153  0.87066153  0.87869147  1.0
  B  B8  1  0.82200835  0.32200835  0.11749643  1.0
  B  B9  1  0.82200835  0.67799165  0.61749643  1.0
  B  B10  1  0.17799165  0.32200835  0.61749643  1.0
  B  B11  1  0.17799165  0.67799165  0.11749643  1.0
  B  B12  1  0.67799165  0.17799165  0.38250357  1.0
  B  B13  1  0.67799165  0.82200835  0.88250357  1.0
  B  B14  1  0.32200835  0.17799165  0.88250357  1.0
  B  B15  1  0.32200835  0.82200835  0.38250357  1.0
