# generated using pymatgen
data_Li2TiO3
_symmetry_space_group_name_H-M   'P 1'
_cell_length_a   5.09815047
_cell_length_b   5.09815047
_cell_length_c   9.78950353
_cell_angle_alpha   84.89725101
_cell_angle_beta   95.10274899
_cell_angle_gamma   59.86148370
_symmetry_Int_Tables_number   1
_chemical_formula_structural   Li2TiO3
_chemical_formula_sum   'Li8 Ti4 O12'
_cell_volume   216.51934419
_cell_formula_units_Z   4
loop_
 _symmetry_equiv_pos_site_id
 _symmetry_equiv_pos_as_xyz
  1  'x, y, z'
loop_
 _atom_site_type_symbol
 _atom_site_label
 _atom_site_symmetry_multiplicity
 _atom_site_fract_x
 _atom_site_fract_y
 _atom_site_fract_z
 _atom_site_occupancy
  Li  Li0  1  0.66080993  0.17947004  0.99932575  1.0
  Li  Li1  1  0.82052996  -0.66080993  0.49932575  1.0
  Li  Li2  1  1.17947004  -0.33919007  0.50067425  1.0
  Li  Li3  1  0.33919007  -0.17947004  0.00067425  1.0
  Li  Li4  1  0.58410943  -0.41589057  0.75000000  1.0
  Li  Li5  1  0.41589057  0.41589057  0.25000000  1.0
  Li  Li6  1  0.50000000  0.00000000  0.50000000  1.0
  Li  Li7  1  1.00000000  -0.50000000  -0.00000000  1.0
  Ti  Ti8  1  0.91722479  -0.08277521  0.75000000  1.0
  Ti  Ti9  1  0.08277521  0.08277521  0.25000000  1.0
  Ti  Ti10  1  0.24943908  0.24943908  0.75000000  1.0
  Ti  Ti11  1  0.75056092  -0.24943908  0.25000000  1.0
  O  O12  1  0.81071056  0.02090302  0.36307024  1.0
  O  O13  1  0.97909698  -0.81071056  0.86307024  1.0
  O  O14  1  1.02090302  -0.18928944  0.13692976  1.0
  O  O15  1  0.18928944  -0.02090302  0.63692976  1.0
  O  O16  1  0.62293248  -0.09604735  0.86321311  1.0
  O  O17  1  1.09604735  -0.62293248  0.36321311  1.0
  O  O18  1  0.90395265  -0.37706752  0.63678689  1.0
  O  O19  1  0.37706752  0.09604735  0.13678689  1.0
  O  O20  1  0.54472182  0.26640651  0.63414321  1.0
  O  O21  1  0.73359349  -0.54472182  0.13414321  1.0
  O  O22  1  1.26640651  -0.45527818  0.86585679  1.0
  O  O23  1  0.45527818  -0.26640651  0.36585679  1.0
