# generated using pymatgen
data_Nb3Si
_symmetry_space_group_name_H-M   'P 1'
_cell_length_a   10.24904487
_cell_length_b   10.24904487
_cell_length_c   5.20202389
_cell_angle_alpha   90.00000000
_cell_angle_beta   90.00000000
_cell_angle_gamma   90.00000000
_symmetry_Int_Tables_number   1
_chemical_formula_structural   Nb3Si
_chemical_formula_sum   'Nb24 Si8'
_cell_volume   546.43578279
_cell_formula_units_Z   8
loop_
 _symmetry_equiv_pos_site_id
 _symmetry_equiv_pos_as_xyz
  1  'x, y, z'
loop_
 _atom_site_type_symbol
 _atom_site_label
 _atom_site_symmetry_multiplicity
 _atom_site_fract_x
 _atom_site_fract_y
 _atom_site_fract_z
 _atom_site_occupancy
  Nb  Nb0  1  0.48446393  0.35403521  1.22653730  1.0
  Nb  Nb1  1  0.98446393  0.85403521  0.27346270  1.0
  Nb  Nb2  1  0.35403521  0.51553607  -0.22653730  1.0
  Nb  Nb3  1  0.85403521  0.01553607  0.72653730  1.0
  Nb  Nb4  1  0.51553607  0.64596479  1.22653730  1.0
  Nb  Nb5  1  0.01553607  0.14596479  0.27346270  1.0
  Nb  Nb6  1  0.64596479  0.48446393  -0.22653730  1.0
  Nb  Nb7  1  0.14596479  0.98446393  0.72653730  1.0
  Nb  Nb8  1  0.30958739  0.78644774  0.48596329  1.0
  Nb  Nb9  1  0.80958739  0.28644774  0.01403671  1.0
  Nb  Nb10  1  0.78644774  0.69041261  0.51403671  1.0
  Nb  Nb11  1  0.28644774  0.19041261  0.98596329  1.0
  Nb  Nb12  1  0.69041261  0.21355226  0.48596329  1.0
  Nb  Nb13  1  0.19041261  0.71355226  0.01403671  1.0
  Nb  Nb14  1  0.21355226  0.30958739  0.51403671  1.0
  Nb  Nb15  1  0.71355226  0.80958739  0.98596329  1.0
  Nb  Nb16  1  1.09662974  0.41527412  0.03323229  1.0
  Nb  Nb17  1  0.59662974  0.91527412  0.46676771  1.0
  Nb  Nb18  1  0.41527412  -0.09662974  0.96676771  1.0
  Nb  Nb19  1  0.91527412  0.40337026  0.53323229  1.0
  Nb  Nb20  1  -0.09662974  0.58472588  0.03323229  1.0
  Nb  Nb21  1  0.40337026  0.08472588  0.46676771  1.0
  Nb  Nb22  1  0.58472588  1.09662974  0.96676771  1.0
  Nb  Nb23  1  0.08472588  0.59662974  0.53323229  1.0
  Si  Si24  1  0.47257301  0.29424068  0.72054299  1.0
  Si  Si25  1  0.97257301  0.79424068  -0.22054299  1.0
  Si  Si26  1  0.29424068  0.52742699  0.27945701  1.0
  Si  Si27  1  0.79424068  0.02742699  1.22054299  1.0
  Si  Si28  1  0.52742699  0.70575932  0.72054299  1.0
  Si  Si29  1  0.02742699  0.20575932  -0.22054299  1.0
  Si  Si30  1  0.70575932  0.47257301  0.27945701  1.0
  Si  Si31  1  0.20575932  0.97257301  1.22054299  1.0
