# generated using pymatgen
data_K3Co2F7
_symmetry_space_group_name_H-M   'P 1'
_cell_length_a   11.12033501
_cell_length_b   11.12033501
_cell_length_c   11.12033501
_cell_angle_alpha   158.70957196
_cell_angle_beta   158.70957196
_cell_angle_gamma   30.28770456
_symmetry_Int_Tables_number   1
_chemical_formula_structural   K3Co2F7
_chemical_formula_sum   'K3 Co2 F7'
_cell_volume   181.18586586
_cell_formula_units_Z   1
loop_
 _symmetry_equiv_pos_site_id
 _symmetry_equiv_pos_as_xyz
  1  'x, y, z'
loop_
 _atom_site_type_symbol
 _atom_site_label
 _atom_site_symmetry_multiplicity
 _atom_site_fract_x
 _atom_site_fract_y
 _atom_site_fract_z
 _atom_site_occupancy
  K  K0  1  0.68460220  0.68460220  1.00000000  1.0
  K  K1  1  0.31539780  0.31539780  0.00000000  1.0
  K  K2  1  0.50000000  0.50000000  1.00000000  1.0
  Co  Co3  1  0.90375920  0.90375920  1.00000000  1.0
  Co  Co4  1  0.09624080  0.09624080  0.00000000  1.0
  F  F5  1  0.80859123  0.80859123  1.00000000  1.0
  F  F6  1  0.19140877  0.19140877  0.00000000  1.0
  F  F7  1  0.00000000  0.00000000  0.00000000  1.0
  F  F8  1  0.40467764  0.90467764  0.50000000  1.0
  F  F9  1  0.59532236  0.09532236  0.50000000  1.0
  F  F10  1  0.90467764  0.40467764  0.50000000  1.0
  F  F11  1  0.09532236  0.59532236  0.50000000  1.0
