# generated using pymatgen
data_Tl5Te2I
_symmetry_space_group_name_H-M   'P 1'
_cell_length_a   9.55131849
_cell_length_b   9.55131849
_cell_length_c   9.55131849
_cell_angle_alpha   122.24873908
_cell_angle_beta   122.24873908
_cell_angle_gamma   86.14729031
_symmetry_Int_Tables_number   1
_chemical_formula_structural   Tl5Te2I
_chemical_formula_sum   'Tl10 Te4 I2'
_cell_volume   593.72942933
_cell_formula_units_Z   2
loop_
 _symmetry_equiv_pos_site_id
 _symmetry_equiv_pos_as_xyz
  1  'x, y, z'
loop_
 _atom_site_type_symbol
 _atom_site_label
 _atom_site_symmetry_multiplicity
 _atom_site_fract_x
 _atom_site_fract_y
 _atom_site_fract_z
 _atom_site_occupancy
  Tl  Tl0  1  0.71180396  1.21180396  1.21093701  1.0
  Tl  Tl1  1  0.99913305  0.49913305  1.21093701  1.0
  Tl  Tl2  1  0.50086695  0.71180396  0.50000000  1.0
  Tl  Tl3  1  0.78819604  0.99913305  1.50000000  1.0
  Tl  Tl4  1  1.21180396  1.00086695  1.50000000  1.0
  Tl  Tl5  1  0.49913305  0.28819604  0.50000000  1.0
  Tl  Tl6  1  1.00086695  0.50086695  0.78906299  1.0
  Tl  Tl7  1  0.28819604  0.78819604  0.78906299  1.0
  Tl  Tl8  1  0.00000000  0.00000000  0.00000000  1.0
  Tl  Tl9  1  0.50000000  0.50000000  1.00000000  1.0
  Te  Te10  1  0.34141410  0.84141410  1.18282820  1.0
  Te  Te11  1  0.15858590  0.34141410  0.50000000  1.0
  Te  Te12  1  0.84141410  0.65858590  1.50000000  1.0
  Te  Te13  1  0.65858590  0.15858590  0.81717180  1.0
  I  I14  1  0.75000000  0.75000000  1.00000000  1.0
  I  I15  1  0.25000000  0.25000000  0.00000000  1.0
