# generated using pymatgen
data_Gd2O3
_symmetry_space_group_name_H-M   'P 1'
_cell_length_a   9.41948804
_cell_length_b   9.41948804
_cell_length_c   9.41948804
_cell_angle_alpha   109.47122063
_cell_angle_beta   109.47122063
_cell_angle_gamma   109.47122063
_symmetry_Int_Tables_number   1
_chemical_formula_structural   Gd2O3
_chemical_formula_sum   'Gd16 O24'
_cell_volume   643.36881462
_cell_formula_units_Z   8
loop_
 _symmetry_equiv_pos_site_id
 _symmetry_equiv_pos_as_xyz
  1  'x, y, z'
loop_
 _atom_site_type_symbol
 _atom_site_label
 _atom_site_symmetry_multiplicity
 _atom_site_fract_x
 _atom_site_fract_y
 _atom_site_fract_z
 _atom_site_occupancy
  Gd  Gd0  1  1.21847247  0.96847247  1.25000000  1.0
  Gd  Gd1  1  1.25000000  1.21847247  0.96847247  1.0
  Gd  Gd2  1  0.75000000  1.28152753  0.53152753  1.0
  Gd  Gd3  1  0.96847247  1.25000000  1.21847247  1.0
  Gd  Gd4  1  1.53152753  0.75000000  1.28152753  1.0
  Gd  Gd5  1  1.28152753  0.53152753  0.75000000  1.0
  Gd  Gd6  1  0.71845683  0.46845683  0.25000000  1.0
  Gd  Gd7  1  0.25000000  0.71845683  0.46845683  1.0
  Gd  Gd8  1  0.75000000  0.78154317  1.03154317  1.0
  Gd  Gd9  1  0.46845683  1.25000000  0.71845683  1.0
  Gd  Gd10  1  1.03154317  0.75000000  0.78154317  1.0
  Gd  Gd11  1  0.78154317  1.03154317  0.75000000  1.0
  Gd  Gd12  1  0.50002531  0.50002531  0.50002531  1.0
  Gd  Gd13  1  1.50000000  1.00000000  0.99997469  1.0
  Gd  Gd14  1  1.00000000  0.99997469  1.50000000  1.0
  Gd  Gd15  1  0.99997469  0.50000000  1.00000000  1.0
  O  O16  1  1.04140401  1.27135578  1.01138764  1.0
  O  O17  1  0.75996814  1.03001636  0.48861236  1.0
  O  O18  1  1.01138764  1.04140401  0.27135578  1.0
  O  O19  1  1.27004823  0.74003186  1.22864422  1.0
  O  O20  1  0.27135578  1.01138764  1.04140401  1.0
  O  O21  1  1.46998364  1.22995177  1.45859599  1.0
  O  O22  1  1.74003186  1.22864422  1.27004823  1.0
  O  O23  1  0.45859599  0.46998364  0.22995177  1.0
  O  O24  1  0.22995177  0.45859599  0.46998364  1.0
  O  O25  1  0.48861236  0.75996814  1.03001636  1.0
  O  O26  1  1.03001636  0.48861236  0.75996814  1.0
  O  O27  1  1.22864422  1.27004823  1.74003186  1.0
  O  O28  1  0.98862085  0.95859384  0.72867313  1.0
  O  O29  1  0.72992071  1.25994772  0.77132687  1.0
  O  O30  1  1.72867313  0.98862085  0.95859384  1.0
  O  O31  1  0.53002701  0.77007929  0.54140616  1.0
  O  O32  1  0.95859384  1.72867313  0.98862085  1.0
  O  O33  1  1.24005228  0.96997299  1.51137915  1.0
  O  O34  1  1.77007929  1.54140616  1.53002701  1.0
  O  O35  1  1.51137915  1.24005228  0.96997299  1.0
  O  O36  1  0.96997299  0.51137915  1.24005228  1.0
  O  O37  1  0.77132687  0.72992071  0.25994772  1.0
  O  O38  1  0.25994772  0.77132687  0.72992071  1.0
  O  O39  1  1.54140616  1.53002701  1.77007929  1.0
