# generated using pymatgen
data_MgH12SO9
_symmetry_space_group_name_H-M   'P 1'
_cell_length_a   5.96179995
_cell_length_b   5.96179995
_cell_length_c   5.96179995
_cell_angle_alpha   95.35843310
_cell_angle_beta   95.35843310
_cell_angle_gamma   95.35843311
_symmetry_Int_Tables_number   1
_chemical_formula_structural   MgH12SO9
_chemical_formula_sum   'Mg1 H12 S1 O9'
_cell_volume   208.93532063
_cell_formula_units_Z   1
loop_
 _symmetry_equiv_pos_site_id
 _symmetry_equiv_pos_as_xyz
  1  'x, y, z'
loop_
 _atom_site_type_symbol
 _atom_site_label
 _atom_site_symmetry_multiplicity
 _atom_site_fract_x
 _atom_site_fract_y
 _atom_site_fract_z
 _atom_site_occupancy
  Mg  Mg0  1  0.50121608  0.50121608  0.50121608  1.0
  H  H1  1  1.12899191  -0.29948558  0.31603674  1.0
  H  H2  1  0.70051442  0.31603674  0.12899191  1.0
  H  H3  1  1.31603674  0.12899191  -0.29948558  1.0
  H  H4  1  1.23118349  0.09647504  -0.56153371  1.0
  H  H5  1  1.09647504  -0.56153371  0.23118349  1.0
  H  H6  1  0.43846629  0.23118349  0.09647504  1.0
  H  H7  1  0.76598807  0.86999672  0.36526166  1.0
  H  H8  1  0.86999672  1.36526166  -0.23401193  1.0
  H  H9  1  1.36526166  0.76598807  -0.13000328  1.0
  H  H10  1  1.55147635  -0.04360410  0.47475296  1.0
  H  H11  1  0.95639590  0.47475296  0.55147635  1.0
  H  H12  1  1.47475296  0.55147635  -0.04360410  1.0
  S  S13  1  0.00756514  0.00756514  0.00756514  1.0
  O  O14  1  1.02691607  -0.05188243  0.25797544  1.0
  O  O15  1  0.94811757  0.25797544  0.02691607  1.0
  O  O16  1  1.25797544  0.02691607  -0.05188243  1.0
  O  O17  1  0.62062518  0.81909938  0.42211411  1.0
  O  O18  1  0.81909938  1.42211411  -0.37937482  1.0
  O  O19  1  1.42211411  0.62062518  -0.18090062  1.0
  O  O20  1  1.36200638  0.16617839  -0.45005329  1.0
  O  O21  1  1.16617839  -0.45005329  0.36200638  1.0
  O  O22  1  0.54994671  0.36200638  0.16617839  1.0
