# generated using pymatgen
data_La(Ga4Ru)2
_symmetry_space_group_name_H-M   'P 1'
_cell_length_a   12.75097472
_cell_length_b   14.85261689
_cell_length_c   4.14290532
_cell_angle_alpha   90.00000000
_cell_angle_beta   90.00000000
_cell_angle_gamma   90.00000000
_symmetry_Int_Tables_number   1
_chemical_formula_structural   La(Ga4Ru)2
_chemical_formula_sum   'La4 Ga32 Ru8'
_cell_volume   784.60554178
_cell_formula_units_Z   4
loop_
 _symmetry_equiv_pos_site_id
 _symmetry_equiv_pos_as_xyz
  1  'x, y, z'
loop_
 _atom_site_type_symbol
 _atom_site_label
 _atom_site_symmetry_multiplicity
 _atom_site_fract_x
 _atom_site_fract_y
 _atom_site_fract_z
 _atom_site_occupancy
  La  La0  1  0.15723363  0.81906616  0.00000000  1.0
  La  La1  1  0.65723363  0.68093384  0.00000000  1.0
  La  La2  1  0.84276637  0.18093384  0.00000000  1.0
  La  La3  1  0.34276637  0.31906616  0.00000000  1.0
  Ga  Ga4  1  0.47704931  0.63172396  0.50000000  1.0
  Ga  Ga5  1  0.97704931  0.86827604  0.50000000  1.0
  Ga  Ga6  1  0.52295069  0.36827604  0.50000000  1.0
  Ga  Ga7  1  0.02295069  0.13172396  0.50000000  1.0
  Ga  Ga8  1  0.33073900  0.48665524  0.50000000  1.0
  Ga  Ga9  1  0.83073900  0.01334476  0.50000000  1.0
  Ga  Ga10  1  0.66926100  0.51334476  0.50000000  1.0
  Ga  Ga11  1  0.16926100  -0.01334476  0.50000000  1.0
  Ga  Ga12  1  0.33438266  0.87534230  0.50000000  1.0
  Ga  Ga13  1  0.83438266  0.62465770  0.50000000  1.0
  Ga  Ga14  1  0.66561734  0.12465770  0.50000000  1.0
  Ga  Ga15  1  0.16561734  0.37534230  0.50000000  1.0
  Ga  Ga16  1  0.25853548  0.67519297  0.50000000  1.0
  Ga  Ga17  1  0.75853548  0.82480703  0.50000000  1.0
  Ga  Ga18  1  0.74146452  0.32480703  0.50000000  1.0
  Ga  Ga19  1  0.24146452  0.17519297  0.50000000  1.0
  Ga  Ga20  1  0.04952671  0.68461803  0.50000000  1.0
  Ga  Ga21  1  0.54952671  0.81538197  0.50000000  1.0
  Ga  Ga22  1  0.95047329  0.31538197  0.50000000  1.0
  Ga  Ga23  1  0.45047329  0.18461803  0.50000000  1.0
  Ga  Ga24  1  0.40139864  0.75110021  0.00000000  1.0
  Ga  Ga25  1  0.90139864  0.74889979  0.00000000  1.0
  Ga  Ga26  1  0.59860136  0.24889979  0.00000000  1.0
  Ga  Ga27  1  0.09860136  0.25110021  0.00000000  1.0
  Ga  Ga28  1  0.15942866  0.54412688  0.00000000  1.0
  Ga  Ga29  1  0.65942866  0.95587312  0.00000000  1.0
  Ga  Ga30  1  0.84057134  0.45587312  0.00000000  1.0
  Ga  Ga31  1  0.34057134  0.04412688  0.00000000  1.0
  Ga  Ga32  1  0.50000000  0.00000000  0.50000000  1.0
  Ga  Ga33  1  0.00000000  0.50000000  0.50000000  1.0
  Ga  Ga34  1  0.50000000  0.50000000  0.00000000  1.0
  Ga  Ga35  1  0.00000000  0.00000000  0.00000000  1.0
  Ru  Ru36  1  0.46426827  0.90415437  0.00000000  1.0
  Ru  Ru37  1  0.96426827  0.59584563  0.00000000  1.0
  Ru  Ru38  1  0.53573173  0.09584563  0.00000000  1.0
  Ru  Ru39  1  0.03573173  0.40415437  0.00000000  1.0
  Ru  Ru40  1  0.34557204  0.59508859  0.00000000  1.0
  Ru  Ru41  1  0.84557204  0.90491141  0.00000000  1.0
  Ru  Ru42  1  0.65442796  0.40491141  0.00000000  1.0
  Ru  Ru43  1  0.15442796  0.09508859  0.00000000  1.0
