# generated using pymatgen
data_Zr7P4
_symmetry_space_group_name_H-M   'P 1'
_cell_length_a   8.13459883
_cell_length_b   8.13459883
_cell_length_c   14.81693215
_cell_angle_alpha   75.49564668
_cell_angle_beta   104.50435332
_cell_angle_gamma   154.28887581
_symmetry_Int_Tables_number   1
_chemical_formula_structural   Zr7P4
_chemical_formula_sum   'Zr14 P8'
_cell_volume   411.08254073
_cell_formula_units_Z   2
loop_
 _symmetry_equiv_pos_site_id
 _symmetry_equiv_pos_as_xyz
  1  'x, y, z'
loop_
 _atom_site_type_symbol
 _atom_site_label
 _atom_site_symmetry_multiplicity
 _atom_site_fract_x
 _atom_site_fract_y
 _atom_site_fract_z
 _atom_site_occupancy
  Zr  Zr0  1  0.99582800  0.00417200  0.83280223  1.0
  Zr  Zr1  1  0.00417200  -0.00417200  0.16719777  1.0
  Zr  Zr2  1  0.82382061  0.17617939  0.95798360  1.0
  Zr  Zr3  1  0.17617939  -0.17617939  0.04201640  1.0
  Zr  Zr4  1  0.79514049  0.20485951  0.70333326  1.0
  Zr  Zr5  1  0.20485951  -0.20485951  0.29666674  1.0
  Zr  Zr6  1  0.65978509  0.34021491  0.47031059  1.0
  Zr  Zr7  1  0.34021491  -0.34021491  0.52968941  1.0
  Zr  Zr8  1  0.56803227  0.43196773  0.66733533  1.0
  Zr  Zr9  1  0.43196773  -0.43196773  0.33266467  1.0
  Zr  Zr10  1  0.19539964  -0.19539964  0.81022844  1.0
  Zr  Zr11  1  0.80460036  0.19539964  0.18977156  1.0
  Zr  Zr12  1  0.00000000  -0.00000000  0.50000000  1.0
  Zr  Zr13  1  0.50000000  0.50000000  -0.00000000  1.0
  P  P14  1  0.93698550  0.06301450  0.64738392  1.0
  P  P15  1  0.06301450  -0.06301450  0.35261608  1.0
  P  P16  1  0.82300202  0.17699798  0.38839049  1.0
  P  P17  1  0.17699798  -0.17699798  0.61160951  1.0
  P  P18  1  0.62601122  0.37398878  0.89923078  1.0
  P  P19  1  0.37398878  -0.37398878  0.10076922  1.0
  P  P20  1  0.36948978  -0.36948978  0.84032564  1.0
  P  P21  1  0.63051022  0.36948978  0.15967436  1.0
