# generated using pymatgen
data_C5N4
_symmetry_space_group_name_H-M   'P 1'
_cell_length_a   6.89678971
_cell_length_b   6.89678971
_cell_length_c   6.89678971
_cell_angle_alpha   89.98378667
_cell_angle_beta   89.98378667
_cell_angle_gamma   89.98378667
_symmetry_Int_Tables_number   1
_chemical_formula_structural   C5N4
_chemical_formula_sum   'C10 N8'
_cell_volume   328.05064883
_cell_formula_units_Z   2
loop_
 _symmetry_equiv_pos_site_id
 _symmetry_equiv_pos_as_xyz
  1  'x, y, z'
loop_
 _atom_site_type_symbol
 _atom_site_label
 _atom_site_symmetry_multiplicity
 _atom_site_fract_x
 _atom_site_fract_y
 _atom_site_fract_z
 _atom_site_occupancy
  C  C0  1  1.35078692  1.10012739  0.34724202  1.0
  C  C1  1  0.85078692  0.84724202  -0.39987261  1.0
  C  C2  1  0.60012739  0.85078692  -0.15275798  1.0
  C  C3  1  1.10012739  1.34724202  0.35078692  1.0
  C  C4  1  0.84724202  0.60012739  -0.14921308  1.0
  C  C5  1  1.34724202  1.35078692  0.10012739  1.0
  C  C6  1  1.10014139  1.10014139  0.10014139  1.0
  C  C7  1  0.60014139  0.60014139  -0.39985861  1.0
  C  C8  1  1.22455387  1.22455387  0.22455387  1.0
  C  C9  1  0.72455387  0.72455387  -0.27544613  1.0
  N  N10  1  1.44914080  1.00328848  0.44289865  1.0
  N  N11  1  0.94914080  -0.05710135  -0.49671152  1.0
  N  N12  1  0.50328848  -0.05085920  -0.05710135  1.0
  N  N13  1  1.00328848  1.44289865  0.44914080  1.0
  N  N14  1  0.94289865  -0.49671152  -0.05085920  1.0
  N  N15  1  1.44289865  1.44914080  0.00328848  1.0
  N  N16  1  0.00322048  0.00322048  0.00322048  1.0
  N  N17  1  0.50322048  0.50322048  -0.49677952  1.0
