# generated using pymatgen
data_CdH4S2O5
_symmetry_space_group_name_H-M   'P 1'
_cell_length_a   5.74564702
_cell_length_b   7.26944605
_cell_length_c   14.57511482
_cell_angle_alpha   90.00000000
_cell_angle_beta   100.20689296
_cell_angle_gamma   90.00000000
_symmetry_Int_Tables_number   1
_chemical_formula_structural   CdH4S2O5
_chemical_formula_sum   'Cd4 H16 S8 O20'
_cell_volume   599.13441019
_cell_formula_units_Z   4
loop_
 _symmetry_equiv_pos_site_id
 _symmetry_equiv_pos_as_xyz
  1  'x, y, z'
loop_
 _atom_site_type_symbol
 _atom_site_label
 _atom_site_symmetry_multiplicity
 _atom_site_fract_x
 _atom_site_fract_y
 _atom_site_fract_z
 _atom_site_occupancy
  Cd  Cd0  1  0.86923160  0.84999127  0.31661012  1.0
  Cd  Cd1  1  0.86923160  0.65000873  0.81661012  1.0
  Cd  Cd2  1  0.13076840  0.34999127  0.18338988  1.0
  Cd  Cd3  1  0.13076840  0.15000873  0.68338988  1.0
  H  H4  1  0.80364936  0.36198973  0.00335361  1.0
  H  H5  1  0.80364936  0.13801027  0.50335361  1.0
  H  H6  1  0.19635064  0.86198973  0.49664639  1.0
  H  H7  1  0.19635064  0.63801027  0.99664639  1.0
  H  H8  1  0.65159110  0.65879613  0.45027681  1.0
  H  H9  1  0.65159110  0.84120387  0.95027681  1.0
  H  H10  1  0.34840890  0.15879613  0.04972319  1.0
  H  H11  1  0.34840890  0.34120387  0.54972319  1.0
  H  H12  1  0.63650942  0.36950169  0.07695241  1.0
  H  H13  1  0.63650942  0.13049831  0.57695241  1.0
  H  H14  1  0.36349058  0.86950169  0.42304759  1.0
  H  H15  1  0.36349058  0.63049831  0.92304759  1.0
  H  H16  1  0.26762676  0.14863585  0.49667472  1.0
  H  H17  1  0.26762676  0.35136415  0.99667472  1.0
  H  H18  1  0.73237324  0.64863585  0.00332528  1.0
  H  H19  1  0.73237324  0.85136415  0.50332528  1.0
  S  S20  1  1.00042749  0.49603366  0.32684461  1.0
  S  S21  1  1.00042749  0.00396634  0.82684461  1.0
  S  S22  1  -0.00042749  0.99603366  0.17315539  1.0
  S  S23  1  -0.00042749  0.50396634  0.67315539  1.0
  S  S24  1  0.70027891  0.34087127  0.34140721  1.0
  S  S25  1  0.70027891  0.15912873  0.84140721  1.0
  S  S26  1  0.29972109  0.84087127  0.15859279  1.0
  S  S27  1  0.29972109  0.65912873  0.65859279  1.0
  O  O28  1  0.79642700  0.15898405  0.37784353  1.0
  O  O29  1  0.79642700  0.34101595  0.87784353  1.0
  O  O30  1  0.20357300  0.65898405  0.12215647  1.0
  O  O31  1  0.20357300  0.84101595  0.62215647  1.0
  O  O32  1  0.79194114  0.41446456  0.06509660  1.0
  O  O33  1  0.79194114  0.08553544  0.56509660  1.0
  O  O34  1  0.20805886  0.91446456  0.43490340  1.0
  O  O35  1  0.20805886  0.58553544  0.93490340  1.0
  O  O36  1  0.66777958  0.79380757  0.44292829  1.0
  O  O37  1  0.66777958  0.70619243  0.94292829  1.0
  O  O38  1  0.33222042  0.29380757  0.05707171  1.0
  O  O39  1  0.33222042  0.20619243  0.55707171  1.0
  O  O40  1  0.58940052  0.43669123  0.41131196  1.0
  O  O41  1  0.58940052  0.06330877  0.91131196  1.0
  O  O42  1  0.41059948  0.93669123  0.08868804  1.0
  O  O43  1  0.41059948  0.56330877  0.58868804  1.0
  O  O44  1  0.54794118  0.32231809  0.24881899  1.0
  O  O45  1  0.54794118  0.17768191  0.74881899  1.0
  O  O46  1  0.45205882  0.82231809  0.25118101  1.0
  O  O47  1  0.45205882  0.67768191  0.75118101  1.0
