# generated using pymatgen
data_Ca5(GaAs3)2
_symmetry_space_group_name_H-M   'P 1'
_cell_length_a   11.42837817
_cell_length_b   13.25001188
_cell_length_c   4.17659905
_cell_angle_alpha   90.00000000
_cell_angle_beta   90.00000000
_cell_angle_gamma   90.00000000
_symmetry_Int_Tables_number   1
_chemical_formula_structural   Ca5(GaAs3)2
_chemical_formula_sum   'Ca10 Ga4 As12'
_cell_volume   632.44630006
_cell_formula_units_Z   2
loop_
 _symmetry_equiv_pos_site_id
 _symmetry_equiv_pos_as_xyz
  1  'x, y, z'
loop_
 _atom_site_type_symbol
 _atom_site_label
 _atom_site_symmetry_multiplicity
 _atom_site_fract_x
 _atom_site_fract_y
 _atom_site_fract_z
 _atom_site_occupancy
  Ca  Ca0  1  0.41105999  0.75151610  0.00000000  1.0
  Ca  Ca1  1  0.91105999  0.74848390  0.00000000  1.0
  Ca  Ca2  1  0.58894001  0.24848390  0.00000000  1.0
  Ca  Ca3  1  0.08894001  0.25151610  0.00000000  1.0
  Ca  Ca4  1  0.17417128  0.51566524  0.00000000  1.0
  Ca  Ca5  1  0.67417128  0.98433476  0.00000000  1.0
  Ca  Ca6  1  0.82582872  0.48433476  0.00000000  1.0
  Ca  Ca7  1  0.32582872  0.01566524  0.00000000  1.0
  Ca  Ca8  1  0.50000000  0.50000000  0.00000000  1.0
  Ca  Ca9  1  0.00000000  0.00000000  0.00000000  1.0
  Ga  Ga10  1  0.17185871  0.71284980  0.50000000  1.0
  Ga  Ga11  1  0.67185871  0.78715020  0.50000000  1.0
  Ga  Ga12  1  0.82814129  0.28715020  0.50000000  1.0
  Ga  Ga13  1  0.32814129  0.21284980  0.50000000  1.0
  As  As14  1  0.47918623  0.90645666  0.50000000  1.0
  As  As15  1  0.97918623  0.59354334  0.50000000  1.0
  As  As16  1  0.52081377  0.09354334  0.50000000  1.0
  As  As17  1  0.02081377  0.40645666  0.50000000  1.0
  As  As18  1  0.34480704  0.59689658  0.50000000  1.0
  As  As19  1  0.84480704  0.90310342  0.50000000  1.0
  As  As20  1  0.65519296  0.40310342  0.50000000  1.0
  As  As21  1  0.15519296  0.09689658  0.50000000  1.0
  As  As22  1  0.16155190  0.82034824  0.00000000  1.0
  As  As23  1  0.66155190  0.67965176  0.00000000  1.0
  As  As24  1  0.83844810  0.17965176  0.00000000  1.0
  As  As25  1  0.33844810  0.32034824  0.00000000  1.0
