# generated using pymatgen
data_CdI2
_symmetry_space_group_name_H-M   'P 1'
_cell_length_a   4.32804425
_cell_length_b   4.32804425
_cell_length_c   83.43214430
_cell_angle_alpha   90.00000000
_cell_angle_beta   90.00000000
_cell_angle_gamma   120.00000000
_symmetry_Int_Tables_number   1
_chemical_formula_structural   CdI2
_chemical_formula_sum   'Cd11 I22'
_cell_volume   1353.46622114
_cell_formula_units_Z   11
loop_
 _symmetry_equiv_pos_site_id
 _symmetry_equiv_pos_as_xyz
  1  'x, y, z'
loop_
 _atom_site_type_symbol
 _atom_site_label
 _atom_site_symmetry_multiplicity
 _atom_site_fract_x
 _atom_site_fract_y
 _atom_site_fract_z
 _atom_site_occupancy
  Cd  Cd0  1  0.00000000  0.00000000  0.02274768  1.0
  Cd  Cd1  1  0.00000000  0.00000000  0.11364165  1.0
  Cd  Cd2  1  0.00000000  0.00000000  0.20455807  1.0
  Cd  Cd3  1  0.00000000  0.00000000  0.29545366  1.0
  Cd  Cd4  1  0.00000000  0.00000000  0.56817603  1.0
  Cd  Cd5  1  0.00000000  0.00000000  0.75001441  1.0
  Cd  Cd6  1  0.00000000  0.00000000  0.84088978  1.0
  Cd  Cd7  1  0.66666667  0.33333333  0.38637953  1.0
  Cd  Cd8  1  0.66666667  0.33333333  0.47725219  1.0
  Cd  Cd9  1  0.66666667  0.33333333  0.65909554  1.0
  Cd  Cd10  1  0.33333333  0.66666667  0.93182322  1.0
  I  I11  1  0.00000000  0.00000000  0.40698665  1.0
  I  I12  1  0.00000000  0.00000000  0.49786075  1.0
  I  I13  1  0.00000000  0.00000000  0.67969352  1.0
  I  I14  1  0.00000000  0.00000000  0.91121586  1.0
  I  I15  1  0.66666667  0.33333333  0.04335306  1.0
  I  I16  1  0.66666667  0.33333333  0.13424649  1.0
  I  I17  1  0.66666667  0.33333333  0.22516652  1.0
  I  I18  1  0.66666667  0.33333333  0.31606283  1.0
  I  I19  1  0.66666667  0.33333333  0.58878345  1.0
  I  I20  1  0.66666667  0.33333333  0.77061187  1.0
  I  I21  1  0.66666667  0.33333333  0.86148718  1.0
  I  I22  1  0.66666667  0.33333333  0.95242711  1.0
  I  I23  1  0.33333333  0.66666667  0.00213883  1.0
  I  I24  1  0.33333333  0.66666667  0.09303285  1.0
  I  I25  1  0.33333333  0.66666667  0.18395294  1.0
  I  I26  1  0.33333333  0.66666667  0.27484844  1.0
  I  I27  1  0.33333333  0.66666667  0.36577562  1.0
  I  I28  1  0.33333333  0.66666667  0.45664683  1.0
  I  I29  1  0.33333333  0.66666667  0.54757236  1.0
  I  I30  1  0.33333333  0.66666667  0.63849737  1.0
  I  I31  1  0.33333333  0.66666667  0.72941619  1.0
  I  I32  1  0.33333333  0.66666667  0.82029152  1.0
