# generated using pymatgen
data_Na3BiO3
_symmetry_space_group_name_H-M   'P 1'
_cell_length_a   8.47487685
_cell_length_b   8.47487685
_cell_length_c   8.47487685
_cell_angle_alpha   109.47122063
_cell_angle_beta   109.47122063
_cell_angle_gamma   109.47122063
_symmetry_Int_Tables_number   1
_chemical_formula_structural   Na3BiO3
_chemical_formula_sum   'Na12 Bi4 O12'
_cell_volume   468.57411888
_cell_formula_units_Z   4
loop_
 _symmetry_equiv_pos_site_id
 _symmetry_equiv_pos_as_xyz
  1  'x, y, z'
loop_
 _atom_site_type_symbol
 _atom_site_label
 _atom_site_symmetry_multiplicity
 _atom_site_fract_x
 _atom_site_fract_y
 _atom_site_fract_z
 _atom_site_occupancy
  Na  Na0  1  0.24666487  0.52510382  0.52510382  1.0
  Na  Na1  1  0.52510382  0.24666487  0.52510382  1.0
  Na  Na2  1  1.00000000  0.72156105  1.47489618  1.0
  Na  Na3  1  0.72156105  1.00000000  1.47489618  1.0
  Na  Na4  1  0.52510382  0.52510382  0.24666487  1.0
  Na  Na5  1  1.27843895  1.27843895  0.75333513  1.0
  Na  Na6  1  1.00000000  1.47489618  0.72156105  1.0
  Na  Na7  1  1.27843895  0.75333513  1.27843895  1.0
  Na  Na8  1  0.75333513  1.27843895  1.27843895  1.0
  Na  Na9  1  1.47489618  1.00000000  0.72156105  1.0
  Na  Na10  1  0.72156105  1.47489618  1.00000000  1.0
  Na  Na11  1  1.47489618  0.72156105  1.00000000  1.0
  Bi  Bi12  1  0.71456496  0.71456496  0.71456496  1.0
  Bi  Bi13  1  1.00000000  1.00000000  0.28543504  1.0
  Bi  Bi14  1  1.00000000  0.28543504  1.00000000  1.0
  Bi  Bi15  1  0.28543504  1.00000000  1.00000000  1.0
  O  O16  1  0.74372718  0.51666453  0.51666453  1.0
  O  O17  1  0.51666453  0.74372718  0.51666453  1.0
  O  O18  1  1.00000000  1.22706265  0.48333547  1.0
  O  O19  1  1.22706265  1.00000000  0.48333547  1.0
  O  O20  1  0.51666453  0.51666453  0.74372718  1.0
  O  O21  1  0.77293735  0.77293735  0.25627282  1.0
  O  O22  1  1.00000000  0.48333547  1.22706265  1.0
  O  O23  1  0.77293735  0.25627282  0.77293735  1.0
  O  O24  1  0.25627282  0.77293735  0.77293735  1.0
  O  O25  1  0.48333547  1.00000000  1.22706265  1.0
  O  O26  1  1.22706265  0.48333547  1.00000000  1.0
  O  O27  1  0.48333547  1.22706265  1.00000000  1.0
