# generated using pymatgen
data_Fe2TeO6
_symmetry_space_group_name_H-M   'P 1'
_cell_length_a   4.54816359
_cell_length_b   4.54816359
_cell_length_c   9.17262165
_cell_angle_alpha   90.00000000
_cell_angle_beta   90.00000000
_cell_angle_gamma   90.00000000
_symmetry_Int_Tables_number   1
_chemical_formula_structural   Fe2TeO6
_chemical_formula_sum   'Fe4 Te2 O12'
_cell_volume   189.74294380
_cell_formula_units_Z   2
loop_
 _symmetry_equiv_pos_site_id
 _symmetry_equiv_pos_as_xyz
  1  'x, y, z'
loop_
 _atom_site_type_symbol
 _atom_site_label
 _atom_site_symmetry_multiplicity
 _atom_site_fract_x
 _atom_site_fract_y
 _atom_site_fract_z
 _atom_site_occupancy
  O  O0  1  0.20135178  0.79864822  0.17777187  1.0
  O  O1  1  0.20135178  0.79864822  0.82222813  1.0
  O  O2  1  0.70135178  0.70135178  0.67777187  1.0
  O  O3  1  0.70135178  0.70135178  0.32222813  1.0
  O  O4  1  0.79864822  0.20135178  0.17777187  1.0
  O  O5  1  0.79864822  0.20135178  0.82222813  1.0
  O  O6  1  0.29864822  0.29864822  0.67777187  1.0
  O  O7  1  0.29864822  0.29864822  0.32222813  1.0
  O  O8  1  0.17689045  0.82310955  0.50000000  1.0
  O  O9  1  0.67689045  0.67689045  0.00000000  1.0
  O  O10  1  0.82310955  0.17689045  0.50000000  1.0
  O  O11  1  0.32310955  0.32310955  0.00000000  1.0
  Fe  Fe12  1  0.50000000  0.50000000  0.16798676  1.0
  Fe  Fe13  1  0.50000000  0.50000000  0.83201324  1.0
  Fe  Fe14  1  0.00000000  0.00000000  0.66798676  1.0
  Fe  Fe15  1  0.00000000  0.00000000  0.33201324  1.0
  Te  Te16  1  0.50000000  0.50000000  0.50000000  1.0
  Te  Te17  1  0.00000000  0.00000000  0.00000000  1.0
