# generated using pymatgen
data_PI2
_symmetry_space_group_name_H-M   'P 1'
_cell_length_a   7.46023746
_cell_length_b   7.70089726
_cell_length_c   5.09011019
_cell_angle_alpha   79.63026308
_cell_angle_beta   73.47022704
_cell_angle_gamma   80.02260813
_symmetry_Int_Tables_number   1
_chemical_formula_structural   PI2
_chemical_formula_sum   'P2 I4'
_cell_volume   273.44570874
_cell_formula_units_Z   2
loop_
 _symmetry_equiv_pos_site_id
 _symmetry_equiv_pos_as_xyz
  1  'x, y, z'
loop_
 _atom_site_type_symbol
 _atom_site_label
 _atom_site_symmetry_multiplicity
 _atom_site_fract_x
 _atom_site_fract_y
 _atom_site_fract_z
 _atom_site_occupancy
  P  P0  1  -0.53354926  -0.86981309  -0.41352052  1.0
  P  P1  1  -0.46645074  -0.13018691  -0.58647948  1.0
  I  I2  1  -0.30159485  -0.71646364  -0.80420996  1.0
  I  I3  1  -0.69840515  -0.28353636  -0.19579004  1.0
  I  I4  1  -0.83266048  -0.77747262  -0.55957214  1.0
  I  I5  1  -0.16733952  -0.22252738  -0.44042786  1.0
