# generated using pymatgen
data_VPO4
_symmetry_space_group_name_H-M   'P 1'
_cell_length_a   4.74698822
_cell_length_b   4.74698822
_cell_length_c   6.40785777
_cell_angle_alpha   90.00000000
_cell_angle_beta   90.00000000
_cell_angle_gamma   112.63368799
_symmetry_Int_Tables_number   1
_chemical_formula_structural   VPO4
_chemical_formula_sum   'V2 P2 O8'
_cell_volume   133.27337407
_cell_formula_units_Z   2
loop_
 _symmetry_equiv_pos_site_id
 _symmetry_equiv_pos_as_xyz
  1  'x, y, z'
loop_
 _atom_site_type_symbol
 _atom_site_label
 _atom_site_symmetry_multiplicity
 _atom_site_fract_x
 _atom_site_fract_y
 _atom_site_fract_z
 _atom_site_occupancy
  V  V0  1  0.00000000  0.00000000  0.50000000  1.0
  V  V1  1  0.00000000  0.00000000  0.00000000  1.0
  P  P2  1  0.34805763  0.65194237  0.25000000  1.0
  P  P3  1  -0.34805763  1.34805763  0.75000000  1.0
  O  O4  1  0.21816891  0.29088881  0.25000000  1.0
  O  O5  1  -0.70911119  1.21816891  0.75000000  1.0
  O  O6  1  0.70911119  0.78183109  0.25000000  1.0
  O  O7  1  -0.21816891  1.70911119  0.75000000  1.0
  O  O8  1  0.24106478  0.75893522  0.45040229  1.0
  O  O9  1  0.24106478  0.75893522  0.04959771  1.0
  O  O10  1  -0.24106478  1.24106478  0.95040229  1.0
  O  O11  1  -0.24106478  1.24106478  0.54959771  1.0
