# generated using pymatgen
data_TlCuO2
_symmetry_space_group_name_H-M   'P 1'
_cell_length_a   5.82073124
_cell_length_b   5.45325834
_cell_length_c   5.84665722
_cell_angle_alpha   90.00000000
_cell_angle_beta   120.32248916
_cell_angle_gamma   90.00000000
_symmetry_Int_Tables_number   1
_chemical_formula_structural   TlCuO2
_chemical_formula_sum   'Tl2 Cu2 O4'
_cell_volume   160.19590182
_cell_formula_units_Z   2
loop_
 _symmetry_equiv_pos_site_id
 _symmetry_equiv_pos_as_xyz
  1  'x, y, z'
loop_
 _atom_site_type_symbol
 _atom_site_label
 _atom_site_symmetry_multiplicity
 _atom_site_fract_x
 _atom_site_fract_y
 _atom_site_fract_z
 _atom_site_occupancy
  Tl  Tl0  1  0.69609638  0.75000000  0.84717269  1.0
  Tl  Tl1  1  0.30390362  0.25000000  0.15282731  1.0
  Cu  Cu2  1  0.01170628  0.75000000  0.50588989  1.0
  Cu  Cu3  1  0.98829372  0.25000000  0.49411011  1.0
  O  O4  1  0.00024005  0.49999028  0.71266671  1.0
  O  O5  1  -0.00024005  -0.00000972  0.28733329  1.0
  O  O6  1  -0.00024005  0.50000972  0.28733329  1.0
  O  O7  1  0.00024005  0.00000972  0.71266671  1.0
