# generated using pymatgen
data_LaAl
_symmetry_space_group_name_H-M   'P 1'
_cell_length_a   6.13289311
_cell_length_b   6.13289311
_cell_length_c   5.77358984
_cell_angle_alpha   90.00000000
_cell_angle_beta   90.00000000
_cell_angle_gamma   78.57717266
_symmetry_Int_Tables_number   1
_chemical_formula_structural   LaAl
_chemical_formula_sum   'La4 Al4'
_cell_volume   212.85704383
_cell_formula_units_Z   4
loop_
 _symmetry_equiv_pos_site_id
 _symmetry_equiv_pos_as_xyz
  1  'x, y, z'
loop_
 _atom_site_type_symbol
 _atom_site_label
 _atom_site_symmetry_multiplicity
 _atom_site_fract_x
 _atom_site_fract_y
 _atom_site_fract_z
 _atom_site_occupancy
  La  La0  1  -0.15862163  1.51512151  0.25000000  1.0
  La  La1  1  0.51512151  0.84137837  0.75000000  1.0
  La  La2  1  -0.51512151  1.15862163  0.25000000  1.0
  La  La3  1  0.15862163  0.48487849  0.75000000  1.0
  Al  Al4  1  0.30295255  0.69704745  0.25000000  1.0
  Al  Al5  1  -0.30295255  1.30295255  0.75000000  1.0
  Al  Al6  1  0.00000000  0.00000000  0.50000000  1.0
  Al  Al7  1  0.00000000  0.00000000  0.00000000  1.0
