# generated using pymatgen
data_Hf3(CuSi)4
_symmetry_space_group_name_H-M   'P 1'
_cell_length_a   7.51569800
_cell_length_b   7.51569800
_cell_length_c   7.51569800
_cell_angle_alpha   149.75255002
_cell_angle_beta   129.72331693
_cell_angle_gamma   59.80537916
_symmetry_Int_Tables_number   1
_chemical_formula_structural   Hf3(CuSi)4
_chemical_formula_sum   'Hf3 Cu4 Si4'
_cell_volume   163.15287743
_cell_formula_units_Z   1
loop_
 _symmetry_equiv_pos_site_id
 _symmetry_equiv_pos_as_xyz
  1  'x, y, z'
loop_
 _atom_site_type_symbol
 _atom_site_label
 _atom_site_symmetry_multiplicity
 _atom_site_fract_x
 _atom_site_fract_y
 _atom_site_fract_z
 _atom_site_occupancy
  Hf  Hf0  1  0.62366947  0.12366947  0.50000000  1.0
  Hf  Hf1  1  0.37633053  0.87633053  0.50000000  1.0
  Hf  Hf2  1  0.00000000  0.00000000  0.00000000  1.0
  Cu  Cu3  1  0.36340661  0.67004131  0.69336530  1.0
  Cu  Cu4  1  1.02332399  0.32995869  0.69336530  1.0
  Cu  Cu5  1  0.97667601  0.67004131  1.30663470  1.0
  Cu  Cu6  1  0.63659339  0.32995869  0.30663470  1.0
  Si  Si7  1  0.78430157  0.78430157  1.00000000  1.0
  Si  Si8  1  0.21569843  0.21569843  -0.00000000  1.0
  Si  Si9  1  0.30805919  0.50000000  0.80805919  1.0
  Si  Si10  1  0.69194081  0.50000000  1.19194081  1.0
