# generated using pymatgen
data_Sb10Pb10(S8Cl)3
_symmetry_space_group_name_H-M   'P 1'
_cell_length_a   15.52828727
_cell_length_b   3.99477428
_cell_length_c   20.01573619
_cell_angle_alpha   90.00000000
_cell_angle_beta   95.24911660
_cell_angle_gamma   90.00000000
_symmetry_Int_Tables_number   1
_chemical_formula_structural   Sb10Pb10(S8Cl)3
_chemical_formula_sum   'Sb10 Pb10 S24 Cl3'
_cell_volume   1236.40927994
_cell_formula_units_Z   1
loop_
 _symmetry_equiv_pos_site_id
 _symmetry_equiv_pos_as_xyz
  1  'x, y, z'
loop_
 _atom_site_type_symbol
 _atom_site_label
 _atom_site_symmetry_multiplicity
 _atom_site_fract_x
 _atom_site_fract_y
 _atom_site_fract_z
 _atom_site_occupancy
  Sb  Sb0  1  0.98076269  0.00000000  0.77585201  1.0
  Sb  Sb1  1  0.01923731  0.00000000  0.22414799  1.0
  Sb  Sb2  1  0.91223754  0.00000000  0.41317702  1.0
  Sb  Sb3  1  0.08776246  0.00000000  0.58682298  1.0
  Sb  Sb4  1  0.82883695  0.00000000  0.61286864  1.0
  Sb  Sb5  1  0.17116305  0.00000000  0.38713136  1.0
  Sb  Sb6  1  0.49113042  0.00000000  0.82001105  1.0
  Sb  Sb7  1  0.50886958  0.00000000  0.17998895  1.0
  Sb  Sb8  1  0.36115630  0.00000000  0.99076074  1.0
  Sb  Sb9  1  0.63884370  0.00000000  0.00923926  1.0
  Pb  Pb10  1  0.78115847  0.50000000  0.25376474  1.0
  Pb  Pb11  1  0.21884153  0.50000000  0.74623526  1.0
  Pb  Pb12  1  0.73535332  0.50000000  0.85410717  1.0
  Pb  Pb13  1  0.26464668  0.50000000  0.14589283  1.0
  Pb  Pb14  1  0.68550479  0.50000000  0.45352666  1.0
  Pb  Pb15  1  0.31449521  0.50000000  0.54647334  1.0
  Pb  Pb16  1  0.59036135  0.50000000  0.65707492  1.0
  Pb  Pb17  1  0.40963865  0.50000000  0.34292508  1.0
  Pb  Pb18  1  0.11916625  0.50000000  0.93965354  1.0
  Pb  Pb19  1  0.88083375  0.50000000  0.06034646  1.0
  S  S20  1  0.94843029  0.50000000  0.32144672  1.0
  S  S21  1  0.05156971  0.50000000  0.67855328  1.0
  S  S22  1  0.94427364  0.50000000  0.85267455  1.0
  S  S23  1  0.05572636  0.50000000  0.14732545  1.0
  S  S24  1  0.86698048  0.50000000  0.49892233  1.0
  S  S25  1  0.13301952  0.50000000  0.50107767  1.0
  S  S26  1  0.79426403  0.50000000  0.69006037  1.0
  S  S27  1  0.20573597  0.50000000  0.30993963  1.0
  S  S28  1  0.57612130  0.50000000  0.91649676  1.0
  S  S29  1  0.42387870  0.50000000  0.08350324  1.0
  S  S30  1  0.43420880  0.50000000  0.74396566  1.0
  S  S31  1  0.56579120  0.50000000  0.25603434  1.0
  S  S32  1  0.31087327  0.50000000  0.90931252  1.0
  S  S33  1  0.68912673  0.50000000  0.09068748  1.0
  S  S34  1  0.86800108  0.00000000  0.16962869  1.0
  S  S35  1  0.13199892  0.00000000  0.83037131  1.0
  S  S36  1  0.76152688  0.00000000  0.36008803  1.0
  S  S37  1  0.23847312  0.00000000  0.63991197  1.0
  S  S38  1  0.77794038  0.00000000  0.95952874  1.0
  S  S39  1  0.22205962  0.00000000  0.04047126  1.0
  S  S40  1  0.67973254  0.00000000  0.56090199  1.0
  S  S41  1  0.32026746  0.00000000  0.43909801  1.0
  S  S42  1  0.62971579  0.00000000  0.76697789  1.0
  S  S43  1  0.37028421  0.00000000  0.23302211  1.0
  Cl  Cl44  1  0.46546517  0.00000000  0.59266912  1.0
  Cl  Cl45  1  0.53453483  0.00000000  0.40733088  1.0
  Cl  Cl46  1  0.00000000  0.00000000  0.00000000  1.0
