# generated using pymatgen
data_AlO3
_symmetry_space_group_name_H-M   'P 1'
_cell_length_a   10.34972754
_cell_length_b   9.51453524
_cell_length_c   5.48481932
_cell_angle_alpha   90.00000000
_cell_angle_beta   90.42606093
_cell_angle_gamma   90.00000000
_symmetry_Int_Tables_number   1
_chemical_formula_structural   AlO3
_chemical_formula_sum   'Al8 O24'
_cell_volume   540.09084300
_cell_formula_units_Z   8
loop_
 _symmetry_equiv_pos_site_id
 _symmetry_equiv_pos_as_xyz
  1  'x, y, z'
loop_
 _atom_site_type_symbol
 _atom_site_label
 _atom_site_symmetry_multiplicity
 _atom_site_fract_x
 _atom_site_fract_y
 _atom_site_fract_z
 _atom_site_occupancy
  Al  Al0  1  0.99999786  0.16660481  0.50002687  1.0
  Al  Al1  1  0.99999786  0.33339519  1.00002687  1.0
  Al  Al2  1  0.00000214  0.66660481  -0.00002687  1.0
  Al  Al3  1  0.00000214  0.83339519  0.49997313  1.0
  Al  Al4  1  0.50004563  0.16659912  -0.00002276  1.0
  Al  Al5  1  0.50004563  0.33340088  0.49997724  1.0
  Al  Al6  1  0.49995437  0.66659912  0.50002276  1.0
  Al  Al7  1  0.49995437  0.83340088  1.00002276  1.0
  O  O8  1  0.90988715  0.71097232  0.28796935  1.0
  O  O9  1  0.90988715  0.78902768  0.78796935  1.0
  O  O10  1  0.09011285  0.21097232  0.21203065  1.0
  O  O11  1  0.09011285  0.28902768  0.71203065  1.0
  O  O12  1  0.90983664  1.00000163  0.42163852  1.0
  O  O13  1  0.90983664  0.49999837  0.92163852  1.0
  O  O14  1  0.09016336  0.50000163  0.07836148  1.0
  O  O15  1  0.09016336  -0.00000163  0.57836148  1.0
  O  O16  1  0.90987373  0.28900897  0.28800417  1.0
  O  O17  1  0.90987373  0.21099103  0.78800417  1.0
  O  O18  1  0.09012627  0.78900897  0.21199583  1.0
  O  O19  1  0.09012627  0.71099103  0.71199583  1.0
  O  O20  1  0.59019413  0.50003640  0.42430955  1.0
  O  O21  1  0.59019413  -0.00003640  0.92430955  1.0
  O  O22  1  0.40980587  1.00003640  0.07569045  1.0
  O  O23  1  0.40980587  0.49996360  0.57569045  1.0
  O  O24  1  0.59012585  0.21100813  0.29049590  1.0
  O  O25  1  0.59012585  0.28899187  0.79049590  1.0
  O  O26  1  0.40987415  0.71100813  0.20950410  1.0
  O  O27  1  0.40987415  0.78899187  0.70950410  1.0
  O  O28  1  0.40985704  0.28896126  0.20949285  1.0
  O  O29  1  0.40985704  0.21103874  0.70949285  1.0
  O  O30  1  0.59014296  0.78896126  0.29050715  1.0
  O  O31  1  0.59014296  0.71103874  0.79050715  1.0
