# generated using pymatgen
data_Zr2P2O9
_symmetry_space_group_name_H-M   'P 1'
_cell_length_a   7.74907995
_cell_length_b   7.74907995
_cell_length_c   10.36235931
_cell_angle_alpha   52.80580740
_cell_angle_beta   127.19419260
_cell_angle_gamma   129.17631543
_symmetry_Int_Tables_number   1
_chemical_formula_structural   Zr2P2O9
_chemical_formula_sum   'Zr4 P4 O18'
_cell_volume   358.40536748
_cell_formula_units_Z   2
loop_
 _symmetry_equiv_pos_site_id
 _symmetry_equiv_pos_as_xyz
  1  'x, y, z'
loop_
 _atom_site_type_symbol
 _atom_site_label
 _atom_site_symmetry_multiplicity
 _atom_site_fract_x
 _atom_site_fract_y
 _atom_site_fract_z
 _atom_site_occupancy
  Zr  Zr0  1  0.81505196  0.18494804  0.86384004  1.0
  Zr  Zr1  1  1.18494804  -0.18494804  0.13615996  1.0
  Zr  Zr2  1  1.44360602  -0.44360602  0.59641429  1.0
  Zr  Zr3  1  0.55639398  0.44360602  0.40358571  1.0
  P  P4  1  0.90594872  -0.90594872  0.66698585  1.0
  P  P5  1  0.09405128  -0.09405128  0.33301415  1.0
  P  P6  1  0.32998035  -0.32998035  0.96294719  1.0
  P  P7  1  0.67001965  -0.67001965  0.03705281  1.0
  O  O8  1  1.73837270  -0.11692725  0.60559246  1.0
  O  O9  1  1.11692725  -0.73837270  0.60559246  1.0
  O  O10  1  0.88307275  0.73837270  0.39440754  1.0
  O  O11  1  0.26162730  0.11692725  0.39440754  1.0
  O  O12  1  0.50521697  -0.12527573  0.86455221  1.0
  O  O13  1  1.12527573  0.49478303  0.86455221  1.0
  O  O14  1  0.87472427  -0.49478303  0.13544779  1.0
  O  O15  1  1.49478303  0.12527573  0.13544779  1.0
  O  O16  1  0.98363582  -0.98363582  0.86742004  1.0
  O  O17  1  0.01636418  -0.01636418  0.13257996  1.0
  O  O18  1  0.76640268  0.23359732  0.60079521  1.0
  O  O19  1  1.23359732  -0.23359732  0.39920479  1.0
  O  O20  1  0.61309449  0.38690551  0.65488045  1.0
  O  O21  1  1.38690551  -0.38690551  0.34511955  1.0
  O  O22  1  0.53386403  0.46613597  0.85250775  1.0
  O  O23  1  1.46613597  -0.46613597  0.14749225  1.0
  O  O24  1  0.22734926  -0.22734926  0.97907924  1.0
  O  O25  1  0.77265074  -0.77265074  0.02092076  1.0
