# generated using pymatgen
data_TlB3O5
_symmetry_space_group_name_H-M   'P 1'
_cell_length_a   5.55250956
_cell_length_b   8.42568841
_cell_length_c   10.39802284
_cell_angle_alpha   90.00000000
_cell_angle_beta   90.00000000
_cell_angle_gamma   90.00000000
_symmetry_Int_Tables_number   1
_chemical_formula_structural   TlB3O5
_chemical_formula_sum   'Tl4 B12 O20'
_cell_volume   486.45814163
_cell_formula_units_Z   4
loop_
 _symmetry_equiv_pos_site_id
 _symmetry_equiv_pos_as_xyz
  1  'x, y, z'
loop_
 _atom_site_type_symbol
 _atom_site_label
 _atom_site_symmetry_multiplicity
 _atom_site_fract_x
 _atom_site_fract_y
 _atom_site_fract_z
 _atom_site_occupancy
  Tl  Tl0  1  0.45597262  0.75105084  0.14252373  1.0
  Tl  Tl1  1  0.95597262  0.74894916  0.85747627  1.0
  Tl  Tl2  1  0.54402738  0.25105084  0.35747627  1.0
  Tl  Tl3  1  0.04402738  0.24894916  0.64252373  1.0
  B  B4  1  0.46830466  0.42665079  0.80228710  1.0
  B  B5  1  0.96830466  0.07334921  0.19771290  1.0
  B  B6  1  0.53169534  0.92665079  0.69771290  1.0
  B  B7  1  0.03169534  0.57334921  0.30228710  1.0
  B  B8  1  0.41913089  0.64465874  0.64020828  1.0
  B  B9  1  0.91913089  0.85534126  0.35979172  1.0
  B  B10  1  0.58086911  0.14465874  0.85979172  1.0
  B  B11  1  0.08086911  0.35534126  0.14020828  1.0
  B  B12  1  0.21286656  0.87687030  0.54377421  1.0
  B  B13  1  0.71286656  0.62312970  0.45622579  1.0
  B  B14  1  0.78713344  0.37687030  0.95622579  1.0
  B  B15  1  0.28713344  0.12312970  0.04377421  1.0
  O  O16  1  0.43331220  0.26681003  0.79063726  1.0
  O  O17  1  0.93331220  0.23318997  0.20936274  1.0
  O  O18  1  0.56668780  0.76681003  0.70936274  1.0
  O  O19  1  0.06668780  0.73318997  0.29063726  1.0
  O  O20  1  0.35332277  0.98522428  0.61578991  1.0
  O  O21  1  0.85332277  0.51477572  0.38421009  1.0
  O  O22  1  0.64667723  0.48522428  0.88421009  1.0
  O  O23  1  0.14667723  0.01477572  0.11578991  1.0
  O  O24  1  0.32356468  0.52778174  0.73319406  1.0
  O  O25  1  0.82356468  0.97221826  0.26680594  1.0
  O  O26  1  0.67643532  0.02778174  0.76680594  1.0
  O  O27  1  0.17643532  0.47221826  0.23319406  1.0
  O  O28  1  0.21444652  0.71957325  0.57470667  1.0
  O  O29  1  0.71444652  0.78042675  0.42529333  1.0
  O  O30  1  0.78555348  0.21957325  0.92529333  1.0
  O  O31  1  0.28555348  0.28042675  0.07470667  1.0
  O  O32  1  0.92720327  0.44332113  0.04869371  1.0
  O  O33  1  0.42720327  0.05667887  0.95130629  1.0
  O  O34  1  0.07279673  0.94332113  0.45130629  1.0
  O  O35  1  0.57279673  0.55667887  0.54869371  1.0
