# generated using pymatgen
data_RbYS2
_symmetry_space_group_name_H-M   'P 1'
_cell_length_a   8.03884248
_cell_length_b   8.03884248
_cell_length_c   8.03884248
_cell_angle_alpha   29.36875043
_cell_angle_beta   29.36875043
_cell_angle_gamma   29.36875043
_symmetry_Int_Tables_number   1
_chemical_formula_structural   RbYS2
_chemical_formula_sum   'Rb1 Y1 S2'
_cell_volume   110.57486621
_cell_formula_units_Z   1
loop_
 _symmetry_equiv_pos_site_id
 _symmetry_equiv_pos_as_xyz
  1  'x, y, z'
loop_
 _atom_site_type_symbol
 _atom_site_label
 _atom_site_symmetry_multiplicity
 _atom_site_fract_x
 _atom_site_fract_y
 _atom_site_fract_z
 _atom_site_occupancy
  Rb  Rb0  1  0.00000000  0.00000000  0.00000000  1.0
  Y  Y1  1  1.50000000  0.50000000  0.50000000  1.0
  S  S2  1  0.76935896  0.76935896  0.76935896  1.0
  S  S3  1  1.23064104  1.23064104  0.23064104  1.0
