# generated using pymatgen
data_LaMoO2
_symmetry_space_group_name_H-M   'P 1'
_cell_length_a   7.50493951
_cell_length_b   7.50493951
_cell_length_c   7.50493951
_cell_angle_alpha   130.21848558
_cell_angle_beta   130.21848558
_cell_angle_gamma   73.05772057
_symmetry_Int_Tables_number   1
_chemical_formula_structural   LaMoO2
_chemical_formula_sum   'La4 Mo4 O8'
_cell_volume   240.68803454
_cell_formula_units_Z   4
loop_
 _symmetry_equiv_pos_site_id
 _symmetry_equiv_pos_as_xyz
  1  'x, y, z'
loop_
 _atom_site_type_symbol
 _atom_site_label
 _atom_site_symmetry_multiplicity
 _atom_site_fract_x
 _atom_site_fract_y
 _atom_site_fract_z
 _atom_site_occupancy
  La  La0  1  0.87500000  0.62500000  1.25000000  1.0
  La  La1  1  0.37500000  0.62500000  0.75000000  1.0
  La  La2  1  0.37500000  0.62500000  0.25000000  1.0
  La  La3  1  0.37500000  1.12500000  0.75000000  1.0
  Mo  Mo4  1  0.37500000  0.12500000  0.25000000  1.0
  Mo  Mo5  1  0.87500000  0.12500000  0.75000000  1.0
  Mo  Mo6  1  0.87500000  1.12500000  1.25000000  1.0
  Mo  Mo7  1  0.87500000  0.62500000  0.75000000  1.0
  O  O8  1  0.17393309  0.37929032  0.20536269  1.0
  O  O9  1  1.17392763  0.96857041  1.79463731  1.0
  O  O10  1  1.12929032  1.42392763  1.70535723  1.0
  O  O11  1  0.71857041  0.42393309  0.29464277  1.0
  O  O12  1  0.57606691  0.87070968  1.29463731  1.0
  O  O13  1  0.57607237  0.28142959  0.70536269  1.0
  O  O14  1  0.62070968  0.82607237  0.79464277  1.0
  O  O15  1  1.03142959  0.82606691  1.20535723  1.0
