# generated using pymatgen
data_LiMgAlF6
_symmetry_space_group_name_H-M   'P 1'
_cell_length_a   8.43797328
_cell_length_b   8.43797328
_cell_length_c   4.59553244
_cell_angle_alpha   90.00000000
_cell_angle_beta   90.00000000
_cell_angle_gamma   120.00000000
_symmetry_Int_Tables_number   1
_chemical_formula_structural   LiMgAlF6
_chemical_formula_sum   'Li3 Mg3 Al3 F18'
_cell_volume   283.36275070
_cell_formula_units_Z   3
loop_
 _symmetry_equiv_pos_site_id
 _symmetry_equiv_pos_as_xyz
  1  'x, y, z'
loop_
 _atom_site_type_symbol
 _atom_site_label
 _atom_site_symmetry_multiplicity
 _atom_site_fract_x
 _atom_site_fract_y
 _atom_site_fract_z
 _atom_site_occupancy
  Li  Li0  1  0.29566375  0.29566375  0.50000000  1.0
  Li  Li1  1  -0.00000000  0.70433625  0.50000000  1.0
  Li  Li2  1  0.70433625  0.00000000  0.50000000  1.0
  Mg  Mg3  1  0.63977415  0.63977415  0.00000000  1.0
  Mg  Mg4  1  -0.00000000  0.36022585  0.00000000  1.0
  Mg  Mg5  1  0.36022585  0.00000000  0.00000000  1.0
  Al  Al6  1  0.33333333  0.66666667  0.49424342  1.0
  Al  Al7  1  0.66666667  0.33333333  0.50575658  1.0
  Al  Al8  1  0.00000000  0.00000000  0.00000000  1.0
  F  F9  1  0.11409853  0.90467366  0.21766399  1.0
  F  F10  1  0.90467366  0.11409853  0.78233601  1.0
  F  F11  1  0.79057513  0.88590147  0.21766399  1.0
  F  F12  1  0.09532634  0.20942487  0.21766399  1.0
  F  F13  1  0.88590147  0.79057513  0.78233601  1.0
  F  F14  1  0.20942487  0.09532634  0.78233601  1.0
  F  F15  1  0.44674386  0.87254983  0.26626277  1.0
  F  F16  1  0.87254983  0.44674386  0.73373723  1.0
  F  F17  1  0.42580597  0.55325614  0.26626277  1.0
  F  F18  1  0.12745017  0.57419403  0.26626277  1.0
  F  F19  1  0.55325614  0.42580597  0.73373723  1.0
  F  F20  1  0.57419403  0.12745017  0.73373723  1.0
  F  F21  1  0.75819768  0.54007545  0.28050790  1.0
  F  F22  1  0.54007545  0.75819768  0.71949210  1.0
  F  F23  1  0.78187777  0.24180232  0.28050790  1.0
  F  F24  1  0.45992455  0.21812223  0.28050790  1.0
  F  F25  1  0.24180232  0.78187777  0.71949210  1.0
  F  F26  1  0.21812223  0.45992455  0.71949210  1.0
