# generated using pymatgen
data_V2MoO4
_symmetry_space_group_name_H-M   'P 1'
_cell_length_a   7.84590566
_cell_length_b   7.84590566
_cell_length_c   6.13117705
_cell_angle_alpha   90.00000000
_cell_angle_beta   90.00000000
_cell_angle_gamma   90.00000000
_symmetry_Int_Tables_number   1
_chemical_formula_structural   V2MoO4
_chemical_formula_sum   'V8 Mo4 O16'
_cell_volume   377.42444162
_cell_formula_units_Z   4
loop_
 _symmetry_equiv_pos_site_id
 _symmetry_equiv_pos_as_xyz
  1  'x, y, z'
loop_
 _atom_site_type_symbol
 _atom_site_label
 _atom_site_symmetry_multiplicity
 _atom_site_fract_x
 _atom_site_fract_y
 _atom_site_fract_z
 _atom_site_occupancy
  V  V0  1  0.06440582  0.14733374  0.66269699  1.0
  V  V1  1  0.56440582  0.64733374  0.33730301  1.0
  V  V2  1  0.14733374  0.93559418  0.33730301  1.0
  V  V3  1  0.64733374  0.43559418  0.66269699  1.0
  V  V4  1  0.93559418  0.85266626  0.66269699  1.0
  V  V5  1  0.43559418  0.35266626  0.33730301  1.0
  V  V6  1  0.85266626  0.06440582  0.33730301  1.0
  V  V7  1  0.35266626  0.56440582  0.66269699  1.0
  Mo  Mo8  1  0.25000000  0.75000000  0.00000000  1.0
  Mo  Mo9  1  0.75000000  0.25000000  0.00000000  1.0
  Mo  Mo10  1  0.75000000  0.75000000  0.00000000  1.0
  Mo  Mo11  1  0.25000000  0.25000000  0.00000000  1.0
  O  O12  1  0.24532346  0.99855016  1.04262841  1.0
  O  O13  1  0.74532346  0.49855016  -0.04262841  1.0
  O  O14  1  0.99855016  0.75467654  -0.04262841  1.0
  O  O15  1  0.49855016  0.25467654  1.04262841  1.0
  O  O16  1  0.75467654  0.00144984  1.04262841  1.0
  O  O17  1  0.25467654  0.50144984  -0.04262841  1.0
  O  O18  1  0.00144984  0.24532346  -0.04262841  1.0
  O  O19  1  0.50144984  0.74532346  1.04262841  1.0
  O  O20  1  0.25474468  0.07942588  0.51056429  1.0
  O  O21  1  0.75474468  0.57942588  0.48943571  1.0
  O  O22  1  0.07942588  0.74525532  0.48943571  1.0
  O  O23  1  0.57942588  0.24525532  0.51056429  1.0
  O  O24  1  0.74525532  0.92057412  0.51056429  1.0
  O  O25  1  0.24525532  0.42057412  0.48943571  1.0
  O  O26  1  0.92057412  0.25474468  0.48943571  1.0
  O  O27  1  0.42057412  0.75474468  0.51056429  1.0
