# generated using pymatgen
data_S(NF3)2
_symmetry_space_group_name_H-M   'P 1'
_cell_length_a   6.75430738
_cell_length_b   6.75430738
_cell_length_c   5.16683161
_cell_angle_alpha   90.00000000
_cell_angle_beta   90.00000000
_cell_angle_gamma   120.00000000
_symmetry_Int_Tables_number   1
_chemical_formula_structural   S(NF3)2
_chemical_formula_sum   'S1 N2 F6'
_cell_volume   204.13458070
_cell_formula_units_Z   1
loop_
 _symmetry_equiv_pos_site_id
 _symmetry_equiv_pos_as_xyz
  1  'x, y, z'
loop_
 _atom_site_type_symbol
 _atom_site_label
 _atom_site_symmetry_multiplicity
 _atom_site_fract_x
 _atom_site_fract_y
 _atom_site_fract_z
 _atom_site_occupancy
  S  S0  1  0.00000000  0.00000000  0.00000000  1.0
  N  N1  1  0.33333333  0.66666667  0.36967445  1.0
  N  N2  1  0.66666667  0.33333333  0.63032555  1.0
  F  F3  1  0.22367945  0.11183972  0.17903096  1.0
  F  F4  1  0.11183972  0.22367945  0.82096904  1.0
  F  F5  1  0.11183972  0.88816028  0.82096904  1.0
  F  F6  1  0.88816028  0.11183972  0.17903096  1.0
  F  F7  1  0.88816028  0.77632055  0.17903096  1.0
  F  F8  1  0.77632055  0.88816028  0.82096904  1.0
