# generated using pymatgen
data_Rb2Mg(SeO7)2
_symmetry_space_group_name_H-M   'P 1'
_cell_length_a   6.59544926
_cell_length_b   12.49191937
_cell_length_c   8.61694577
_cell_angle_alpha   90.00000000
_cell_angle_beta   90.99356900
_cell_angle_gamma   90.00000000
_symmetry_Int_Tables_number   1
_chemical_formula_structural   Rb2Mg(SeO7)2
_chemical_formula_sum   'Rb4 Mg2 Se4 O28'
_cell_volume   709.84187164
_cell_formula_units_Z   2
loop_
 _symmetry_equiv_pos_site_id
 _symmetry_equiv_pos_as_xyz
  1  'x, y, z'
loop_
 _atom_site_type_symbol
 _atom_site_label
 _atom_site_symmetry_multiplicity
 _atom_site_fract_x
 _atom_site_fract_y
 _atom_site_fract_z
 _atom_site_occupancy
  Rb  Rb0  1  0.85722452  0.66410454  0.07088816  1.0
  Rb  Rb1  1  0.85722452  0.83589546  0.57088816  1.0
  Rb  Rb2  1  0.14277548  0.16410454  0.42911184  1.0
  Rb  Rb3  1  0.14277548  0.33589546  0.92911184  1.0
  Mg  Mg4  1  0.50000000  0.50000000  0.50000000  1.0
  Mg  Mg5  1  0.50000000  0.00000000  0.00000000  1.0
  O  O6  1  0.72819980  0.39307463  0.63477155  1.0
  O  O7  1  0.72819980  0.10692537  1.13477155  1.0
  O  O8  1  0.27180020  0.89307463  -0.13477155  1.0
  O  O9  1  0.27180020  0.60692537  0.36522845  1.0
  O  O10  1  0.41354324  0.14151366  0.15468082  1.0
  O  O11  1  0.41354324  0.35848634  0.65468082  1.0
  O  O12  1  0.58645676  0.64151366  0.34531918  1.0
  O  O13  1  0.58645676  0.85848634  0.84531918  1.0
  O  O14  1  0.28397653  0.38955853  0.42691277  1.0
  O  O15  1  0.28397653  0.11044147  0.92691277  1.0
  O  O16  1  0.71602347  0.88955853  0.07308723  1.0
  O  O17  1  0.71602347  0.61044147  0.57308723  1.0
  O  O18  1  0.44210135  0.32079179  0.18598322  1.0
  O  O19  1  0.44210135  0.17920821  0.68598322  1.0
  O  O20  1  0.55789865  0.82079179  0.31401678  1.0
  O  O21  1  0.55789865  0.67920821  0.81401678  1.0
  O  O22  1  0.71823219  0.43831811  0.35541926  1.0
  O  O23  1  0.71823219  0.06168189  0.85541926  1.0
  O  O24  1  0.28176781  0.93831811  0.14458074  1.0
  O  O25  1  0.28176781  0.56168189  0.64458074  1.0
  O  O26  1  0.74870383  0.06641151  0.54188135  1.0
  O  O27  1  0.74870383  0.43358849  1.04188135  1.0
  O  O28  1  0.25129617  0.56641151  -0.04188135  1.0
  O  O29  1  0.25129617  0.93358849  0.45811865  1.0
  O  O30  1  0.84504413  0.25665139  0.21172171  1.0
  O  O31  1  0.84504413  0.24334861  0.71172171  1.0
  O  O32  1  0.15495587  0.75665139  0.28827829  1.0
  O  O33  1  0.15495587  0.74334861  0.78827829  1.0
  Se  Se34  1  0.68489753  0.36268175  0.19405766  1.0
  Se  Se35  1  0.68489753  0.13731825  0.69405766  1.0
  Se  Se36  1  0.31510247  0.86268175  0.30594234  1.0
  Se  Se37  1  0.31510247  0.63731825  0.80594234  1.0
