# generated using pymatgen
data_CsTi2P3(O5F2)2
_symmetry_space_group_name_H-M   'P 1'
_cell_length_a   8.88542404
_cell_length_b   8.50954678
_cell_length_c   8.92821562
_cell_angle_alpha   90.00000000
_cell_angle_beta   94.57739192
_cell_angle_gamma   90.00000000
_symmetry_Int_Tables_number   1
_chemical_formula_structural   CsTi2P3(O5F2)2
_chemical_formula_sum   'Cs2 Ti4 P6 O20 F8'
_cell_volume   672.91752510
_cell_formula_units_Z   2
loop_
 _symmetry_equiv_pos_site_id
 _symmetry_equiv_pos_as_xyz
  1  'x, y, z'
loop_
 _atom_site_type_symbol
 _atom_site_label
 _atom_site_symmetry_multiplicity
 _atom_site_fract_x
 _atom_site_fract_y
 _atom_site_fract_z
 _atom_site_occupancy
  Cs  Cs0  1  0.00000000  0.40473744  0.75000000  1.0
  Cs  Cs1  1  -0.00000000  0.59526256  0.25000000  1.0
  Ti  Ti2  1  0.66250839  0.74430867  0.54597932  1.0
  Ti  Ti3  1  0.66250839  0.25569133  0.04597932  1.0
  Ti  Ti4  1  0.33749161  0.74430867  0.95402068  1.0
  Ti  Ti5  1  0.33749161  0.25569133  0.45402068  1.0
  P  P6  1  0.69245315  0.89543173  0.89683625  1.0
  P  P7  1  0.69245315  0.10456827  0.39683625  1.0
  P  P8  1  0.30754685  0.89543173  0.60316375  1.0
  P  P9  1  0.30754685  0.10456827  0.10316375  1.0
  P  P10  1  0.50000000  0.46228224  0.75000000  1.0
  P  P11  1  0.50000000  0.53771776  0.25000000  1.0
  O  O12  1  0.72009098  0.93124373  0.43422167  1.0
  O  O13  1  0.72009098  0.06875627  0.93422167  1.0
  O  O14  1  0.27990902  0.93124373  0.06577833  1.0
  O  O15  1  0.27990902  0.06875627  0.56577833  1.0
  O  O16  1  0.72467123  0.85798787  0.73552600  1.0
  O  O17  1  0.72467123  0.14201213  0.23552600  1.0
  O  O18  1  0.27532877  0.85798787  0.76447400  1.0
  O  O19  1  0.27532877  0.14201213  0.26447400  1.0
  O  O20  1  0.60715502  0.56412067  0.66218291  1.0
  O  O21  1  0.60715502  0.43587933  0.16218291  1.0
  O  O22  1  0.39284498  0.56412067  0.83781709  1.0
  O  O23  1  0.39284498  0.43587933  0.33781709  1.0
  O  O24  1  0.60022546  0.35780265  0.85919468  1.0
  O  O25  1  0.60022546  0.64219735  0.35919468  1.0
  O  O26  1  0.39977454  0.35780265  0.64080532  1.0
  O  O27  1  0.39977454  0.64219735  0.14080532  1.0
  O  O28  1  0.54370615  0.83181603  0.94470671  1.0
  O  O29  1  0.54370615  0.16818397  0.44470671  1.0
  O  O30  1  0.45629385  0.83181603  0.55529329  1.0
  O  O31  1  0.45629385  0.16818397  0.05529329  1.0
  F  F32  1  0.85524997  0.66413302  0.54206042  1.0
  F  F33  1  0.85524997  0.33586698  0.04206042  1.0
  F  F34  1  0.14475003  0.66413302  0.95793958  1.0
  F  F35  1  0.14475003  0.33586698  0.45793958  1.0
  F  F36  1  0.81906006  0.80320716  0.99846062  1.0
  F  F37  1  0.81906006  0.19679284  0.49846062  1.0
  F  F38  1  0.18093994  0.80320716  0.50153938  1.0
  F  F39  1  0.18093994  0.19679284  0.00153938  1.0
