# generated using pymatgen
data_NaP(WO4)2
_symmetry_space_group_name_H-M   'P 1'
_cell_length_a   6.68209739
_cell_length_b   5.41745404
_cell_length_c   9.10604445
_cell_angle_alpha   90.00000000
_cell_angle_beta   98.63823147
_cell_angle_gamma   90.00000000
_symmetry_Int_Tables_number   1
_chemical_formula_structural   NaP(WO4)2
_chemical_formula_sum   'Na2 P2 W4 O16'
_cell_volume   325.89911151
_cell_formula_units_Z   2
loop_
 _symmetry_equiv_pos_site_id
 _symmetry_equiv_pos_as_xyz
  1  'x, y, z'
loop_
 _atom_site_type_symbol
 _atom_site_label
 _atom_site_symmetry_multiplicity
 _atom_site_fract_x
 _atom_site_fract_y
 _atom_site_fract_z
 _atom_site_occupancy
  Na  Na0  1  0.27281186  0.25000000  0.43666261  1.0
  Na  Na1  1  0.72718814  0.75000000  0.56333739  1.0
  P  P2  1  0.77155442  0.25000000  0.37744408  1.0
  P  P3  1  0.22844558  0.75000000  0.62255592  1.0
  W  W4  1  0.94660093  0.25000000  0.75445716  1.0
  W  W5  1  0.05339907  0.75000000  0.24554284  1.0
  W  W6  1  0.35531965  0.25000000  0.08344759  1.0
  W  W7  1  0.64468035  0.75000000  0.91655241  1.0
  O  O8  1  0.89079097  0.48774597  0.35108454  1.0
  O  O9  1  0.89079097  0.01225403  0.35108454  1.0
  O  O10  1  0.10920903  0.98774597  0.64891546  1.0
  O  O11  1  0.10920903  0.51225403  0.64891546  1.0
  O  O12  1  0.79485935  0.50124829  0.81687003  1.0
  O  O13  1  0.79485935  -0.00124829  0.81687003  1.0
  O  O14  1  0.20514065  1.00124829  0.18312997  1.0
  O  O15  1  0.20514065  0.49875171  0.18312997  1.0
  O  O16  1  0.74050832  0.25000000  0.54493166  1.0
  O  O17  1  0.25949168  0.75000000  0.45506834  1.0
  O  O18  1  0.55729246  0.25000000  0.28642880  1.0
  O  O19  1  0.44270754  0.75000000  0.71357120  1.0
  O  O20  1  0.14370803  0.25000000  0.91830393  1.0
  O  O21  1  0.85629197  0.75000000  0.08169607  1.0
  O  O22  1  0.50000000  0.50000000  0.00000000  1.0
  O  O23  1  0.50000000  0.00000000  0.00000000  1.0
