# generated using pymatgen
data_Er(ClO4)3
_symmetry_space_group_name_H-M   'P 1'
_cell_length_a   9.70479205
_cell_length_b   9.70479205
_cell_length_c   5.56071028
_cell_angle_alpha   90.00000000
_cell_angle_beta   90.00000000
_cell_angle_gamma   120.00000000
_symmetry_Int_Tables_number   1
_chemical_formula_structural   Er(ClO4)3
_chemical_formula_sum   'Er2 Cl6 O24'
_cell_volume   453.55856029
_cell_formula_units_Z   2
loop_
 _symmetry_equiv_pos_site_id
 _symmetry_equiv_pos_as_xyz
  1  'x, y, z'
loop_
 _atom_site_type_symbol
 _atom_site_label
 _atom_site_symmetry_multiplicity
 _atom_site_fract_x
 _atom_site_fract_y
 _atom_site_fract_z
 _atom_site_occupancy
  Er  Er0  1  0.66666667  0.33333333  0.25000000  1.0
  Er  Er1  1  0.33333333  0.66666667  0.75000000  1.0
  Cl  Cl2  1  0.29744794  0.90146888  0.25000000  1.0
  Cl  Cl3  1  0.90146888  0.60402094  0.75000000  1.0
  Cl  Cl4  1  0.60402094  0.70255206  0.25000000  1.0
  Cl  Cl5  1  0.09853112  0.39597906  0.25000000  1.0
  Cl  Cl6  1  0.70255206  0.09853112  0.75000000  1.0
  Cl  Cl7  1  0.39597906  0.29744794  0.75000000  1.0
  O  O8  1  0.26135354  0.79652962  0.46409186  1.0
  O  O9  1  0.26135354  0.79652962  0.03590814  1.0
  O  O10  1  0.79652962  0.53517608  0.96409186  1.0
  O  O11  1  0.79652962  0.53517608  0.53590814  1.0
  O  O12  1  0.53517608  0.73864646  0.46409186  1.0
  O  O13  1  0.53517608  0.73864646  0.03590814  1.0
  O  O14  1  0.20347038  0.46482392  0.46409186  1.0
  O  O15  1  0.20347038  0.46482392  0.03590814  1.0
  O  O16  1  0.73864646  0.20347038  0.96409186  1.0
  O  O17  1  0.73864646  0.20347038  0.53590814  1.0
  O  O18  1  0.46482392  0.26135354  0.96409186  1.0
  O  O19  1  0.46482392  0.26135354  0.53590814  1.0
  O  O20  1  0.19626218  0.96861591  0.25000000  1.0
  O  O21  1  0.96861591  0.77235373  0.75000000  1.0
  O  O22  1  0.77235373  0.80373782  0.25000000  1.0
  O  O23  1  0.03138409  0.22764627  0.25000000  1.0
  O  O24  1  0.80373782  0.03138409  0.75000000  1.0
  O  O25  1  0.22764627  0.19626218  0.75000000  1.0
  O  O26  1  0.55264044  0.53339400  0.25000000  1.0
  O  O27  1  0.53339400  0.98075356  0.75000000  1.0
  O  O28  1  0.98075356  0.44735956  0.25000000  1.0
  O  O29  1  0.46660600  0.01924644  0.25000000  1.0
  O  O30  1  0.44735956  0.46660600  0.75000000  1.0
  O  O31  1  0.01924644  0.55264044  0.75000000  1.0
