# generated using pymatgen
data_BaV2H2(Se2O7)2
_symmetry_space_group_name_H-M   'P 1'
_cell_length_a   9.84069085
_cell_length_b   7.24689337
_cell_length_c   9.95906882
_cell_angle_alpha   90.00000000
_cell_angle_beta   116.62070888
_cell_angle_gamma   90.00000000
_symmetry_Int_Tables_number   1
_chemical_formula_structural   BaV2H2(Se2O7)2
_chemical_formula_sum   'Ba2 V4 H4 Se8 O28'
_cell_volume   634.93605846
_cell_formula_units_Z   2
loop_
 _symmetry_equiv_pos_site_id
 _symmetry_equiv_pos_as_xyz
  1  'x, y, z'
loop_
 _atom_site_type_symbol
 _atom_site_label
 _atom_site_symmetry_multiplicity
 _atom_site_fract_x
 _atom_site_fract_y
 _atom_site_fract_z
 _atom_site_occupancy
  Ba  Ba0  1  0.50000000  0.50000000  0.50000000  1.0
  Ba  Ba1  1  0.50000000  0.00000000  -0.00000000  1.0
  V  V2  1  0.70568963  0.02297310  0.44668678  1.0
  V  V3  1  0.70568963  0.47702690  0.94668678  1.0
  V  V4  1  0.29431037  0.52297310  0.05331322  1.0
  V  V5  1  0.29431037  0.97702690  0.55331322  1.0
  H  H6  1  0.87060879  0.08024945  0.05572230  1.0
  H  H7  1  0.87060879  0.41975055  0.55572230  1.0
  H  H8  1  0.12939121  0.58024945  0.44427770  1.0
  H  H9  1  0.12939121  0.91975055  0.94427770  1.0
  Se  Se10  1  0.94432419  0.07718236  0.31295838  1.0
  Se  Se11  1  0.94432419  0.42281764  0.81295838  1.0
  Se  Se12  1  0.05567581  0.57718236  0.18704162  1.0
  Se  Se13  1  0.05567581  0.92281764  0.68704162  1.0
  Se  Se14  1  0.68448549  0.49222572  0.25258736  1.0
  Se  Se15  1  0.68448549  0.00777428  0.75258736  1.0
  Se  Se16  1  0.31551451  0.99222572  0.24741264  1.0
  Se  Se17  1  0.31551451  0.50777428  0.74741264  1.0
  O  O18  1  0.94543387  0.00490396  0.14329172  1.0
  O  O19  1  0.94543387  0.49509604  0.64329172  1.0
  O  O20  1  0.05456613  0.50490396  0.35670828  1.0
  O  O21  1  0.05456613  0.99509604  0.85670828  1.0
  O  O22  1  0.92617856  0.41232689  0.08117860  1.0
  O  O23  1  0.92617856  0.08767311  0.58117860  1.0
  O  O24  1  0.07382144  0.91232689  0.41882140  1.0
  O  O25  1  0.07382144  0.58767311  0.91882140  1.0
  O  O26  1  0.77101734  0.98215225  0.28397828  1.0
  O  O27  1  0.77101734  0.51784775  0.78397828  1.0
  O  O28  1  0.22898266  0.48215225  0.21602172  1.0
  O  O29  1  0.22898266  0.01784775  0.71602172  1.0
  O  O30  1  0.72162604  0.34309633  0.39930006  1.0
  O  O31  1  0.72162604  0.15690367  0.89930006  1.0
  O  O32  1  0.27837396  0.84309633  0.10069994  1.0
  O  O33  1  0.27837396  0.65690367  0.60069994  1.0
  O  O34  1  0.69662922  0.81344565  0.49842025  1.0
  O  O35  1  0.69662922  0.68655435  0.99842025  1.0
  O  O36  1  0.30337078  0.31344565  0.00157975  1.0
  O  O37  1  0.30337078  0.18655435  0.50157975  1.0
  O  O38  1  0.65192921  0.34876941  0.10040605  1.0
  O  O39  1  0.65192921  0.15123059  0.60040605  1.0
  O  O40  1  0.34807079  0.84876941  0.39959395  1.0
  O  O41  1  0.34807079  0.65123059  0.89959395  1.0
  O  O42  1  0.49843145  0.05915868  0.28089040  1.0
  O  O43  1  0.49843145  0.44084132  0.78089040  1.0
  O  O44  1  0.50156855  0.55915868  0.21910960  1.0
  O  O45  1  0.50156855  0.94084132  0.71910960  1.0
