# generated using pymatgen
data_RbCrP3O10
_symmetry_space_group_name_H-M   'P 1'
_cell_length_a   10.66263087
_cell_length_b   4.92737759
_cell_length_c   11.87535305
_cell_angle_alpha   90.00000000
_cell_angle_beta   122.04828081
_cell_angle_gamma   90.00000000
_symmetry_Int_Tables_number   1
_chemical_formula_structural   RbCrP3O10
_chemical_formula_sum   'Rb2 Cr2 P6 O20'
_cell_volume   528.83274593
_cell_formula_units_Z   2
loop_
 _symmetry_equiv_pos_site_id
 _symmetry_equiv_pos_as_xyz
  1  'x, y, z'
loop_
 _atom_site_type_symbol
 _atom_site_label
 _atom_site_symmetry_multiplicity
 _atom_site_fract_x
 _atom_site_fract_y
 _atom_site_fract_z
 _atom_site_occupancy
  Rb  Rb0  1  0.50000000  -0.03896110  0.25000000  1.0
  Rb  Rb1  1  0.50000000  1.03896110  0.75000000  1.0
  Cr  Cr2  1  -0.00000000  0.00000000  0.50000000  1.0
  Cr  Cr3  1  0.00000000  0.00000000  0.00000000  1.0
  P  P4  1  0.79732333  0.49774884  0.48577451  1.0
  P  P5  1  0.79732333  0.50225116  0.98577451  1.0
  P  P6  1  0.20267667  0.49774884  0.01422549  1.0
  P  P7  1  0.20267667  0.50225116  0.51422549  1.0
  P  P8  1  0.00000000  0.75443097  0.25000000  1.0
  P  P9  1  -0.00000000  0.24556903  0.75000000  1.0
  O  O10  1  0.83289760  0.79903185  0.47697762  1.0
  O  O11  1  0.83289760  0.20096815  0.97697762  1.0
  O  O12  1  0.16710240  0.79903185  0.02302238  1.0
  O  O13  1  0.16710240  0.20096815  0.52302238  1.0
  O  O14  1  0.87248413  0.55807701  0.14617231  1.0
  O  O15  1  0.87248413  0.44192299  0.64617231  1.0
  O  O16  1  0.12751587  0.55807701  0.35382769  1.0
  O  O17  1  0.12751587  0.44192299  0.85382769  1.0
  O  O18  1  0.88154958  0.68794449  0.94054035  1.0
  O  O19  1  0.88154958  0.31205551  0.44054035  1.0
  O  O20  1  0.11845042  0.68794449  0.55945965  1.0
  O  O21  1  0.11845042  0.31205551  0.05945965  1.0
  O  O22  1  0.93621191  0.91923589  0.31663222  1.0
  O  O23  1  0.93621191  0.08076411  0.81663222  1.0
  O  O24  1  0.06378809  0.91923589  0.18336778  1.0
  O  O25  1  0.06378809  0.08076411  0.68336778  1.0
  O  O26  1  0.63509653  0.44300636  0.41536472  1.0
  O  O27  1  0.63509653  0.55699364  0.91536472  1.0
  O  O28  1  0.36490347  0.44300636  0.08463528  1.0
  O  O29  1  0.36490347  0.55699364  0.58463528  1.0
