# generated using pymatgen
data_Hf3P
_symmetry_space_group_name_H-M   'P 1'
_cell_length_a   10.70683497
_cell_length_b   10.70683497
_cell_length_c   5.31123377
_cell_angle_alpha   90.00000000
_cell_angle_beta   90.00000000
_cell_angle_gamma   90.00000000
_symmetry_Int_Tables_number   1
_chemical_formula_structural   Hf3P
_chemical_formula_sum   'Hf24 P8'
_cell_volume   608.86026851
_cell_formula_units_Z   8
loop_
 _symmetry_equiv_pos_site_id
 _symmetry_equiv_pos_as_xyz
  1  'x, y, z'
loop_
 _atom_site_type_symbol
 _atom_site_label
 _atom_site_symmetry_multiplicity
 _atom_site_fract_x
 _atom_site_fract_y
 _atom_site_fract_z
 _atom_site_occupancy
  Hf  Hf0  1  0.60737836  0.91546398  0.53132926  1.0
  Hf  Hf1  1  0.39262164  0.08453602  0.53132926  1.0
  Hf  Hf2  1  0.41546398  0.89262164  0.03132926  1.0
  Hf  Hf3  1  0.58453602  0.10737836  0.03132926  1.0
  Hf  Hf4  1  0.89262164  0.58453602  0.96867074  1.0
  Hf  Hf5  1  0.10737836  0.41546398  0.96867074  1.0
  Hf  Hf6  1  0.08453602  0.60737836  0.46867074  1.0
  Hf  Hf7  1  0.91546398  0.39262164  0.46867074  1.0
  Hf  Hf8  1  0.97276039  0.86188376  0.72079634  1.0
  Hf  Hf9  1  0.02723961  0.13811624  0.72079634  1.0
  Hf  Hf10  1  0.36188376  0.52723961  0.22079634  1.0
  Hf  Hf11  1  0.63811624  0.47276039  0.22079634  1.0
  Hf  Hf12  1  0.52723961  0.63811624  0.77920366  1.0
  Hf  Hf13  1  0.47276039  0.36188376  0.77920366  1.0
  Hf  Hf14  1  0.13811624  0.97276039  0.27920366  1.0
  Hf  Hf15  1  0.86188376  0.02723961  0.27920366  1.0
  Hf  Hf16  1  0.71579077  0.81904780  0.01124376  1.0
  Hf  Hf17  1  0.28420923  0.18095220  0.01124376  1.0
  Hf  Hf18  1  0.31904780  0.78420923  0.51124376  1.0
  Hf  Hf19  1  0.68095220  0.21579077  0.51124376  1.0
  Hf  Hf20  1  0.78420923  0.68095220  0.48875624  1.0
  Hf  Hf21  1  0.21579077  0.31904780  0.48875624  1.0
  Hf  Hf22  1  0.18095220  0.71579077  0.98875624  1.0
  Hf  Hf23  1  0.81904780  0.28420923  0.98875624  1.0
  P  P24  1  0.95960893  0.79437481  0.21408621  1.0
  P  P25  1  0.04039107  0.20562519  0.21408621  1.0
  P  P26  1  0.29437481  0.54039107  0.71408621  1.0
  P  P27  1  0.70562519  0.45960893  0.71408621  1.0
  P  P28  1  0.54039107  0.70562519  0.28591379  1.0
  P  P29  1  0.45960893  0.29437481  0.28591379  1.0
  P  P30  1  0.20562519  0.95960893  0.78591379  1.0
  P  P31  1  0.79437481  0.04039107  0.78591379  1.0
