# generated using pymatgen
data_RbC
_symmetry_space_group_name_H-M   'P 1'
_cell_length_a   9.45017746
_cell_length_b   4.79822072
_cell_length_c   9.83611098
_cell_angle_alpha   90.00000000
_cell_angle_beta   90.00000000
_cell_angle_gamma   90.00000000
_symmetry_Int_Tables_number   1
_chemical_formula_structural   RbC
_chemical_formula_sum   'Rb8 C8'
_cell_volume   446.00898308
_cell_formula_units_Z   8
loop_
 _symmetry_equiv_pos_site_id
 _symmetry_equiv_pos_as_xyz
  1  'x, y, z'
loop_
 _atom_site_type_symbol
 _atom_site_label
 _atom_site_symmetry_multiplicity
 _atom_site_fract_x
 _atom_site_fract_y
 _atom_site_fract_z
 _atom_site_occupancy
  Rb  Rb0  1  0.98647137  0.75000000  0.66861146  1.0
  Rb  Rb1  1  0.48647137  0.75000000  0.83138854  1.0
  Rb  Rb2  1  0.01352863  0.25000000  0.33138854  1.0
  Rb  Rb3  1  0.51352863  0.25000000  0.16861146  1.0
  Rb  Rb4  1  0.83904959  0.75000000  0.07165519  1.0
  Rb  Rb5  1  0.33904959  0.75000000  0.42834481  1.0
  Rb  Rb6  1  0.16095041  0.25000000  0.92834481  1.0
  Rb  Rb7  1  0.66095041  0.25000000  0.57165519  1.0
  C  C8  1  0.78980626  0.75000000  0.40756613  1.0
  C  C9  1  0.28980626  0.75000000  0.09243387  1.0
  C  C10  1  0.21019374  0.25000000  0.59243387  1.0
  C  C11  1  0.71019374  0.25000000  0.90756613  1.0
  C  C12  1  0.66826474  0.75000000  0.35287608  1.0
  C  C13  1  0.16826474  0.75000000  0.14712392  1.0
  C  C14  1  0.33173526  0.25000000  0.64712392  1.0
  C  C15  1  0.83173526  0.25000000  0.85287608  1.0
