# generated using pymatgen
data_BaTb2CoO5
_symmetry_space_group_name_H-M   'P 1'
_cell_length_a   6.78843369
_cell_length_b   6.78843369
_cell_length_c   6.78843369
_cell_angle_alpha   148.10267397
_cell_angle_beta   129.02294539
_cell_angle_gamma   61.40417274
_symmetry_Int_Tables_number   1
_chemical_formula_structural   BaTb2CoO5
_chemical_formula_sum   'Ba1 Tb2 Co1 O5'
_cell_volume   127.22249104
_cell_formula_units_Z   1
loop_
 _symmetry_equiv_pos_site_id
 _symmetry_equiv_pos_as_xyz
  1  'x, y, z'
loop_
 _atom_site_type_symbol
 _atom_site_label
 _atom_site_symmetry_multiplicity
 _atom_site_fract_x
 _atom_site_fract_y
 _atom_site_fract_z
 _atom_site_occupancy
  Tb  Tb0  1  0.79750025  0.79750025  1.00000000  1.0
  Tb  Tb1  1  0.20249975  0.20249975  0.00000000  1.0
  Co  Co2  1  0.00000000  0.50000000  0.50000000  1.0
  O  O3  1  0.39228604  0.64993798  0.74234806  1.0
  O  O4  1  1.09241008  0.35006202  0.74234806  1.0
  O  O5  1  0.90758992  0.64993798  1.25765194  1.0
  O  O6  1  0.60771396  0.35006202  0.25765194  1.0
  O  O7  1  0.00000000  0.00000000  0.00000000  1.0
  Ba  Ba8  1  0.50000000  -0.00000000  0.50000000  1.0
