# generated using pymatgen
data_P4S5
_symmetry_space_group_name_H-M   'P 1'
_cell_length_a   6.80079870
_cell_length_b   12.45090427
_cell_length_c   7.16160042
_cell_angle_alpha   90.00000000
_cell_angle_beta   117.35830416
_cell_angle_gamma   90.00000000
_symmetry_Int_Tables_number   1
_chemical_formula_structural   P4S5
_chemical_formula_sum   'P8 S10'
_cell_volume   538.58870954
_cell_formula_units_Z   2
loop_
 _symmetry_equiv_pos_site_id
 _symmetry_equiv_pos_as_xyz
  1  'x, y, z'
loop_
 _atom_site_type_symbol
 _atom_site_label
 _atom_site_symmetry_multiplicity
 _atom_site_fract_x
 _atom_site_fract_y
 _atom_site_fract_z
 _atom_site_occupancy
  P  P0  1  0.42649563  0.34403744  0.85303492  1.0
  P  P1  1  0.42649563  0.15596256  0.85303492  1.0
  P  P2  1  0.57350437  0.84403744  0.14696508  1.0
  P  P3  1  0.57350437  0.65596256  0.14696508  1.0
  P  P4  1  0.85397736  0.25000000  0.77686771  1.0
  P  P5  1  0.14602264  0.75000000  0.22313229  1.0
  P  P6  1  0.28450262  0.25000000  0.36262009  1.0
  P  P7  1  0.71549738  0.75000000  0.63737991  1.0
  S  S8  1  0.77283388  0.87848583  0.47112463  1.0
  S  S9  1  0.77283388  0.62151417  0.47112463  1.0
  S  S10  1  0.22716612  0.37848583  0.52887537  1.0
  S  S11  1  0.22716612  0.12151417  0.52887537  1.0
  S  S12  1  0.75778906  0.37853879  0.91485891  1.0
  S  S13  1  0.75778906  0.12146121  0.91485891  1.0
  S  S14  1  0.24221094  0.87853879  0.08514109  1.0
  S  S15  1  0.24221094  0.62146121  0.08514109  1.0
  S  S16  1  0.63065139  0.25000000  0.44609517  1.0
  S  S17  1  0.36934861  0.75000000  0.55390483  1.0
