# generated using pymatgen
data_Cd(PO5)2
_symmetry_space_group_name_H-M   'P 1'
_cell_length_a   5.26599777
_cell_length_b   9.76583984
_cell_length_c   9.73239968
_cell_angle_alpha   90.00000000
_cell_angle_beta   131.31963371
_cell_angle_gamma   90.00000000
_symmetry_Int_Tables_number   1
_chemical_formula_structural   Cd(PO5)2
_chemical_formula_sum   'Cd2 P4 O20'
_cell_volume   375.89978022
_cell_formula_units_Z   2
loop_
 _symmetry_equiv_pos_site_id
 _symmetry_equiv_pos_as_xyz
  1  'x, y, z'
loop_
 _atom_site_type_symbol
 _atom_site_label
 _atom_site_symmetry_multiplicity
 _atom_site_fract_x
 _atom_site_fract_y
 _atom_site_fract_z
 _atom_site_occupancy
  O  O0  1  0.43443783  0.44632455  0.27692341  1.0
  O  O1  1  0.43443783  0.05367545  0.77692341  1.0
  O  O2  1  0.56556217  0.94632455  0.22307659  1.0
  O  O3  1  0.56556217  0.55367545  0.72307659  1.0
  O  O4  1  0.76681132  0.14331544  0.33385747  1.0
  O  O5  1  0.76681132  0.35668456  0.83385747  1.0
  O  O6  1  0.23318868  0.64331544  0.16614253  1.0
  O  O7  1  0.23318868  0.85668456  0.66614253  1.0
  O  O8  1  0.38250335  0.10769410  0.52277208  1.0
  O  O9  1  0.38250335  0.39230590  1.02277208  1.0
  O  O10  1  0.61749665  0.60769410  -0.02277208  1.0
  O  O11  1  0.61749665  0.89230590  0.47722792  1.0
  O  O12  1  1.02016208  0.15420961  0.17886506  1.0
  O  O13  1  1.02016208  0.34579039  0.67886506  1.0
  O  O14  1  -0.02016208  0.65420961  0.32113494  1.0
  O  O15  1  -0.02016208  0.84579039  0.82113494  1.0
  O  O16  1  0.85327787  0.84058346  0.10513220  1.0
  O  O17  1  0.85327787  0.65941654  0.60513220  1.0
  O  O18  1  0.14672213  0.34058346  0.39486780  1.0
  O  O19  1  0.14672213  0.15941654  0.89486780  1.0
  P  P20  1  0.92718185  0.68545759  0.15071098  1.0
  P  P21  1  0.92718185  0.81454241  0.65071098  1.0
  P  P22  1  0.07281815  0.18545759  0.34928902  1.0
  P  P23  1  0.07281815  0.31454241  0.84928902  1.0
  Cd  Cd24  1  0.00000000  0.50000000  0.50000000  1.0
  Cd  Cd25  1  0.00000000  0.00000000  0.00000000  1.0
