# generated using pymatgen
data_Ca2AsI
_symmetry_space_group_name_H-M   'P 1'
_cell_length_a   7.92061013
_cell_length_b   7.92061013
_cell_length_c   7.92061013
_cell_angle_alpha   32.22937841
_cell_angle_beta   32.22937841
_cell_angle_gamma   32.22937841
_symmetry_Int_Tables_number   1
_chemical_formula_structural   Ca2AsI
_chemical_formula_sum   'Ca2 As1 I1'
_cell_volume   125.61666896
_cell_formula_units_Z   1
loop_
 _symmetry_equiv_pos_site_id
 _symmetry_equiv_pos_as_xyz
  1  'x, y, z'
loop_
 _atom_site_type_symbol
 _atom_site_label
 _atom_site_symmetry_multiplicity
 _atom_site_fract_x
 _atom_site_fract_y
 _atom_site_fract_z
 _atom_site_occupancy
  Ca  Ca0  1  0.76891960  0.76891960  0.76891960  1.0
  Ca  Ca1  1  1.23108040  1.23108040  0.23108040  1.0
  As  As2  1  1.50000000  0.50000000  0.50000000  1.0
  I  I3  1  0.00000000  0.00000000  0.00000000  1.0
