# generated using pymatgen
data_Gd3CI3
_symmetry_space_group_name_H-M   'P 1'
_cell_length_a   8.78411462
_cell_length_b   3.96158974
_cell_length_c   12.08528223
_cell_angle_alpha   90.00000000
_cell_angle_beta   92.05279403
_cell_angle_gamma   90.00000000
_symmetry_Int_Tables_number   1
_chemical_formula_structural   Gd3CI3
_chemical_formula_sum   'Gd6 C2 I6'
_cell_volume   420.28654791
_cell_formula_units_Z   2
loop_
 _symmetry_equiv_pos_site_id
 _symmetry_equiv_pos_as_xyz
  1  'x, y, z'
loop_
 _atom_site_type_symbol
 _atom_site_label
 _atom_site_symmetry_multiplicity
 _atom_site_fract_x
 _atom_site_fract_y
 _atom_site_fract_z
 _atom_site_occupancy
  Gd  Gd0  1  0.91767744  0.25000000  0.59904782  1.0
  Gd  Gd1  1  0.08232256  0.75000000  0.40095218  1.0
  Gd  Gd2  1  0.88858066  0.25000000  0.18768022  1.0
  Gd  Gd3  1  0.11141934  0.75000000  0.81231978  1.0
  Gd  Gd4  1  0.29466533  0.25000000  0.61414714  1.0
  Gd  Gd5  1  0.70533467  0.75000000  0.38585286  1.0
  C  C6  1  0.88333222  0.25000000  0.38654188  1.0
  C  C7  1  0.11666778  0.75000000  0.61345812  1.0
  I  I8  1  0.85578672  0.25000000  0.87205838  1.0
  I  I9  1  0.14421328  0.75000000  0.12794162  1.0
  I  I10  1  0.38355776  0.25000000  0.36705248  1.0
  I  I11  1  0.61644224  0.75000000  0.63294752  1.0
  I  I12  1  0.37551225  0.25000000  0.86975186  1.0
  I  I13  1  0.62448775  0.75000000  0.13024814  1.0
