# generated using pymatgen
data_PbO
_symmetry_space_group_name_H-M   'P 1'
_cell_length_a   6.32631483
_cell_length_b   5.78701364
_cell_length_c   4.81298086
_cell_angle_alpha   90.00000000
_cell_angle_beta   90.00000000
_cell_angle_gamma   90.00000000
_symmetry_Int_Tables_number   1
_chemical_formula_structural   PbO
_chemical_formula_sum   'Pb4 O4'
_cell_volume   176.20549232
_cell_formula_units_Z   4
loop_
 _symmetry_equiv_pos_site_id
 _symmetry_equiv_pos_as_xyz
  1  'x, y, z'
loop_
 _atom_site_type_symbol
 _atom_site_label
 _atom_site_symmetry_multiplicity
 _atom_site_fract_x
 _atom_site_fract_y
 _atom_site_fract_z
 _atom_site_occupancy
  Pb  Pb0  1  0.78535794  0.48043174  0.75000000  1.0
  Pb  Pb1  1  0.78535794  0.01956826  0.25000000  1.0
  Pb  Pb2  1  0.21464206  0.98043174  0.75000000  1.0
  Pb  Pb3  1  0.21464206  0.51956826  0.25000000  1.0
  O  O4  1  0.87216949  0.09560592  0.75000000  1.0
  O  O5  1  0.87216949  0.40439408  0.25000000  1.0
  O  O6  1  0.12783051  0.59560592  0.75000000  1.0
  O  O7  1  0.12783051  0.90439408  0.25000000  1.0
