# generated using pymatgen
data_Na2Mn3(P2O7)2
_symmetry_space_group_name_H-M   'P 1'
_cell_length_a   5.48195291
_cell_length_b   16.54395367
_cell_length_c   6.58888965
_cell_angle_alpha   81.10390958
_cell_angle_beta   72.39603003
_cell_angle_gamma   81.97351327
_symmetry_Int_Tables_number   1
_chemical_formula_structural   Na2Mn3(P2O7)2
_chemical_formula_sum   'Na4 Mn6 P8 O28'
_cell_volume   559.98857086
_cell_formula_units_Z   2
loop_
 _symmetry_equiv_pos_site_id
 _symmetry_equiv_pos_as_xyz
  1  'x, y, z'
loop_
 _atom_site_type_symbol
 _atom_site_label
 _atom_site_symmetry_multiplicity
 _atom_site_fract_x
 _atom_site_fract_y
 _atom_site_fract_z
 _atom_site_occupancy
  Na  Na0  1  -0.88181080  -0.13785685  -0.70728334  1.0
  Na  Na1  1  -0.11818920  -0.86214315  -0.29271666  1.0
  Na  Na2  1  -0.58333680  -0.98360173  -0.24829744  1.0
  Na  Na3  1  -0.41666320  -0.01639827  -0.75170256  1.0
  Mn  Mn4  1  -0.73828431  -0.33866390  -0.96412691  1.0
  Mn  Mn5  1  -0.26171569  -0.66133610  -0.03587309  1.0
  Mn  Mn6  1  -0.69198986  -0.58722114  -0.28791451  1.0
  Mn  Mn7  1  -0.30801014  -0.41277886  -0.71208549  1.0
  Mn  Mn8  1  -0.53865163  -0.80758605  -0.63359472  1.0
  Mn  Mn9  1  -0.46134837  -0.19241395  -0.36640528  1.0
  P  P10  1  -0.93141476  -0.92183530  -0.75399645  1.0
  P  P11  1  -0.06858524  -0.07816470  -0.24600355  1.0
  P  P12  1  -0.85807182  -0.32133473  -0.42908828  1.0
  P  P13  1  -0.14192818  -0.67866527  -0.57091172  1.0
  P  P14  1  -0.79377667  -0.54226360  -0.78315053  1.0
  P  P15  1  -0.20622333  -0.45773640  -0.21684947  1.0
  P  P16  1  -0.69042186  -0.78658652  -0.09661961  1.0
  P  P17  1  -0.30957814  -0.21341348  -0.90338039  1.0
  O  O18  1  -0.94990303  -0.40851407  -0.30029580  1.0
  O  O19  1  -0.05009697  -0.59148593  -0.69970420  1.0
  O  O20  1  -0.91301226  -0.45445995  -0.84061616  1.0
  O  O21  1  -0.08698774  -0.54554005  -0.15938384  1.0
  O  O22  1  -0.90867447  -0.84458662  -0.94923460  1.0
  O  O23  1  -0.09132553  -0.15541338  -0.05076540  1.0
  O  O24  1  -0.91526182  -0.73895764  -0.54537592  1.0
  O  O25  1  -0.08473818  -0.26104236  -0.45462408  1.0
  O  O26  1  -0.85033972  -0.70469666  -0.13875081  1.0
  O  O27  1  -0.14966028  -0.29530334  -0.86124919  1.0
  O  O28  1  -0.81680029  -0.99985794  -0.86106628  1.0
  O  O29  1  -0.18319971  -0.00014206  -0.13893372  1.0
  O  O30  1  -0.77379064  -0.90559324  -0.60780556  1.0
  O  O31  1  -0.22620936  -0.09440676  -0.39219444  1.0
  O  O32  1  -0.67560240  -0.34187144  -0.64967788  1.0
  O  O33  1  -0.32439760  -0.65812856  -0.35032212  1.0
  O  O34  1  -0.66430240  -0.54814721  -0.60600945  1.0
  O  O35  1  -0.33569760  -0.45185279  -0.39399055  1.0
  O  O36  1  -0.61861352  -0.58051670  -0.98401293  1.0
  O  O37  1  -0.38138648  -0.41948330  -0.01598707  1.0
  O  O38  1  -0.56140998  -0.83157266  -0.29666973  1.0
  O  O39  1  -0.43859002  -0.16842734  -0.70333027  1.0
  O  O40  1  -0.49143793  -0.78008489  -0.97746335  1.0
  O  O41  1  -0.50856207  -0.21991511  -0.02253665  1.0
  O  O42  1  -0.29467763  -0.70629155  -0.70777889  1.0
  O  O43  1  -0.70532237  -0.29370845  -0.29222111  1.0
  O  O44  1  -0.22312055  -0.91521917  -0.64563035  1.0
  O  O45  1  -0.77687945  -0.08478083  -0.35436965  1.0
