# generated using pymatgen
data_Sr3B6O11F2
_symmetry_space_group_name_H-M   'P 1'
_cell_length_a   6.41795172
_cell_length_b   8.29164215
_cell_length_c   9.61961923
_cell_angle_alpha   90.00000000
_cell_angle_beta   101.73023114
_cell_angle_gamma   90.00000000
_symmetry_Int_Tables_number   1
_chemical_formula_structural   Sr3B6O11F2
_chemical_formula_sum   'Sr6 B12 O22 F4'
_cell_volume   501.22056654
_cell_formula_units_Z   2
loop_
 _symmetry_equiv_pos_site_id
 _symmetry_equiv_pos_as_xyz
  1  'x, y, z'
loop_
 _atom_site_type_symbol
 _atom_site_label
 _atom_site_symmetry_multiplicity
 _atom_site_fract_x
 _atom_site_fract_y
 _atom_site_fract_z
 _atom_site_occupancy
  Sr  Sr0  1  0.95589098  0.90075119  0.94822987  1.0
  Sr  Sr1  1  0.04410902  0.40075119  0.05177013  1.0
  Sr  Sr2  1  0.93862145  0.39036773  0.46603842  1.0
  Sr  Sr3  1  0.06137855  0.89036773  0.53396158  1.0
  Sr  Sr4  1  0.51773818  0.74338871  0.22881822  1.0
  Sr  Sr5  1  0.48226182  0.24338871  0.77118178  1.0
  B  B6  1  0.82506115  0.60132787  0.73188287  1.0
  B  B7  1  0.17493885  0.10132787  0.26811713  1.0
  B  B8  1  0.60479950  0.84909628  0.63301347  1.0
  B  B9  1  0.39520050  0.34909628  0.36698653  1.0
  B  B10  1  0.60273997  0.60360630  0.93444514  1.0
  B  B11  1  0.39726003  0.10360630  0.06555486  1.0
  B  B12  1  0.48972317  0.56734587  0.55232013  1.0
  B  B13  1  0.51027683  0.06734587  0.44767987  1.0
  B  B14  1  0.42920637  0.88224706  0.85909794  1.0
  B  B15  1  0.57079363  0.38224706  0.14090206  1.0
  B  B16  1  0.22693278  0.62355628  0.78963010  1.0
  B  B17  1  0.77306722  0.12355628  0.21036990  1.0
  O  O18  1  0.95538264  0.04240313  0.27484139  1.0
  O  O19  1  0.04461736  0.54240313  0.72515861  1.0
  O  O20  1  0.80534009  0.77239525  0.69515849  1.0
  O  O21  1  0.19465991  0.27239525  0.30484151  1.0
  O  O22  1  0.79166746  0.56826778  0.87432132  1.0
  O  O23  1  0.20833254  0.06826778  0.12567868  1.0
  O  O24  1  0.67785182  0.50134495  0.62524167  1.0
  O  O25  1  0.32214818  0.00134495  0.37475833  1.0
  O  O26  1  0.66009630  0.96741579  0.52733870  1.0
  O  O27  1  0.33990370  0.46741579  0.47266130  1.0
  O  O28  1  0.57814229  0.77950982  0.95663506  1.0
  O  O29  1  0.42185771  0.27950982  0.04336494  1.0
  O  O30  1  0.51171776  0.94088347  0.73443984  1.0
  O  O31  1  0.48828224  0.44088347  0.26556016  1.0
  O  O32  1  0.44493914  0.72891324  0.55606960  1.0
  O  O33  1  0.55506086  0.22891324  0.44393040  1.0
  O  O34  1  0.40703616  0.53532834  0.83842954  1.0
  O  O35  1  0.59296384  0.03532834  0.16157046  1.0
  O  O36  1  0.36184244  0.02690448  0.92531989  1.0
  O  O37  1  0.63815756  0.52690448  0.07468011  1.0
  O  O38  1  0.22588311  0.78886149  0.80148611  1.0
  O  O39  1  0.77411689  0.28886149  0.19851389  1.0
  F  F40  1  0.86761660  0.67394685  0.38928759  1.0
  F  F41  1  0.13238340  0.17394685  0.61071241  1.0
  F  F42  1  0.84025834  0.18473809  0.90226980  1.0
  F  F43  1  0.15974166  0.68473809  0.09773020  1.0
