# generated using pymatgen
data_Li3Fe(CN)6
_symmetry_space_group_name_H-M   'P 1'
_cell_length_a   5.93935938
_cell_length_b   10.84910101
_cell_length_c   7.54084489
_cell_angle_alpha   90.00000000
_cell_angle_beta   94.98397863
_cell_angle_gamma   90.00000000
_symmetry_Int_Tables_number   1
_chemical_formula_structural   Li3Fe(CN)6
_chemical_formula_sum   'Li6 Fe2 C12 N12'
_cell_volume   484.07003329
_cell_formula_units_Z   2
loop_
 _symmetry_equiv_pos_site_id
 _symmetry_equiv_pos_as_xyz
  1  'x, y, z'
loop_
 _atom_site_type_symbol
 _atom_site_label
 _atom_site_symmetry_multiplicity
 _atom_site_fract_x
 _atom_site_fract_y
 _atom_site_fract_z
 _atom_site_occupancy
  Li  Li0  1  0.48410262  0.33607037  0.13710902  1.0
  Li  Li1  1  0.51589738  0.83607037  0.86289098  1.0
  Li  Li2  1  0.58826150  0.13532372  0.78834175  1.0
  Li  Li3  1  0.41173850  0.63532372  0.21165825  1.0
  Li  Li4  1  0.49147962  0.21898199  0.45424869  1.0
  Li  Li5  1  0.50852038  0.71898199  0.54575131  1.0
  Fe  Fe6  1  0.98547734  0.45285674  0.70550145  1.0
  Fe  Fe7  1  0.01452266  0.95285674  0.29449855  1.0
  C  C8  1  0.84259204  0.04493068  0.45185400  1.0
  C  C9  1  0.15740796  0.54493068  0.54814600  1.0
  C  C10  1  0.81062915  0.35773303  0.85447560  1.0
  C  C11  1  0.18937085  0.85773303  0.14552440  1.0
  C  C12  1  0.81623559  0.59872676  0.75171163  1.0
  C  C13  1  0.18376441  0.09872676  0.24828837  1.0
  C  C14  1  0.78982060  0.40749214  0.50024884  1.0
  C  C15  1  0.21017940  0.90749214  0.49975116  1.0
  C  C16  1  0.18297329  0.48664489  0.91243385  1.0
  C  C17  1  0.81702671  0.98664489  0.08756615  1.0
  C  C18  1  0.17304287  0.31285451  0.67574912  1.0
  C  C19  1  0.82695713  0.81285451  0.32425088  1.0
  N  N20  1  0.73308139  0.09683257  0.55029760  1.0
  N  N21  1  0.26691861  0.59683257  0.44970240  1.0
  N  N22  1  0.69556197  0.29994186  0.94226505  1.0
  N  N23  1  0.30443803  0.79994186  0.05773495  1.0
  N  N24  1  0.70574533  0.68513821  0.77999453  1.0
  N  N25  1  0.29425467  0.18513821  0.22000547  1.0
  N  N26  1  0.69075539  -0.00151688  0.96016527  1.0
  N  N27  1  0.30924461  0.49848312  0.03983473  1.0
  N  N28  1  0.66582890  0.37580787  0.37907309  1.0
  N  N29  1  0.33417110  0.87580787  0.62092691  1.0
  N  N30  1  0.30453963  0.23278154  0.66833910  1.0
  N  N31  1  0.69546037  0.73278154  0.33166090  1.0
