# generated using pymatgen
data_CsGdP2O7
_symmetry_space_group_name_H-M   'P 1'
_cell_length_a   8.10166065
_cell_length_b   11.23618551
_cell_length_c   8.99277392
_cell_angle_alpha   90.00000000
_cell_angle_beta   104.93340099
_cell_angle_gamma   90.00000000
_symmetry_Int_Tables_number   1
_chemical_formula_structural   CsGdP2O7
_chemical_formula_sum   'Cs4 Gd4 P8 O28'
_cell_volume   790.97972587
_cell_formula_units_Z   4
loop_
 _symmetry_equiv_pos_site_id
 _symmetry_equiv_pos_as_xyz
  1  'x, y, z'
loop_
 _atom_site_type_symbol
 _atom_site_label
 _atom_site_symmetry_multiplicity
 _atom_site_fract_x
 _atom_site_fract_y
 _atom_site_fract_z
 _atom_site_occupancy
  Cs  Cs0  1  0.80412198  0.81548343  0.43929422  1.0
  Cs  Cs1  1  0.80412198  0.68451657  0.93929422  1.0
  Cs  Cs2  1  0.19587802  0.31548343  0.06070578  1.0
  Cs  Cs3  1  0.19587802  0.18451657  0.56070578  1.0
  Gd  Gd4  1  0.76257857  0.40042600  0.24854185  1.0
  Gd  Gd5  1  0.76257857  0.09957400  0.74854185  1.0
  Gd  Gd6  1  0.23742143  0.90042600  0.25145815  1.0
  Gd  Gd7  1  0.23742143  0.59957400  0.75145815  1.0
  P  P8  1  0.87150875  0.09847937  0.18153050  1.0
  P  P9  1  0.87150875  0.40152063  0.68153050  1.0
  P  P10  1  0.12849125  0.59847937  0.31846950  1.0
  P  P11  1  0.12849125  0.90152063  0.81846950  1.0
  P  P12  1  0.57613344  0.12943998  0.31583010  1.0
  P  P13  1  0.57613344  0.37056002  0.81583010  1.0
  P  P14  1  0.42386656  0.62943998  0.18416990  1.0
  P  P15  1  0.42386656  0.87056002  0.68416990  1.0
  O  O16  1  1.00224565  0.50557886  0.22680666  1.0
  O  O17  1  1.00224565  -0.00557886  0.72680666  1.0
  O  O18  1  -0.00224565  1.00557886  0.27319334  1.0
  O  O19  1  -0.00224565  0.49442114  0.77319334  1.0
  O  O20  1  0.91836249  0.22514664  0.24483982  1.0
  O  O21  1  0.91836249  0.27485336  0.74483982  1.0
  O  O22  1  0.08163751  0.72514664  0.25516018  1.0
  O  O23  1  0.08163751  0.77485336  0.75516018  1.0
  O  O24  1  0.85099425  0.41016678  0.50843310  1.0
  O  O25  1  0.85099425  0.08983322  1.00843310  1.0
  O  O26  1  0.14900575  0.91016678  -0.00843310  1.0
  O  O27  1  0.14900575  0.58983322  0.49156690  1.0
  O  O28  1  0.67335001  0.10570747  0.48332892  1.0
  O  O29  1  0.67335001  0.39429253  0.98332892  1.0
  O  O30  1  0.32664999  0.60570747  0.01667108  1.0
  O  O31  1  0.32664999  0.89429253  0.51667108  1.0
  O  O32  1  0.68522534  0.06299628  0.20860865  1.0
  O  O33  1  0.68522534  0.43700372  0.70860865  1.0
  O  O34  1  0.31477466  0.56299628  0.29139135  1.0
  O  O35  1  0.31477466  0.93700372  0.79139135  1.0
  O  O36  1  0.56143699  0.26192935  0.27134364  1.0
  O  O37  1  0.56143699  0.23807065  0.77134364  1.0
  O  O38  1  0.43856301  0.76192935  0.22865636  1.0
  O  O39  1  0.43856301  0.73807065  0.72865636  1.0
  O  O40  1  0.40027827  0.06899632  0.26946575  1.0
  O  O41  1  0.40027827  0.43100368  0.76946575  1.0
  O  O42  1  0.59972173  0.56899632  0.23053425  1.0
  O  O43  1  0.59972173  0.93100368  0.73053425  1.0
