# generated using pymatgen
data_Y2AlSi2
_symmetry_space_group_name_H-M   'P 1'
_cell_length_a   5.60748429
_cell_length_b   5.60748429
_cell_length_c   5.60748429
_cell_angle_alpha   137.40464896
_cell_angle_beta   118.40409903
_cell_angle_gamma   77.76984733
_symmetry_Int_Tables_number   1
_chemical_formula_structural   Y2AlSi2
_chemical_formula_sum   'Y2 Al1 Si2'
_cell_volume   102.09720120
_cell_formula_units_Z   1
loop_
 _symmetry_equiv_pos_site_id
 _symmetry_equiv_pos_as_xyz
  1  'x, y, z'
loop_
 _atom_site_type_symbol
 _atom_site_label
 _atom_site_symmetry_multiplicity
 _atom_site_fract_x
 _atom_site_fract_y
 _atom_site_fract_z
 _atom_site_occupancy
  Y  Y0  1  0.71090356  0.21090356  0.50000000  1.0
  Y  Y1  1  1.28909644  0.78909644  0.50000000  1.0
  Al  Al2  1  0.00000000  0.00000000  0.00000000  1.0
  Si  Si3  1  0.28956872  0.50000000  0.78956872  1.0
  Si  Si4  1  0.71043128  0.50000000  1.21043128  1.0
