# generated using pymatgen
data_Al2Si2O9
_symmetry_space_group_name_H-M   'P 1'
_cell_length_a   5.20967569
_cell_length_b   5.20967569
_cell_length_c   15.59908001
_cell_angle_alpha   87.50264808
_cell_angle_beta   92.49735192
_cell_angle_gamma   59.89611835
_symmetry_Int_Tables_number   1
_chemical_formula_structural   Al2Si2O9
_chemical_formula_sum   'Al4 Si4 O18'
_cell_volume   364.86716372
_cell_formula_units_Z   2
loop_
 _symmetry_equiv_pos_site_id
 _symmetry_equiv_pos_as_xyz
  1  'x, y, z'
loop_
 _atom_site_type_symbol
 _atom_site_label
 _atom_site_symmetry_multiplicity
 _atom_site_fract_x
 _atom_site_fract_y
 _atom_site_fract_z
 _atom_site_occupancy
  O  O0  1  0.86882682  -0.88150845  0.34906431  1.0
  O  O1  1  0.88150845  -0.86882682  0.84906431  1.0
  O  O2  1  0.63195036  -0.26252031  0.34908548  1.0
  O  O3  1  1.26252031  0.36804964  0.84908548  1.0
  O  O4  1  1.62194815  0.15781870  -0.00624124  1.0
  O  O5  1  0.84218130  -0.62194815  0.49375876  1.0
  O  O6  1  0.28542875  -0.17335845  0.48137626  1.0
  O  O7  1  1.17335845  0.71457125  -0.01862374  1.0
  O  O8  1  0.73571281  -0.06891797  0.49398581  1.0
  O  O9  1  1.06891797  0.26428719  -0.00601419  1.0
  O  O10  1  1.21632128  0.13650194  0.21815171  1.0
  O  O11  1  0.86349806  -0.21632128  0.71815171  1.0
  O  O12  1  0.59711211  -0.62684110  0.20800558  1.0
  O  O13  1  0.62684110  -0.59711211  0.70800558  1.0
  O  O14  1  0.83023624  -0.24339908  0.20805297  1.0
  O  O15  1  1.24339908  0.16976376  0.70805297  1.0
  O  O16  1  1.24270341  0.36212146  0.32115591  1.0
  O  O17  1  0.63787854  -0.24270341  0.82115591  1.0
  Al  Al18  1  1.56907956  0.13190503  0.77654163  1.0
  Al  Al19  1  0.86809497  -0.56907956  0.27654163  1.0
  Al  Al20  1  1.59465757  0.06793049  0.27660141  1.0
  Al  Al21  1  0.93206951  -0.59465757  0.77660141  1.0
  Si  Si22  1  0.93698334  -0.93983143  0.45509084  1.0
  Si  Si23  1  0.93983143  -0.93698334  0.95509084  1.0
  Si  Si24  1  0.61986201  -0.28107841  0.45512934  1.0
  Si  Si25  1  1.28107841  0.38013799  0.95512934  1.0
