# generated using pymatgen
data_SNF
_symmetry_space_group_name_H-M   'P 1'
_cell_length_a   7.10419171
_cell_length_b   7.10419171
_cell_length_c   7.10419171
_cell_angle_alpha   98.37409331
_cell_angle_beta   98.37409331
_cell_angle_gamma   98.37409331
_symmetry_Int_Tables_number   1
_chemical_formula_structural   SNF
_chemical_formula_sum   'S6 N6 F6'
_cell_volume   345.80441492
_cell_formula_units_Z   6
loop_
 _symmetry_equiv_pos_site_id
 _symmetry_equiv_pos_as_xyz
  1  'x, y, z'
loop_
 _atom_site_type_symbol
 _atom_site_label
 _atom_site_symmetry_multiplicity
 _atom_site_fract_x
 _atom_site_fract_y
 _atom_site_fract_z
 _atom_site_occupancy
  S  S0  1  1.77507740  0.67019874  -0.02877742  1.0
  S  S1  1  0.32980126  1.02877742  -0.77507740  1.0
  S  S2  1  1.02877742  0.22492260  -0.67019874  1.0
  S  S3  1  0.22492260  0.32980126  0.02877742  1.0
  S  S4  1  1.67019874  -0.02877742  0.77507740  1.0
  S  S5  1  0.97122258  0.77507740  0.67019874  1.0
  N  N6  1  1.66962592  0.85425733  -0.04624069  1.0
  N  N7  1  1.14574267  0.04624069  -0.66962592  1.0
  N  N8  1  1.04624069  -0.66962592  0.14574267  1.0
  N  N9  1  0.33037408  0.14574267  0.04624069  1.0
  N  N10  1  0.85425733  0.95375931  0.66962592  1.0
  N  N11  1  0.95375931  1.66962592  -0.14574267  1.0
  F  F12  1  1.61294284  0.48989673  -0.16676075  1.0
  F  F13  1  0.51010327  1.16676075  -0.61294284  1.0
  F  F14  1  1.16676075  0.38705716  -0.48989673  1.0
  F  F15  1  0.38705716  0.51010327  0.16676075  1.0
  F  F16  1  1.48989673  -0.16676075  0.61294284  1.0
  F  F17  1  0.83323925  0.61294284  0.48989673  1.0
