# generated using pymatgen
data_TeS7Cl2
_symmetry_space_group_name_H-M   'P 1'
_cell_length_a   10.07956408
_cell_length_b   9.52485460
_cell_length_c   13.94945809
_cell_angle_alpha   90.00000000
_cell_angle_beta   90.00000000
_cell_angle_gamma   90.00000000
_symmetry_Int_Tables_number   1
_chemical_formula_structural   TeS7Cl2
_chemical_formula_sum   'Te4 S28 Cl8'
_cell_volume   1339.23700688
_cell_formula_units_Z   4
loop_
 _symmetry_equiv_pos_site_id
 _symmetry_equiv_pos_as_xyz
  1  'x, y, z'
loop_
 _atom_site_type_symbol
 _atom_site_label
 _atom_site_symmetry_multiplicity
 _atom_site_fract_x
 _atom_site_fract_y
 _atom_site_fract_z
 _atom_site_occupancy
  Te  Te0  1  0.79842116  0.25000000  0.10273719  1.0
  Te  Te1  1  0.70157884  0.75000000  0.60273719  1.0
  Te  Te2  1  0.29842116  0.25000000  0.39726281  1.0
  Te  Te3  1  0.20157884  0.75000000  0.89726281  1.0
  S  S4  1  0.64062185  0.42671920  0.79724699  1.0
  S  S5  1  0.85937815  0.57328080  0.29724699  1.0
  S  S6  1  0.14062185  0.07328080  0.70275301  1.0
  S  S7  1  0.35937815  0.92671920  0.20275301  1.0
  S  S8  1  0.35937815  0.57328080  0.20275301  1.0
  S  S9  1  0.14062185  0.42671920  0.70275301  1.0
  S  S10  1  0.85937815  0.92671920  0.29724699  1.0
  S  S11  1  0.64062185  0.07328080  0.79724699  1.0
  S  S12  1  0.67443857  0.45832782  0.03434166  1.0
  S  S13  1  0.82556143  0.54167218  0.53434166  1.0
  S  S14  1  0.17443857  0.04167218  0.46565834  1.0
  S  S15  1  0.32556143  0.95832782  0.96565834  1.0
  S  S16  1  0.32556143  0.54167218  0.96565834  1.0
  S  S17  1  0.17443857  0.45832782  0.46565834  1.0
  S  S18  1  0.82556143  0.95832782  0.53434166  1.0
  S  S19  1  0.67443857  0.04167218  0.03434166  1.0
  S  S20  1  0.73262651  0.25000000  0.74364588  1.0
  S  S21  1  0.76737349  0.75000000  0.24364588  1.0
  S  S22  1  0.23262651  0.25000000  0.75635412  1.0
  S  S23  1  0.26737349  0.75000000  0.25635412  1.0
  S  S24  1  0.75261616  0.51701358  0.90788398  1.0
  S  S25  1  0.74738384  0.48298642  0.40788398  1.0
  S  S26  1  0.25261616  0.98298642  0.59211602  1.0
  S  S27  1  0.24738384  0.01701358  0.09211602  1.0
  S  S28  1  0.24738384  0.48298642  0.09211602  1.0
  S  S29  1  0.25261616  0.51701358  0.59211602  1.0
  S  S30  1  0.74738384  0.01701358  0.40788398  1.0
  S  S31  1  0.75261616  0.98298642  0.90788398  1.0
  Cl  Cl32  1  0.59927571  0.25000000  0.21456363  1.0
  Cl  Cl33  1  0.90072429  0.75000000  0.71456363  1.0
  Cl  Cl34  1  0.09927571  0.25000000  0.28543637  1.0
  Cl  Cl35  1  0.40072429  0.75000000  0.78543637  1.0
  Cl  Cl36  1  0.96317621  0.25000000  0.97289555  1.0
  Cl  Cl37  1  0.53682379  0.75000000  0.47289555  1.0
  Cl  Cl38  1  0.46317621  0.25000000  0.52710445  1.0
  Cl  Cl39  1  0.03682379  0.75000000  0.02710445  1.0
