# generated using pymatgen
data_Ca2CO3F2
_symmetry_space_group_name_H-M   'P 1'
_cell_length_a   7.73224788
_cell_length_b   7.51877677
_cell_length_c   6.72642754
_cell_angle_alpha   90.00000000
_cell_angle_beta   90.00000000
_cell_angle_gamma   90.00000000
_symmetry_Int_Tables_number   1
_chemical_formula_structural   Ca2CO3F2
_chemical_formula_sum   'Ca8 C4 O12 F8'
_cell_volume   391.05462571
_cell_formula_units_Z   4
loop_
 _symmetry_equiv_pos_site_id
 _symmetry_equiv_pos_as_xyz
  1  'x, y, z'
loop_
 _atom_site_type_symbol
 _atom_site_label
 _atom_site_symmetry_multiplicity
 _atom_site_fract_x
 _atom_site_fract_y
 _atom_site_fract_z
 _atom_site_occupancy
  Ca  Ca0  1  0.67219682  0.83652840  0.54042002  1.0
  Ca  Ca1  1  0.67219682  0.16347160  0.04042002  1.0
  Ca  Ca2  1  0.17219682  0.33652840  0.95957998  1.0
  Ca  Ca3  1  0.17219682  0.66347160  0.45957998  1.0
  Ca  Ca4  1  0.32780318  0.83652840  0.95957998  1.0
  Ca  Ca5  1  0.32780318  0.16347160  0.45957998  1.0
  Ca  Ca6  1  0.82780318  0.33652840  0.54042002  1.0
  Ca  Ca7  1  0.82780318  0.66347160  0.04042002  1.0
  C  C8  1  0.00000000  0.96548176  0.75000000  1.0
  C  C9  1  0.00000000  0.03451824  0.25000000  1.0
  C  C10  1  0.50000000  0.46548176  0.75000000  1.0
  C  C11  1  0.50000000  0.53451824  0.25000000  1.0
  O  O12  1  0.62876025  0.54967569  0.67223701  1.0
  O  O13  1  0.62876025  0.45032431  0.17223701  1.0
  O  O14  1  0.12876025  0.04967569  0.82776299  1.0
  O  O15  1  0.12876025  0.95032431  0.32776299  1.0
  O  O16  1  0.37123975  0.54967569  0.82776299  1.0
  O  O17  1  0.37123975  0.45032431  0.32776299  1.0
  O  O18  1  0.87123975  0.04967569  0.67223701  1.0
  O  O19  1  0.87123975  0.95032431  0.17223701  1.0
  O  O20  1  0.00000000  0.79199676  0.75000000  1.0
  O  O21  1  0.00000000  0.20800324  0.25000000  1.0
  O  O22  1  0.50000000  0.29199676  0.75000000  1.0
  O  O23  1  0.50000000  0.70800324  0.25000000  1.0
  F  F24  1  0.62153082  0.87938031  0.89707953  1.0
  F  F25  1  0.62153082  0.12061969  0.39707953  1.0
  F  F26  1  0.12153082  0.37938031  0.60292047  1.0
  F  F27  1  0.12153082  0.62061969  0.10292047  1.0
  F  F28  1  0.37846918  0.87938031  0.60292047  1.0
  F  F29  1  0.37846918  0.12061969  0.10292047  1.0
  F  F30  1  0.87846918  0.37938031  0.89707953  1.0
  F  F31  1  0.87846918  0.62061969  0.39707953  1.0
