# generated using pymatgen
data_LiNb3InCl9
_symmetry_space_group_name_H-M   'P 1'
_cell_length_a   9.42234950
_cell_length_b   9.54167193
_cell_length_c   9.65185016
_cell_angle_alpha   59.19765280
_cell_angle_beta   67.52763744
_cell_angle_gamma   75.45622363
_symmetry_Int_Tables_number   1
_chemical_formula_structural   LiNb3InCl9
_chemical_formula_sum   'Li2 Nb6 In2 Cl18'
_cell_volume   687.06642461
_cell_formula_units_Z   2
loop_
 _symmetry_equiv_pos_site_id
 _symmetry_equiv_pos_as_xyz
  1  'x, y, z'
loop_
 _atom_site_type_symbol
 _atom_site_label
 _atom_site_symmetry_multiplicity
 _atom_site_fract_x
 _atom_site_fract_y
 _atom_site_fract_z
 _atom_site_occupancy
  Li  Li0  1  -0.38529242  0.35574539  0.45494488  1.0
  Li  Li1  1  -0.61470758  -0.35574539  0.54505512  1.0
  Nb  Nb2  1  -0.12959581  0.04782539  0.84610399  1.0
  Nb  Nb3  1  -0.87040419  -0.04782539  0.15389601  1.0
  Nb  Nb4  1  -0.85895203  -0.16968945  0.92506918  1.0
  Nb  Nb5  1  -0.14104797  0.16968945  0.07493082  1.0
  Nb  Nb6  1  -0.85774474  0.18246071  0.80092235  1.0
  Nb  Nb7  1  -0.14225526  -0.18246071  0.19907765  1.0
  In  In8  1  -0.35195036  -0.25984194  0.76797183  1.0
  In  In9  1  -0.64804964  0.25984194  0.23202817  1.0
  Cl  Cl10  1  -0.68071708  -0.84209398  0.94579566  1.0
  Cl  Cl11  1  -0.31928292  0.84209398  0.05420434  1.0
  Cl  Cl12  1  -0.66696474  -0.38172764  0.82622081  1.0
  Cl  Cl13  1  -0.33303526  0.38172764  0.17377919  1.0
  Cl  Cl14  1  -0.66778309  0.41008858  0.54308543  1.0
  Cl  Cl15  1  -0.33221691  -0.41008858  0.45691457  1.0
  Cl  Cl16  1  -0.66689238  0.01564977  0.67413629  1.0
  Cl  Cl17  1  -0.33310762  -0.01564977  0.32586371  1.0
  Cl  Cl18  1  -0.29587810  0.10009699  0.65609550  1.0
  Cl  Cl19  1  -0.70412190  -0.10009699  0.34390450  1.0
  Cl  Cl20  1  -0.99920930  -0.58600469  0.85351155  1.0
  Cl  Cl21  1  -0.00079070  0.58600469  0.14648845  1.0
  Cl  Cl22  1  -0.98784986  -0.14589871  0.73470677  1.0
  Cl  Cl23  1  -0.01215014  0.14589871  0.26529323  1.0
  Cl  Cl24  1  -0.98365226  0.27004846  0.58420696  1.0
  Cl  Cl25  1  -0.01634774  -0.27004846  0.41579304  1.0
  Cl  Cl26  1  -0.68178806  0.74179174  0.09384086  1.0
  Cl  Cl27  1  -0.31821194  -0.74179174  0.90615914  1.0
