# generated using pymatgen
data_NaH4C3N3O4
_symmetry_space_group_name_H-M   'P 1'
_cell_length_a   9.18685554
_cell_length_b   9.25398660
_cell_length_c   3.97483070
_cell_angle_alpha   94.78051279
_cell_angle_beta   88.37320837
_cell_angle_gamma   90.87253763
_symmetry_Int_Tables_number   1
_chemical_formula_structural   NaH4C3N3O4
_chemical_formula_sum   'Na2 H8 C6 N6 O8'
_cell_volume   336.58105925
_cell_formula_units_Z   2
loop_
 _symmetry_equiv_pos_site_id
 _symmetry_equiv_pos_as_xyz
  1  'x, y, z'
loop_
 _atom_site_type_symbol
 _atom_site_label
 _atom_site_symmetry_multiplicity
 _atom_site_fract_x
 _atom_site_fract_y
 _atom_site_fract_z
 _atom_site_occupancy
  Na  Na0  1  0.37818325  0.84449973  0.56186497  1.0
  Na  Na1  1  0.62181675  0.15550027  0.43813503  1.0
  H  H2  1  0.65039126  0.38432599  0.98692791  1.0
  H  H3  1  0.34960874  0.61567401  0.01307209  1.0
  H  H4  1  0.48754093  0.31822017  1.02102768  1.0
  H  H5  1  0.51245907  0.68177983  -0.02102768  1.0
  H  H6  1  0.04876137  0.60846945  0.87865844  1.0
  H  H7  1  0.95123863  0.39153055  0.12134156  1.0
  H  H8  1  0.87992735  0.97973230  0.54088394  1.0
  H  H9  1  0.12007265  0.02026770  0.45911606  1.0
  C  C10  1  0.81980746  0.62228834  0.89680113  1.0
  C  C11  1  0.18019254  0.37771166  0.10319887  1.0
  C  C12  1  0.72546048  0.83297462  0.70875811  1.0
  C  C13  1  0.27453952  0.16702538  0.29124189  1.0
  C  C14  1  0.98922683  0.80259222  0.69555532  1.0
  C  C15  1  0.01077317  0.19740778  0.30444468  1.0
  N  N16  1  0.70424730  0.70374852  0.83865454  1.0
  N  N17  1  0.29575270  0.29625148  0.16134546  1.0
  N  N18  1  0.96128128  0.67303120  0.82597259  1.0
  N  N19  1  0.03871872  0.32696880  0.17402741  1.0
  N  N20  1  0.86790150  0.87944258  0.63870168  1.0
  N  N21  1  0.13209850  0.12055742  0.36129832  1.0
  O  O22  1  0.80793422  0.50117124  1.01675988  1.0
  O  O23  1  0.19206578  0.49882876  -0.01675988  1.0
  O  O24  1  0.59100747  0.29433517  0.96142085  1.0
  O  O25  1  0.40899253  0.70566483  0.03857915  1.0
  O  O26  1  0.62487466  0.91563086  0.64670928  1.0
  O  O27  1  0.37512534  0.08436914  0.35329072  1.0
  O  O28  1  0.11464925  0.84859655  0.63188400  1.0
  O  O29  1  0.88535075  0.15140345  0.36811600  1.0
