# generated using pymatgen
data_P2O5
_symmetry_space_group_name_H-M   'P 1'
_cell_length_a   8.13664268
_cell_length_b   8.13664268
_cell_length_c   8.13664268
_cell_angle_alpha   90.00248641
_cell_angle_beta   90.00248641
_cell_angle_gamma   90.00248641
_symmetry_Int_Tables_number   1
_chemical_formula_structural   P2O5
_chemical_formula_sum   'P8 O20'
_cell_volume   538.68605377
_cell_formula_units_Z   4
loop_
 _symmetry_equiv_pos_site_id
 _symmetry_equiv_pos_as_xyz
  1  'x, y, z'
loop_
 _atom_site_type_symbol
 _atom_site_label
 _atom_site_symmetry_multiplicity
 _atom_site_fract_x
 _atom_site_fract_y
 _atom_site_fract_z
 _atom_site_occupancy
  P  P0  1  0.25494321  1.00304123  -0.75526031  1.0
  P  P1  1  0.75494321  0.74473969  0.50304123  1.0
  P  P2  1  1.50304123  0.75494321  -0.25526031  1.0
  P  P3  1  1.00304123  0.24473969  -0.74505679  1.0
  P  P4  1  0.74473969  1.50304123  -0.24505679  1.0
  P  P5  1  0.24473969  0.25494321  0.00304123  1.0
  P  P6  1  0.00292247  0.00292247  0.00292247  1.0
  P  P7  1  0.50292247  0.50292247  0.50292247  1.0
  O  O8  1  1.13078307  -0.09366100  0.12194277  1.0
  O  O9  1  0.63078307  0.62194277  0.40633900  1.0
  O  O10  1  1.40633900  0.63078307  -0.37805723  1.0
  O  O11  1  0.90633900  0.12194277  0.13078307  1.0
  O  O12  1  0.62194277  1.40633900  -0.36921693  1.0
  O  O13  1  1.12194277  0.13078307  -0.09366100  1.0
  O  O14  1  1.36251863  -0.10013144  0.34367868  1.0
  O  O15  1  0.86251863  0.84367868  0.39986856  1.0
  O  O16  1  1.39986856  0.86251863  -0.15632132  1.0
  O  O17  1  0.89986856  0.34367868  0.36251863  1.0
  O  O18  1  0.84367868  1.39986856  -0.13748137  1.0
  O  O19  1  1.34367868  0.36251863  -0.10013144  1.0
  O  O20  1  1.13101118  0.12192913  -0.65354382  1.0
  O  O21  1  1.63101118  -0.15354382  0.62192913  1.0
  O  O22  1  1.62192913  0.63101118  -0.15354382  1.0
  O  O23  1  1.12192913  -0.65354382  0.13101118  1.0
  O  O24  1  0.84645618  0.62192913  0.63101118  1.0
  O  O25  1  0.34645618  0.13101118  0.12192913  1.0
  O  O26  1  0.39962620  0.39962620  0.39962620  1.0
  O  O27  1  0.89962620  0.89962620  0.89962620  1.0
