# generated using pymatgen
data_C
_symmetry_space_group_name_H-M   'P 1'
_cell_length_a   10.47063987
_cell_length_b   10.47063987
_cell_length_c   10.47063987
_cell_angle_alpha   13.82306671
_cell_angle_beta   13.82306671
_cell_angle_gamma   13.82306671
_symmetry_Int_Tables_number   1
_chemical_formula_structural   C
_chemical_formula_sum   C10
_cell_volume   57.02596413
_cell_formula_units_Z   10
loop_
 _symmetry_equiv_pos_site_id
 _symmetry_equiv_pos_as_xyz
  1  'x, y, z'
loop_
 _atom_site_type_symbol
 _atom_site_label
 _atom_site_symmetry_multiplicity
 _atom_site_fract_x
 _atom_site_fract_y
 _atom_site_fract_z
 _atom_site_occupancy
  C  C0  1  0.97517265  -0.02482735  -0.02482735  1.0
  C  C1  1  0.02482735  0.02482735  0.02482735  1.0
  C  C2  1  0.89131879  -0.10868121  -0.10868121  1.0
  C  C3  1  0.10868121  0.10868121  0.10868121  1.0
  C  C4  1  0.84163146  -0.15836854  -0.15836854  1.0
  C  C5  1  0.15836854  0.15836854  0.15836854  1.0
  C  C6  1  0.62514214  0.62514214  -0.37485786  1.0
  C  C7  1  0.37485786  0.37485786  -0.62514214  1.0
  C  C8  1  0.57467893  0.57467893  -0.42532107  1.0
  C  C9  1  0.42532107  0.42532107  -0.57467893  1.0
