# generated using pymatgen
data_Bi2O3
_symmetry_space_group_name_H-M   'P 1'
_cell_length_a   5.67579446
_cell_length_b   8.38751069
_cell_length_c   9.07866942
_cell_angle_alpha   90.00000000
_cell_angle_beta   121.90529112
_cell_angle_gamma   90.00000000
_symmetry_Int_Tables_number   1
_chemical_formula_structural   Bi2O3
_chemical_formula_sum   'Bi8 O12'
_cell_volume   366.90209349
_cell_formula_units_Z   4
loop_
 _symmetry_equiv_pos_site_id
 _symmetry_equiv_pos_as_xyz
  1  'x, y, z'
loop_
 _atom_site_type_symbol
 _atom_site_label
 _atom_site_symmetry_multiplicity
 _atom_site_fract_x
 _atom_site_fract_y
 _atom_site_fract_z
 _atom_site_occupancy
  Bi  Bi0  1  0.43223745  0.77327790  0.64675283  1.0
  Bi  Bi1  1  0.56776255  0.27327790  0.85324717  1.0
  Bi  Bi2  1  0.56776255  0.22672210  0.35324717  1.0
  Bi  Bi3  1  0.43223745  0.72672210  0.14675283  1.0
  Bi  Bi4  1  0.93844688  0.99007553  0.18492229  1.0
  Bi  Bi5  1  0.06155312  0.49007553  0.31507771  1.0
  Bi  Bi6  1  0.06155312  0.00992447  0.81507771  1.0
  Bi  Bi7  1  0.93844688  0.50992447  0.68492229  1.0
  O  O8  1  0.25567102  0.74526090  0.36385216  1.0
  O  O9  1  0.74432898  0.24526090  0.13614784  1.0
  O  O10  1  0.74432898  0.25473910  0.63614784  1.0
  O  O11  1  0.25567102  0.75473910  0.86385216  1.0
  O  O12  1  0.29419492  0.97379741  0.12240727  1.0
  O  O13  1  0.70580508  0.47379741  0.37759273  1.0
  O  O14  1  0.70580508  0.02620259  0.87759273  1.0
  O  O15  1  0.29419492  0.52620259  0.62240727  1.0
  O  O16  1  1.00539003  0.92510342  0.54534251  1.0
  O  O17  1  -0.00539003  0.42510342  -0.04534251  1.0
  O  O18  1  -0.00539003  0.07489658  0.45465749  1.0
  O  O19  1  1.00539003  0.57489658  1.04534251  1.0
