# generated using pymatgen
data_Mg3Au
_symmetry_space_group_name_H-M   'P 1'
_cell_length_a   4.62797797
_cell_length_b   4.62797797
_cell_length_c   9.45066099
_cell_angle_alpha   90.00000000
_cell_angle_beta   90.00000000
_cell_angle_gamma   120.00000000
_symmetry_Int_Tables_number   1
_chemical_formula_structural   Mg3Au
_chemical_formula_sum   'Mg6 Au2'
_cell_volume   175.29736276
_cell_formula_units_Z   2
loop_
 _symmetry_equiv_pos_site_id
 _symmetry_equiv_pos_as_xyz
  1  'x, y, z'
loop_
 _atom_site_type_symbol
 _atom_site_label
 _atom_site_symmetry_multiplicity
 _atom_site_fract_x
 _atom_site_fract_y
 _atom_site_fract_z
 _atom_site_occupancy
  Mg  Mg0  1  0.33333333  0.66666667  0.25000000  1.0
  Mg  Mg1  1  0.66666667  0.33333333  0.75000000  1.0
  Mg  Mg2  1  0.33333333  0.66666667  0.91016998  1.0
  Mg  Mg3  1  0.66666667  0.33333333  0.08983002  1.0
  Mg  Mg4  1  0.66666667  0.33333333  0.41016998  1.0
  Mg  Mg5  1  0.33333333  0.66666667  0.58983002  1.0
  Au  Au6  1  -0.00000000  0.00000000  0.25000000  1.0
  Au  Au7  1  0.00000000  0.00000000  0.75000000  1.0
