# generated using pymatgen
data_MgNi3B2
_symmetry_space_group_name_H-M   'P 1'
_cell_length_a   4.88552979
_cell_length_b   4.88552979
_cell_length_c   8.76227367
_cell_angle_alpha   90.00000000
_cell_angle_beta   90.00000000
_cell_angle_gamma   120.00000000
_symmetry_Int_Tables_number   1
_chemical_formula_structural   MgNi3B2
_chemical_formula_sum   'Mg3 Ni9 B6'
_cell_volume   181.12182145
_cell_formula_units_Z   3
loop_
 _symmetry_equiv_pos_site_id
 _symmetry_equiv_pos_as_xyz
  1  'x, y, z'
loop_
 _atom_site_type_symbol
 _atom_site_label
 _atom_site_symmetry_multiplicity
 _atom_site_fract_x
 _atom_site_fract_y
 _atom_site_fract_z
 _atom_site_occupancy
  Mg  Mg0  1  -0.00000000  -0.00000000  0.33333333  1.0
  Mg  Mg1  1  0.00000000  0.00000000  -0.00000000  1.0
  Mg  Mg2  1  0.00000000  0.00000000  0.66666667  1.0
  Ni  Ni3  1  0.50000000  0.50000000  0.54186650  1.0
  Ni  Ni4  1  0.50000000  -0.00000000  0.79146684  1.0
  Ni  Ni5  1  0.50000000  0.50000000  0.12480017  1.0
  Ni  Ni6  1  0.50000000  0.00000000  0.20853316  1.0
  Ni  Ni7  1  -0.00000000  0.50000000  0.45813350  1.0
  Ni  Ni8  1  -0.00000000  0.50000000  0.87519983  1.0
  Ni  Ni9  1  0.50000000  0.50000000  0.83333333  1.0
  Ni  Ni10  1  0.50000000  -0.00000000  0.50000000  1.0
  Ni  Ni11  1  -0.00000000  0.50000000  0.16666667  1.0
  B  B12  1  0.61155706  0.38844294  0.33333333  1.0
  B  B13  1  0.61155706  0.22311411  -0.00000000  1.0
  B  B14  1  0.38844294  0.61155706  0.33333333  1.0
  B  B15  1  0.38844294  0.77688589  0.00000000  1.0
  B  B16  1  0.77688589  0.38844294  0.66666667  1.0
  B  B17  1  0.22311411  0.61155706  0.66666667  1.0
