# generated using pymatgen
data_Sc(Ni2As)2
_symmetry_space_group_name_H-M   'P 1'
_cell_length_a   7.10912781
_cell_length_b   7.10912781
_cell_length_c   3.76879020
_cell_angle_alpha   90.00000000
_cell_angle_beta   90.00000000
_cell_angle_gamma   90.00000000
_symmetry_Int_Tables_number   1
_chemical_formula_structural   Sc(Ni2As)2
_chemical_formula_sum   'Sc2 Ni8 As4'
_cell_volume   190.47351915
_cell_formula_units_Z   2
loop_
 _symmetry_equiv_pos_site_id
 _symmetry_equiv_pos_as_xyz
  1  'x, y, z'
loop_
 _atom_site_type_symbol
 _atom_site_label
 _atom_site_symmetry_multiplicity
 _atom_site_fract_x
 _atom_site_fract_y
 _atom_site_fract_z
 _atom_site_occupancy
  Sc  Sc0  1  0.50000000  0.50000000  0.50000000  1.0
  Sc  Sc1  1  0.00000000  0.00000000  0.00000000  1.0
  Ni  Ni2  1  0.34624677  0.09049808  0.50000000  1.0
  Ni  Ni3  1  0.84624677  0.40950192  0.00000000  1.0
  Ni  Ni4  1  0.90950192  0.65375323  0.50000000  1.0
  Ni  Ni5  1  0.40950192  0.84624677  0.00000000  1.0
  Ni  Ni6  1  0.65375323  0.90950192  0.50000000  1.0
  Ni  Ni7  1  0.15375323  0.59049808  0.00000000  1.0
  Ni  Ni8  1  0.09049808  0.34624677  0.50000000  1.0
  Ni  Ni9  1  0.59049808  0.15375323  0.00000000  1.0
  As  As10  1  0.21656016  0.78343984  0.50000000  1.0
  As  As11  1  0.71656016  0.71656016  -0.00000000  1.0
  As  As12  1  0.78343984  0.21656016  0.50000000  1.0
  As  As13  1  0.28343984  0.28343984  -0.00000000  1.0
