# generated using pymatgen
data_HfNi2Sb
_symmetry_space_group_name_H-M   'P 1'
_cell_length_a   4.44908992
_cell_length_b   4.44908992
_cell_length_c   7.53387581
_cell_angle_alpha   90.00000000
_cell_angle_beta   90.00000000
_cell_angle_gamma   120.00000000
_symmetry_Int_Tables_number   1
_chemical_formula_structural   HfNi2Sb
_chemical_formula_sum   'Hf2 Ni4 Sb2'
_cell_volume   129.14912094
_cell_formula_units_Z   2
loop_
 _symmetry_equiv_pos_site_id
 _symmetry_equiv_pos_as_xyz
  1  'x, y, z'
loop_
 _atom_site_type_symbol
 _atom_site_label
 _atom_site_symmetry_multiplicity
 _atom_site_fract_x
 _atom_site_fract_y
 _atom_site_fract_z
 _atom_site_occupancy
  Hf  Hf0  1  -0.00000000  -0.00000000  0.50000000  1.0
  Hf  Hf1  1  -0.00000000  -0.00000000  -0.00000000  1.0
  Ni  Ni2  1  0.33333333  0.66666667  0.90797059  1.0
  Ni  Ni3  1  0.33333333  0.66666667  0.59202941  1.0
  Ni  Ni4  1  0.66666667  0.33333333  0.40797059  1.0
  Ni  Ni5  1  0.66666667  0.33333333  0.09202941  1.0
  Sb  Sb6  1  0.33333333  0.66666667  0.25000000  1.0
  Sb  Sb7  1  0.66666667  0.33333333  0.75000000  1.0
