# generated using pymatgen
data_AlBi2B3Pb2O11
_symmetry_space_group_name_H-M   'P 1'
_cell_length_a   9.91295938
_cell_length_b   9.91295938
_cell_length_c   7.05736469
_cell_angle_alpha   87.91861446
_cell_angle_beta   92.08138554
_cell_angle_gamma   127.31008555
_symmetry_Int_Tables_number   1
_chemical_formula_structural   AlBi2B3Pb2O11
_chemical_formula_sum   'Al2 Bi4 B6 Pb4 O22'
_cell_volume   551.13717238
_cell_formula_units_Z   2
loop_
 _symmetry_equiv_pos_site_id
 _symmetry_equiv_pos_as_xyz
  1  'x, y, z'
loop_
 _atom_site_type_symbol
 _atom_site_label
 _atom_site_symmetry_multiplicity
 _atom_site_fract_x
 _atom_site_fract_y
 _atom_site_fract_z
 _atom_site_occupancy
  Al  Al0  1  0.50000000  0.00000000  0.00000000  1.0
  Al  Al1  1  1.00000000  0.50000000  0.50000000  1.0
  Bi  Bi2  1  0.72763620  -0.12880425  1.00189540  1.0
  Bi  Bi3  1  1.12880425  0.27236380  0.50189540  1.0
  Bi  Bi4  1  0.87119575  0.72763620  0.49810460  1.0
  Bi  Bi5  1  0.27236380  0.12880425  -0.00189540  1.0
  B  B6  1  0.81414514  0.16915809  0.74030718  1.0
  B  B7  1  0.83084191  0.18585486  0.24030718  1.0
  B  B8  1  1.16915809  0.81414514  0.75969282  1.0
  B  B9  1  0.18585486  -0.16915809  0.25969282  1.0
  B  B10  1  0.48761317  0.48761317  0.75000000  1.0
  B  B11  1  0.51238683  0.51238683  0.25000000  1.0
  Pb  Pb12  1  0.56499146  0.25073799  0.56590365  1.0
  Pb  Pb13  1  0.74926201  0.43500854  0.06590365  1.0
  Pb  Pb14  1  1.25073799  0.56499146  0.93409635  1.0
  Pb  Pb15  1  0.43500854  -0.25073799  0.43409635  1.0
  O  O16  1  0.50243542  -0.37378092  0.81365214  1.0
  O  O17  1  1.37378092  0.49756458  0.31365214  1.0
  O  O18  1  0.62621908  0.50243542  0.68634786  1.0
  O  O19  1  0.49756458  0.37378092  0.18634786  1.0
  O  O20  1  0.66598360  0.03683578  0.82943978  1.0
  O  O21  1  0.96316422  0.33401640  0.32943978  1.0
  O  O22  1  1.03683578  0.66598360  0.67056022  1.0
  O  O23  1  0.33401640  -0.03683578  0.17056022  1.0
  O  O24  1  0.31030105  -0.16994940  0.82848764  1.0
  O  O25  1  1.16994940  0.68969895  0.32848764  1.0
  O  O26  1  0.83005060  0.31030105  0.67151236  1.0
  O  O27  1  0.68969895  0.16994940  0.17151236  1.0
  O  O28  1  0.50328954  0.18148864  0.90184896  1.0
  O  O29  1  0.81851136  0.49671046  0.40184896  1.0
  O  O30  1  1.18148864  0.50328954  0.59815104  1.0
  O  O31  1  0.49671046  -0.18148864  0.09815104  1.0
  O  O32  1  0.14605922  -0.06279096  0.77233324  1.0
  O  O33  1  1.06279096  0.85394078  0.27233324  1.0
  O  O34  1  0.93720904  0.14605922  0.72766676  1.0
  O  O35  1  0.85394078  0.06279096  0.22766676  1.0
  O  O36  1  0.32819699  0.32819699  0.75000000  1.0
  O  O37  1  0.67180301  0.67180301  0.25000000  1.0
