# generated using pymatgen
data_LiTiPO5
_symmetry_space_group_name_H-M   'P 1'
_cell_length_a   7.83309639
_cell_length_b   7.33698745
_cell_length_c   7.32151010
_cell_angle_alpha   118.67397958
_cell_angle_beta   89.99895967
_cell_angle_gamma   89.99842786
_symmetry_Int_Tables_number   1
_chemical_formula_structural   LiTiPO5
_chemical_formula_sum   'Li4 Ti4 P4 O20'
_cell_volume   369.17459217
_cell_formula_units_Z   4
loop_
 _symmetry_equiv_pos_site_id
 _symmetry_equiv_pos_as_xyz
  1  'x, y, z'
loop_
 _atom_site_type_symbol
 _atom_site_label
 _atom_site_symmetry_multiplicity
 _atom_site_fract_x
 _atom_site_fract_y
 _atom_site_fract_z
 _atom_site_occupancy
  Li  Li0  1  -0.56624297  -0.30728905  -0.74782299  1.0
  Li  Li1  1  -0.43375703  -0.69271095  -0.25217701  1.0
  Li  Li2  1  -0.06631807  -0.19222831  -0.25128756  1.0
  Li  Li3  1  -0.93368193  -0.80777169  -0.74871244  1.0
  Ti  Ti4  1  -0.26437350  -0.02124019  -0.74897868  1.0
  Ti  Ti5  1  -0.73562650  -0.97875981  -0.25102132  1.0
  Ti  Ti6  1  -0.23558716  -0.52130056  -0.74899924  1.0
  Ti  Ti7  1  -0.76441284  -0.47869944  -0.25100076  1.0
  P  P8  1  -0.89371734  -0.24554613  -0.74863525  1.0
  P  P9  1  -0.10628266  -0.75445387  -0.25136475  1.0
  P  P10  1  -0.39375445  -0.25464042  -0.25177591  1.0
  P  P11  1  -0.60624555  -0.74535958  -0.74822409  1.0
  O  O12  1  -0.77226480  -0.35934635  -0.93874197  1.0
  O  O13  1  -0.22773520  -0.64065365  -0.06125803  1.0
  O  O14  1  -0.00601162  -0.08007705  -0.76791505  1.0
  O  O15  1  -0.99398838  -0.91992295  -0.23208495  1.0
  O  O16  1  -0.49394521  -0.57966928  -0.76708225  1.0
  O  O17  1  -0.50605479  -0.42033072  -0.23291775  1.0
  O  O18  1  -0.32837246  -0.24871872  -0.75146272  1.0
  O  O19  1  -0.67162754  -0.75128128  -0.24853728  1.0
  O  O20  1  -0.17150411  -0.74886199  -0.75167782  1.0
  O  O21  1  -0.82849589  -0.25113801  -0.24832218  1.0
  O  O22  1  -0.00795726  -0.40416056  -0.72274894  1.0
  O  O23  1  -0.99204274  -0.59583944  -0.27725106  1.0
  O  O24  1  -0.76621922  -0.14405178  -0.56396476  1.0
  O  O25  1  -0.23378078  -0.85594822  -0.43603524  1.0
  O  O26  1  -0.26569874  -0.35589351  -0.43590178  1.0
  O  O27  1  -0.73430126  -0.64410649  -0.56409822  1.0
  O  O28  1  -0.50801701  -0.09639495  -0.27827392  1.0
  O  O29  1  -0.49198299  -0.90360505  -0.72172608  1.0
  O  O30  1  -0.27288005  -0.14045205  -0.06115974  1.0
  O  O31  1  -0.72711995  -0.85954795  -0.93884026  1.0
