# generated using pymatgen
data_BaTi2O5
_symmetry_space_group_name_H-M   'P 1'
_cell_length_a   8.73477861
_cell_length_b   8.73477861
_cell_length_c   9.67776164
_cell_angle_alpha   77.46600978
_cell_angle_beta   102.53399022
_cell_angle_gamma   154.17409216
_symmetry_Int_Tables_number   1
_chemical_formula_structural   BaTi2O5
_chemical_formula_sum   'Ba3 Ti6 O15'
_cell_volume   313.59135138
_cell_formula_units_Z   3
loop_
 _symmetry_equiv_pos_site_id
 _symmetry_equiv_pos_as_xyz
  1  'x, y, z'
loop_
 _atom_site_type_symbol
 _atom_site_label
 _atom_site_symmetry_multiplicity
 _atom_site_fract_x
 _atom_site_fract_y
 _atom_site_fract_z
 _atom_site_occupancy
  Ba  Ba0  1  0.63159571  0.36840429  0.98775056  1.0
  Ba  Ba1  1  0.36840429  -0.36840429  0.01224944  1.0
  Ba  Ba2  1  0.50000000  0.50000000  0.50000000  1.0
  Ti  Ti3  1  0.96231436  0.03768564  0.79132856  1.0
  Ti  Ti4  1  0.03768564  -0.03768564  0.20867144  1.0
  Ti  Ti5  1  0.83270794  0.16729206  0.30062033  1.0
  Ti  Ti6  1  0.16729206  -0.16729206  0.69937967  1.0
  Ti  Ti7  1  0.79525060  0.20474940  0.62661692  1.0
  Ti  Ti8  1  0.20474940  -0.20474940  0.37338308  1.0
  O  O9  1  0.94180133  0.05819867  0.28974827  1.0
  O  O10  1  0.05819867  -0.05819867  0.71025173  1.0
  O  O11  1  0.89334061  0.10665939  0.57760665  1.0
  O  O12  1  0.10665939  -0.10665939  0.42239335  1.0
  O  O13  1  0.84791193  0.15208807  0.81204598  1.0
  O  O14  1  0.15208807  -0.15208807  0.18795402  1.0
  O  O15  1  0.73569386  0.26430614  0.39962442  1.0
  O  O16  1  0.26430614  -0.26430614  0.60037558  1.0
  O  O17  1  0.67569518  0.32430482  0.66288034  1.0
  O  O18  1  0.32430482  -0.32430482  0.33711966  1.0
  O  O19  1  0.46667032  -0.46667032  0.79342511  1.0
  O  O20  1  0.53332968  0.46667032  0.20657489  1.0
  O  O21  1  0.21023802  -0.21023802  0.87897447  1.0
  O  O22  1  0.78976198  0.21023802  0.12102553  1.0
  O  O23  1  0.00000000  0.00000000  0.00000000  1.0
