# generated using pymatgen
data_NaC
_symmetry_space_group_name_H-M   'P 1'
_cell_length_a   10.58507533
_cell_length_b   10.58507533
_cell_length_c   10.58507533
_cell_angle_alpha   139.05567222
_cell_angle_beta   139.05567222
_cell_angle_gamma   59.28997318
_symmetry_Int_Tables_number   1
_chemical_formula_structural   NaC
_chemical_formula_sum   'Na16 C16'
_cell_volume   504.35474696
_cell_formula_units_Z   16
loop_
 _symmetry_equiv_pos_site_id
 _symmetry_equiv_pos_as_xyz
  1  'x, y, z'
loop_
 _atom_site_type_symbol
 _atom_site_label
 _atom_site_symmetry_multiplicity
 _atom_site_fract_x
 _atom_site_fract_y
 _atom_site_fract_z
 _atom_site_occupancy
  Na  Na0  1  0.19913364  0.94904984  0.74998298  1.0
  Na  Na1  1  0.55093315  0.80084934  1.24998298  1.0
  Na  Na2  1  0.69906685  0.44904984  0.74991619  1.0
  Na  Na3  1  0.05086636  0.30084934  0.24991619  1.0
  Na  Na4  1  1.05084934  0.30093315  0.74998298  1.0
  Na  Na5  1  0.19904984  -0.05086636  0.24998298  1.0
  Na  Na6  1  1.05095016  0.80093315  1.25008381  1.0
  Na  Na7  1  0.19915066  0.44913364  0.75008381  1.0
  Na  Na8  1  0.69913364  0.94915066  1.25008381  1.0
  Na  Na9  1  0.05093315  0.80095016  0.75008381  1.0
  Na  Na10  1  0.19906685  0.44915066  0.25001702  1.0
  Na  Na11  1  0.55086636  0.30095016  0.75001702  1.0
  Na  Na12  1  0.55084934  0.80086636  0.74991619  1.0
  Na  Na13  1  0.69904984  0.44906685  1.24991619  1.0
  Na  Na14  1  0.55095016  0.30086636  0.25001702  1.0
  Na  Na15  1  0.69915066  -0.05093315  0.75001702  1.0
  C  C16  1  0.90923110  1.15940948  1.75012744  1.0
  C  C17  1  0.34071796  1.09089634  1.25012744  1.0
  C  C18  1  0.90928204  0.65940948  1.25017838  1.0
  C  C19  1  0.34076890  0.59089634  0.75017838  1.0
  C  C20  1  1.34089634  1.09071796  1.75012744  1.0
  C  C21  1  1.40940948  0.65923110  1.25012744  1.0
  C  C22  1  0.84059052  0.59071796  0.74982162  1.0
  C  C23  1  0.90910366  1.15923110  1.24982162  1.0
  C  C24  1  0.40923110  0.65910366  0.74982162  1.0
  C  C25  1  0.84071796  0.59059052  1.24982162  1.0
  C  C26  1  0.40928204  0.15910366  0.24987256  1.0
  C  C27  1  0.84076890  0.09059052  0.74987256  1.0
  C  C28  1  0.84089634  1.09076890  1.25017838  1.0
  C  C29  1  0.90940948  0.65928204  0.75017838  1.0
  C  C30  1  0.34059052  0.59076890  0.24987256  1.0
  C  C31  1  0.40910366  1.15928204  0.74987256  1.0
