# generated using pymatgen
data_Ca2Y3(Si3O10)2
_symmetry_space_group_name_H-M   'P 1'
_cell_length_a   9.22306227
_cell_length_b   5.57097791
_cell_length_c   10.09920575
_cell_angle_alpha   71.79454383
_cell_angle_beta   61.12952215
_cell_angle_gamma   77.75065431
_symmetry_Int_Tables_number   1
_chemical_formula_structural   Ca2Y3(Si3O10)2
_chemical_formula_sum   'Ca2 Y3 Si6 O20'
_cell_volume   430.49688881
_cell_formula_units_Z   1
loop_
 _symmetry_equiv_pos_site_id
 _symmetry_equiv_pos_as_xyz
  1  'x, y, z'
loop_
 _atom_site_type_symbol
 _atom_site_label
 _atom_site_symmetry_multiplicity
 _atom_site_fract_x
 _atom_site_fract_y
 _atom_site_fract_z
 _atom_site_occupancy
  Y  Y0  1  0.00000000  -0.00000000  0.50000000  1.0
  Y  Y1  1  0.42310560  -0.30923115  0.35909522  1.0
  Y  Y2  1  -0.42310560  -0.69076885  0.64090478  1.0
  O  O3  1  0.50150693  -0.96009471  0.14848221  1.0
  O  O4  1  -0.50150693  -0.03990529  0.85151779  1.0
  O  O5  1  -0.12190966  -0.31447271  0.71335306  1.0
  O  O6  1  0.12190966  -0.68552729  0.28664694  1.0
  O  O7  1  0.18205045  -0.27433498  0.34648868  1.0
  O  O8  1  -0.18205045  -0.72566502  0.65351132  1.0
  O  O9  1  0.72362772  -0.90484381  0.22752009  1.0
  O  O10  1  -0.72362772  -0.09515619  0.77247991  1.0
  O  O11  1  0.25010058  -0.04697858  0.51286920  1.0
  O  O12  1  -0.25010058  -0.95302142  0.48713080  1.0
  O  O13  1  0.55400295  -0.48400711  0.14812367  1.0
  O  O14  1  -0.55400295  -0.51599289  0.85187632  1.0
  O  O15  1  -0.39672142  -0.30991807  0.45993867  1.0
  O  O16  1  0.39672142  -0.69008193  0.54006133  1.0
  O  O17  1  0.22972004  -0.25045813  0.06512398  1.0
  O  O18  1  -0.22972004  -0.74954187  0.93487602  1.0
  O  O19  1  -0.07222312  -0.25136575  0.30421968  1.0
  O  O20  1  0.07222312  -0.74863425  0.69578032  1.0
  O  O21  1  -0.06374060  -0.41313719  1.01999041  1.0
  O  O22  1  0.06374060  -0.58686281  -0.01999041  1.0
  Ca  Ca23  1  -0.27999472  -0.18227410  0.94129807  1.0
  Ca  Ca24  1  0.27999472  -0.81772590  0.05870193  1.0
  Si  Si25  1  0.11519810  -0.38159386  0.25243549  1.0
  Si  Si26  1  -0.11519810  -0.61840614  0.74756451  1.0
  Si  Si27  1  -0.25542076  -0.10384783  0.37478213  1.0
  Si  Si28  1  0.25542076  -0.89615217  0.62521787  1.0
  Si  Si29  1  0.62891992  -0.76388805  0.12042505  1.0
  Si  Si30  1  -0.62891992  -0.23611195  0.87957495  1.0
