# generated using pymatgen
data_Rb19O3
_symmetry_space_group_name_H-M   'P 1'
_cell_length_a   16.31252754
_cell_length_b   16.31252754
_cell_length_c   16.31252754
_cell_angle_alpha   60.00000000
_cell_angle_beta   60.00000000
_cell_angle_gamma   60.00000000
_symmetry_Int_Tables_number   1
_chemical_formula_structural   Rb19O3
_chemical_formula_sum   'Rb38 O6'
_cell_volume   3069.36669390
_cell_formula_units_Z   2
loop_
 _symmetry_equiv_pos_site_id
 _symmetry_equiv_pos_as_xyz
  1  'x, y, z'
loop_
 _atom_site_type_symbol
 _atom_site_label
 _atom_site_symmetry_multiplicity
 _atom_site_fract_x
 _atom_site_fract_y
 _atom_site_fract_z
 _atom_site_occupancy
  Rb  Rb0  1  1.17457291  -0.54449726  0.54449726  1.0
  Rb  Rb1  1  0.54449726  -0.17457291  1.17457291  1.0
  Rb  Rb2  1  0.67457291  0.04449726  0.95550274  1.0
  Rb  Rb3  1  0.95550274  -0.67457291  0.67457291  1.0
  Rb  Rb4  1  0.45550274  0.17457291  -0.17457291  1.0
  Rb  Rb5  1  -0.17457291  0.54449726  0.45550274  1.0
  Rb  Rb6  1  0.04449726  0.67457291  0.32542709  1.0
  Rb  Rb7  1  0.32542709  -0.04449726  0.04449726  1.0
  Rb  Rb8  1  -0.04449726  0.67457291  0.04449726  1.0
  Rb  Rb9  1  -0.67457291  1.04449726  0.67457291  1.0
  Rb  Rb10  1  0.45550274  0.54449726  0.17457291  1.0
  Rb  Rb11  1  0.82542709  0.17457291  0.54449726  1.0
  Rb  Rb12  1  -0.45550274  1.17457291  0.45550274  1.0
  Rb  Rb13  1  -0.17457291  0.45550274  0.17457291  1.0
  Rb  Rb14  1  1.04449726  -0.04449726  0.67457291  1.0
  Rb  Rb15  1  0.32542709  0.67457291  -0.04449726  1.0
  Rb  Rb16  1  -0.32542709  0.95550274  0.32542709  1.0
  Rb  Rb17  1  0.04449726  0.32542709  -0.04449726  1.0
  Rb  Rb18  1  0.17457291  0.82542709  0.45550274  1.0
  Rb  Rb19  1  0.54449726  0.45550274  0.82542709  1.0
  Rb  Rb20  1  0.17457291  0.54449726  -0.17457291  1.0
  Rb  Rb21  1  -0.54449726  0.82542709  0.54449726  1.0
  Rb  Rb22  1  0.67457291  0.32542709  1.04449726  1.0
  Rb  Rb23  1  -0.04449726  1.04449726  0.32542709  1.0
  Rb  Rb24  1  0.11338742  0.38661258  0.38661258  1.0
  Rb  Rb25  1  0.61338742  -0.11338742  0.88661258  1.0
  Rb  Rb26  1  0.88661258  -0.38661258  0.88661258  1.0
  Rb  Rb27  1  0.38661258  0.11338742  0.38661258  1.0
  Rb  Rb28  1  0.38661258  0.38661258  0.11338742  1.0
  Rb  Rb29  1  0.61338742  -0.38661258  0.88661258  1.0
  Rb  Rb30  1  0.11338742  0.38661258  0.11338742  1.0
  Rb  Rb31  1  0.61338742  -0.11338742  0.61338742  1.0
  Rb  Rb32  1  0.88661258  -0.11338742  0.61338742  1.0
  Rb  Rb33  1  0.11338742  0.11338742  0.38661258  1.0
  Rb  Rb34  1  0.88661258  -0.38661258  0.61338742  1.0
  Rb  Rb35  1  0.38661258  0.11338742  0.11338742  1.0
  Rb  Rb36  1  0.50000000  0.50000000  -0.50000000  1.0
  Rb  Rb37  1  0.00000000  1.00000000  -0.00000000  1.0
  O  O38  1  1.00000000  -0.50000000  0.50000000  1.0
  O  O39  1  0.50000000  0.00000000  -0.00000000  1.0
  O  O40  1  0.00000000  0.50000000  -0.00000000  1.0
  O  O41  1  -0.50000000  1.00000000  0.50000000  1.0
  O  O42  1  0.50000000  0.50000000  -0.00000000  1.0
  O  O43  1  1.00000000  0.00000000  0.50000000  1.0
