# generated using pymatgen
data_Sb4BrO6
_symmetry_space_group_name_H-M   'P 1'
_cell_length_a   10.08004938
_cell_length_b   10.08004938
_cell_length_c   11.82650243
_cell_angle_alpha   67.40384556
_cell_angle_beta   112.59615444
_cell_angle_gamma   156.15930827
_symmetry_Int_Tables_number   1
_chemical_formula_structural   Sb4BrO6
_chemical_formula_sum   'Sb8 Br2 O12'
_cell_volume   446.68633945
_cell_formula_units_Z   2
loop_
 _symmetry_equiv_pos_site_id
 _symmetry_equiv_pos_as_xyz
  1  'x, y, z'
loop_
 _atom_site_type_symbol
 _atom_site_label
 _atom_site_symmetry_multiplicity
 _atom_site_fract_x
 _atom_site_fract_y
 _atom_site_fract_z
 _atom_site_occupancy
  Sb  Sb0  1  0.92043347  0.07956653  0.52566348  1.0
  Sb  Sb1  1  0.07956653  -0.07956653  0.47433652  1.0
  Sb  Sb2  1  0.73225942  0.26774058  0.34219704  1.0
  Sb  Sb3  1  0.26774058  -0.26774058  0.65780296  1.0
  Sb  Sb4  1  0.69804497  0.30195503  0.81715873  1.0
  Sb  Sb5  1  0.30195503  -0.30195503  0.18284127  1.0
  Sb  Sb6  1  0.50511581  -0.50511581  0.76801970  1.0
  Sb  Sb7  1  0.49488419  0.50511581  0.23198030  1.0
  Br  Br8  1  0.85156341  0.14843659  1.00278421  1.0
  Br  Br9  1  0.14843659  -0.14843659  -0.00278421  1.0
  O  O10  1  0.97769122  0.02230878  0.71284570  1.0
  O  O11  1  0.02230878  -0.02230878  0.28715430  1.0
  O  O12  1  0.81434117  0.18565883  0.50883754  1.0
  O  O13  1  0.18565883  -0.18565883  0.49116246  1.0
  O  O14  1  0.73558558  0.26441442  0.68116793  1.0
  O  O15  1  0.26441442  -0.26441442  0.31883207  1.0
  O  O16  1  0.59047402  0.40952598  0.71441815  1.0
  O  O17  1  0.40952598  -0.40952598  0.28558185  1.0
  O  O18  1  0.43081114  -0.43081114  0.59002445  1.0
  O  O19  1  0.56918886  0.43081114  0.40997555  1.0
  O  O20  1  0.21144558  -0.21144558  0.77864497  1.0
  O  O21  1  0.78855442  0.21144558  0.22135503  1.0
