# generated using pymatgen
data_CaMgSiO4
_symmetry_space_group_name_H-M   'P 1'
_cell_length_a   11.21224947
_cell_length_b   6.41926100
_cell_length_c   4.86501291
_cell_angle_alpha   90.00000000
_cell_angle_beta   90.00000000
_cell_angle_gamma   90.00000000
_symmetry_Int_Tables_number   1
_chemical_formula_structural   CaMgSiO4
_chemical_formula_sum   'Ca4 Mg4 Si4 O16'
_cell_volume   350.15617009
_cell_formula_units_Z   4
loop_
 _symmetry_equiv_pos_site_id
 _symmetry_equiv_pos_as_xyz
  1  'x, y, z'
loop_
 _atom_site_type_symbol
 _atom_site_label
 _atom_site_symmetry_multiplicity
 _atom_site_fract_x
 _atom_site_fract_y
 _atom_site_fract_z
 _atom_site_occupancy
  Ca  Ca0  1  0.77717234  0.25000000  0.52027540  1.0
  Ca  Ca1  1  0.27717234  0.25000000  0.97972460  1.0
  Ca  Ca2  1  0.22282766  0.75000000  0.47972460  1.0
  Ca  Ca3  1  0.72282766  0.75000000  0.02027540  1.0
  Mg  Mg4  1  0.00000000  0.50000000  0.00000000  1.0
  Mg  Mg5  1  0.00000000  0.00000000  0.00000000  1.0
  Mg  Mg6  1  0.50000000  0.50000000  0.50000000  1.0
  Mg  Mg7  1  0.50000000  0.00000000  0.50000000  1.0
  Si  Si8  1  0.58128727  0.25000000  0.08952532  1.0
  Si  Si9  1  0.08128727  0.25000000  0.41047468  1.0
  Si  Si10  1  0.41871273  0.75000000  0.91047468  1.0
  Si  Si11  1  0.91871273  0.75000000  0.58952532  1.0
  O  O12  1  0.64741823  0.45572574  0.22856694  1.0
  O  O13  1  0.64741823  0.04427426  0.22856694  1.0
  O  O14  1  0.14741823  0.45572574  0.27143306  1.0
  O  O15  1  0.14741823  0.04427426  0.27143306  1.0
  O  O16  1  0.35258177  0.95572574  0.77143306  1.0
  O  O17  1  0.35258177  0.54427426  0.77143306  1.0
  O  O18  1  0.85258177  0.95572574  0.72856694  1.0
  O  O19  1  0.85258177  0.54427426  0.72856694  1.0
  O  O20  1  0.94868424  0.25000000  0.25196350  1.0
  O  O21  1  0.44868424  0.25000000  0.24803650  1.0
  O  O22  1  0.05131576  0.75000000  0.74803650  1.0
  O  O23  1  0.55131576  0.75000000  0.75196350  1.0
  O  O24  1  0.57777142  0.25000000  0.75356739  1.0
  O  O25  1  0.07777142  0.25000000  0.74643261  1.0
  O  O26  1  0.42222858  0.75000000  0.24643261  1.0
  O  O27  1  0.92222858  0.75000000  0.25356739  1.0
