# generated using pymatgen
data_CuH9CSN4Cl3O
_symmetry_space_group_name_H-M   'P 1'
_cell_length_a   8.22961564
_cell_length_b   7.41748451
_cell_length_c   8.98545820
_cell_angle_alpha   81.52542385
_cell_angle_beta   62.06584646
_cell_angle_gamma   81.24420297
_symmetry_Int_Tables_number   1
_chemical_formula_structural   CuH9CSN4Cl3O
_chemical_formula_sum   'Cu2 H18 C2 S2 N8 Cl6 O2'
_cell_volume   477.12429763
_cell_formula_units_Z   2
loop_
 _symmetry_equiv_pos_site_id
 _symmetry_equiv_pos_as_xyz
  1  'x, y, z'
loop_
 _atom_site_type_symbol
 _atom_site_label
 _atom_site_symmetry_multiplicity
 _atom_site_fract_x
 _atom_site_fract_y
 _atom_site_fract_z
 _atom_site_occupancy
  N  N0  1  0.45001682  -0.82237779  0.18059672  1.0
  N  N1  1  -0.45001682  -0.17762221  0.81940328  1.0
  N  N2  1  0.46090421  -0.79856233  0.32898995  1.0
  N  N3  1  -0.46090421  -0.20143767  0.67101005  1.0
  N  N4  1  0.31218978  -0.72349080  0.60561368  1.0
  N  N5  1  -0.31218978  -0.27650920  0.39438632  1.0
  N  N6  1  0.14848544  -0.68221756  0.75339003  1.0
  N  N7  1  -0.14848544  -0.31778244  0.24660997  1.0
  Cl  Cl8  1  -0.34277171  -0.72438651  0.68312591  1.0
  Cl  Cl9  1  0.34277171  -0.27561349  0.31687409  1.0
  Cl  Cl10  1  -0.25396628  -0.51974098  0.95423225  1.0
  Cl  Cl11  1  0.25396628  -0.48025902  0.04576775  1.0
  Cl  Cl12  1  -0.17851135  -0.02494389  0.93884906  1.0
  Cl  Cl13  1  0.17851135  -0.97505611  0.06115094  1.0
  Cu  Cu14  1  -0.09282684  -0.70253425  0.74112869  1.0
  Cu  Cu15  1  0.09282684  -0.29746575  0.25887131  1.0
  O  O16  1  0.20465777  -0.27809098  0.70560537  1.0
  O  O17  1  -0.20465777  -0.72190902  0.29439463  1.0
  C  C18  1  0.30134718  -0.76558908  0.47059108  1.0
  C  C19  1  -0.30134718  -0.23441092  0.52940892  1.0
  S  S20  1  0.09379320  -0.78499330  0.47861330  1.0
  S  S21  1  -0.09379320  -0.21500670  0.52138670  1.0
  H  H22  1  0.35680058  -0.91705152  0.20473234  1.0
  H  H23  1  -0.35680058  -0.08294848  0.79526766  1.0
  H  H24  1  0.58240435  -0.87670599  0.09156980  1.0
  H  H25  1  -0.58240435  -0.12329401  0.90843020  1.0
  H  H26  1  0.59059714  -0.76595429  0.30873416  1.0
  H  H27  1  -0.59059714  -0.23404571  0.69126584  1.0
  H  H28  1  0.14889257  -0.77031960  0.85474704  1.0
  H  H29  1  -0.14889257  -0.22968040  0.14525296  1.0
  H  H30  1  0.14661633  -0.54840530  0.77541208  1.0
  H  H31  1  -0.14661633  -0.45159470  0.22458792  1.0
  H  H32  1  0.56492155  -0.28365667  0.39164171  1.0
  H  H33  1  -0.56492155  -0.71634333  0.60835829  1.0
  H  H34  1  -0.40657181  -0.30129021  0.87194587  1.0
  H  H35  1  0.40657181  -0.69870979  0.12805413  1.0
  H  H36  1  0.09236190  -0.20283603  0.77757256  1.0
  H  H37  1  -0.09236190  -0.79716397  0.22242744  1.0
  H  H38  1  0.21468196  -0.25800333  0.59051879  1.0
  H  H39  1  -0.21468196  -0.74199667  0.40948121  1.0
