# generated using pymatgen
data_Ta2Mo2O17
_symmetry_space_group_name_H-M   'P 1'
_cell_length_a   10.25864420
_cell_length_b   10.25864420
_cell_length_c   10.25864420
_cell_angle_alpha   34.80321889
_cell_angle_beta   34.80321889
_cell_angle_gamma   34.80321888
_symmetry_Int_Tables_number   1
_chemical_formula_structural   Ta2Mo2O17
_chemical_formula_sum   'Ta2 Mo2 O17'
_cell_volume   313.92382814
_cell_formula_units_Z   1
loop_
 _symmetry_equiv_pos_site_id
 _symmetry_equiv_pos_as_xyz
  1  'x, y, z'
loop_
 _atom_site_type_symbol
 _atom_site_label
 _atom_site_symmetry_multiplicity
 _atom_site_fract_x
 _atom_site_fract_y
 _atom_site_fract_z
 _atom_site_occupancy
  Ta  Ta0  1  0.63403117  0.63403117  -0.36596883  1.0
  Ta  Ta1  1  0.36596883  0.36596883  -0.63403117  1.0
  Mo  Mo2  1  0.90214303  -0.09785697  -0.09785697  1.0
  Mo  Mo3  1  0.09785697  0.09785697  0.09785697  1.0
  O  O4  1  0.84443367  -0.15556633  -0.15556633  1.0
  O  O5  1  0.15556633  0.15556633  0.15556633  1.0
  O  O6  1  0.50000000  -0.50000000  -0.00000000  1.0
  O  O7  1  0.50000000  0.00000000  -0.50000000  1.0
  O  O8  1  0.00000000  0.50000000  -0.50000000  1.0
  O  O9  1  0.13433560  0.74064268  -0.62816380  1.0
  O  O10  1  0.74064268  0.37183620  -0.86566440  1.0
  O  O11  1  0.37183620  0.13433560  -0.25935732  1.0
  O  O12  1  0.13433560  0.37183620  -0.25935732  1.0
  O  O13  1  0.37183620  0.74064268  -0.86566440  1.0
  O  O14  1  0.74064268  0.13433560  -0.62816380  1.0
  O  O15  1  0.86566440  0.25935732  -0.37183620  1.0
  O  O16  1  0.25935732  0.62816380  -0.13433560  1.0
  O  O17  1  0.62816380  0.86566440  -0.74064268  1.0
  O  O18  1  0.86566440  0.62816380  -0.74064268  1.0
  O  O19  1  0.62816380  0.25935732  -0.13433560  1.0
  O  O20  1  0.25935732  0.86566440  -0.37183620  1.0
