# generated using pymatgen
data_Al7Te10
_symmetry_space_group_name_H-M   'P 1'
_cell_length_a   10.47291555
_cell_length_b   10.47291555
_cell_length_c   10.47291555
_cell_angle_alpha   89.83686179
_cell_angle_beta   89.83686179
_cell_angle_gamma   89.83686179
_symmetry_Int_Tables_number   1
_chemical_formula_structural   Al7Te10
_chemical_formula_sum   'Al14 Te20'
_cell_volume   1148.67596301
_cell_formula_units_Z   2
loop_
 _symmetry_equiv_pos_site_id
 _symmetry_equiv_pos_as_xyz
  1  'x, y, z'
loop_
 _atom_site_type_symbol
 _atom_site_label
 _atom_site_symmetry_multiplicity
 _atom_site_fract_x
 _atom_site_fract_y
 _atom_site_fract_z
 _atom_site_occupancy
  Al  Al0  1  0.84663676  0.24150007  -0.33635825  1.0
  Al  Al1  1  0.33635825  0.75849993  -0.84663676  1.0
  Al  Al2  1  0.75849993  0.15336324  -0.66364175  1.0
  Al  Al3  1  0.15336324  0.33635825  -0.24150007  1.0
  Al  Al4  1  0.66364175  -0.15336324  0.24150007  1.0
  Al  Al5  1  1.24150007  -0.33635825  -0.15336324  1.0
  Al  Al6  1  0.65460361  0.92074554  -0.39027068  1.0
  Al  Al7  1  1.39027068  1.07925446  0.34539639  1.0
  Al  Al8  1  1.07925446  1.34539639  0.39027068  1.0
  Al  Al9  1  1.34539639  1.39027068  0.07925446  1.0
  Al  Al10  1  0.60972932  0.65460361  -0.07925446  1.0
  Al  Al11  1  0.92074554  0.60972932  -0.34539639  1.0
  Al  Al12  1  0.92802948  0.92802948  -0.07197052  1.0
  Al  Al13  1  1.07197052  1.07197052  0.07197052  1.0
  Te  Te14  1  0.74067247  0.05950916  -0.19169799  1.0
  Te  Te15  1  0.19169799  0.94049084  -0.74067247  1.0
  Te  Te16  1  0.94049084  0.25932753  -0.80830201  1.0
  Te  Te17  1  0.25932753  0.19169799  -0.05950916  1.0
  Te  Te18  1  0.80830201  -0.25932753  0.05950916  1.0
  Te  Te19  1  1.05950916  -0.19169799  -0.25932753  1.0
  Te  Te20  1  1.57754093  1.07788891  0.17030972  1.0
  Te  Te21  1  0.82969028  0.92211109  -0.57754093  1.0
  Te  Te22  1  0.92211109  0.42245907  -0.17030972  1.0
  Te  Te23  1  0.42245907  0.82969028  -0.07788891  1.0
  Te  Te24  1  1.17030972  1.57754093  0.07788891  1.0
  Te  Te25  1  1.07788891  1.17030972  0.57754093  1.0
  Te  Te26  1  0.31942434  0.50000000  -0.31942434  1.0
  Te  Te27  1  0.50000000  0.68057566  -0.68057566  1.0
  Te  Te28  1  0.68057566  0.31942434  -0.50000000  1.0
  Te  Te29  1  0.42061126  1.00000000  -0.42061126  1.0
  Te  Te30  1  -0.00000000  0.57938874  -0.57938874  1.0
  Te  Te31  1  0.57938874  -0.57938874  -0.00000000  1.0
  Te  Te32  1  0.66894170  0.66894170  -0.33105830  1.0
  Te  Te33  1  1.33105830  1.33105830  0.33105830  1.0
