# generated using pymatgen
data_Cs2TiCu3F12
_symmetry_space_group_name_H-M   'P 1'
_cell_length_a   8.03296706
_cell_length_b   8.03296706
_cell_length_c   8.03296706
_cell_angle_alpha   52.88744641
_cell_angle_beta   52.88744641
_cell_angle_gamma   52.88744641
_symmetry_Int_Tables_number   1
_chemical_formula_structural   Cs2TiCu3F12
_chemical_formula_sum   'Cs2 Ti1 Cu3 F12'
_cell_volume   305.40607553
_cell_formula_units_Z   1
loop_
 _symmetry_equiv_pos_site_id
 _symmetry_equiv_pos_as_xyz
  1  'x, y, z'
loop_
 _atom_site_type_symbol
 _atom_site_label
 _atom_site_symmetry_multiplicity
 _atom_site_fract_x
 _atom_site_fract_y
 _atom_site_fract_z
 _atom_site_occupancy
  Cs  Cs0  1  0.88780992  0.88780992  0.88780992  1.0
  Cs  Cs1  1  1.11219008  1.11219008  0.11219008  1.0
  Ti  Ti2  1  1.50000000  0.50000000  0.50000000  1.0
  Cu  Cu3  1  0.50000000  0.00000000  -0.50000000  1.0
  Cu  Cu4  1  0.50000000  -0.50000000  0.00000000  1.0
  Cu  Cu5  1  0.00000000  0.50000000  -0.50000000  1.0
  F  F6  1  1.18140927  1.18140927  0.57659222  1.0
  F  F7  1  1.18140927  1.57659222  0.18140927  1.0
  F  F8  1  1.42340778  0.81859073  -0.18140927  1.0
  F  F9  1  0.81859073  1.42340778  -0.18140927  1.0
  F  F10  1  0.81859073  0.81859073  0.42340778  1.0
  F  F11  1  1.57659222  1.18140927  0.18140927  1.0
  F  F12  1  1.42620543  0.42620543  0.80333037  1.0
  F  F13  1  1.42620543  0.80333037  0.42620543  1.0
  F  F14  1  1.19666963  0.57379457  0.57379457  1.0
  F  F15  1  1.57379457  0.19666963  0.57379457  1.0
  F  F16  1  1.57379457  0.57379457  0.19666963  1.0
  F  F17  1  1.80333037  0.42620543  0.42620543  1.0
