# generated using pymatgen
data_PdN
_symmetry_space_group_name_H-M   'P 1'
_cell_length_a   3.21506543
_cell_length_b   3.21506543
_cell_length_c   5.86900067
_cell_angle_alpha   90.00000000
_cell_angle_beta   90.00000000
_cell_angle_gamma   120.00000000
_symmetry_Int_Tables_number   1
_chemical_formula_structural   PdN
_chemical_formula_sum   'Pd2 N2'
_cell_volume   52.53810717
_cell_formula_units_Z   2
loop_
 _symmetry_equiv_pos_site_id
 _symmetry_equiv_pos_as_xyz
  1  'x, y, z'
loop_
 _atom_site_type_symbol
 _atom_site_label
 _atom_site_symmetry_multiplicity
 _atom_site_fract_x
 _atom_site_fract_y
 _atom_site_fract_z
 _atom_site_occupancy
  Pd  Pd0  1  0.66666667  0.33333333  0.50571118  1.0
  Pd  Pd1  1  0.33333333  0.66666667  0.00571118  1.0
  N  N2  1  0.66666667  0.33333333  0.86628882  1.0
  N  N3  1  0.33333333  0.66666667  0.36628882  1.0
