# generated using pymatgen
data_K2BiF5
_symmetry_space_group_name_H-M   'P 1'
_cell_length_a   11.72908759
_cell_length_b   7.58055087
_cell_length_c   6.68649430
_cell_angle_alpha   90.00000000
_cell_angle_beta   90.00000000
_cell_angle_gamma   90.00000000
_symmetry_Int_Tables_number   1
_chemical_formula_structural   K2BiF5
_chemical_formula_sum   'K8 Bi4 F20'
_cell_volume   594.51590006
_cell_formula_units_Z   4
loop_
 _symmetry_equiv_pos_site_id
 _symmetry_equiv_pos_as_xyz
  1  'x, y, z'
loop_
 _atom_site_type_symbol
 _atom_site_label
 _atom_site_symmetry_multiplicity
 _atom_site_fract_x
 _atom_site_fract_y
 _atom_site_fract_z
 _atom_site_occupancy
  K  K0  1  0.66996624  0.49931613  -0.00009855  1.0
  K  K1  1  0.66996624  1.00068387  -0.00009855  1.0
  K  K2  1  0.16996624  0.49931613  0.50009855  1.0
  K  K3  1  0.16996624  1.00068387  0.50009855  1.0
  K  K4  1  0.33003376  -0.00068387  1.00009855  1.0
  K  K5  1  0.33003376  0.50068387  1.00009855  1.0
  K  K6  1  0.83003376  -0.00068387  0.49990145  1.0
  K  K7  1  0.83003376  0.50068387  0.49990145  1.0
  Bi  Bi8  1  0.95424709  0.25000000  0.05672139  1.0
  Bi  Bi9  1  0.45424709  0.25000000  0.44327861  1.0
  Bi  Bi10  1  0.04575291  0.75000000  0.94327861  1.0
  Bi  Bi11  1  0.54575291  0.75000000  0.55672139  1.0
  F  F12  1  0.90432980  0.95477366  0.10425974  1.0
  F  F13  1  0.90432980  0.54522634  0.10425974  1.0
  F  F14  1  0.40432980  0.95477366  0.39574026  1.0
  F  F15  1  0.40432980  0.54522634  0.39574026  1.0
  F  F16  1  0.09567020  0.45477366  0.89574026  1.0
  F  F17  1  0.09567020  0.04522634  0.89574026  1.0
  F  F18  1  0.59567020  0.45477366  0.60425974  1.0
  F  F19  1  0.59567020  0.04522634  0.60425974  1.0
  F  F20  1  0.01301573  0.25000000  0.38429267  1.0
  F  F21  1  0.51301573  0.25000000  0.11570733  1.0
  F  F22  1  0.98698427  0.75000000  0.61570733  1.0
  F  F23  1  0.48698427  0.75000000  0.88429267  1.0
  F  F24  1  0.83197832  0.25000000  0.79705035  1.0
  F  F25  1  0.33197832  0.25000000  0.70294965  1.0
  F  F26  1  0.16802168  0.75000000  0.20294965  1.0
  F  F27  1  0.66802168  0.75000000  0.29705035  1.0
  F  F28  1  0.78576554  0.25000000  0.21865541  1.0
  F  F29  1  0.28576554  0.25000000  0.28134459  1.0
  F  F30  1  0.21423446  0.75000000  0.78134459  1.0
  F  F31  1  0.71423446  0.75000000  0.71865541  1.0
