# generated using pymatgen
data_Yb2(NiB2)3
_symmetry_space_group_name_H-M   'P 1'
_cell_length_a   5.78148825
_cell_length_b   5.78148825
_cell_length_c   3.42540363
_cell_angle_alpha   90.00000000
_cell_angle_beta   90.00000000
_cell_angle_gamma   96.93797033
_symmetry_Int_Tables_number   1
_chemical_formula_structural   Yb2(NiB2)3
_chemical_formula_sum   'Yb2 Ni3 B6'
_cell_volume   113.65779591
_cell_formula_units_Z   1
loop_
 _symmetry_equiv_pos_site_id
 _symmetry_equiv_pos_as_xyz
  1  'x, y, z'
loop_
 _atom_site_type_symbol
 _atom_site_label
 _atom_site_symmetry_multiplicity
 _atom_site_fract_x
 _atom_site_fract_y
 _atom_site_fract_z
 _atom_site_occupancy
  Yb  Yb0  1  0.27791539  0.72208461  0.50000000  1.0
  Yb  Yb1  1  -0.27791539  1.27791539  0.50000000  1.0
  Ni  Ni2  1  0.77667041  0.77667041  0.50000000  1.0
  Ni  Ni3  1  0.22332959  0.22332959  0.50000000  1.0
  Ni  Ni4  1  0.00000000  0.00000000  0.00000000  1.0
  B  B5  1  0.61286653  0.61286653  -0.00000000  1.0
  B  B6  1  0.38713347  0.38713347  -0.00000000  1.0
  B  B7  1  -0.08560052  1.61333517  0.00000000  1.0
  B  B8  1  0.61333517  0.91439948  0.00000000  1.0
  B  B9  1  -0.61333517  1.08560052  0.00000000  1.0
  B  B10  1  0.08560052  0.38666483  0.00000000  1.0
