# generated using pymatgen
data_ZrI2
_symmetry_space_group_name_H-M   'P 1'
_cell_length_a   3.76955201
_cell_length_b   6.90707902
_cell_length_c   16.50626031
_cell_angle_alpha   90.00000000
_cell_angle_beta   90.00000000
_cell_angle_gamma   90.00000000
_symmetry_Int_Tables_number   1
_chemical_formula_structural   ZrI2
_chemical_formula_sum   'Zr4 I8'
_cell_volume   429.76679178
_cell_formula_units_Z   4
loop_
 _symmetry_equiv_pos_site_id
 _symmetry_equiv_pos_as_xyz
  1  'x, y, z'
loop_
 _atom_site_type_symbol
 _atom_site_label
 _atom_site_symmetry_multiplicity
 _atom_site_fract_x
 _atom_site_fract_y
 _atom_site_fract_z
 _atom_site_occupancy
  Zr  Zr0  1  0.50000000  0.99055036  0.60667544  1.0
  Zr  Zr1  1  0.00000000  0.00944964  0.10667544  1.0
  Zr  Zr2  1  0.50000000  0.38475649  0.11290535  1.0
  Zr  Zr3  1  0.00000000  0.61524351  0.61290535  1.0
  I  I4  1  0.50000000  0.77640196  0.20881194  1.0
  I  I5  1  -0.00000000  0.22359804  0.70881194  1.0
  I  I6  1  0.50000000  0.72183113  0.74313306  1.0
  I  I7  1  -0.00000000  0.27816887  0.24313306  1.0
  I  I8  1  0.50000000  0.38227027  0.51070712  1.0
  I  I9  1  -0.00000000  0.61772973  0.01070712  1.0
  I  I10  1  0.50000000  0.11612761  0.97646708  1.0
  I  I11  1  -0.00000000  0.88387239  0.47646708  1.0
