# generated using pymatgen
data_BeGeP2
_symmetry_space_group_name_H-M   'P 1'
_cell_length_a   6.39721437
_cell_length_b   6.39721437
_cell_length_c   6.39721437
_cell_angle_alpha   131.95847245
_cell_angle_beta   131.95847245
_cell_angle_gamma   70.29462305
_symmetry_Int_Tables_number   1
_chemical_formula_structural   BeGeP2
_chemical_formula_sum   'Be2 Ge2 P4'
_cell_volume   141.88826462
_cell_formula_units_Z   2
loop_
 _symmetry_equiv_pos_site_id
 _symmetry_equiv_pos_as_xyz
  1  'x, y, z'
loop_
 _atom_site_type_symbol
 _atom_site_label
 _atom_site_symmetry_multiplicity
 _atom_site_fract_x
 _atom_site_fract_y
 _atom_site_fract_z
 _atom_site_occupancy
  Be  Be0  1  0.50000000  0.50000000  -0.00000000  1.0
  Be  Be1  1  0.25000000  0.75000000  0.50000000  1.0
  Ge  Ge2  1  1.00000000  1.00000000  1.00000000  1.0
  Ge  Ge3  1  0.75000000  0.25000000  0.50000000  1.0
  P  P4  1  1.37500000  0.84609942  0.97109942  1.0
  P  P5  1  0.87500000  1.40390058  1.02890058  1.0
  P  P6  1  0.59609942  0.62500000  0.47109942  1.0
  P  P7  1  1.15390058  1.12500000  1.52890058  1.0
