# generated using pymatgen
data_HfB4Ir3
_symmetry_space_group_name_H-M   'P 1'
_cell_length_a   7.61279143
_cell_length_b   7.61279143
_cell_length_c   3.51418592
_cell_angle_alpha   90.00000000
_cell_angle_beta   90.00000000
_cell_angle_gamma   120.00000000
_symmetry_Int_Tables_number   1
_chemical_formula_structural   HfB4Ir3
_chemical_formula_sum   'Hf2 B8 Ir6'
_cell_volume   176.37751901
_cell_formula_units_Z   2
loop_
 _symmetry_equiv_pos_site_id
 _symmetry_equiv_pos_as_xyz
  1  'x, y, z'
loop_
 _atom_site_type_symbol
 _atom_site_label
 _atom_site_symmetry_multiplicity
 _atom_site_fract_x
 _atom_site_fract_y
 _atom_site_fract_z
 _atom_site_occupancy
  Hf  Hf0  1  0.66666667  0.33333333  0.25000000  1.0
  Hf  Hf1  1  0.33333333  0.66666667  0.75000000  1.0
  B  B2  1  0.39746843  0.94894918  0.25000000  1.0
  B  B3  1  0.94894918  0.55148076  0.75000000  1.0
  B  B4  1  0.55148076  0.60253157  0.25000000  1.0
  B  B5  1  0.05105082  0.44851924  0.25000000  1.0
  B  B6  1  0.60253157  0.05105082  0.75000000  1.0
  B  B7  1  0.44851924  0.39746843  0.75000000  1.0
  B  B8  1  -0.00000000  -0.00000000  0.50000000  1.0
  B  B9  1  0.00000000  0.00000000  0.00000000  1.0
  Ir  Ir10  1  0.07537504  0.74310782  0.25000000  1.0
  Ir  Ir11  1  0.74310782  0.66773278  0.75000000  1.0
  Ir  Ir12  1  0.66773278  0.92462496  0.25000000  1.0
  Ir  Ir13  1  0.25689218  0.33226722  0.25000000  1.0
  Ir  Ir14  1  0.92462496  0.25689218  0.75000000  1.0
  Ir  Ir15  1  0.33226722  0.07537504  0.75000000  1.0
