# generated using pymatgen
data_Cr(C4N3)2
_symmetry_space_group_name_H-M   'P 1'
_cell_length_a   7.17508244
_cell_length_b   5.17815832
_cell_length_c   10.35382779
_cell_angle_alpha   90.00000000
_cell_angle_beta   90.00000000
_cell_angle_gamma   90.00000000
_symmetry_Int_Tables_number   1
_chemical_formula_structural   Cr(C4N3)2
_chemical_formula_sum   'Cr2 C16 N12'
_cell_volume   384.68314418
_cell_formula_units_Z   2
loop_
 _symmetry_equiv_pos_site_id
 _symmetry_equiv_pos_as_xyz
  1  'x, y, z'
loop_
 _atom_site_type_symbol
 _atom_site_label
 _atom_site_symmetry_multiplicity
 _atom_site_fract_x
 _atom_site_fract_y
 _atom_site_fract_z
 _atom_site_occupancy
  Cr  Cr0  1  0.00000000  0.00000000  0.00000000  1.0
  Cr  Cr1  1  0.50000000  0.00000000  0.50000000  1.0
  C  C2  1  0.66579451  0.68787098  0.11679905  1.0
  C  C3  1  0.66579451  0.31212902  0.88320095  1.0
  C  C4  1  0.16579451  0.68787098  0.38320095  1.0
  C  C5  1  0.16579451  0.31212902  0.61679905  1.0
  C  C6  1  0.33420549  0.68787098  0.11679905  1.0
  C  C7  1  0.33420549  0.31212902  0.88320095  1.0
  C  C8  1  0.83420549  0.68787098  0.38320095  1.0
  C  C9  1  0.83420549  0.31212902  0.61679905  1.0
  C  C10  1  0.00000000  0.57589945  0.33861361  1.0
  C  C11  1  0.00000000  0.42410055  0.66138639  1.0
  C  C12  1  0.50000000  0.57589945  0.16138639  1.0
  C  C13  1  0.50000000  0.42410055  0.83861361  1.0
  C  C14  1  0.00000000  0.38190656  0.24341014  1.0
  C  C15  1  0.00000000  0.61809344  0.75658986  1.0
  C  C16  1  0.50000000  0.38190656  0.25658986  1.0
  C  C17  1  0.50000000  0.61809344  0.74341014  1.0
  N  N18  1  0.79719030  0.79360608  0.07462272  1.0
  N  N19  1  0.79719030  0.20639392  0.92537728  1.0
  N  N20  1  0.29719030  0.79360608  0.42537728  1.0
  N  N21  1  0.29719030  0.20639392  0.57462272  1.0
  N  N22  1  0.20280970  0.79360608  0.07462272  1.0
  N  N23  1  0.20280970  0.20639392  0.92537728  1.0
  N  N24  1  0.70280970  0.79360608  0.42537728  1.0
  N  N25  1  0.70280970  0.20639392  0.57462272  1.0
  N  N26  1  0.00000000  0.22588131  0.16147851  1.0
  N  N27  1  0.00000000  0.77411869  0.83852149  1.0
  N  N28  1  0.50000000  0.22588131  0.33852149  1.0
  N  N29  1  0.50000000  0.77411869  0.66147851  1.0
