# generated using pymatgen
data_CdS2O7
_symmetry_space_group_name_H-M   'P 1'
_cell_length_a   5.31419655
_cell_length_b   13.26648938
_cell_length_c   9.92841856
_cell_angle_alpha   90.00000000
_cell_angle_beta   121.14908256
_cell_angle_gamma   90.00000000
_symmetry_Int_Tables_number   1
_chemical_formula_structural   CdS2O7
_chemical_formula_sum   'Cd4 S8 O28'
_cell_volume   599.04342906
_cell_formula_units_Z   4
loop_
 _symmetry_equiv_pos_site_id
 _symmetry_equiv_pos_as_xyz
  1  'x, y, z'
loop_
 _atom_site_type_symbol
 _atom_site_label
 _atom_site_symmetry_multiplicity
 _atom_site_fract_x
 _atom_site_fract_y
 _atom_site_fract_z
 _atom_site_occupancy
  Cd  Cd0  1  0.62433665  0.15047888  0.32858593  1.0
  Cd  Cd1  1  0.62433665  0.34952112  0.82858593  1.0
  Cd  Cd2  1  0.37566335  0.65047888  0.17141407  1.0
  Cd  Cd3  1  0.37566335  0.84952112  0.67141407  1.0
  S  S4  1  0.21439463  0.31383198  0.41399971  1.0
  S  S5  1  0.21439463  0.18616802  0.91399971  1.0
  S  S6  1  0.78560537  0.81383198  0.08600029  1.0
  S  S7  1  0.78560537  0.68616802  0.58600029  1.0
  S  S8  1  0.87361525  0.47457296  0.19276022  1.0
  S  S9  1  0.87361525  0.02542704  0.69276022  1.0
  S  S10  1  0.12638475  0.97457296  0.30723978  1.0
  S  S11  1  0.12638475  0.52542704  0.80723978  1.0
  O  O12  1  0.82796691  0.93225177  0.14837184  1.0
  O  O13  1  0.82796691  0.56774823  0.64837184  1.0
  O  O14  1  0.17203309  0.43225177  0.35162816  1.0
  O  O15  1  0.17203309  0.06774823  0.85162816  1.0
  O  O16  1  0.00917942  0.05477696  0.36011308  1.0
  O  O17  1  0.00917942  0.44522304  0.86011308  1.0
  O  O18  1  0.99082058  0.55477696  0.13988692  1.0
  O  O19  1  0.99082058  0.94522304  0.63988692  1.0
  O  O20  1  0.74801482  0.38926848  0.08393304  1.0
  O  O21  1  0.74801482  0.11073152  0.58393304  1.0
  O  O22  1  0.25198518  0.88926848  0.41606696  1.0
  O  O23  1  0.25198518  0.61073152  0.91606696  1.0
  O  O24  1  0.47799471  0.17585642  0.06982313  1.0
  O  O25  1  0.47799471  0.32414358  0.56982313  1.0
  O  O26  1  0.52200529  0.67585642  0.43017687  1.0
  O  O27  1  0.52200529  0.82414358  0.93017687  1.0
  O  O28  1  0.31510551  0.01058369  0.24989170  1.0
  O  O29  1  0.31510551  0.48941631  0.74989170  1.0
  O  O30  1  0.68489449  0.51058369  0.25010830  1.0
  O  O31  1  0.68489449  0.98941631  0.75010830  1.0
  O  O32  1  0.26216240  0.25557242  0.30369803  1.0
  O  O33  1  0.26216240  0.24442758  0.80369803  1.0
  O  O34  1  0.73783760  0.75557242  0.19630197  1.0
  O  O35  1  0.73783760  0.74442758  0.69630197  1.0
  O  O36  1  0.94498675  0.28745454  0.41211643  1.0
  O  O37  1  0.94498675  0.21254546  0.91211643  1.0
  O  O38  1  0.05501325  0.78745454  0.08788357  1.0
  O  O39  1  0.05501325  0.71254546  0.58788357  1.0
