# generated using pymatgen
data_CaIn4Rh
_symmetry_space_group_name_H-M   'P 1'
_cell_length_a   8.79039984
_cell_length_b   4.28380315
_cell_length_c   7.54541135
_cell_angle_alpha   90.00000000
_cell_angle_beta   90.00000000
_cell_angle_gamma   90.00000000
_symmetry_Int_Tables_number   1
_chemical_formula_structural   CaIn4Rh
_chemical_formula_sum   'Ca2 In8 Rh2'
_cell_volume   284.13259455
_cell_formula_units_Z   2
loop_
 _symmetry_equiv_pos_site_id
 _symmetry_equiv_pos_as_xyz
  1  'x, y, z'
loop_
 _atom_site_type_symbol
 _atom_site_label
 _atom_site_symmetry_multiplicity
 _atom_site_fract_x
 _atom_site_fract_y
 _atom_site_fract_z
 _atom_site_occupancy
  Ca  Ca0  1  0.25000000  0.00000000  0.59904010  1.0
  Ca  Ca1  1  0.75000000  0.00000000  0.40095990  1.0
  In  In2  1  0.43546147  0.50000000  0.31412538  1.0
  In  In3  1  0.93546147  0.50000000  0.68587462  1.0
  In  In4  1  0.56453853  0.50000000  0.68587462  1.0
  In  In5  1  0.06453853  0.50000000  0.31412538  1.0
  In  In6  1  0.25000000  0.50000000  0.93212505  1.0
  In  In7  1  0.75000000  0.50000000  0.06787495  1.0
  In  In8  1  0.50000000  0.00000000  0.00000000  1.0
  In  In9  1  0.00000000  0.00000000  0.00000000  1.0
  Rh  Rh10  1  0.25000000  0.00000000  0.19315979  1.0
  Rh  Rh11  1  0.75000000  0.00000000  0.80684021  1.0
