# generated using pymatgen
data_Ta6Be15Ni8
_symmetry_space_group_name_H-M   'P 1'
_cell_length_a   7.55344281
_cell_length_b   7.55344281
_cell_length_c   7.55344281
_cell_angle_alpha   60.00000000
_cell_angle_beta   60.00000000
_cell_angle_gamma   60.00000000
_symmetry_Int_Tables_number   1
_chemical_formula_structural   Ta6Be15Ni8
_chemical_formula_sum   'Ta6 Be15 Ni8'
_cell_volume   304.73324647
_cell_formula_units_Z   1
loop_
 _symmetry_equiv_pos_site_id
 _symmetry_equiv_pos_as_xyz
  1  'x, y, z'
loop_
 _atom_site_type_symbol
 _atom_site_label
 _atom_site_symmetry_multiplicity
 _atom_site_fract_x
 _atom_site_fract_y
 _atom_site_fract_z
 _atom_site_occupancy
  Ta  Ta0  1  -0.70259014  0.70259014  0.70259014  1.0
  Ta  Ta1  1  -0.29740986  0.29740986  0.70259014  1.0
  Ta  Ta2  1  0.70259014  0.70259014  -0.70259014  1.0
  Ta  Ta3  1  0.29740986  1.29740986  -0.29740986  1.0
  Ta  Ta4  1  0.29740986  -0.29740986  1.29740986  1.0
  Ta  Ta5  1  -0.29740986  0.29740986  0.29740986  1.0
  Be  Be6  1  0.67317442  0.67317442  -0.32682558  1.0
  Be  Be7  1  1.32682558  0.32682558  0.01952325  1.0
  Be  Be8  1  1.32682558  0.01952325  0.32682558  1.0
  Be  Be9  1  0.98047675  0.67317442  -0.32682558  1.0
  Be  Be10  1  1.01952325  0.32682558  0.32682558  1.0
  Be  Be11  1  0.67317442  0.98047675  -0.32682558  1.0
  Be  Be12  1  0.67317442  0.67317442  -0.01952325  1.0
  Be  Be13  1  1.32682558  0.32682558  0.32682558  1.0
  Be  Be14  1  1.50000000  0.00000000  -0.00000000  1.0
  Be  Be15  1  1.00000000  0.50000000  -0.50000000  1.0
  Be  Be16  1  0.00000000  1.50000000  -0.00000000  1.0
  Be  Be17  1  0.50000000  1.00000000  -0.50000000  1.0
  Be  Be18  1  0.00000000  0.00000000  0.50000000  1.0
  Be  Be19  1  0.50000000  -0.50000000  1.00000000  1.0
  Be  Be20  1  0.00000000  0.00000000  0.00000000  1.0
  Ni  Ni21  1  0.87750109  0.87750109  -0.12249891  1.0
  Ni  Ni22  1  1.12249891  0.12249891  0.63250327  1.0
  Ni  Ni23  1  1.12249891  0.63250327  0.12249891  1.0
  Ni  Ni24  1  0.36749673  0.87750109  -0.12249891  1.0
  Ni  Ni25  1  1.63250327  0.12249891  0.12249891  1.0
  Ni  Ni26  1  0.87750109  0.36749673  -0.12249891  1.0
  Ni  Ni27  1  0.87750109  0.87750109  -0.63250327  1.0
  Ni  Ni28  1  1.12249891  0.12249891  0.12249891  1.0
