# generated using pymatgen
data_CrAgTe2
_symmetry_space_group_name_H-M   'P 1'
_cell_length_a   7.63730889
_cell_length_b   7.63730889
_cell_length_c   7.63730889
_cell_angle_alpha   31.30759041
_cell_angle_beta   31.30759041
_cell_angle_gamma   31.30759041
_symmetry_Int_Tables_number   1
_chemical_formula_structural   CrAgTe2
_chemical_formula_sum   'Cr1 Ag1 Te2'
_cell_volume   106.75768381
_cell_formula_units_Z   1
loop_
 _symmetry_equiv_pos_site_id
 _symmetry_equiv_pos_as_xyz
  1  'x, y, z'
loop_
 _atom_site_type_symbol
 _atom_site_label
 _atom_site_symmetry_multiplicity
 _atom_site_fract_x
 _atom_site_fract_y
 _atom_site_fract_z
 _atom_site_occupancy
  Cr  Cr0  1  0.73666312  -0.26333688  -0.26333688  1.0
  Ag  Ag1  1  0.88099612  -0.11900388  -0.11900388  1.0
  Te  Te2  1  0.00629835  0.00629835  0.00629835  1.0
  Te  Te3  1  0.47144241  0.47144241  -0.52855759  1.0
