# generated using pymatgen
data_EuIn4Cu
_symmetry_space_group_name_H-M   'P 1'
_cell_length_a   8.88390347
_cell_length_b   8.88390347
_cell_length_c   7.41896528
_cell_angle_alpha   90.00000000
_cell_angle_beta   90.00000000
_cell_angle_gamma   150.43068202
_symmetry_Int_Tables_number   1
_chemical_formula_structural   EuIn4Cu
_chemical_formula_sum   'Eu2 In8 Cu2'
_cell_volume   288.94633732
_cell_formula_units_Z   2
loop_
 _symmetry_equiv_pos_site_id
 _symmetry_equiv_pos_as_xyz
  1  'x, y, z'
loop_
 _atom_site_type_symbol
 _atom_site_label
 _atom_site_symmetry_multiplicity
 _atom_site_fract_x
 _atom_site_fract_y
 _atom_site_fract_z
 _atom_site_occupancy
  Eu  Eu0  1  -0.61960549  0.61960549  0.25000000  1.0
  Eu  Eu1  1  -0.38039451  1.38039451  0.75000000  1.0
  In  In2  1  -0.81475297  0.81475297  0.45294702  1.0
  In  In3  1  -0.81475297  0.81475297  0.04705298  1.0
  In  In4  1  -0.18524703  1.18524703  0.95294702  1.0
  In  In5  1  -0.18524703  1.18524703  0.54705298  1.0
  In  In6  1  -0.42882522  1.42882522  0.25000000  1.0
  In  In7  1  -0.57117478  0.57117478  0.75000000  1.0
  In  In8  1  0.00000000  0.00000000  0.50000000  1.0
  In  In9  1  0.00000000  0.00000000  0.00000000  1.0
  Cu  Cu10  1  -0.27370577  1.27370577  0.25000000  1.0
  Cu  Cu11  1  -0.72629423  0.72629423  0.75000000  1.0
