# generated using pymatgen
data_Tl4SiS4
_symmetry_space_group_name_H-M   'P 1'
_cell_length_a   8.75540899
_cell_length_b   8.75540899
_cell_length_c   7.81896141
_cell_angle_alpha   72.32628985
_cell_angle_beta   107.67371015
_cell_angle_gamma   95.57480126
_symmetry_Int_Tables_number   1
_chemical_formula_structural   Tl4SiS4
_chemical_formula_sum   'Tl8 Si2 S8'
_cell_volume   544.12631325
_cell_formula_units_Z   2
loop_
 _symmetry_equiv_pos_site_id
 _symmetry_equiv_pos_as_xyz
  1  'x, y, z'
loop_
 _atom_site_type_symbol
 _atom_site_label
 _atom_site_symmetry_multiplicity
 _atom_site_fract_x
 _atom_site_fract_y
 _atom_site_fract_z
 _atom_site_occupancy
  Tl  Tl0  1  0.73287506  0.05414477  0.81188305  1.0
  Tl  Tl1  1  0.94585523  0.26712494  0.31188305  1.0
  Tl  Tl2  1  1.05082434  -0.32454671  0.38036198  1.0
  Tl  Tl3  1  1.32454671  -0.05082434  0.88036198  1.0
  Tl  Tl4  1  0.34885538  0.10985787  0.33853215  1.0
  Tl  Tl5  1  0.89014213  0.65114462  0.83853215  1.0
  Tl  Tl6  1  0.52869100  0.49484558  0.37991732  1.0
  Tl  Tl7  1  0.50515442  0.47130900  0.87991732  1.0
  Si  Si8  1  1.69687814  -0.11154052  0.33086797  1.0
  Si  Si9  1  1.11154052  -0.69687814  0.83086797  1.0
  S  S10  1  0.93355394  0.91957620  0.50713315  1.0
  S  S11  1  0.08042380  0.06644606  0.00713315  1.0
  S  S12  1  1.70728435  -0.25894873  0.15949150  1.0
  S  S13  1  1.25894873  -0.70728435  0.65949150  1.0
  S  S14  1  1.54321424  -0.21870120  0.50286790  1.0
  S  S15  1  1.21870120  -0.54321424  0.00286790  1.0
  S  S16  1  0.60327373  0.11716291  0.14624498  1.0
  S  S17  1  0.88283709  0.39672627  0.64624498  1.0
