# generated using pymatgen
data_MnInO3
_symmetry_space_group_name_H-M   'P 1'
_cell_length_a   5.92493241
_cell_length_b   5.92493241
_cell_length_c   11.85057500
_cell_angle_alpha   90.00000000
_cell_angle_beta   90.00000000
_cell_angle_gamma   120.00000000
_symmetry_Int_Tables_number   1
_chemical_formula_structural   MnInO3
_chemical_formula_sum   'Mn6 In6 O18'
_cell_volume   360.27726397
_cell_formula_units_Z   6
loop_
 _symmetry_equiv_pos_site_id
 _symmetry_equiv_pos_as_xyz
  1  'x, y, z'
loop_
 _atom_site_type_symbol
 _atom_site_label
 _atom_site_symmetry_multiplicity
 _atom_site_fract_x
 _atom_site_fract_y
 _atom_site_fract_z
 _atom_site_occupancy
  Mn  Mn0  1  0.66664972  0.66664972  0.27225183  1.0
  Mn  Mn1  1  0.66664972  -0.00000000  0.77225183  1.0
  Mn  Mn2  1  -0.00000000  0.66664972  0.77225183  1.0
  Mn  Mn3  1  0.00000000  0.33335028  0.27225183  1.0
  Mn  Mn4  1  0.33335028  0.33335028  0.77225183  1.0
  Mn  Mn5  1  0.33335028  0.00000000  0.27225183  1.0
  In  In6  1  -0.00000000  -0.00000000  0.02219813  1.0
  In  In7  1  0.00000000  0.00000000  0.52219813  1.0
  In  In8  1  0.33333333  0.66666667  0.02229693  1.0
  In  In9  1  0.33333333  0.66666667  0.52229693  1.0
  In  In10  1  0.66666667  0.33333333  0.02229693  1.0
  In  In11  1  0.66666667  0.33333333  0.52229693  1.0
  O  O12  1  0.66670033  0.66670033  0.10901118  1.0
  O  O13  1  0.66670033  -0.00000000  0.60901118  1.0
  O  O14  1  -0.00000000  0.66670033  0.60901118  1.0
  O  O15  1  0.00000000  0.33329967  0.10901118  1.0
  O  O16  1  0.33329967  0.33329967  0.60901118  1.0
  O  O17  1  0.33329967  0.00000000  0.10901118  1.0
  O  O18  1  0.66658750  0.66658750  0.43550398  1.0
  O  O19  1  0.66658750  -0.00000000  0.93550398  1.0
  O  O20  1  -0.00000000  0.66658750  0.93550398  1.0
  O  O21  1  -0.00000000  0.33341250  0.43550398  1.0
  O  O22  1  0.33341250  0.33341250  0.93550398  1.0
  O  O23  1  0.33341250  0.00000000  0.43550398  1.0
  O  O24  1  0.33333333  0.66666667  0.27219434  1.0
  O  O25  1  0.33333333  0.66666667  0.77219434  1.0
  O  O26  1  0.66666667  0.33333333  0.27219434  1.0
  O  O27  1  0.66666667  0.33333333  0.77219434  1.0
  O  O28  1  0.00000000  0.00000000  0.27231838  1.0
  O  O29  1  0.00000000  0.00000000  0.77231838  1.0
