# generated using pymatgen
data_B2Mo
_symmetry_space_group_name_H-M   'P 1'
_cell_length_a   7.19280319
_cell_length_b   7.19280319
_cell_length_c   7.19280319
_cell_angle_alpha   24.20829319
_cell_angle_beta   24.20829319
_cell_angle_gamma   24.20829319
_symmetry_Int_Tables_number   1
_chemical_formula_structural   B2Mo
_chemical_formula_sum   'B4 Mo2'
_cell_volume   54.99445071
_cell_formula_units_Z   2
loop_
 _symmetry_equiv_pos_site_id
 _symmetry_equiv_pos_as_xyz
  1  'x, y, z'
loop_
 _atom_site_type_symbol
 _atom_site_label
 _atom_site_symmetry_multiplicity
 _atom_site_fract_x
 _atom_site_fract_y
 _atom_site_fract_z
 _atom_site_occupancy
  B  B0  1  0.81845835  0.81845835  0.81845835  1.0
  B  B1  1  1.18154165  1.18154165  0.18154165  1.0
  B  B2  1  0.66780264  0.66780264  0.66780264  1.0
  B  B3  1  1.33219736  1.33219736  0.33219736  1.0
  Mo  Mo4  1  0.92432238  0.92432238  0.92432238  1.0
  Mo  Mo5  1  1.07567762  1.07567762  0.07567762  1.0
