# generated using pymatgen
data_Zn2Mo3O8
_symmetry_space_group_name_H-M   'P 1'
_cell_length_a   5.81053097
_cell_length_b   5.81053097
_cell_length_c   10.06688845
_cell_angle_alpha   90.00000000
_cell_angle_beta   90.00000000
_cell_angle_gamma   120.00000000
_symmetry_Int_Tables_number   1
_chemical_formula_structural   Zn2Mo3O8
_chemical_formula_sum   'Zn4 Mo6 O16'
_cell_volume   294.34558637
_cell_formula_units_Z   2
loop_
 _symmetry_equiv_pos_site_id
 _symmetry_equiv_pos_as_xyz
  1  'x, y, z'
loop_
 _atom_site_type_symbol
 _atom_site_label
 _atom_site_symmetry_multiplicity
 _atom_site_fract_x
 _atom_site_fract_y
 _atom_site_fract_z
 _atom_site_occupancy
  Zn  Zn0  1  0.33333333  0.66666667  0.06029599  1.0
  Zn  Zn1  1  0.66666667  0.33333333  0.56029599  1.0
  Zn  Zn2  1  0.33333333  0.66666667  0.62760065  1.0
  Zn  Zn3  1  0.66666667  0.33333333  0.12760065  1.0
  Mo  Mo4  1  0.70908262  0.85454131  0.36130010  1.0
  Mo  Mo5  1  0.85454131  0.70908262  0.86130010  1.0
  Mo  Mo6  1  0.85454131  0.14545869  0.86130010  1.0
  Mo  Mo7  1  0.14545869  0.85454131  0.36130010  1.0
  Mo  Mo8  1  0.14545869  0.29091738  0.36130010  1.0
  Mo  Mo9  1  0.29091738  0.14545869  0.86130010  1.0
  O  O10  1  0.02385349  0.51192675  0.47539729  1.0
  O  O11  1  0.51192675  0.02385349  0.97539729  1.0
  O  O12  1  0.51192675  0.48807325  0.97539729  1.0
  O  O13  1  0.48807325  0.51192675  0.47539729  1.0
  O  O14  1  0.48807325  0.97614651  0.47539729  1.0
  O  O15  1  0.97614651  0.48807325  0.97539729  1.0
  O  O16  1  0.33176553  0.16588277  0.24527233  1.0
  O  O17  1  0.16588277  0.33176553  0.74527233  1.0
  O  O18  1  0.16588277  0.83411723  0.74527233  1.0
  O  O19  1  0.83411723  0.16588277  0.24527233  1.0
  O  O20  1  0.83411723  0.66823447  0.24527233  1.0
  O  O21  1  0.66823447  0.83411723  0.74527233  1.0
  O  O22  1  0.33333333  0.66666667  0.25626330  1.0
  O  O23  1  0.66666667  0.33333333  0.75626330  1.0
  O  O24  1  0.00000000  0.00000000  0.00133089  1.0
  O  O25  1  0.00000000  0.00000000  0.50133089  1.0
