# generated using pymatgen
data_EuScGe
_symmetry_space_group_name_H-M   'P 1'
_cell_length_a   8.56056378
_cell_length_b   8.56056378
_cell_length_c   8.56056378
_cell_angle_alpha   150.49705807
_cell_angle_beta   150.49705807
_cell_angle_gamma   42.21226213
_symmetry_Int_Tables_number   1
_chemical_formula_structural   EuScGe
_chemical_formula_sum   'Eu2 Sc2 Ge2'
_cell_volume   151.78096606
_cell_formula_units_Z   2
loop_
 _symmetry_equiv_pos_site_id
 _symmetry_equiv_pos_as_xyz
  1  'x, y, z'
loop_
 _atom_site_type_symbol
 _atom_site_label
 _atom_site_symmetry_multiplicity
 _atom_site_fract_x
 _atom_site_fract_y
 _atom_site_fract_z
 _atom_site_occupancy
  Eu  Eu0  1  0.67600567  0.67600567  1.00000000  1.0
  Eu  Eu1  1  0.32399433  0.32399433  0.00000000  1.0
  Sc  Sc2  1  0.00000000  0.50000000  0.50000000  1.0
  Sc  Sc3  1  0.50000000  0.00000000  0.50000000  1.0
  Ge  Ge4  1  0.87894574  0.87894574  1.00000000  1.0
  Ge  Ge5  1  0.12105426  0.12105426  0.00000000  1.0
