# generated using pymatgen
data_Gd2MnNiO6
_symmetry_space_group_name_H-M   'P 1'
_cell_length_a   5.31792428
_cell_length_b   5.59083530
_cell_length_c   9.23947534
_cell_angle_alpha   90.00000000
_cell_angle_beta   124.82183116
_cell_angle_gamma   90.00000000
_symmetry_Int_Tables_number   1
_chemical_formula_structural   Gd2MnNiO6
_chemical_formula_sum   'Gd4 Mn2 Ni2 O12'
_cell_volume   225.51382999
_cell_formula_units_Z   2
loop_
 _symmetry_equiv_pos_site_id
 _symmetry_equiv_pos_as_xyz
  1  'x, y, z'
loop_
 _atom_site_type_symbol
 _atom_site_label
 _atom_site_symmetry_multiplicity
 _atom_site_fract_x
 _atom_site_fract_y
 _atom_site_fract_z
 _atom_site_occupancy
  Gd  Gd0  1  0.73284372  0.06645269  0.24941168  1.0
  Gd  Gd1  1  0.73284372  0.43354731  0.74941168  1.0
  Gd  Gd2  1  0.26715628  0.56645269  0.25058832  1.0
  Gd  Gd3  1  0.26715628  0.93354731  0.75058832  1.0
  Mn  Mn4  1  0.00000000  0.50000000  0.50000000  1.0
  Mn  Mn5  1  0.00000000  0.00000000  0.00000000  1.0
  Ni  Ni6  1  0.50000000  0.50000000  -0.00000000  1.0
  Ni  Ni7  1  0.50000000  0.00000000  0.50000000  1.0
  O  O8  1  0.85177859  0.47257900  0.25622153  1.0
  O  O9  1  0.85177859  0.02742100  0.75622153  1.0
  O  O10  1  0.14822141  0.97257900  0.24377847  1.0
  O  O11  1  0.14822141  0.52742100  0.74377847  1.0
  O  O12  1  0.76050141  0.78975031  0.44947904  1.0
  O  O13  1  0.76050141  0.71024969  0.94947904  1.0
  O  O14  1  0.23949859  0.28975031  0.05052096  1.0
  O  O15  1  0.23949859  0.21024969  0.55052096  1.0
  O  O16  1  0.65830680  0.30801651  0.45235929  1.0
  O  O17  1  0.65830680  0.19198349  0.95235929  1.0
  O  O18  1  0.34169320  0.80801651  0.04764071  1.0
  O  O19  1  0.34169320  0.69198349  0.54764071  1.0
