# generated using pymatgen
data_VH6(OF)3
_symmetry_space_group_name_H-M   'P 1'
_cell_length_a   5.14599697
_cell_length_b   5.14599697
_cell_length_c   5.14599697
_cell_angle_alpha   86.47798282
_cell_angle_beta   86.47798282
_cell_angle_gamma   86.47798282
_symmetry_Int_Tables_number   1
_chemical_formula_structural   VH6(OF)3
_chemical_formula_sum   'V1 H6 O3 F3'
_cell_volume   135.53076612
_cell_formula_units_Z   1
loop_
 _symmetry_equiv_pos_site_id
 _symmetry_equiv_pos_as_xyz
  1  'x, y, z'
loop_
 _atom_site_type_symbol
 _atom_site_label
 _atom_site_symmetry_multiplicity
 _atom_site_fract_x
 _atom_site_fract_y
 _atom_site_fract_z
 _atom_site_occupancy
  V  V0  1  -0.00158103  -0.00158103  -0.00158103  1.0
  H  H1  1  0.78312296  1.18254077  -0.44932276  1.0
  H  H2  1  0.78312296  0.55067724  0.18254077  1.0
  H  H3  1  1.18254077  0.78312296  -0.44932276  1.0
  H  H4  1  1.18254077  0.55067724  -0.21687704  1.0
  H  H5  1  0.55067724  1.18254077  -0.21687704  1.0
  H  H6  1  0.55067724  0.78312296  0.18254077  1.0
  O  O7  1  1.14846482  0.74133873  -0.25866127  1.0
  O  O8  1  0.74133873  1.14846482  -0.25866127  1.0
  O  O9  1  0.74133873  0.74133873  0.14846482  1.0
  F  F10  1  0.85439577  0.24773052  0.24773052  1.0
  F  F11  1  1.24773052  -0.14560423  0.24773052  1.0
  F  F12  1  1.24773052  0.24773052  -0.14560423  1.0
