# generated using pymatgen
data_Cs3Gd2Br9
_symmetry_space_group_name_H-M   'P 1'
_cell_length_a   10.51340445
_cell_length_b   10.51340445
_cell_length_c   10.51340445
_cell_angle_alpha   83.49534451
_cell_angle_beta   83.49534451
_cell_angle_gamma   83.49534451
_symmetry_Int_Tables_number   1
_chemical_formula_structural   Cs3Gd2Br9
_chemical_formula_sum   'Cs6 Gd4 Br18'
_cell_volume   1141.19663822
_cell_formula_units_Z   2
loop_
 _symmetry_equiv_pos_site_id
 _symmetry_equiv_pos_as_xyz
  1  'x, y, z'
loop_
 _atom_site_type_symbol
 _atom_site_label
 _atom_site_symmetry_multiplicity
 _atom_site_fract_x
 _atom_site_fract_y
 _atom_site_fract_z
 _atom_site_occupancy
  Cs  Cs0  1  0.58703702  0.25000000  -0.08703702  1.0
  Cs  Cs1  1  1.08703702  -0.58703702  -0.25000000  1.0
  Cs  Cs2  1  0.75000000  0.08703702  -0.58703702  1.0
  Cs  Cs3  1  0.25000000  0.91296298  -0.41296298  1.0
  Cs  Cs4  1  0.41296298  -0.25000000  0.08703702  1.0
  Cs  Cs5  1  0.91296298  -0.41296298  0.25000000  1.0
  Gd  Gd6  1  0.34841000  0.34841000  -0.65159000  1.0
  Gd  Gd7  1  0.84841000  0.84841000  -0.15159000  1.0
  Gd  Gd8  1  1.15159000  1.15159000  0.15159000  1.0
  Gd  Gd9  1  0.65159000  0.65159000  -0.34841000  1.0
  Br  Br10  1  0.23300925  0.58244343  -0.58269198  1.0
  Br  Br11  1  0.73300925  -0.08269198  0.08244343  1.0
  Br  Br12  1  1.08269198  -0.08244343  -0.73300925  1.0
  Br  Br13  1  0.58269198  0.76699075  -0.58244343  1.0
  Br  Br14  1  0.41755657  0.58269198  -0.23300925  1.0
  Br  Br15  1  0.91755657  -0.73300925  0.08269198  1.0
  Br  Br16  1  0.76699075  0.41755657  -0.41730802  1.0
  Br  Br17  1  0.26699075  0.08269198  -0.08244343  1.0
  Br  Br18  1  0.41730802  0.23300925  -0.41755657  1.0
  Br  Br19  1  0.91730802  0.08244343  -0.26699075  1.0
  Br  Br20  1  1.08244343  -0.26699075  -0.08269198  1.0
  Br  Br21  1  0.58244343  0.41730802  -0.76699075  1.0
  Br  Br22  1  1.09440241  1.25000000  0.40559759  1.0
  Br  Br23  1  0.59440241  0.90559759  -0.25000000  1.0
  Br  Br24  1  0.75000000  0.59440241  -0.09440241  1.0
  Br  Br25  1  1.25000000  1.40559759  0.09440241  1.0
  Br  Br26  1  0.90559759  0.75000000  -0.40559759  1.0
  Br  Br27  1  1.40559759  1.09440241  0.25000000  1.0
