# generated using pymatgen
data_KMgBO3
_symmetry_space_group_name_H-M   'P 1'
_cell_length_a   6.88881768
_cell_length_b   6.88881768
_cell_length_c   6.88881768
_cell_angle_alpha   90.00000000
_cell_angle_beta   90.00000000
_cell_angle_gamma   90.00000000
_symmetry_Int_Tables_number   1
_chemical_formula_structural   KMgBO3
_chemical_formula_sum   'K4 Mg4 B4 O12'
_cell_volume   326.91441577
_cell_formula_units_Z   4
loop_
 _symmetry_equiv_pos_site_id
 _symmetry_equiv_pos_as_xyz
  1  'x, y, z'
loop_
 _atom_site_type_symbol
 _atom_site_label
 _atom_site_symmetry_multiplicity
 _atom_site_fract_x
 _atom_site_fract_y
 _atom_site_fract_z
 _atom_site_occupancy
  K  K0  1  0.13316940  0.63316940  0.86683060  1.0
  K  K1  1  0.63316940  0.86683060  0.13316940  1.0
  K  K2  1  0.86683060  0.13316940  0.63316940  1.0
  K  K3  1  0.36683060  0.36683060  0.36683060  1.0
  Mg  Mg4  1  0.85541728  0.35541728  0.14458272  1.0
  Mg  Mg5  1  0.35541728  0.14458272  0.85541728  1.0
  Mg  Mg6  1  0.14458272  0.85541728  0.35541728  1.0
  Mg  Mg7  1  0.64458272  0.64458272  0.64458272  1.0
  B  B8  1  0.40690040  0.90690040  0.59309960  1.0
  B  B9  1  0.90690040  0.59309960  0.40690040  1.0
  B  B10  1  0.59309960  0.40690040  0.90690040  1.0
  B  B11  1  0.09309960  0.09309960  0.09309960  1.0
  O  O12  1  0.46010223  0.41723390  0.75678503  1.0
  O  O13  1  0.96010223  0.08276610  0.24321497  1.0
  O  O14  1  0.91723390  0.74321497  0.53989777  1.0
  O  O15  1  0.41723390  0.75678503  0.46010223  1.0
  O  O16  1  0.24321497  0.96010223  0.08276610  1.0
  O  O17  1  0.74321497  0.53989777  0.91723390  1.0
  O  O18  1  0.53989777  0.91723390  0.74321497  1.0
  O  O19  1  0.03989777  0.58276610  0.25678503  1.0
  O  O20  1  0.08276610  0.24321497  0.96010223  1.0
  O  O21  1  0.58276610  0.25678503  0.03989777  1.0
  O  O22  1  0.75678503  0.46010223  0.41723390  1.0
  O  O23  1  0.25678503  0.03989777  0.58276610  1.0
