# generated using pymatgen
data_Al2ZnTe4
_symmetry_space_group_name_H-M   'P 1'
_cell_length_a   7.36973792
_cell_length_b   7.36973792
_cell_length_c   7.36973792
_cell_angle_alpha   131.27890392
_cell_angle_beta   131.27890392
_cell_angle_gamma   71.37033222
_symmetry_Int_Tables_number   1
_chemical_formula_structural   Al2ZnTe4
_chemical_formula_sum   'Al2 Zn1 Te4'
_cell_volume   221.25731116
_cell_formula_units_Z   1
loop_
 _symmetry_equiv_pos_site_id
 _symmetry_equiv_pos_as_xyz
  1  'x, y, z'
loop_
 _atom_site_type_symbol
 _atom_site_label
 _atom_site_symmetry_multiplicity
 _atom_site_fract_x
 _atom_site_fract_y
 _atom_site_fract_z
 _atom_site_occupancy
  Al  Al0  1  0.25000000  0.75000000  0.50000000  1.0
  Al  Al1  1  0.50000000  0.50000000  1.00000000  1.0
  Zn  Zn2  1  0.00000000  0.00000000  0.00000000  1.0
  Te  Te3  1  0.39927662  0.89389070  1.02668162  1.0
  Te  Te4  1  1.10610930  1.13279092  1.50538592  1.0
  Te  Te5  1  0.86720908  0.37259500  0.97331838  1.0
  Te  Te6  1  0.62740500  0.60072338  0.49461408  1.0
