# generated using pymatgen
data_Na2Ti4O9
_symmetry_space_group_name_H-M   'P 1'
_cell_length_a   8.94844457
_cell_length_b   8.94844457
_cell_length_c   12.20128446
_cell_angle_alpha   73.18833136
_cell_angle_beta   106.81166864
_cell_angle_gamma   155.93423003
_symmetry_Int_Tables_number   1
_chemical_formula_structural   Na2Ti4O9
_chemical_formula_sum   'Na4 Ti8 O18'
_cell_volume   380.59193805
_cell_formula_units_Z   2
loop_
 _symmetry_equiv_pos_site_id
 _symmetry_equiv_pos_as_xyz
  1  'x, y, z'
loop_
 _atom_site_type_symbol
 _atom_site_label
 _atom_site_symmetry_multiplicity
 _atom_site_fract_x
 _atom_site_fract_y
 _atom_site_fract_z
 _atom_site_occupancy
  Na  Na0  1  0.57818785  0.42181215  0.61279230  1.0
  Na  Na1  1  0.42181215  -0.42181215  0.38720770  1.0
  Na  Na2  1  0.51933071  0.48066929  0.85731151  1.0
  Na  Na3  1  0.48066929  -0.48066929  0.14268849  1.0
  Ti  Ti4  1  0.88759092  0.11240908  0.63545682  1.0
  Ti  Ti5  1  0.11240908  -0.11240908  0.36454318  1.0
  Ti  Ti6  1  0.84600624  0.15399376  0.87675498  1.0
  Ti  Ti7  1  0.15399376  -0.15399376  0.12324502  1.0
  Ti  Ti8  1  0.75606571  0.24393429  0.33360716  1.0
  Ti  Ti9  1  0.24393429  -0.24393429  0.66639284  1.0
  Ti  Ti10  1  0.19855177  -0.19855177  0.89598460  1.0
  Ti  Ti11  1  0.80144823  0.19855177  0.10401540  1.0
  O  O12  1  0.31318373  -0.31318373  0.86152109  1.0
  O  O13  1  0.68681627  0.31318373  0.13847891  1.0
  O  O14  1  0.98193596  0.01806404  0.62179623  1.0
  O  O15  1  0.01806404  -0.01806404  0.37820377  1.0
  O  O16  1  0.92860650  0.07139350  0.82087291  1.0
  O  O17  1  0.07139350  -0.07139350  0.17912709  1.0
  O  O18  1  0.84321721  0.15678279  0.25714522  1.0
  O  O19  1  0.15678279  -0.15678279  0.74285478  1.0
  O  O20  1  0.82515914  0.17484086  0.47120469  1.0
  O  O21  1  0.17484086  -0.17484086  0.52879531  1.0
  O  O22  1  0.76896228  0.23103772  0.70335398  1.0
  O  O23  1  0.23103772  -0.23103772  0.29664602  1.0
  O  O24  1  0.72874700  0.27125300  0.92238731  1.0
  O  O25  1  0.27125300  -0.27125300  0.07761269  1.0
  O  O26  1  0.64545347  0.35454653  0.35611909  1.0
  O  O27  1  0.35454653  -0.35454653  0.64388091  1.0
  O  O28  1  0.11222393  -0.11222393  0.95871455  1.0
  O  O29  1  0.88777607  0.11222393  0.04128545  1.0
