# generated using pymatgen
data_HPbClO
_symmetry_space_group_name_H-M   'P 1'
_cell_length_a   5.82818291
_cell_length_b   5.82818291
_cell_length_c   7.40375226
_cell_angle_alpha   66.05242224
_cell_angle_beta   113.94757776
_cell_angle_gamma   139.07966609
_symmetry_Int_Tables_number   1
_chemical_formula_structural   HPbClO
_chemical_formula_sum   'H2 Pb2 Cl2 O2'
_cell_volume   148.46589138
_cell_formula_units_Z   2
loop_
 _symmetry_equiv_pos_site_id
 _symmetry_equiv_pos_as_xyz
  1  'x, y, z'
loop_
 _atom_site_type_symbol
 _atom_site_label
 _atom_site_symmetry_multiplicity
 _atom_site_fract_x
 _atom_site_fract_y
 _atom_site_fract_z
 _atom_site_occupancy
  H  H0  1  0.87863754  -0.87863754  0.38380299  1.0
  H  H1  1  0.12136246  -0.12136246  0.61619701  1.0
  Pb  Pb2  1  0.82741241  0.17258759  0.75593747  1.0
  Pb  Pb3  1  1.17258759  -0.17258759  0.24406253  1.0
  Cl  Cl4  1  0.57137847  0.42862153  0.81888850  1.0
  Cl  Cl5  1  1.42862153  -0.42862153  0.18111150  1.0
  O  O6  1  0.79817416  -0.79817416  0.40964686  1.0
  O  O7  1  0.20182584  -0.20182584  0.59035314  1.0
