# generated using pymatgen
data_H17RuN6ClO3
_symmetry_space_group_name_H-M   'P 1'
_cell_length_a   10.88508847
_cell_length_b   10.88508847
_cell_length_c   7.11346860
_cell_angle_alpha   90.00000000
_cell_angle_beta   90.00000000
_cell_angle_gamma   141.56906652
_symmetry_Int_Tables_number   1
_chemical_formula_structural   H17RuN6ClO3
_chemical_formula_sum   'H34 Ru2 N12 Cl2 O6'
_cell_volume   523.88498118
_cell_formula_units_Z   2
loop_
 _symmetry_equiv_pos_site_id
 _symmetry_equiv_pos_as_xyz
  1  'x, y, z'
loop_
 _atom_site_type_symbol
 _atom_site_label
 _atom_site_symmetry_multiplicity
 _atom_site_fract_x
 _atom_site_fract_y
 _atom_site_fract_z
 _atom_site_occupancy
  H  H0  1  -0.02785740  0.65316996  0.80605502  1.0
  H  H1  1  0.65316996  0.97214260  0.30605502  1.0
  H  H2  1  0.34683004  1.02785740  0.80605502  1.0
  H  H3  1  0.02785740  0.34683004  0.30605502  1.0
  H  H4  1  -0.10650536  0.73503771  0.81592204  1.0
  H  H5  1  0.73503771  0.89349464  0.31592204  1.0
  H  H6  1  0.26496229  1.10650536  0.81592204  1.0
  H  H7  1  0.10650536  0.26496229  0.31592204  1.0
  H  H8  1  0.21575468  0.45578060  0.83326683  1.0
  H  H9  1  0.45578060  1.21575468  0.33326683  1.0
  H  H10  1  0.54421940  0.78424532  0.83326683  1.0
  H  H11  1  -0.21575468  0.54421940  0.33326683  1.0
  H  H12  1  0.10409081  0.26798220  0.69418826  1.0
  H  H13  1  0.26798220  1.10409081  0.19418826  1.0
  H  H14  1  0.73201780  0.89590919  0.69418826  1.0
  H  H15  1  -0.10409081  0.73201780  0.19418826  1.0
  H  H16  1  -0.22042557  0.54724878  0.67531315  1.0
  H  H17  1  0.54724878  0.77957443  0.17531315  1.0
  H  H18  1  0.45275122  1.22042557  0.67531315  1.0
  H  H19  1  0.22042557  0.45275122  0.17531315  1.0
  H  H20  1  0.02018656  0.34462703  0.70522454  1.0
  H  H21  1  0.34462703  1.02018656  0.20522454  1.0
  H  H22  1  0.65537297  0.97981344  0.70522454  1.0
  H  H23  1  -0.02018656  0.65537297  0.20522454  1.0
  H  H24  1  -0.36111865  0.58714960  0.50170128  1.0
  H  H25  1  0.58714960  0.63888135  0.00170128  1.0
  H  H26  1  0.41285040  1.36111865  0.50170128  1.0
  H  H27  1  0.36111865  0.41285040  0.00170128  1.0
  H  H28  1  -0.12637512  0.35941593  0.95782280  1.0
  H  H29  1  0.35941593  0.87362488  0.45782280  1.0
  H  H30  1  0.64058407  1.12637512  0.95782280  1.0
  H  H31  1  0.12637512  0.64058407  0.45782280  1.0
  H  H32  1  0.23737680  0.76262320  0.65743366  1.0
  H  H33  1  -0.23737680  0.23737680  0.15743366  1.0
  Ru  Ru34  1  0.11636758  0.88363242  0.50603845  1.0
  Ru  Ru35  1  -0.11636758  0.11636758  0.00603845  1.0
  N  N36  1  -0.08464771  0.67887886  0.72591638  1.0
  N  N37  1  0.67887886  0.91535229  0.22591638  1.0
  N  N38  1  0.32112114  1.08464771  0.72591638  1.0
  N  N39  1  0.08464771  0.32112114  0.22591638  1.0
  N  N40  1  0.08038875  0.32225616  0.78450249  1.0
  N  N41  1  0.32225616  1.08038875  0.28450249  1.0
  N  N42  1  0.67774384  0.91961125  0.78450249  1.0
  N  N43  1  -0.08038875  0.67774384  0.28450249  1.0
  N  N44  1  0.02353553  0.97646447  0.50402198  1.0
  N  N45  1  -0.02353553  0.02353553  0.00402198  1.0
  N  N46  1  0.22294340  0.77705660  0.51838262  1.0
  N  N47  1  -0.22294340  0.22294340  0.01838262  1.0
  Cl  Cl48  1  0.24162412  0.75837588  0.99080124  1.0
  Cl  Cl49  1  -0.24162412  0.24162412  0.49080124  1.0
  O  O50  1  -0.14141904  0.83687489  0.00503958  1.0
  O  O51  1  0.83687489  0.85858096  0.50503958  1.0
  O  O52  1  0.16312511  1.14141904  0.00503958  1.0
  O  O53  1  0.14141904  0.16312511  0.50503958  1.0
  O  O54  1  -0.44639337  0.44639337  0.50061731  1.0
  O  O55  1  0.44639337  0.55360663  0.00061731  1.0
