# generated using pymatgen
data_SrEu2O4
_symmetry_space_group_name_H-M   'P 1'
_cell_length_a   10.27284551
_cell_length_b   3.52049076
_cell_length_c   12.22530636
_cell_angle_alpha   90.00000000
_cell_angle_beta   90.00000000
_cell_angle_gamma   90.00000000
_symmetry_Int_Tables_number   1
_chemical_formula_structural   SrEu2O4
_chemical_formula_sum   'Sr4 Eu8 O16'
_cell_volume   442.13379995
_cell_formula_units_Z   4
loop_
 _symmetry_equiv_pos_site_id
 _symmetry_equiv_pos_as_xyz
  1  'x, y, z'
loop_
 _atom_site_type_symbol
 _atom_site_label
 _atom_site_symmetry_multiplicity
 _atom_site_fract_x
 _atom_site_fract_y
 _atom_site_fract_z
 _atom_site_occupancy
  Sr  Sr0  1  0.75367041  0.75000000  0.64890951  1.0
  Sr  Sr1  1  0.25367041  0.75000000  0.85109049  1.0
  Sr  Sr2  1  0.24632959  0.25000000  0.35109049  1.0
  Sr  Sr3  1  0.74632959  0.25000000  0.14890951  1.0
  Eu  Eu4  1  0.92379389  0.75000000  0.38883513  1.0
  Eu  Eu5  1  0.42379389  0.75000000  0.11116487  1.0
  Eu  Eu6  1  0.07620611  0.25000000  0.61116487  1.0
  Eu  Eu7  1  0.57620611  0.25000000  0.88883513  1.0
  Eu  Eu8  1  0.42067622  0.75000000  0.61196363  1.0
  Eu  Eu9  1  0.92067622  0.75000000  0.88803637  1.0
  Eu  Eu10  1  0.57932378  0.25000000  0.38803637  1.0
  Eu  Eu11  1  0.07932378  0.25000000  0.11196363  1.0
  O  O12  1  0.92307094  0.75000000  0.07961282  1.0
  O  O13  1  0.42307094  0.75000000  0.42038718  1.0
  O  O14  1  0.07692906  0.25000000  0.92038718  1.0
  O  O15  1  0.57692906  0.25000000  0.57961282  1.0
  O  O16  1  0.71588184  0.75000000  0.31737271  1.0
  O  O17  1  0.21588184  0.75000000  0.18262729  1.0
  O  O18  1  0.28411816  0.25000000  0.68262729  1.0
  O  O19  1  0.78411816  0.25000000  0.81737271  1.0
  O  O20  1  0.62851415  0.75000000  0.01947919  1.0
  O  O21  1  0.12851415  0.75000000  0.48052081  1.0
  O  O22  1  0.37148585  0.25000000  0.98052081  1.0
  O  O23  1  0.87148585  0.25000000  0.51947919  1.0
  O  O24  1  0.50432790  0.75000000  0.78672476  1.0
  O  O25  1  0.00432790  0.75000000  0.71327524  1.0
  O  O26  1  0.49567210  0.25000000  0.21327524  1.0
  O  O27  1  0.99567210  0.25000000  0.28672476  1.0
