# generated using pymatgen
data_PRhO4
_symmetry_space_group_name_H-M   'P 1'
_cell_length_a   9.07855882
_cell_length_b   9.07855882
_cell_length_c   9.07855882
_cell_angle_alpha   85.83081131
_cell_angle_beta   109.03884840
_cell_angle_gamma   138.28747125
_symmetry_Int_Tables_number   1
_chemical_formula_structural   PRhO4
_chemical_formula_sum   'P6 Rh6 O24'
_cell_volume   452.96332013
_cell_formula_units_Z   6
loop_
 _symmetry_equiv_pos_site_id
 _symmetry_equiv_pos_as_xyz
  1  'x, y, z'
loop_
 _atom_site_type_symbol
 _atom_site_label
 _atom_site_symmetry_multiplicity
 _atom_site_fract_x
 _atom_site_fract_y
 _atom_site_fract_z
 _atom_site_occupancy
  P  P0  1  1.00000000  0.67471467  0.67471467  1.0
  P  P1  1  0.50000000  0.67471467  0.17471467  1.0
  P  P2  1  0.50000000  0.32528533  0.82528533  1.0
  P  P3  1  0.00000000  0.32528533  0.32528533  1.0
  P  P4  1  1.08109560  0.83109560  1.25000000  1.0
  P  P5  1  0.91890440  0.16890440  0.75000000  1.0
  Rh  Rh6  1  -0.00000000  0.11891912  0.11891912  1.0
  Rh  Rh7  1  0.50000000  0.11891912  0.61891912  1.0
  Rh  Rh8  1  0.50000000  0.88108088  0.38108088  1.0
  Rh  Rh9  1  1.00000000  0.88108088  0.88108088  1.0
  Rh  Rh10  1  1.00000000  1.00000000  0.50000000  1.0
  Rh  Rh11  1  1.00000000  0.50000000  1.00000000  1.0
  O  O12  1  1.08730276  1.21640914  0.35576804  1.0
  O  O13  1  0.63935890  0.26846528  0.85576804  1.0
  O  O14  1  0.63935890  0.78359086  0.37089362  1.0
  O  O15  1  1.08730276  0.73153472  0.87089362  1.0
  O  O16  1  1.36064110  1.21640914  0.62910638  1.0
  O  O17  1  0.91269724  0.26846528  1.12910638  1.0
  O  O18  1  0.91269724  0.78359086  0.64423196  1.0
  O  O19  1  1.36064110  0.73153472  1.14423196  1.0
  O  O20  1  0.33612878  0.42150691  0.13681898  1.0
  O  O21  1  1.21531207  0.80069020  0.63681898  1.0
  O  O22  1  0.21531207  0.57849309  0.41462187  1.0
  O  O23  1  1.33612878  1.19930980  0.91462187  1.0
  O  O24  1  0.78468793  0.42150691  0.58537813  1.0
  O  O25  1  1.66387122  0.80069020  1.08537813  1.0
  O  O26  1  0.66387122  0.57849309  0.86318102  1.0
  O  O27  1  1.78468793  1.19930980  1.36318102  1.0
  O  O28  1  1.10534926  0.97789140  1.12745786  1.0
  O  O29  1  0.64956646  0.02210860  0.62745786  1.0
  O  O30  1  1.35043354  0.97789140  1.37254214  1.0
  O  O31  1  0.89465074  0.02210860  0.87254214  1.0
  O  O32  1  1.04881965  0.39529115  0.84647150  1.0
  O  O33  1  0.95118035  0.79765185  1.34647150  1.0
  O  O34  1  0.95118035  0.60470885  1.15352850  1.0
  O  O35  1  1.04881965  1.20234815  1.65352850  1.0
