# generated using pymatgen
data_BeH2
_symmetry_space_group_name_H-M   'P 1'
_cell_length_a   4.72524541
_cell_length_b   4.72524541
_cell_length_c   4.72524541
_cell_angle_alpha   120.02616691
_cell_angle_beta   120.02616691
_cell_angle_gamma   89.95468356
_symmetry_Int_Tables_number   1
_chemical_formula_structural   BeH2
_chemical_formula_sum   'Be4 H8'
_cell_volume   74.57378032
_cell_formula_units_Z   4
loop_
 _symmetry_equiv_pos_site_id
 _symmetry_equiv_pos_as_xyz
  1  'x, y, z'
loop_
 _atom_site_type_symbol
 _atom_site_label
 _atom_site_symmetry_multiplicity
 _atom_site_fract_x
 _atom_site_fract_y
 _atom_site_fract_z
 _atom_site_occupancy
  Be  Be0  1  1.37500000  1.12500000  0.75000000  1.0
  Be  Be1  1  0.87500000  0.62500000  0.25000000  1.0
  Be  Be2  1  1.37500000  0.62500000  0.75000000  1.0
  Be  Be3  1  1.37500000  1.62500000  1.25000000  1.0
  H  H4  1  1.13615775  0.86425634  0.72809858  1.0
  H  H5  1  1.61425634  1.38615775  1.22809858  1.0
  H  H6  1  1.15805917  1.38615775  0.77190142  1.0
  H  H7  1  1.13615775  1.40805917  1.27190142  1.0
  H  H8  1  0.61384225  0.38574366  0.77190142  1.0
  H  H9  1  1.13574366  0.86384225  0.27190142  1.0
  H  H10  1  1.59194083  0.86384225  0.72809858  1.0
  H  H11  1  0.61384225  0.84194083  1.22809858  1.0
