# generated using pymatgen
data_LaCdPt
_symmetry_space_group_name_H-M   'P 1'
_cell_length_a   7.77904613
_cell_length_b   7.77904613
_cell_length_c   4.14903137
_cell_angle_alpha   90.00000000
_cell_angle_beta   90.00000000
_cell_angle_gamma   120.00000000
_symmetry_Int_Tables_number   1
_chemical_formula_structural   LaCdPt
_chemical_formula_sum   'La3 Cd3 Pt3'
_cell_volume   217.43529623
_cell_formula_units_Z   3
loop_
 _symmetry_equiv_pos_site_id
 _symmetry_equiv_pos_as_xyz
  1  'x, y, z'
loop_
 _atom_site_type_symbol
 _atom_site_label
 _atom_site_symmetry_multiplicity
 _atom_site_fract_x
 _atom_site_fract_y
 _atom_site_fract_z
 _atom_site_occupancy
  La  La0  1  0.40764524  0.40764524  0.00000000  1.0
  La  La1  1  0.00000000  0.59235476  0.00000000  1.0
  La  La2  1  0.59235476  0.00000000  0.00000000  1.0
  Cd  Cd3  1  0.75227987  0.75227987  0.50000000  1.0
  Cd  Cd4  1  -0.00000000  0.24772013  0.50000000  1.0
  Cd  Cd5  1  0.24772013  0.00000000  0.50000000  1.0
  Pt  Pt6  1  0.33333333  0.66666667  0.50000000  1.0
  Pt  Pt7  1  0.66666667  0.33333333  0.50000000  1.0
  Pt  Pt8  1  0.00000000  0.00000000  0.00000000  1.0
