# generated using pymatgen
data_EuPo
_symmetry_space_group_name_H-M   'P 1'
_cell_length_a   4.72004682
_cell_length_b   4.72004682
_cell_length_c   4.72004682
_cell_angle_alpha   60.00000000
_cell_angle_beta   60.00000000
_cell_angle_gamma   60.00000000
_symmetry_Int_Tables_number   1
_chemical_formula_structural   EuPo
_chemical_formula_sum   'Eu1 Po1'
_cell_volume   74.35735313
_cell_formula_units_Z   1
loop_
 _symmetry_equiv_pos_site_id
 _symmetry_equiv_pos_as_xyz
  1  'x, y, z'
loop_
 _atom_site_type_symbol
 _atom_site_label
 _atom_site_symmetry_multiplicity
 _atom_site_fract_x
 _atom_site_fract_y
 _atom_site_fract_z
 _atom_site_occupancy
  Eu  Eu0  1  0.00000000  0.00000000  0.00000000  1.0
  Po  Po1  1  -0.50000000  0.50000000  0.50000000  1.0
