# generated using pymatgen
data_LaGe
_symmetry_space_group_name_H-M   'P 1'
_cell_length_a   7.30017350
_cell_length_b   7.30017350
_cell_length_c   6.79661945
_cell_angle_alpha   90.00000000
_cell_angle_beta   90.00000000
_cell_angle_gamma   143.34850838
_symmetry_Int_Tables_number   1
_chemical_formula_structural   LaGe
_chemical_formula_sum   'La4 Ge4'
_cell_volume   216.21929896
_cell_formula_units_Z   4
loop_
 _symmetry_equiv_pos_site_id
 _symmetry_equiv_pos_as_xyz
  1  'x, y, z'
loop_
 _atom_site_type_symbol
 _atom_site_label
 _atom_site_symmetry_multiplicity
 _atom_site_fract_x
 _atom_site_fract_y
 _atom_site_fract_z
 _atom_site_occupancy
  La  La0  1  -0.54743701  0.54743701  0.25000000  1.0
  La  La1  1  -0.45256299  1.45256299  0.75000000  1.0
  La  La2  1  -0.27437379  1.27437379  0.25000000  1.0
  La  La3  1  -0.72562621  0.72562621  0.75000000  1.0
  Ge  Ge4  1  -0.90112116  0.90112116  0.44553356  1.0
  Ge  Ge5  1  -0.90112116  0.90112116  0.05446644  1.0
  Ge  Ge6  1  -0.09887884  1.09887884  0.94553356  1.0
  Ge  Ge7  1  -0.09887884  1.09887884  0.55446644  1.0
