# generated using pymatgen
data_BaGdAuSe3
_symmetry_space_group_name_H-M   'P 1'
_cell_length_a   7.46580534
_cell_length_b   7.46580534
_cell_length_c   10.83339606
_cell_angle_alpha   90.00000000
_cell_angle_beta   90.00000000
_cell_angle_gamma   146.71399750
_symmetry_Int_Tables_number   1
_chemical_formula_structural   BaGdAuSe3
_chemical_formula_sum   'Ba2 Gd2 Au2 Se6'
_cell_volume   331.39562938
_cell_formula_units_Z   2
loop_
 _symmetry_equiv_pos_site_id
 _symmetry_equiv_pos_as_xyz
  1  'x, y, z'
loop_
 _atom_site_type_symbol
 _atom_site_label
 _atom_site_symmetry_multiplicity
 _atom_site_fract_x
 _atom_site_fract_y
 _atom_site_fract_z
 _atom_site_occupancy
  Ba  Ba0  1  -0.24711939  0.24711939  0.75000000  1.0
  Ba  Ba1  1  0.24711939  0.75288061  0.25000000  1.0
  Gd  Gd2  1  0.00000000  0.00000000  0.00000000  1.0
  Gd  Gd3  1  0.00000000  0.00000000  0.50000000  1.0
  Au  Au4  1  0.46592568  0.53407432  0.75000000  1.0
  Au  Au5  1  -0.46592568  0.46592568  0.25000000  1.0
  Se  Se6  1  0.36209976  0.63790024  0.94810803  1.0
  Se  Se7  1  0.36209976  0.63790024  0.55189197  1.0
  Se  Se8  1  -0.36209976  0.36209976  0.44810803  1.0
  Se  Se9  1  -0.36209976  0.36209976  0.05189197  1.0
  Se  Se10  1  0.07986516  0.92013484  0.75000000  1.0
  Se  Se11  1  -0.07986516  0.07986516  0.25000000  1.0
