# generated using pymatgen
data_YHfF7
_symmetry_space_group_name_H-M   'P 1'
_cell_length_a   6.06164733
_cell_length_b   5.83053207
_cell_length_c   8.29893980
_cell_angle_alpha   90.00000000
_cell_angle_beta   103.40992897
_cell_angle_gamma   90.00000000
_symmetry_Int_Tables_number   1
_chemical_formula_structural   YHfF7
_chemical_formula_sum   'Y2 Hf2 F14'
_cell_volume   285.30956040
_cell_formula_units_Z   2
loop_
 _symmetry_equiv_pos_site_id
 _symmetry_equiv_pos_as_xyz
  1  'x, y, z'
loop_
 _atom_site_type_symbol
 _atom_site_label
 _atom_site_symmetry_multiplicity
 _atom_site_fract_x
 _atom_site_fract_y
 _atom_site_fract_z
 _atom_site_occupancy
  Y  Y0  1  0.65194454  0.29789009  0.68891177  1.0
  Y  Y1  1  0.34805546  0.79789009  0.31108823  1.0
  Hf  Hf2  1  0.81770541  0.29656050  0.22573369  1.0
  Hf  Hf3  1  0.18229459  0.79656050  0.77426631  1.0
  F  F4  1  0.49333779  0.05493924  0.49728572  1.0
  F  F5  1  0.50666221  0.55493924  0.50271428  1.0
  F  F6  1  0.41468119  0.04779469  0.79342329  1.0
  F  F7  1  0.58531881  0.54779469  0.20657671  1.0
  F  F8  1  0.77085183  0.29732114  0.97777457  1.0
  F  F9  1  0.22914817  0.79732114  0.02222543  1.0
  F  F10  1  0.86361106  0.29589307  0.47217932  1.0
  F  F11  1  0.13638894  0.79589307  0.52782068  1.0
  F  F12  1  0.93379332  0.56008142  0.75830975  1.0
  F  F13  1  0.06620668  0.06008142  0.24169025  1.0
  F  F14  1  0.93210049  0.03199471  0.75634874  1.0
  F  F15  1  0.06789951  0.53199471  0.24365126  1.0
  F  F16  1  0.41080094  0.54122514  0.79309459  1.0
  F  F17  1  0.58919906  1.04122514  0.20690541  1.0
