# generated using pymatgen
data_Zn11Ir2
_symmetry_space_group_name_H-M   'P 1'
_cell_length_a   7.90897732
_cell_length_b   7.90897732
_cell_length_c   7.90897732
_cell_angle_alpha   109.47122063
_cell_angle_beta   109.47122063
_cell_angle_gamma   109.47122063
_symmetry_Int_Tables_number   1
_chemical_formula_structural   Zn11Ir2
_chemical_formula_sum   'Zn22 Ir4'
_cell_volume   380.83696824
_cell_formula_units_Z   2
loop_
 _symmetry_equiv_pos_site_id
 _symmetry_equiv_pos_as_xyz
  1  'x, y, z'
loop_
 _atom_site_type_symbol
 _atom_site_label
 _atom_site_symmetry_multiplicity
 _atom_site_fract_x
 _atom_site_fract_y
 _atom_site_fract_z
 _atom_site_occupancy
  Zn  Zn0  1  0.78954630  0.78954630  0.78954630  1.0
  Zn  Zn1  1  1.00000000  1.00000000  0.21045370  1.0
  Zn  Zn2  1  1.00000000  0.21045370  1.00000000  1.0
  Zn  Zn3  1  0.21045370  1.00000000  1.00000000  1.0
  Zn  Zn4  1  0.38483119  0.64958568  0.64958568  1.0
  Zn  Zn5  1  0.64958568  0.38483119  0.64958568  1.0
  Zn  Zn6  1  1.00000000  0.73524551  1.35041432  1.0
  Zn  Zn7  1  0.73524551  1.00000000  1.35041432  1.0
  Zn  Zn8  1  0.64958568  0.64958568  0.38483119  1.0
  Zn  Zn9  1  1.26475449  1.26475449  0.61516881  1.0
  Zn  Zn10  1  1.00000000  1.35041432  0.73524551  1.0
  Zn  Zn11  1  1.26475449  0.61516881  1.26475449  1.0
  Zn  Zn12  1  0.61516881  1.26475449  1.26475449  1.0
  Zn  Zn13  1  1.35041432  1.00000000  0.73524551  1.0
  Zn  Zn14  1  0.73524551  1.35041432  1.00000000  1.0
  Zn  Zn15  1  1.35041432  0.73524551  1.00000000  1.0
  Zn  Zn16  1  0.64297642  0.64297642  -0.00000000  1.0
  Zn  Zn17  1  0.64297642  0.00000000  0.64297642  1.0
  Zn  Zn18  1  0.00000000  0.64297642  0.64297642  1.0
  Zn  Zn19  1  0.35702358  0.00000000  0.35702358  1.0
  Zn  Zn20  1  0.00000000  0.35702358  0.35702358  1.0
  Zn  Zn21  1  0.35702358  0.35702358  -0.00000000  1.0
  Ir  Ir22  1  0.34661206  0.34661206  0.34661206  1.0
  Ir  Ir23  1  1.00000000  1.00000000  0.65338794  1.0
  Ir  Ir24  1  1.00000000  0.65338794  1.00000000  1.0
  Ir  Ir25  1  0.65338794  1.00000000  1.00000000  1.0
