# generated using pymatgen
data_Na2PtS2
_symmetry_space_group_name_H-M   'P 1'
_cell_length_a   5.53859104
_cell_length_b   5.53859104
_cell_length_c   10.96700218
_cell_angle_alpha   90.00000000
_cell_angle_beta   90.00000000
_cell_angle_gamma   142.19967904
_symmetry_Int_Tables_number   1
_chemical_formula_structural   Na2PtS2
_chemical_formula_sum   'Na4 Pt2 S4'
_cell_volume   206.19792184
_cell_formula_units_Z   2
loop_
 _symmetry_equiv_pos_site_id
 _symmetry_equiv_pos_as_xyz
  1  'x, y, z'
loop_
 _atom_site_type_symbol
 _atom_site_label
 _atom_site_symmetry_multiplicity
 _atom_site_fract_x
 _atom_site_fract_y
 _atom_site_fract_z
 _atom_site_occupancy
  Na  Na0  1  0.32991541  0.67008459  0.54350292  1.0
  Na  Na1  1  -0.32991541  0.32991541  0.04350292  1.0
  Na  Na2  1  0.07010358  0.92989642  0.75986103  1.0
  Na  Na3  1  -0.07010358  0.07010358  0.25986103  1.0
  Pt  Pt4  1  0.36540132  0.63459868  0.88270620  1.0
  Pt  Pt5  1  -0.36540132  0.36540132  0.38270620  1.0
  S  S6  1  0.21605816  0.78394184  0.26439589  1.0
  S  S7  1  -0.21605816  0.21605816  0.76439589  1.0
  S  S8  1  0.05325510  0.94674490  0.50053396  1.0
  S  S9  1  -0.05325510  0.05325510  0.00053396  1.0
