# generated using pymatgen
data_VP2Cl7O4
_symmetry_space_group_name_H-M   'P 1'
_cell_length_a   11.29721886
_cell_length_b   8.76437876
_cell_length_c   8.60597780
_cell_angle_alpha   108.12375498
_cell_angle_beta   103.68253964
_cell_angle_gamma   90.66728405
_symmetry_Int_Tables_number   1
_chemical_formula_structural   VP2Cl7O4
_chemical_formula_sum   'V2 P4 Cl14 O8'
_cell_volume   783.48850813
_cell_formula_units_Z   2
loop_
 _symmetry_equiv_pos_site_id
 _symmetry_equiv_pos_as_xyz
  1  'x, y, z'
loop_
 _atom_site_type_symbol
 _atom_site_label
 _atom_site_symmetry_multiplicity
 _atom_site_fract_x
 _atom_site_fract_y
 _atom_site_fract_z
 _atom_site_occupancy
  V  V0  1  -0.31595055  -0.65140602  -0.61105468  1.0
  V  V1  1  -0.68404945  -0.34859398  -0.38894532  1.0
  P  P2  1  -0.81059387  -0.74742024  -0.79515150  1.0
  P  P3  1  -0.18940613  -0.25257976  -0.20484850  1.0
  P  P4  1  -0.50372984  -0.35810417  -0.65684355  1.0
  P  P5  1  -0.49627016  -0.64189583  -0.34315645  1.0
  Cl  Cl6  1  -0.91726132  -0.67899721  -0.98011904  1.0
  Cl  Cl7  1  -0.08273868  -0.32100279  -0.01988096  1.0
  Cl  Cl8  1  -0.62625774  -0.37878433  -0.87552865  1.0
  Cl  Cl9  1  -0.37374226  -0.62121567  -0.12447135  1.0
  Cl  Cl10  1  -0.72183367  -0.92425361  -0.91685194  1.0
  Cl  Cl11  1  -0.27816633  -0.07574639  -0.08314806  1.0
  Cl  Cl12  1  -0.92855898  -0.85808177  -0.71434332  1.0
  Cl  Cl13  1  -0.07144102  -0.14191823  -0.28565668  1.0
  Cl  Cl14  1  -0.82484240  -0.25739324  -0.55751388  1.0
  Cl  Cl15  1  -0.17515760  -0.74260676  -0.44248612  1.0
  Cl  Cl16  1  -0.61399362  -0.82983807  -0.37543504  1.0
  Cl  Cl17  1  -0.38600638  -0.17016193  -0.62456496  1.0
  Cl  Cl18  1  -0.81965135  -0.47906019  -0.31606396  1.0
  Cl  Cl19  1  -0.18034865  -0.52093981  -0.68393604  1.0
  O  O20  1  -0.35504942  -0.80573690  -0.77139314  1.0
  O  O21  1  -0.64495058  -0.19426310  -0.22860686  1.0
  O  O22  1  -0.43955959  -0.51124994  -0.68379784  1.0
  O  O23  1  -0.56044041  -0.48875006  -0.31620216  1.0
  O  O24  1  -0.72787764  -0.61490923  -0.66054156  1.0
  O  O25  1  -0.27212236  -0.38509077  -0.33945844  1.0
  O  O26  1  -0.43535603  -0.69018743  -0.48802986  1.0
  O  O27  1  -0.56464397  -0.30981257  -0.51197014  1.0
