# generated using pymatgen
data_AlPO4
_symmetry_space_group_name_H-M   'P 1'
_cell_length_a   12.35407012
_cell_length_b   12.35407012
_cell_length_c   12.35407012
_cell_angle_alpha   118.14084524
_cell_angle_beta   118.14084524
_cell_angle_gamma   118.14084524
_symmetry_Int_Tables_number   1
_chemical_formula_structural   AlPO4
_chemical_formula_sum   'Al6 P6 O24'
_cell_volume   660.83851808
_cell_formula_units_Z   6
loop_
 _symmetry_equiv_pos_site_id
 _symmetry_equiv_pos_as_xyz
  1  'x, y, z'
loop_
 _atom_site_type_symbol
 _atom_site_label
 _atom_site_symmetry_multiplicity
 _atom_site_fract_x
 _atom_site_fract_y
 _atom_site_fract_z
 _atom_site_occupancy
  Al  Al0  1  1.00450235  0.15335633  0.45105574  1.0
  Al  Al1  1  0.54894426  -0.00450235  -0.15335633  1.0
  Al  Al2  1  0.84664367  0.54894426  -0.00450235  1.0
  Al  Al3  1  0.99549765  0.84664367  0.54894426  1.0
  Al  Al4  1  0.45105574  0.00450235  0.15335633  1.0
  Al  Al5  1  1.15335633  1.45105574  0.00450235  1.0
  P  P6  1  1.23137450  1.08598476  0.52752138  1.0
  P  P7  1  0.47247862  -0.23137450  -0.08598476  1.0
  P  P8  1  0.91401524  1.47247862  -0.23137450  1.0
  P  P9  1  0.76862550  0.91401524  -0.52752138  1.0
  P  P10  1  0.52752138  0.23137450  0.08598476  1.0
  P  P11  1  1.08598476  0.52752138  0.23137450  1.0
  O  O12  1  0.88983163  0.28486176  0.10208015  1.0
  O  O13  1  0.89791985  1.11016837  -0.28486176  1.0
  O  O14  1  0.71513824  -0.10208015  0.11016837  1.0
  O  O15  1  1.11016837  0.71513824  0.89791985  1.0
  O  O16  1  1.10208015  0.88983163  0.28486176  1.0
  O  O17  1  0.28486176  0.10208015  -0.11016837  1.0
  O  O18  1  0.79725953  0.53891590  0.33436876  1.0
  O  O19  1  0.66563124  1.20274047  -0.53891590  1.0
  O  O20  1  0.46108410  0.66563124  -0.79725953  1.0
  O  O21  1  1.20274047  0.46108410  0.66563124  1.0
  O  O22  1  1.33436876  0.79725953  0.53891590  1.0
  O  O23  1  0.53891590  0.33436876  -0.20274047  1.0
  O  O24  1  1.19228085  0.18777290  0.52827798  1.0
  O  O25  1  0.47172202  -0.19228085  -0.18777290  1.0
  O  O26  1  0.81222710  0.47172202  -0.19228085  1.0
  O  O27  1  0.80771915  0.81222710  0.47172202  1.0
  O  O28  1  0.52827798  0.19228085  0.18777290  1.0
  O  O29  1  1.18777290  1.52827798  0.19228085  1.0
  O  O30  1  1.09471720  0.93426095  0.50083339  1.0
  O  O31  1  0.49916661  -0.09471720  0.06573905  1.0
  O  O32  1  1.06573905  1.49916661  -0.09471720  1.0
  O  O33  1  0.90528280  1.06573905  -0.50083339  1.0
  O  O34  1  0.50083339  0.09471720  -0.06573905  1.0
  O  O35  1  0.93426095  0.50083339  0.09471720  1.0
