# generated using pymatgen
data_La5ZnPb3
_symmetry_space_group_name_H-M   'P 1'
_cell_length_a   9.86634426
_cell_length_b   9.86634426
_cell_length_c   6.92135226
_cell_angle_alpha   90.00000000
_cell_angle_beta   90.00000000
_cell_angle_gamma   120.00000000
_symmetry_Int_Tables_number   1
_chemical_formula_structural   La5ZnPb3
_chemical_formula_sum   'La10 Zn2 Pb6'
_cell_volume   583.49093693
_cell_formula_units_Z   2
loop_
 _symmetry_equiv_pos_site_id
 _symmetry_equiv_pos_as_xyz
  1  'x, y, z'
loop_
 _atom_site_type_symbol
 _atom_site_label
 _atom_site_symmetry_multiplicity
 _atom_site_fract_x
 _atom_site_fract_y
 _atom_site_fract_z
 _atom_site_occupancy
  Pb  Pb0  1  0.37568734  0.37568734  0.25000000  1.0
  Pb  Pb1  1  0.37568734  -0.00000000  0.75000000  1.0
  Pb  Pb2  1  0.00000000  0.37568734  0.75000000  1.0
  Pb  Pb3  1  0.00000000  0.62431266  0.25000000  1.0
  Pb  Pb4  1  0.62431266  0.62431266  0.75000000  1.0
  Pb  Pb5  1  0.62431266  0.00000000  0.25000000  1.0
  La  La6  1  0.72987811  0.72987811  0.25000000  1.0
  La  La7  1  0.72987811  0.00000000  0.75000000  1.0
  La  La8  1  0.00000000  0.72987811  0.75000000  1.0
  La  La9  1  0.00000000  0.27012189  0.25000000  1.0
  La  La10  1  0.27012189  0.27012189  0.75000000  1.0
  La  La11  1  0.27012189  -0.00000000  0.25000000  1.0
  La  La12  1  0.33333333  0.66666667  0.50000000  1.0
  La  La13  1  0.33333333  0.66666667  0.00000000  1.0
  La  La14  1  0.66666667  0.33333333  0.50000000  1.0
  La  La15  1  0.66666667  0.33333333  -0.00000000  1.0
  Zn  Zn16  1  0.00000000  0.00000000  0.50000000  1.0
  Zn  Zn17  1  0.00000000  -0.00000000  0.00000000  1.0
