# generated using pymatgen
data_K2Mo(I2O7)2
_symmetry_space_group_name_H-M   'P 1'
_cell_length_a   7.15685679
_cell_length_b   7.15685679
_cell_length_c   17.83691249
_cell_angle_alpha   79.90142031
_cell_angle_beta   100.09857969
_cell_angle_gamma   126.40161066
_symmetry_Int_Tables_number   1
_chemical_formula_structural   K2Mo(I2O7)2
_chemical_formula_sum   'K4 Mo2 I8 O28'
_cell_volume   721.02177518
_cell_formula_units_Z   2
loop_
 _symmetry_equiv_pos_site_id
 _symmetry_equiv_pos_as_xyz
  1  'x, y, z'
loop_
 _atom_site_type_symbol
 _atom_site_label
 _atom_site_symmetry_multiplicity
 _atom_site_fract_x
 _atom_site_fract_y
 _atom_site_fract_z
 _atom_site_occupancy
  K  K0  1  0.82021290  0.17069892  0.53646860  1.0
  K  K1  1  0.82930108  0.17978710  0.03646860  1.0
  K  K2  1  0.17069892  -0.17978710  0.96353140  1.0
  K  K3  1  1.17978710  0.82930108  0.46353140  1.0
  Mo  Mo4  1  0.87394472  0.87394472  0.75000000  1.0
  Mo  Mo5  1  0.12605528  0.12605528  0.25000000  1.0
  I  I6  1  0.52448814  -0.39647147  0.90816906  1.0
  I  I7  1  1.39647147  0.47551186  0.40816906  1.0
  I  I8  1  0.60352853  0.52448814  0.59183094  1.0
  I  I9  1  0.47551186  0.39647147  0.09183094  1.0
  I  I10  1  0.67429653  0.24992628  0.82213667  1.0
  I  I11  1  0.75007372  0.32570347  0.32213667  1.0
  I  I12  1  1.24992628  0.67429653  0.67786333  1.0
  I  I13  1  0.32570347  -0.24992628  0.17786333  1.0
  O  O14  1  0.77716470  -0.17596288  0.64240663  1.0
  O  O15  1  1.17596288  0.22283530  0.14240663  1.0
  O  O16  1  0.82403712  0.77716470  0.85759337  1.0
  O  O17  1  0.22283530  0.17596288  0.35759337  1.0
  O  O18  1  0.60938051  -0.27729481  0.50084430  1.0
  O  O19  1  1.27729481  0.39061949  0.00084430  1.0
  O  O20  1  0.72270519  0.60938051  0.99915570  1.0
  O  O21  1  0.39061949  0.27729481  0.49915570  1.0
  O  O22  1  0.48666311  -0.28770304  0.75741121  1.0
  O  O23  1  1.28770304  0.51333689  0.25741121  1.0
  O  O24  1  0.71229696  0.48666311  0.74258879  1.0
  O  O25  1  0.51333689  0.28770304  0.24258879  1.0
  O  O26  1  0.55078055  -0.12591820  0.92020425  1.0
  O  O27  1  1.12591820  0.44921945  0.42020425  1.0
  O  O28  1  0.87408180  0.55078055  0.57979575  1.0
  O  O29  1  0.44921945  0.12591820  0.07979575  1.0
  O  O30  1  0.40626910  -0.03815501  0.62136601  1.0
  O  O31  1  1.03815501  0.59373090  0.12136601  1.0
  O  O32  1  0.96184499  0.40626910  0.87863399  1.0
  O  O33  1  0.59373090  0.03815501  0.37863399  1.0
  O  O34  1  0.48946592  0.25057154  0.88607569  1.0
  O  O35  1  0.74942846  0.51053408  0.38607569  1.0
  O  O36  1  1.25057154  0.48946592  0.61392431  1.0
  O  O37  1  0.51053408  -0.25057154  0.11392431  1.0
  O  O38  1  0.14725790  -0.07057051  0.75719931  1.0
  O  O39  1  1.07057051  0.85274210  0.25719931  1.0
  O  O40  1  0.92942949  0.14725790  0.74280069  1.0
  O  O41  1  0.85274210  0.07057051  0.24280069  1.0
