# generated using pymatgen
data_SiO2
_symmetry_space_group_name_H-M   'P 1'
_cell_length_a   10.34806556
_cell_length_b   10.34806556
_cell_length_c   10.34806556
_cell_angle_alpha   127.90087054
_cell_angle_beta   127.89463109
_cell_angle_gamma   76.79072641
_symmetry_Int_Tables_number   1
_chemical_formula_structural   SiO2
_chemical_formula_sum   'Si16 O32'
_cell_volume   670.01228164
_cell_formula_units_Z   16
loop_
 _symmetry_equiv_pos_site_id
 _symmetry_equiv_pos_as_xyz
  1  'x, y, z'
loop_
 _atom_site_type_symbol
 _atom_site_label
 _atom_site_symmetry_multiplicity
 _atom_site_fract_x
 _atom_site_fract_y
 _atom_site_fract_z
 _atom_site_occupancy
  Si  Si0  1  0.18785766  0.71116620  0.58630913  1.0
  Si  Si1  1  1.31214234  0.89845147  1.52330854  1.0
  Si  Si2  1  0.87514293  0.78883380  0.97669146  1.0
  Si  Si3  1  0.62485707  0.60154853  0.91369087  1.0
  Si  Si4  1  0.81214234  1.28883380  1.41369087  1.0
  Si  Si5  1  0.68785766  1.10154853  1.47669146  1.0
  Si  Si6  1  1.12485707  0.21116620  1.02330854  1.0
  Si  Si7  1  0.37514293  0.39845147  0.08630913  1.0
  Si  Si8  1  0.78890483  0.31214909  0.91377507  1.0
  Si  Si9  1  0.71109517  0.62487024  0.52324426  1.0
  Si  Si10  1  0.60162598  1.18785091  0.97675574  1.0
  Si  Si11  1  0.89837402  0.87512976  1.58622493  1.0
  Si  Si12  1  1.21109517  0.68785091  1.08622493  1.0
  Si  Si13  1  0.28890483  0.37512976  0.47675574  1.0
  Si  Si14  1  0.39837402  0.81214909  1.02324426  1.0
  Si  Si15  1  1.10162598  1.12487024  1.41377507  1.0
  O  O16  1  1.00478094  0.75476881  1.50960899  1.0
  O  O17  1  0.49521906  1.00482805  0.74998787  1.0
  O  O18  1  0.75484019  0.74523119  0.75001213  1.0
  O  O19  1  0.74515981  0.49517195  0.99039101  1.0
  O  O20  1  0.99521906  1.24523119  1.49039101  1.0
  O  O21  1  0.50478094  0.99517195  1.25001213  1.0
  O  O22  1  0.24515981  0.25476881  0.24998787  1.0
  O  O23  1  1.25484019  0.50482805  1.00960899  1.0
  O  O24  1  0.31845497  0.82840811  0.84109986  1.0
  O  O25  1  1.18154503  1.02264489  1.50995313  1.0
  O  O26  1  1.01269175  0.67159189  0.99004687  1.0
  O  O27  1  0.48730825  0.47735511  0.65890014  1.0
  O  O28  1  0.68154503  1.17159189  1.15890014  1.0
  O  O29  1  0.81845497  0.97735511  1.49004687  1.0
  O  O30  1  0.98730825  0.32840811  1.00995313  1.0
  O  O31  1  0.51269175  0.52264489  0.34109986  1.0
  O  O32  1  0.67178392  0.18148452  0.65899470  1.0
  O  O33  1  0.82821608  0.48721078  0.50970060  1.0
  O  O34  1  0.47751018  1.31851548  0.99029940  1.0
  O  O35  1  1.02248982  1.01278922  1.84100530  1.0
  O  O36  1  1.32821608  0.81851548  1.34100530  1.0
  O  O37  1  0.17178392  0.51278922  0.49029940  1.0
  O  O38  1  0.52248982  0.68148452  1.00970060  1.0
  O  O39  1  0.97751018  0.98721078  1.15899470  1.0
  O  O40  1  0.25000000  0.74746877  0.49746877  1.0
  O  O41  1  0.75000000  0.75253123  1.00253123  1.0
  O  O42  1  0.75000000  0.25253123  0.50253123  1.0
  O  O43  1  0.25000000  1.24746877  0.99746877  1.0
  O  O44  1  0.75264007  0.25000000  1.00264007  1.0
  O  O45  1  0.74735993  0.75000000  1.49735993  1.0
  O  O46  1  0.24735993  0.75000000  0.99735993  1.0
  O  O47  1  0.25264007  0.25000000  0.50264007  1.0
