# generated using pymatgen
data_Na4Co7(PO4)6
_symmetry_space_group_name_H-M   'P 1'
_cell_length_a   9.00053703
_cell_length_b   9.00053703
_cell_length_c   6.53472713
_cell_angle_alpha   80.29953140
_cell_angle_beta   99.70046860
_cell_angle_gamma   72.12643507
_symmetry_Int_Tables_number   1
_chemical_formula_structural   Na4Co7(PO4)6
_chemical_formula_sum   'Na4 Co7 P6 O24'
_cell_volume   482.74663044
_cell_formula_units_Z   1
loop_
 _symmetry_equiv_pos_site_id
 _symmetry_equiv_pos_as_xyz
  1  'x, y, z'
loop_
 _atom_site_type_symbol
 _atom_site_label
 _atom_site_symmetry_multiplicity
 _atom_site_fract_x
 _atom_site_fract_y
 _atom_site_fract_z
 _atom_site_occupancy
  Co  Co0  1  0.94660426  -0.94660426  0.48392221  1.0
  Co  Co1  1  1.58023084  0.04252936  0.65637124  1.0
  Co  Co2  1  0.95747064  -0.58023084  0.65637124  1.0
  Co  Co3  1  1.30683822  0.05739340  0.31053529  1.0
  Co  Co4  1  0.94260660  -0.30683822  0.31053529  1.0
  Co  Co5  1  0.60063130  -0.29251437  0.48014127  1.0
  Co  Co6  1  1.29251437  0.39936870  0.48014127  1.0
  O  O7  1  1.60151925  0.07228804  0.96406004  1.0
  O  O8  1  0.92771196  -0.60151925  0.96406004  1.0
  O  O9  1  1.33600681  0.06630843  0.62644968  1.0
  O  O10  1  0.93369157  -0.33600681  0.62644968  1.0
  O  O11  1  1.28902805  0.03481225  1.00237494  1.0
  O  O12  1  0.96518775  -0.28902805  1.00237494  1.0
  O  O13  1  0.74625589  -0.74625589  0.34947414  1.0
  O  O14  1  0.49734977  -0.49734977  0.22841463  1.0
  O  O15  1  0.39630240  -0.39630240  0.75771247  1.0
  O  O16  1  0.14680448  -0.14680448  0.62736234  1.0
  O  O17  1  0.67262785  -0.21766941  0.21424637  1.0
  O  O18  1  1.21766941  0.32737215  0.21424637  1.0
  O  O19  1  1.55303686  0.03593775  0.33653763  1.0
  O  O20  1  0.96406225  -0.55303686  0.33653763  1.0
  O  O21  1  1.52958748  0.29431535  0.56540762  1.0
  O  O22  1  0.70568465  -0.52958748  0.56540762  1.0
  O  O23  1  0.68053124  -0.22164443  0.74578722  1.0
  O  O24  1  1.22164443  0.31946876  0.74578722  1.0
  O  O25  1  0.36409924  -0.19195980  0.41104250  1.0
  O  O26  1  1.19195980  0.63590076  0.41104250  1.0
  O  O27  1  0.84590270  -0.05350989  0.26749085  1.0
  O  O28  1  1.05350989  0.15409730  0.26749085  1.0
  O  O29  1  0.83728320  -0.04279025  0.69740310  1.0
  O  O30  1  1.04279025  0.16271680  0.69740310  1.0
  Na  Na31  1  0.65305272  -0.42125617  0.99524081  1.0
  Na  Na32  1  1.42125617  0.34694728  0.99524081  1.0
  Na  Na33  1  -0.12100169  0.12100169  -0.04479127  1.0
  Na  Na34  1  0.26153445  -0.26153445  0.04469003  1.0
  P  P35  1  0.66410401  -0.03669335  0.19123375  1.0
  P  P36  1  1.03669335  0.33589599  0.19123375  1.0
  P  P37  1  1.22632067  0.13845802  0.77338429  1.0
  P  P38  1  0.86154198  -0.22632067  0.77338429  1.0
  P  P39  1  0.62119251  -0.62119251  0.42253844  1.0
  P  P40  1  0.27466243  -0.27466243  0.56216378  1.0
