# generated using pymatgen
data_GdScS3
_symmetry_space_group_name_H-M   'P 1'
_cell_length_a   7.07208609
_cell_length_b   9.54369944
_cell_length_c   6.43464365
_cell_angle_alpha   90.00000000
_cell_angle_beta   90.00000000
_cell_angle_gamma   90.00000000
_symmetry_Int_Tables_number   1
_chemical_formula_structural   GdScS3
_chemical_formula_sum   'Gd4 Sc4 S12'
_cell_volume   434.29896404
_cell_formula_units_Z   4
loop_
 _symmetry_equiv_pos_site_id
 _symmetry_equiv_pos_as_xyz
  1  'x, y, z'
loop_
 _atom_site_type_symbol
 _atom_site_label
 _atom_site_symmetry_multiplicity
 _atom_site_fract_x
 _atom_site_fract_y
 _atom_site_fract_z
 _atom_site_occupancy
  Gd  Gd0  1  0.10018110  0.75000000  0.53962897  1.0
  Gd  Gd1  1  0.60018110  0.75000000  0.96037103  1.0
  Gd  Gd2  1  0.89981890  0.25000000  0.46037103  1.0
  Gd  Gd3  1  0.39981890  0.25000000  0.03962897  1.0
  Sc  Sc4  1  0.50000000  0.00000000  0.50000000  1.0
  Sc  Sc5  1  0.50000000  0.50000000  0.50000000  1.0
  Sc  Sc6  1  0.00000000  0.00000000  0.00000000  1.0
  Sc  Sc7  1  0.00000000  0.50000000  0.00000000  1.0
  S  S8  1  0.31443343  0.93145389  0.82285864  1.0
  S  S9  1  0.31443343  0.56854611  0.82285864  1.0
  S  S10  1  0.81443343  0.93145389  0.67714136  1.0
  S  S11  1  0.81443343  0.56854611  0.67714136  1.0
  S  S12  1  0.68556657  0.43145389  0.17714136  1.0
  S  S13  1  0.68556657  0.06854611  0.17714136  1.0
  S  S14  1  0.18556657  0.43145389  0.32285864  1.0
  S  S15  1  0.18556657  0.06854611  0.32285864  1.0
  S  S16  1  0.95515222  0.75000000  0.13978983  1.0
  S  S17  1  0.45515222  0.75000000  0.36021017  1.0
  S  S18  1  0.04484778  0.25000000  0.86021017  1.0
  S  S19  1  0.54484778  0.25000000  0.63978983  1.0
