# generated using pymatgen
data_CsSbS(O2F)2
_symmetry_space_group_name_H-M   'P 1'
_cell_length_a   10.21891968
_cell_length_b   11.49499683
_cell_length_c   5.73988241
_cell_angle_alpha   90.00000000
_cell_angle_beta   90.00000000
_cell_angle_gamma   90.00000000
_symmetry_Int_Tables_number   1
_chemical_formula_structural   CsSbS(O2F)2
_chemical_formula_sum   'Cs4 Sb4 S4 O16 F8'
_cell_volume   674.24360601
_cell_formula_units_Z   4
loop_
 _symmetry_equiv_pos_site_id
 _symmetry_equiv_pos_as_xyz
  1  'x, y, z'
loop_
 _atom_site_type_symbol
 _atom_site_label
 _atom_site_symmetry_multiplicity
 _atom_site_fract_x
 _atom_site_fract_y
 _atom_site_fract_z
 _atom_site_occupancy
  Cs  Cs0  1  0.47648278  0.66446424  0.10703156  1.0
  Cs  Cs1  1  0.97648278  0.83553576  0.10703156  1.0
  Cs  Cs2  1  0.52351722  0.33553576  0.60703156  1.0
  Cs  Cs3  1  0.02351722  0.16446424  0.60703156  1.0
  Sb  Sb4  1  0.17387291  0.58861293  0.59947365  1.0
  Sb  Sb5  1  0.67387291  0.91138707  0.59947365  1.0
  Sb  Sb6  1  0.82612709  0.41138707  0.09947365  1.0
  Sb  Sb7  1  0.32612709  0.08861293  0.09947365  1.0
  S  S8  1  0.31215140  0.87313357  0.66653188  1.0
  S  S9  1  0.81215140  0.62686643  0.66653188  1.0
  S  S10  1  0.68784860  0.12686643  0.16653188  1.0
  S  S11  1  0.18784860  0.37313357  0.16653188  1.0
  O  O12  1  0.42886003  0.83615502  0.53094304  1.0
  O  O13  1  0.92886003  0.66384498  0.53094304  1.0
  O  O14  1  0.57113997  0.16384498  0.03094304  1.0
  O  O15  1  0.07113997  0.33615502  0.03094304  1.0
  O  O16  1  0.36390672  0.93135532  0.89066646  1.0
  O  O17  1  0.86390672  0.56864468  0.89066646  1.0
  O  O18  1  0.63609328  0.06864468  0.39066646  1.0
  O  O19  1  0.13609328  0.43135532  0.39066646  1.0
  O  O20  1  0.23794100  0.76684994  0.75444311  1.0
  O  O21  1  0.73794100  0.73315006  0.75444311  1.0
  O  O22  1  0.76205900  0.23315006  0.25444311  1.0
  O  O23  1  0.26205900  0.26684994  0.25444311  1.0
  O  O24  1  0.22530010  0.95096112  0.53592498  1.0
  O  O25  1  0.72530010  0.54903888  0.53592498  1.0
  O  O26  1  0.77469990  0.04903888  0.03592498  1.0
  O  O27  1  0.27469990  0.45096112  0.03592498  1.0
  F  F28  1  0.36532923  0.55778589  0.56581959  1.0
  F  F29  1  0.86532923  0.94221411  0.56581959  1.0
  F  F30  1  0.63467077  0.44221411  0.06581959  1.0
  F  F31  1  0.13467077  0.05778589  0.06581959  1.0
  F  F32  1  0.31746252  0.17260414  0.80136573  1.0
  F  F33  1  0.81746252  0.32739586  0.80136573  1.0
  F  F34  1  0.68253748  0.82739586  0.30136573  1.0
  F  F35  1  0.18253748  0.67260414  0.30136573  1.0
