# generated using pymatgen
data_CsFeF4
_symmetry_space_group_name_H-M   'P 1'
_cell_length_a   7.97907251
_cell_length_b   7.97907251
_cell_length_c   6.61194259
_cell_angle_alpha   90.00000000
_cell_angle_beta   90.00000000
_cell_angle_gamma   90.00000000
_symmetry_Int_Tables_number   1
_chemical_formula_structural   CsFeF4
_chemical_formula_sum   'Cs4 Fe4 F16'
_cell_volume   420.95327945
_cell_formula_units_Z   4
loop_
 _symmetry_equiv_pos_site_id
 _symmetry_equiv_pos_as_xyz
  1  'x, y, z'
loop_
 _atom_site_type_symbol
 _atom_site_label
 _atom_site_symmetry_multiplicity
 _atom_site_fract_x
 _atom_site_fract_y
 _atom_site_fract_z
 _atom_site_occupancy
  Cs  Cs0  1  0.00000000  0.00000000  0.50000000  1.0
  Cs  Cs1  1  0.50000000  0.50000000  0.50000000  1.0
  Cs  Cs2  1  0.00000000  0.50000000  0.55387238  1.0
  Cs  Cs3  1  0.50000000  0.00000000  0.44612762  1.0
  Fe  Fe4  1  0.75000000  0.25000000  0.00000000  1.0
  Fe  Fe5  1  0.25000000  0.25000000  0.00000000  1.0
  Fe  Fe6  1  0.75000000  0.75000000  0.00000000  1.0
  Fe  Fe7  1  0.25000000  0.75000000  0.00000000  1.0
  F  F8  1  0.74687259  0.50000000  0.94757638  1.0
  F  F9  1  0.25312741  0.50000000  0.94757638  1.0
  F  F10  1  0.00000000  0.24687259  0.94757638  1.0
  F  F11  1  0.00000000  0.75312741  0.94757638  1.0
  F  F12  1  0.75312741  0.00000000  0.05242362  1.0
  F  F13  1  0.24687259  0.00000000  0.05242362  1.0
  F  F14  1  0.50000000  0.25312741  0.05242362  1.0
  F  F15  1  0.50000000  0.74687259  0.05242362  1.0
  F  F16  1  0.71826340  0.21826340  0.71860384  1.0
  F  F17  1  0.28173660  0.21826340  0.71860384  1.0
  F  F18  1  0.71826340  0.78173660  0.71860384  1.0
  F  F19  1  0.28173660  0.78173660  0.71860384  1.0
  F  F20  1  0.78173660  0.28173660  0.28139616  1.0
  F  F21  1  0.21826340  0.28173660  0.28139616  1.0
  F  F22  1  0.78173660  0.71826340  0.28139616  1.0
  F  F23  1  0.21826340  0.71826340  0.28139616  1.0
