# generated using pymatgen
data_CsBrO3
_symmetry_space_group_name_H-M   'P 1'
_cell_length_a   4.81341295
_cell_length_b   4.81341295
_cell_length_c   4.81341295
_cell_angle_alpha   86.84193937
_cell_angle_beta   86.84193937
_cell_angle_gamma   86.84193937
_symmetry_Int_Tables_number   1
_chemical_formula_structural   CsBrO3
_chemical_formula_sum   'Cs1 Br1 O3'
_cell_volume   111.03156634
_cell_formula_units_Z   1
loop_
 _symmetry_equiv_pos_site_id
 _symmetry_equiv_pos_as_xyz
  1  'x, y, z'
loop_
 _atom_site_type_symbol
 _atom_site_label
 _atom_site_symmetry_multiplicity
 _atom_site_fract_x
 _atom_site_fract_y
 _atom_site_fract_z
 _atom_site_occupancy
  Cs  Cs0  1  -0.00569208  -0.00569208  -0.00569208  1.0
  Br  Br1  1  0.46648487  0.46648487  -0.53351513  1.0
  O  O2  1  0.11770648  0.52525036  -0.47474964  1.0
  O  O3  1  0.52525036  0.11770648  -0.47474964  1.0
  O  O4  1  0.52525036  0.52525036  -0.88229352  1.0
