# generated using pymatgen
data_LiGdCl2
_symmetry_space_group_name_H-M   'P 1'
_cell_length_a   9.26872191
_cell_length_b   9.26872191
_cell_length_c   9.26872191
_cell_angle_alpha   133.82177974
_cell_angle_beta   133.82177974
_cell_angle_gamma   67.36650458
_symmetry_Int_Tables_number   1
_chemical_formula_structural   LiGdCl2
_chemical_formula_sum   'Li4 Gd4 Cl8'
_cell_volume   407.60097006
_cell_formula_units_Z   4
loop_
 _symmetry_equiv_pos_site_id
 _symmetry_equiv_pos_as_xyz
  1  'x, y, z'
loop_
 _atom_site_type_symbol
 _atom_site_label
 _atom_site_symmetry_multiplicity
 _atom_site_fract_x
 _atom_site_fract_y
 _atom_site_fract_z
 _atom_site_occupancy
  Li  Li0  1  0.87500000  0.12500000  0.75000000  1.0
  Li  Li1  1  0.37500000  0.12500000  0.25000000  1.0
  Li  Li2  1  0.87500000  0.62500000  0.75000000  1.0
  Li  Li3  1  0.87500000  1.12500000  1.25000000  1.0
  Gd  Gd4  1  0.37500000  0.62500000  0.75000000  1.0
  Gd  Gd5  1  0.87500000  0.62500000  1.25000000  1.0
  Gd  Gd6  1  0.37500000  1.12500000  0.75000000  1.0
  Gd  Gd7  1  0.37500000  0.62500000  0.25000000  1.0
  Cl  Cl8  1  0.18695106  0.96319518  0.77627403  1.0
  Cl  Cl9  1  0.56307885  0.83932298  1.27627403  1.0
  Cl  Cl10  1  1.03680482  0.81307885  1.22375588  1.0
  Cl  Cl11  1  1.16067702  0.43695106  0.72375588  1.0
  Cl  Cl12  1  1.18692115  0.41067702  1.22372597  1.0
  Cl  Cl13  1  0.56304894  0.28680482  0.72372597  1.0
  Cl  Cl14  1  0.58932298  0.81304894  0.77624412  1.0
  Cl  Cl15  1  0.71319518  1.43692115  1.27624412  1.0
