# generated using pymatgen
data_YTl2P2S7
_symmetry_space_group_name_H-M   'P 1'
_cell_length_a   12.17358480
_cell_length_b   12.17358480
_cell_length_c   19.20030976
_cell_angle_alpha   62.21697628
_cell_angle_beta   117.78302372
_cell_angle_gamma   148.00252365
_symmetry_Int_Tables_number   1
_chemical_formula_structural   YTl2P2S7
_chemical_formula_sum   'Y4 Tl8 P8 S28'
_cell_volume   1318.61199117
_cell_formula_units_Z   4
loop_
 _symmetry_equiv_pos_site_id
 _symmetry_equiv_pos_as_xyz
  1  'x, y, z'
loop_
 _atom_site_type_symbol
 _atom_site_label
 _atom_site_symmetry_multiplicity
 _atom_site_fract_x
 _atom_site_fract_y
 _atom_site_fract_z
 _atom_site_occupancy
  Y  Y0  1  1.09199503  0.76698812  0.24073178  1.0
  Y  Y1  1  0.76698812  0.09199503  0.25926822  1.0
  Y  Y2  1  0.90800497  -0.76698812  0.75926822  1.0
  Y  Y3  1  1.23301188  -0.09199503  0.74073178  1.0
  Tl  Tl4  1  1.16799614  0.81648681  0.02464342  1.0
  Tl  Tl5  1  0.81648681  0.16799614  0.47535658  1.0
  Tl  Tl6  1  0.83200386  -0.81648681  0.97535658  1.0
  Tl  Tl7  1  1.18351319  -0.16799614  0.52464342  1.0
  Tl  Tl8  1  1.44104697  -0.55292798  0.13097516  1.0
  Tl  Tl9  1  0.44707202  0.44104697  0.36902484  1.0
  Tl  Tl10  1  0.55895303  0.55292798  0.86902484  1.0
  Tl  Tl11  1  1.55292798  -0.44104697  0.63097516  1.0
  P  P12  1  1.30283024  0.64250785  0.35585187  1.0
  P  P13  1  0.64250785  0.30283024  0.14414813  1.0
  P  P14  1  0.69716976  -0.64250785  0.64414813  1.0
  P  P15  1  1.35749215  -0.30283024  0.85585187  1.0
  P  P16  1  0.99348121  0.89417598  0.30539390  1.0
  P  P17  1  1.89417598  -0.00651879  0.19460610  1.0
  P  P18  1  1.00651879  -0.89417598  0.69460610  1.0
  P  P19  1  0.10582402  0.00651879  0.80539390  1.0
  S  S20  1  1.10284156  0.33033894  0.38438444  1.0
  S  S21  1  0.33033894  0.10284156  0.11561556  1.0
  S  S22  1  0.89715844  -0.33033894  0.61561556  1.0
  S  S23  1  1.66966106  -0.10284156  0.88438444  1.0
  S  S24  1  0.78982605  0.59707107  0.29780238  1.0
  S  S25  1  1.59707107  -0.21017395  0.20219762  1.0
  S  S26  1  1.21017395  -0.59707107  0.70219762  1.0
  S  S27  1  0.40292893  0.21017395  0.79780238  1.0
  S  S28  1  0.81623507  0.60321811  0.09618271  1.0
  S  S29  1  0.60321811  -0.18376493  0.40381729  1.0
  S  S30  1  1.18376493  -0.60321811  0.90381729  1.0
  S  S31  1  1.39678189  0.18376493  0.59618271  1.0
  S  S32  1  1.08626276  -0.71501031  0.20245287  1.0
  S  S33  1  0.28498969  0.08626276  0.29754713  1.0
  S  S34  1  0.91373724  0.71501031  0.79754713  1.0
  S  S35  1  1.71501031  -0.08626276  0.70245287  1.0
  S  S36  1  1.22113923  0.69273008  0.39688709  1.0
  S  S37  1  0.69273008  0.22113923  0.10311291  1.0
  S  S38  1  0.77886077  -0.69273008  0.60311291  1.0
  S  S39  1  1.30726992  -0.22113923  0.89688709  1.0
  S  S40  1  0.74894345  0.30575843  0.26557455  1.0
  S  S41  1  0.30575843  -0.25105655  0.23442545  1.0
  S  S42  1  1.25105655  -0.30575843  0.73442545  1.0
  S  S43  1  1.69424157  0.25105655  0.76557455  1.0
  S  S44  1  0.97873773  0.91613674  0.39773505  1.0
  S  S45  1  1.91613674  -0.02126227  0.10226495  1.0
  S  S46  1  1.02126227  -0.91613674  0.60226495  1.0
  S  S47  1  0.08386326  0.02126227  0.89773505  1.0
