# generated using pymatgen
data_CdH10C4S2N6O
_symmetry_space_group_name_H-M   'P 1'
_cell_length_a   10.40780926
_cell_length_b   4.73226814
_cell_length_c   15.35791946
_cell_angle_alpha   90.00000000
_cell_angle_beta   121.67289512
_cell_angle_gamma   90.00000000
_symmetry_Int_Tables_number   1
_chemical_formula_structural   CdH10C4S2N6O
_chemical_formula_sum   'Cd2 H20 C8 S4 N12 O2'
_cell_volume   643.75561314
_cell_formula_units_Z   2
loop_
 _symmetry_equiv_pos_site_id
 _symmetry_equiv_pos_as_xyz
  1  'x, y, z'
loop_
 _atom_site_type_symbol
 _atom_site_label
 _atom_site_symmetry_multiplicity
 _atom_site_fract_x
 _atom_site_fract_y
 _atom_site_fract_z
 _atom_site_occupancy
  Cd  Cd0  1  0.50000000  0.39600638  0.25000000  1.0
  Cd  Cd1  1  0.50000000  0.60399362  0.75000000  1.0
  H  H2  1  0.05088499  0.90006554  0.22598831  1.0
  H  H3  1  0.05088499  0.09993446  0.72598831  1.0
  H  H4  1  0.94911501  0.90006554  0.27401169  1.0
  H  H5  1  0.94911501  0.09993446  0.77401169  1.0
  H  H6  1  0.04730905  0.27764885  0.43720937  1.0
  H  H7  1  0.04730905  0.72235115  0.93720937  1.0
  H  H8  1  0.95269095  0.27764885  0.06279063  1.0
  H  H9  1  0.95269095  0.72235115  0.56279063  1.0
  H  H10  1  0.16814584  0.85602845  0.06001668  1.0
  H  H11  1  0.16814584  0.14397155  0.56001668  1.0
  H  H12  1  0.83185416  0.85602845  0.43998332  1.0
  H  H13  1  0.83185416  0.14397155  0.93998332  1.0
  H  H14  1  0.15851116  0.57531619  0.36346064  1.0
  H  H15  1  0.15851116  0.42468381  0.86346064  1.0
  H  H16  1  0.84148884  0.57531619  0.13653936  1.0
  H  H17  1  0.84148884  0.42468381  0.63653936  1.0
  H  H18  1  0.35668299  0.56953264  0.42577921  1.0
  H  H19  1  0.35668299  0.43046736  0.92577921  1.0
  H  H20  1  0.64331701  0.56953264  0.07422079  1.0
  H  H21  1  0.64331701  0.43046736  0.57422079  1.0
  C  C22  1  0.27869951  0.78740129  0.70488318  1.0
  C  C23  1  0.27869951  0.21259871  0.20488318  1.0
  C  C24  1  0.72130049  0.78740129  0.79511682  1.0
  C  C25  1  0.72130049  0.21259871  0.29511682  1.0
  C  C26  1  0.27546598  0.64461886  0.00136962  1.0
  C  C27  1  0.27546598  0.35538114  0.50136962  1.0
  C  C28  1  0.72453402  0.64461886  0.49863038  1.0
  C  C29  1  0.72453402  0.35538114  0.99863038  1.0
  S  S30  1  0.45398048  0.74131659  0.10228740  1.0
  S  S31  1  0.45398048  0.25868341  0.60228740  1.0
  S  S32  1  0.54601952  0.74131659  0.39771260  1.0
  S  S33  1  0.54601952  0.25868341  0.89771260  1.0
  N  N34  1  0.16039173  0.88033763  0.68118137  1.0
  N  N35  1  0.16039173  0.11966237  0.18118137  1.0
  N  N36  1  0.83960827  0.88033763  0.81881863  1.0
  N  N37  1  0.83960827  0.11966237  0.31881863  1.0
  N  N38  1  0.15321007  0.73167902  0.00134998  1.0
  N  N39  1  0.15321007  0.26832098  0.50134998  1.0
  N  N40  1  0.84678993  0.73167902  0.49865002  1.0
  N  N41  1  0.84678993  0.26832098  0.99865002  1.0
  N  N42  1  0.26100270  0.50714441  0.42421197  1.0
  N  N43  1  0.26100270  0.49285559  0.92421197  1.0
  N  N44  1  0.73899730  0.50714441  0.07578803  1.0
  N  N45  1  0.73899730  0.49285559  0.57578803  1.0
  O  O46  1  0.00000000  0.77401118  0.25000000  1.0
  O  O47  1  -0.00000000  0.22598882  0.75000000  1.0
