# generated using pymatgen
data_Tl5Te2Cl
_symmetry_space_group_name_H-M   'P 1'
_cell_length_a   9.22258014
_cell_length_b   9.22258014
_cell_length_c   9.22258014
_cell_angle_alpha   120.16617436
_cell_angle_beta   120.16617436
_cell_angle_gamma   89.71241774
_symmetry_Int_Tables_number   1
_chemical_formula_structural   Tl5Te2Cl
_chemical_formula_sum   'Tl10 Te4 Cl2'
_cell_volume   553.27900112
_cell_formula_units_Z   2
loop_
 _symmetry_equiv_pos_site_id
 _symmetry_equiv_pos_as_xyz
  1  'x, y, z'
loop_
 _atom_site_type_symbol
 _atom_site_label
 _atom_site_symmetry_multiplicity
 _atom_site_fract_x
 _atom_site_fract_y
 _atom_site_fract_z
 _atom_site_occupancy
  Tl  Tl0  1  0.70005987  1.20005987  1.20372156  1.0
  Tl  Tl1  1  1.00366169  0.50366169  1.20372156  1.0
  Tl  Tl2  1  0.49633831  0.70005987  0.50000000  1.0
  Tl  Tl3  1  0.79994013  1.00366169  1.50000000  1.0
  Tl  Tl4  1  1.20005987  0.99633831  1.50000000  1.0
  Tl  Tl5  1  0.50366169  0.29994013  0.50000000  1.0
  Tl  Tl6  1  0.99633831  0.49633831  0.79627844  1.0
  Tl  Tl7  1  0.29994013  0.79994013  0.79627844  1.0
  Tl  Tl8  1  0.00000000  0.00000000  0.00000000  1.0
  Tl  Tl9  1  0.50000000  0.50000000  1.00000000  1.0
  Te  Te10  1  0.34499932  0.84499932  1.18999865  1.0
  Te  Te11  1  0.15500068  0.34499932  0.50000000  1.0
  Te  Te12  1  0.84499932  0.65500068  1.50000000  1.0
  Te  Te13  1  0.65500068  0.15500068  0.81000135  1.0
  Cl  Cl14  1  0.75000000  0.75000000  1.00000000  1.0
  Cl  Cl15  1  0.25000000  0.25000000  0.00000000  1.0
