# generated using pymatgen
data_K2CdP2O7
_symmetry_space_group_name_H-M   'P 1'
_cell_length_a   5.69333646
_cell_length_b   5.69333646
_cell_length_c   13.02545655
_cell_angle_alpha   75.50373779
_cell_angle_beta   104.49626221
_cell_angle_gamma   120.45779500
_symmetry_Int_Tables_number   1
_chemical_formula_structural   K2CdP2O7
_chemical_formula_sum   'K4 Cd2 P4 O14'
_cell_volume   348.48303332
_cell_formula_units_Z   2
loop_
 _symmetry_equiv_pos_site_id
 _symmetry_equiv_pos_as_xyz
  1  'x, y, z'
loop_
 _atom_site_type_symbol
 _atom_site_label
 _atom_site_symmetry_multiplicity
 _atom_site_fract_x
 _atom_site_fract_y
 _atom_site_fract_z
 _atom_site_occupancy
  K  K0  1  0.35644300  0.05923506  0.16573109  1.0
  K  K1  1  0.94076494  -0.35644300  0.66573109  1.0
  K  K2  1  1.05923506  0.35644300  0.33426891  1.0
  K  K3  1  1.64355700  -0.05923506  0.83426891  1.0
  Cd  Cd4  1  0.50000000  -0.00000000  0.50000000  1.0
  Cd  Cd5  1  1.00000000  -0.50000000  0.00000000  1.0
  P  P6  1  1.69043813  -0.25706314  0.13022049  1.0
  P  P7  1  1.25706314  -0.69043813  0.63022049  1.0
  P  P8  1  0.74293686  0.69043813  0.36977951  1.0
  P  P9  1  0.30956187  0.25706314  0.86977951  1.0
  O  O10  1  1.79382980  0.01505334  0.05446077  1.0
  O  O11  1  0.98494666  -0.79382980  0.55446077  1.0
  O  O12  1  1.01505334  0.79382980  0.44553923  1.0
  O  O13  1  0.20617020  -0.01505334  0.94553923  1.0
  O  O14  1  0.55252936  -0.19702863  0.37782843  1.0
  O  O15  1  1.19702863  -0.55252936  0.87782843  1.0
  O  O16  1  0.80297137  0.55252936  0.12217157  1.0
  O  O17  1  1.44747064  0.19702863  0.62217157  1.0
  O  O18  1  0.58644230  0.37750889  0.36663819  1.0
  O  O19  1  0.62249111  0.41355770  0.86663819  1.0
  O  O20  1  1.37750889  -0.41355770  0.13336181  1.0
  O  O21  1  1.41355770  -0.37750889  0.63336181  1.0
  O  O22  1  0.84156883  0.84156883  0.25000000  1.0
  O  O23  1  0.15843117  0.15843117  0.75000000  1.0
