# generated using pymatgen
data_Lu(Mo3S4)2
_symmetry_space_group_name_H-M   'P 1'
_cell_length_a   6.46767310
_cell_length_b   6.46767310
_cell_length_c   6.46767310
_cell_angle_alpha   89.71276945
_cell_angle_beta   89.71276945
_cell_angle_gamma   89.71276945
_symmetry_Int_Tables_number   1
_chemical_formula_structural   Lu(Mo3S4)2
_chemical_formula_sum   'Lu1 Mo6 S8'
_cell_volume   270.53774477
_cell_formula_units_Z   1
loop_
 _symmetry_equiv_pos_site_id
 _symmetry_equiv_pos_as_xyz
  1  'x, y, z'
loop_
 _atom_site_type_symbol
 _atom_site_label
 _atom_site_symmetry_multiplicity
 _atom_site_fract_x
 _atom_site_fract_y
 _atom_site_fract_z
 _atom_site_occupancy
  Lu  Lu0  1  0.00000000  0.00000000  0.00000000  1.0
  Mo  Mo1  1  0.44118841  0.57950841  -0.22273795  1.0
  Mo  Mo2  1  0.42049159  0.22273795  -0.44118841  1.0
  Mo  Mo3  1  0.22273795  0.55881159  -0.57950841  1.0
  Mo  Mo4  1  0.55881159  0.42049159  -0.77726205  1.0
  Mo  Mo5  1  0.57950841  0.77726205  -0.55881159  1.0
  Mo  Mo6  1  0.77726205  0.44118841  -0.42049159  1.0
  S  S7  1  0.87089164  0.63431076  -0.75243113  1.0
  S  S8  1  0.36568924  0.75243113  -0.87089164  1.0
  S  S9  1  0.75243113  0.12910836  -0.63431076  1.0
  S  S10  1  0.12910836  0.36568924  -0.24756887  1.0
  S  S11  1  0.63431076  0.24756887  -0.12910836  1.0
  S  S12  1  0.24756887  0.87089164  -0.36568924  1.0
  S  S13  1  0.76410061  0.76410061  -0.23589939  1.0
  S  S14  1  1.23589939  1.23589939  0.23589939  1.0
