# generated using pymatgen
data_ZnS
_symmetry_space_group_name_H-M   'P 1'
_cell_length_a   3.84972468
_cell_length_b   3.84972468
_cell_length_c   75.50021251
_cell_angle_alpha   90.00000000
_cell_angle_beta   90.00000000
_cell_angle_gamma   120.00000000
_symmetry_Int_Tables_number   1
_chemical_formula_structural   ZnS
_chemical_formula_sum   'Zn24 S24'
_cell_volume   969.03206366
_cell_formula_units_Z   24
loop_
 _symmetry_equiv_pos_site_id
 _symmetry_equiv_pos_as_xyz
  1  'x, y, z'
loop_
 _atom_site_type_symbol
 _atom_site_label
 _atom_site_symmetry_multiplicity
 _atom_site_fract_x
 _atom_site_fract_y
 _atom_site_fract_z
 _atom_site_occupancy
  Zn  Zn0  1  0.00000000  0.00000000  0.12502899  1.0
  Zn  Zn1  1  0.00000000  0.00000000  0.24999210  1.0
  Zn  Zn2  1  0.00000000  0.00000000  0.41669601  1.0
  Zn  Zn3  1  0.00000000  0.00000000  0.54167076  1.0
  Zn  Zn4  1  0.00000000  0.00000000  0.66664894  1.0
  Zn  Zn5  1  0.00000000  0.00000000  0.83336142  1.0
  Zn  Zn6  1  0.00000000  0.00000000  0.95831486  1.0
  Zn  Zn7  1  0.66666667  0.33333333  0.04164957  1.0
  Zn  Zn8  1  0.66666667  0.33333333  0.20835711  1.0
  Zn  Zn9  1  0.66666667  0.33333333  0.33333554  1.0
  Zn  Zn10  1  0.66666667  0.33333333  0.45834438  1.0
  Zn  Zn11  1  0.66666667  0.33333333  0.58333654  1.0
  Zn  Zn12  1  0.66666667  0.33333333  0.70828982  1.0
  Zn  Zn13  1  0.66666667  0.33333333  0.79171279  1.0
  Zn  Zn14  1  0.66666667  0.33333333  0.91666679  1.0
  Zn  Zn15  1  0.33333333  0.66666667  -0.00004941  1.0
  Zn  Zn16  1  0.33333333  0.66666667  0.08333209  1.0
  Zn  Zn17  1  0.33333333  0.66666667  0.16671831  1.0
  Zn  Zn18  1  0.33333333  0.66666667  0.29162546  1.0
  Zn  Zn19  1  0.33333333  0.66666667  0.37504490  1.0
  Zn  Zn20  1  0.33333333  0.66666667  0.50000483  1.0
  Zn  Zn21  1  0.33333333  0.66666667  0.62499837  1.0
  Zn  Zn22  1  0.33333333  0.66666667  0.75000498  1.0
  Zn  Zn23  1  0.33333333  0.66666667  0.87501121  1.0
  S  S24  1  0.00000000  0.00000000  0.09374685  1.0
  S  S25  1  0.00000000  0.00000000  0.21876373  1.0
  S  S26  1  0.00000000  0.00000000  0.38546074  1.0
  S  S27  1  0.00000000  0.00000000  0.51042938  1.0
  S  S28  1  0.00000000  0.00000000  0.63541374  1.0
  S  S29  1  0.00000000  0.00000000  0.80212632  1.0
  S  S30  1  0.00000000  0.00000000  0.92708109  1.0
  S  S31  1  0.66666667  0.33333333  0.01036785  1.0
  S  S32  1  0.66666667  0.33333333  0.17712691  1.0
  S  S33  1  0.66666667  0.33333333  0.30204773  1.0
  S  S34  1  0.66666667  0.33333333  0.42710924  1.0
  S  S35  1  0.66666667  0.33333333  0.55209555  1.0
  S  S36  1  0.66666667  0.33333333  0.67706334  1.0
  S  S37  1  0.66666667  0.33333333  0.76047918  1.0
  S  S38  1  0.66666667  0.33333333  0.88543025  1.0
  S  S39  1  0.33333333  0.66666667  0.05211431  1.0
  S  S40  1  0.33333333  0.66666667  0.13549183  1.0
  S  S41  1  0.33333333  0.66666667  0.26040098  1.0
  S  S42  1  0.33333333  0.66666667  0.34381124  1.0
  S  S43  1  0.33333333  0.66666667  0.46876487  1.0
  S  S44  1  0.33333333  0.66666667  0.59375923  1.0
  S  S45  1  0.33333333  0.66666667  0.71871599  1.0
  S  S46  1  0.33333333  0.66666667  0.84377640  1.0
  S  S47  1  0.33333333  0.66666667  0.96872689  1.0
