# generated using pymatgen
data_CaAlAu3
_symmetry_space_group_name_H-M   'P 1'
_cell_length_a   9.17292466
_cell_length_b   9.17292466
_cell_length_c   9.17292466
_cell_angle_alpha   90.00000000
_cell_angle_beta   90.00000000
_cell_angle_gamma   90.00000000
_symmetry_Int_Tables_number   1
_chemical_formula_structural   CaAlAu3
_chemical_formula_sum   'Ca8 Al8 Au24'
_cell_volume   771.83324301
_cell_formula_units_Z   8
loop_
 _symmetry_equiv_pos_site_id
 _symmetry_equiv_pos_as_xyz
  1  'x, y, z'
loop_
 _atom_site_type_symbol
 _atom_site_label
 _atom_site_symmetry_multiplicity
 _atom_site_fract_x
 _atom_site_fract_y
 _atom_site_fract_z
 _atom_site_occupancy
  Ca  Ca0  1  0.10552278  0.89447722  0.39447722  1.0
  Ca  Ca1  1  0.89447722  0.39447722  0.10552278  1.0
  Ca  Ca2  1  0.39447722  0.10552278  0.89447722  1.0
  Ca  Ca3  1  0.60552278  0.60552278  0.60552278  1.0
  Ca  Ca4  1  0.89447722  0.10552278  0.60552278  1.0
  Ca  Ca5  1  0.10552278  0.60552278  0.89447722  1.0
  Ca  Ca6  1  0.60552278  0.89447722  0.10552278  1.0
  Ca  Ca7  1  0.39447722  0.39447722  0.39447722  1.0
  Al  Al8  1  0.39963308  0.60036692  0.10036692  1.0
  Al  Al9  1  0.60036692  0.10036692  0.39963308  1.0
  Al  Al10  1  0.10036692  0.39963308  0.60036692  1.0
  Al  Al11  1  0.89963308  0.89963308  0.89963308  1.0
  Al  Al12  1  0.60036692  0.39963308  0.89963308  1.0
  Al  Al13  1  0.39963308  0.89963308  0.60036692  1.0
  Al  Al14  1  0.89963308  0.60036692  0.39963308  1.0
  Al  Al15  1  0.10036692  0.10036692  0.10036692  1.0
  Au  Au16  1  0.14427883  0.58072999  0.26213204  1.0
  Au  Au17  1  0.85572117  0.08072999  0.23786796  1.0
  Au  Au18  1  0.35572117  0.41927001  0.76213204  1.0
  Au  Au19  1  0.64427883  0.91927001  0.73786796  1.0
  Au  Au20  1  0.26213204  0.14427883  0.58072999  1.0
  Au  Au21  1  0.23786796  0.85572117  0.08072999  1.0
  Au  Au22  1  0.76213204  0.35572117  0.41927001  1.0
  Au  Au23  1  0.73786796  0.64427883  0.91927001  1.0
  Au  Au24  1  0.58072999  0.26213204  0.14427883  1.0
  Au  Au25  1  0.08072999  0.23786796  0.85572117  1.0
  Au  Au26  1  0.41927001  0.76213204  0.35572117  1.0
  Au  Au27  1  0.91927001  0.73786796  0.64427883  1.0
  Au  Au28  1  0.85572117  0.41927001  0.73786796  1.0
  Au  Au29  1  0.14427883  0.91927001  0.76213204  1.0
  Au  Au30  1  0.64427883  0.58072999  0.23786796  1.0
  Au  Au31  1  0.35572117  0.08072999  0.26213204  1.0
  Au  Au32  1  0.73786796  0.85572117  0.41927001  1.0
  Au  Au33  1  0.76213204  0.14427883  0.91927001  1.0
  Au  Au34  1  0.23786796  0.64427883  0.58072999  1.0
  Au  Au35  1  0.26213204  0.35572117  0.08072999  1.0
  Au  Au36  1  0.41927001  0.73786796  0.85572117  1.0
  Au  Au37  1  0.91927001  0.76213204  0.14427883  1.0
  Au  Au38  1  0.58072999  0.23786796  0.64427883  1.0
  Au  Au39  1  0.08072999  0.26213204  0.35572117  1.0
