# generated using pymatgen
data_Bi3(AsO5)2
_symmetry_space_group_name_H-M   'P 1'
_cell_length_a   7.85537725
_cell_length_b   6.97734879
_cell_length_c   9.45738438
_cell_angle_alpha   106.30513025
_cell_angle_beta   109.99953750
_cell_angle_gamma   93.91166177
_symmetry_Int_Tables_number   1
_chemical_formula_structural   Bi3(AsO5)2
_chemical_formula_sum   'Bi6 As4 O20'
_cell_volume   459.68921057
_cell_formula_units_Z   2
loop_
 _symmetry_equiv_pos_site_id
 _symmetry_equiv_pos_as_xyz
  1  'x, y, z'
loop_
 _atom_site_type_symbol
 _atom_site_label
 _atom_site_symmetry_multiplicity
 _atom_site_fract_x
 _atom_site_fract_y
 _atom_site_fract_z
 _atom_site_occupancy
  O  O0  1  -0.49588839  -1.00315876  -0.23329884  1.0
  O  O1  1  -0.50411161  0.00315876  -0.76670116  1.0
  O  O2  1  -0.14646042  -0.88923570  -0.54699299  1.0
  O  O3  1  -0.85353958  -0.11076430  -0.45300701  1.0
  O  O4  1  -0.17272455  -0.86608646  -0.94388623  1.0
  O  O5  1  -0.82727545  -0.13391354  -0.05611377  1.0
  O  O6  1  -0.42792043  -0.75830525  -0.43830400  1.0
  O  O7  1  -0.57207957  -0.24169475  -0.56169600  1.0
  O  O8  1  -0.84696042  -0.61314417  -0.88382600  1.0
  O  O9  1  -0.15303958  -0.38685583  -0.11617400  1.0
  O  O10  1  -0.36204272  -0.59987978  -0.67183183  1.0
  O  O11  1  -0.63795728  -0.40012022  -0.32816817  1.0
  O  O12  1  -0.97155692  -0.54659495  -0.63067680  1.0
  O  O13  1  -0.02844308  -0.45340505  -0.36932320  1.0
  O  O14  1  -0.56282825  -0.39527968  -0.89611864  1.0
  O  O15  1  -0.43717175  -0.60472032  -0.10388136  1.0
  O  O16  1  -0.85237964  -0.70601355  -0.19484543  1.0
  O  O17  1  -0.14762036  -0.29398645  -0.80515457  1.0
  O  O18  1  -0.83717378  -0.88056039  -0.69202344  1.0
  O  O19  1  -0.16282622  -0.11943961  -0.30797656  1.0
  Bi  Bi20  1  -0.85464667  -0.69711531  -0.42042562  1.0
  Bi  Bi21  1  -0.14535333  -0.30288469  -0.57957438  1.0
  Bi  Bi22  1  -0.62069801  -0.72616958  -0.99840879  1.0
  Bi  Bi23  1  -0.37930199  -0.27383042  -0.00159121  1.0
  Bi  Bi24  1  -0.74880333  -0.22708819  -0.80685474  1.0
  Bi  Bi25  1  -0.25119667  -0.77291181  -0.19314526  1.0
  As  As26  1  -0.35748714  -0.80216267  -0.59708796  1.0
  As  As27  1  -0.64251286  -0.19783733  -0.40291204  1.0
  As  As28  1  -0.96385363  -0.73565835  -0.79783521  1.0
  As  As29  1  -0.03614637  -0.26434165  -0.20216479  1.0
