# generated using pymatgen
data_XeNO3F
_symmetry_space_group_name_H-M   'P 1'
_cell_length_a   4.96588350
_cell_length_b   9.69230826
_cell_length_c   10.04672391
_cell_angle_alpha   90.00000000
_cell_angle_beta   90.11088437
_cell_angle_gamma   90.00000000
_symmetry_Int_Tables_number   1
_chemical_formula_structural   XeNO3F
_chemical_formula_sum   'Xe4 N4 O12 F4'
_cell_volume   483.55669412
_cell_formula_units_Z   4
loop_
 _symmetry_equiv_pos_site_id
 _symmetry_equiv_pos_as_xyz
  1  'x, y, z'
loop_
 _atom_site_type_symbol
 _atom_site_label
 _atom_site_symmetry_multiplicity
 _atom_site_fract_x
 _atom_site_fract_y
 _atom_site_fract_z
 _atom_site_occupancy
  Xe  Xe0  1  0.85191193  0.95623763  0.71515379  1.0
  Xe  Xe1  1  0.85191193  0.54376237  0.21515379  1.0
  Xe  Xe2  1  0.14808807  0.45623763  0.78484621  1.0
  Xe  Xe3  1  0.14808807  0.04376237  0.28484621  1.0
  N  N4  1  0.53295382  0.82322979  0.93999407  1.0
  N  N5  1  0.53295382  0.67677021  0.43999407  1.0
  N  N6  1  0.46704618  0.32322979  0.56000593  1.0
  N  N7  1  0.46704618  0.17677021  0.06000593  1.0
  O  O8  1  0.71667831  0.62317414  0.50187685  1.0
  O  O9  1  0.71667831  0.87682586  0.00187685  1.0
  O  O10  1  0.28332169  0.12317414  0.99812315  1.0
  O  O11  1  0.28332169  0.37682586  0.49812315  1.0
  O  O12  1  0.65136137  0.24750300  1.01838412  1.0
  O  O13  1  0.65136137  0.25249700  0.51838412  1.0
  O  O14  1  0.34863863  0.74750300  0.48161588  1.0
  O  O15  1  0.34863863  0.75249700  -0.01838412  1.0
  O  O16  1  0.51772976  0.84211967  0.80274947  1.0
  O  O17  1  0.51772976  0.65788033  0.30274947  1.0
  O  O18  1  0.48227024  0.34211967  0.69725053  1.0
  O  O19  1  0.48227024  0.15788033  0.19725053  1.0
  F  F20  1  0.83615354  0.56079196  0.87564548  1.0
  F  F21  1  0.83615354  0.93920804  0.37564548  1.0
  F  F22  1  0.16384646  0.06079196  0.62435452  1.0
  F  F23  1  0.16384646  0.43920804  0.12435452  1.0
