# generated using pymatgen
data_Na2Sb4O7
_symmetry_space_group_name_H-M   'P 1'
_cell_length_a   10.31540903
_cell_length_b   10.31540903
_cell_length_c   5.78815687
_cell_angle_alpha   75.74054765
_cell_angle_beta   104.25945235
_cell_angle_gamma   67.93007875
_symmetry_Int_Tables_number   1
_chemical_formula_structural   Na2Sb4O7
_chemical_formula_sum   'Na4 Sb8 O14'
_cell_volume   512.30816127
_cell_formula_units_Z   2
loop_
 _symmetry_equiv_pos_site_id
 _symmetry_equiv_pos_as_xyz
  1  'x, y, z'
loop_
 _atom_site_type_symbol
 _atom_site_label
 _atom_site_symmetry_multiplicity
 _atom_site_fract_x
 _atom_site_fract_y
 _atom_site_fract_z
 _atom_site_occupancy
  Na  Na0  1  1.82326085  -0.01282299  0.42538084  1.0
  Na  Na1  1  1.01282299  0.17673915  0.92538084  1.0
  Na  Na2  1  0.98717701  0.82326085  0.07461916  1.0
  Na  Na3  1  1.17673915  0.01282299  0.57461916  1.0
  Sb  Sb4  1  1.61183107  -0.09971724  0.81276528  1.0
  Sb  Sb5  1  1.09971724  0.38816893  0.31276528  1.0
  Sb  Sb6  1  0.90028276  0.61183107  0.68723472  1.0
  Sb  Sb7  1  1.38816893  0.09971724  0.18723472  1.0
  Sb  Sb8  1  1.65032123  0.21385528  0.77945413  1.0
  Sb  Sb9  1  0.78614472  0.34967877  0.27945413  1.0
  Sb  Sb10  1  1.21385528  0.65032123  0.72054587  1.0
  Sb  Sb11  1  1.34967877  -0.21385528  0.22054587  1.0
  O  O12  1  1.72955518  -0.00020804  1.00513230  1.0
  O  O13  1  1.00020804  0.27044482  0.50513230  1.0
  O  O14  1  0.99979196  0.72955518  0.49486770  1.0
  O  O15  1  1.27044482  0.00020804  -0.00513230  1.0
  O  O16  1  1.79533076  0.17998639  0.60077598  1.0
  O  O17  1  0.82001361  0.20466924  0.10077598  1.0
  O  O18  1  1.17998639  0.79533076  0.89922402  1.0
  O  O19  1  1.20466924  -0.17998639  0.39922402  1.0
  O  O20  1  1.52767371  0.10709201  0.54048782  1.0
  O  O21  1  0.89290799  0.47232629  0.04048782  1.0
  O  O22  1  1.10709201  0.52767371  0.95951218  1.0
  O  O23  1  1.47232629  -0.10709201  0.45951218  1.0
  O  O24  1  0.80362572  0.80362572  0.75000000  1.0
  O  O25  1  1.19637428  0.19637428  0.25000000  1.0
