# generated using pymatgen
data_KNaSi2O5
_symmetry_space_group_name_H-M   'P 1'
_cell_length_a   4.92460570
_cell_length_b   13.71756716
_cell_length_c   7.63706393
_cell_angle_alpha   90.00000000
_cell_angle_beta   91.29950292
_cell_angle_gamma   90.00000000
_symmetry_Int_Tables_number   1
_chemical_formula_structural   KNaSi2O5
_chemical_formula_sum   'K4 Na4 Si8 O20'
_cell_volume   515.77854432
_cell_formula_units_Z   4
loop_
 _symmetry_equiv_pos_site_id
 _symmetry_equiv_pos_as_xyz
  1  'x, y, z'
loop_
 _atom_site_type_symbol
 _atom_site_label
 _atom_site_symmetry_multiplicity
 _atom_site_fract_x
 _atom_site_fract_y
 _atom_site_fract_z
 _atom_site_occupancy
  K  K0  1  0.19419372  0.19890395  0.29063873  1.0
  K  K1  1  0.19419372  0.30109605  0.79063873  1.0
  K  K2  1  0.80580628  0.69890395  0.20936127  1.0
  K  K3  1  0.80580628  0.80109605  0.70936127  1.0
  Na  Na4  1  0.72365374  0.40682365  0.03174034  1.0
  Na  Na5  1  0.72365374  0.09317635  0.53174034  1.0
  Na  Na6  1  0.27634626  0.90682365  0.46825966  1.0
  Na  Na7  1  0.27634626  0.59317635  0.96825966  1.0
  Si  Si8  1  0.79902800  0.95113005  0.21507040  1.0
  Si  Si9  1  0.79902800  0.54886995  0.71507040  1.0
  Si  Si10  1  0.20097200  0.45113005  0.28492960  1.0
  Si  Si11  1  0.20097200  0.04886995  0.78492960  1.0
  Si  Si12  1  0.70712022  0.36898608  0.48430006  1.0
  Si  Si13  1  0.70712022  0.13101392  0.98430006  1.0
  Si  Si14  1  0.29287978  0.86898608  0.01569994  1.0
  Si  Si15  1  0.29287978  0.63101392  0.51569994  1.0
  O  O16  1  0.87861650  0.42918961  0.33308700  1.0
  O  O17  1  0.87861650  0.07081039  0.83308700  1.0
  O  O18  1  0.12138350  0.92918961  0.16691300  1.0
  O  O19  1  0.12138350  0.57081039  0.66691300  1.0
  O  O20  1  0.78750163  0.25832092  0.50939034  1.0
  O  O21  1  0.78750163  0.24167908  0.00939034  1.0
  O  O22  1  0.21249837  0.75832092  0.99060966  1.0
  O  O23  1  0.21249837  0.74167908  0.49060966  1.0
  O  O24  1  0.74603541  0.06910207  0.17285386  1.0
  O  O25  1  0.74603541  0.43089793  0.67285386  1.0
  O  O26  1  0.25396459  0.56910207  0.32714614  1.0
  O  O27  1  0.25396459  0.93089793  0.82714614  1.0
  O  O28  1  0.74757168  0.92833566  0.41584526  1.0
  O  O29  1  0.74757168  0.57166434  0.91584526  1.0
  O  O30  1  0.25242832  0.42833566  0.08415474  1.0
  O  O31  1  0.25242832  0.07166434  0.58415474  1.0
  O  O32  1  0.38153125  0.38340752  0.42554202  1.0
  O  O33  1  0.38153125  0.11659248  0.92554202  1.0
  O  O34  1  0.61846875  0.88340752  0.07445798  1.0
  O  O35  1  0.61846875  0.61659248  0.57445798  1.0
