# generated using pymatgen
data_Pr2(Al3Rh)3
_symmetry_space_group_name_H-M   'P 1'
_cell_length_a   7.62250473
_cell_length_b   7.62250473
_cell_length_c   9.54220125
_cell_angle_alpha   90.00000000
_cell_angle_beta   90.00000000
_cell_angle_gamma   60.65617303
_symmetry_Int_Tables_number   1
_chemical_formula_structural   Pr2(Al3Rh)3
_chemical_formula_sum   'Pr4 Al18 Rh6'
_cell_volume   483.29062514
_cell_formula_units_Z   2
loop_
 _symmetry_equiv_pos_site_id
 _symmetry_equiv_pos_as_xyz
  1  'x, y, z'
loop_
 _atom_site_type_symbol
 _atom_site_label
 _atom_site_symmetry_multiplicity
 _atom_site_fract_x
 _atom_site_fract_y
 _atom_site_fract_z
 _atom_site_occupancy
  Pr  Pr0  1  -0.00412889  0.32890717  0.75000000  1.0
  Pr  Pr1  1  -0.67109283  0.99587111  0.25000000  1.0
  Pr  Pr2  1  -0.32890717  1.00412889  0.75000000  1.0
  Pr  Pr3  1  0.00412889  0.67109283  0.25000000  1.0
  Al  Al4  1  0.00253594  0.66444991  0.92604826  1.0
  Al  Al5  1  0.00253594  0.66444991  0.57395174  1.0
  Al  Al6  1  -0.33555009  1.00253594  0.42604826  1.0
  Al  Al7  1  -0.33555009  1.00253594  0.07395174  1.0
  Al  Al8  1  -0.66444991  0.99746406  0.92604826  1.0
  Al  Al9  1  -0.66444991  0.99746406  0.57395174  1.0
  Al  Al10  1  -0.00253594  0.33555009  0.42604826  1.0
  Al  Al11  1  -0.00253594  0.33555009  0.07395174  1.0
  Al  Al12  1  0.34047001  0.45193257  0.75000000  1.0
  Al  Al13  1  -0.54806743  1.34047001  0.25000000  1.0
  Al  Al14  1  -0.45193257  0.65952999  0.75000000  1.0
  Al  Al15  1  -0.34047001  0.54806743  0.25000000  1.0
  Al  Al16  1  -0.66606648  0.66606648  0.45304158  1.0
  Al  Al17  1  -0.66606648  0.66606648  0.04695842  1.0
  Al  Al18  1  -0.33393352  0.33393352  0.95304158  1.0
  Al  Al19  1  -0.33393352  0.33393352  0.54695842  1.0
  Al  Al20  1  -0.86984230  0.86984230  0.75000000  1.0
  Al  Al21  1  -0.13015770  0.13015770  0.25000000  1.0
  Rh  Rh22  1  -0.32902363  0.67097637  0.00000000  1.0
  Rh  Rh23  1  -0.32902363  0.67097637  0.50000000  1.0
  Rh  Rh24  1  0.32902363  0.32902363  0.00000000  1.0
  Rh  Rh25  1  0.32902363  0.32902363  0.50000000  1.0
  Rh  Rh26  1  0.00000000  0.00000000  0.00000000  1.0
  Rh  Rh27  1  0.00000000  0.00000000  0.50000000  1.0
