# generated using pymatgen
data_Gd2NiRuO6
_symmetry_space_group_name_H-M   'P 1'
_cell_length_a   5.33507838
_cell_length_b   5.79063708
_cell_length_c   9.36877378
_cell_angle_alpha   90.00000000
_cell_angle_beta   124.91099068
_cell_angle_gamma   90.00000000
_symmetry_Int_Tables_number   1
_chemical_formula_structural   Gd2NiRuO6
_chemical_formula_sum   'Gd4 Ni2 Ru2 O12'
_cell_volume   237.34826321
_cell_formula_units_Z   2
loop_
 _symmetry_equiv_pos_site_id
 _symmetry_equiv_pos_as_xyz
  1  'x, y, z'
loop_
 _atom_site_type_symbol
 _atom_site_label
 _atom_site_symmetry_multiplicity
 _atom_site_fract_x
 _atom_site_fract_y
 _atom_site_fract_z
 _atom_site_occupancy
  Gd  Gd0  1  0.22736919  0.42532147  0.25068553  1.0
  Gd  Gd1  1  0.22736919  0.07467853  0.75068553  1.0
  Gd  Gd2  1  0.77263081  0.92532147  0.24931447  1.0
  Gd  Gd3  1  0.77263081  0.57467853  0.74931447  1.0
  Ni  Ni4  1  0.50000000  0.00000000  0.50000000  1.0
  Ni  Ni5  1  0.50000000  0.50000000  0.00000000  1.0
  Ru  Ru6  1  0.00000000  0.00000000  0.00000000  1.0
  Ru  Ru7  1  -0.00000000  0.50000000  0.50000000  1.0
  O  O8  1  0.74648833  0.19051307  0.05415690  1.0
  O  O9  1  0.74648833  0.30948693  0.55415690  1.0
  O  O10  1  0.25351167  0.69051307  0.44584310  1.0
  O  O11  1  0.25351167  0.80948693  0.94584310  1.0
  O  O12  1  0.87457639  0.70020407  0.05645890  1.0
  O  O13  1  0.87457639  0.79979593  0.55645890  1.0
  O  O14  1  0.12542361  0.20020407  0.44354110  1.0
  O  O15  1  0.12542361  0.29979593  0.94354110  1.0
  O  O16  1  0.35906349  0.03939802  0.24734509  1.0
  O  O17  1  0.35906349  0.46060198  0.74734509  1.0
  O  O18  1  0.64093651  0.53939802  0.25265491  1.0
  O  O19  1  0.64093651  0.96060198  0.75265491  1.0
