# generated using pymatgen
data_Hf(SeCl6)2
_symmetry_space_group_name_H-M   'P 1'
_cell_length_a   13.06073204
_cell_length_b   12.88515029
_cell_length_c   9.26319799
_cell_angle_alpha   70.10067022
_cell_angle_beta   68.07160714
_cell_angle_gamma   41.82772265
_symmetry_Int_Tables_number   1
_chemical_formula_structural   Hf(SeCl6)2
_chemical_formula_sum   'Hf2 Se4 Cl24'
_cell_volume   959.53385520
_cell_formula_units_Z   2
loop_
 _symmetry_equiv_pos_site_id
 _symmetry_equiv_pos_as_xyz
  1  'x, y, z'
loop_
 _atom_site_type_symbol
 _atom_site_label
 _atom_site_symmetry_multiplicity
 _atom_site_fract_x
 _atom_site_fract_y
 _atom_site_fract_z
 _atom_site_occupancy
  Hf  Hf0  1  0.99781674  -0.00218326  0.00218326  1.0
  Hf  Hf1  1  0.24781674  0.24781674  0.25218326  1.0
  Se  Se2  1  0.06457770  0.59565723  0.90244624  1.0
  Se  Se3  1  -0.65244624  0.81268117  1.18542230  1.0
  Se  Se4  1  0.59565723  0.06457770  0.43731883  1.0
  Se  Se5  1  0.81268117  -0.65244624  0.65434277  1.0
  Cl  Cl6  1  0.73376731  0.11217957  0.11823618  1.0
  Cl  Cl7  1  0.13176382  0.21418306  0.51623269  1.0
  Cl  Cl8  1  0.11217957  0.73376731  0.03581694  1.0
  Cl  Cl9  1  0.21418306  0.13176382  0.13782043  1.0
  Cl  Cl10  1  0.35395986  -0.20266047  0.42743618  1.0
  Cl  Cl11  1  0.82256382  -0.17126444  0.89604014  1.0
  Cl  Cl12  1  -0.20266047  0.35395986  1.42126444  1.0
  Cl  Cl13  1  0.82873556  -0.17743618  0.45266047  1.0
  Cl  Cl14  1  0.34849024  0.30778875  0.98394324  1.0
  Cl  Cl15  1  0.26605676  -0.10977777  0.90150976  1.0
  Cl  Cl16  1  0.30778875  0.34849024  0.35977777  1.0
  Cl  Cl17  1  0.89022223  -0.73394324  0.94221125  1.0
  Cl  Cl18  1  0.17962327  0.62546404  0.67104219  1.0
  Cl  Cl19  1  -0.42104219  0.72612949  1.07037673  1.0
  Cl  Cl20  1  0.62546404  0.17962327  0.52387051  1.0
  Cl  Cl21  1  0.72612949  -0.42104219  0.62453596  1.0
  Cl  Cl22  1  0.51475336  -0.01141427  0.28142154  1.0
  Cl  Cl23  1  0.96857846  0.03476062  0.73524664  1.0
  Cl  Cl24  1  -0.01141427  0.51475336  1.21523938  1.0
  Cl  Cl25  1  0.03476062  0.96857846  0.26141427  1.0
  Cl  Cl26  1  0.03808233  0.47331435  0.82820882  1.0
  Cl  Cl27  1  -0.57820882  0.58960550  1.21191767  1.0
  Cl  Cl28  1  0.47331435  0.03808233  0.66039450  1.0
  Cl  Cl29  1  0.58960550  -0.57820882  0.77668565  1.0
