# generated using pymatgen
data_SiRh
_symmetry_space_group_name_H-M   'P 1'
_cell_length_a   5.58385159
_cell_length_b   3.10152447
_cell_length_c   6.42269502
_cell_angle_alpha   90.00000000
_cell_angle_beta   90.00000000
_cell_angle_gamma   90.00000000
_symmetry_Int_Tables_number   1
_chemical_formula_structural   SiRh
_chemical_formula_sum   'Si4 Rh4'
_cell_volume   111.23113769
_cell_formula_units_Z   4
loop_
 _symmetry_equiv_pos_site_id
 _symmetry_equiv_pos_as_xyz
  1  'x, y, z'
loop_
 _atom_site_type_symbol
 _atom_site_label
 _atom_site_symmetry_multiplicity
 _atom_site_fract_x
 _atom_site_fract_y
 _atom_site_fract_z
 _atom_site_occupancy
  Si  Si0  1  0.81526856  0.75000000  0.55637404  1.0
  Si  Si1  1  0.31526856  0.75000000  0.94362596  1.0
  Si  Si2  1  0.18473144  0.25000000  0.44362596  1.0
  Si  Si3  1  0.68473144  0.25000000  0.05637404  1.0
  Rh  Rh4  1  0.99750874  0.75000000  0.20246591  1.0
  Rh  Rh5  1  0.49750874  0.75000000  0.29753409  1.0
  Rh  Rh6  1  0.00249126  0.25000000  0.79753409  1.0
  Rh  Rh7  1  0.50249126  0.25000000  0.70246591  1.0
