# generated using pymatgen
data_TiAsRh
_symmetry_space_group_name_H-M   'P 1'
_cell_length_a   6.37606167
_cell_length_b   3.84810119
_cell_length_c   7.45535677
_cell_angle_alpha   90.00000000
_cell_angle_beta   90.00000000
_cell_angle_gamma   90.00000000
_symmetry_Int_Tables_number   1
_chemical_formula_structural   TiAsRh
_chemical_formula_sum   'Ti4 As4 Rh4'
_cell_volume   182.92262439
_cell_formula_units_Z   4
loop_
 _symmetry_equiv_pos_site_id
 _symmetry_equiv_pos_as_xyz
  1  'x, y, z'
loop_
 _atom_site_type_symbol
 _atom_site_label
 _atom_site_symmetry_multiplicity
 _atom_site_fract_x
 _atom_site_fract_y
 _atom_site_fract_z
 _atom_site_occupancy
  Ti  Ti0  1  0.96759611  0.75000000  0.68301391  1.0
  Ti  Ti1  1  0.46759611  0.75000000  0.81698609  1.0
  Ti  Ti2  1  0.03240389  0.25000000  0.31698609  1.0
  Ti  Ti3  1  0.53240389  0.25000000  0.18301391  1.0
  As  As4  1  0.75256141  0.75000000  0.37851451  1.0
  As  As5  1  0.25256141  0.75000000  0.12148549  1.0
  As  As6  1  0.24743859  0.25000000  0.62148549  1.0
  As  As7  1  0.74743859  0.25000000  0.87851451  1.0
  Rh  Rh8  1  0.85686173  0.75000000  0.06373091  1.0
  Rh  Rh9  1  0.35686173  0.75000000  0.43626909  1.0
  Rh  Rh10  1  0.14313827  0.25000000  0.93626909  1.0
  Rh  Rh11  1  0.64313827  0.25000000  0.56373091  1.0
