# generated using pymatgen
data_CI2
_symmetry_space_group_name_H-M   'P 1'
_cell_length_a   14.42510688
_cell_length_b   5.54552806
_cell_length_c   12.77773046
_cell_angle_alpha   90.00000000
_cell_angle_beta   104.84168806
_cell_angle_gamma   90.00000000
_symmetry_Int_Tables_number   1
_chemical_formula_structural   CI2
_chemical_formula_sum   'C8 I16'
_cell_volume   988.05064463
_cell_formula_units_Z   8
loop_
 _symmetry_equiv_pos_site_id
 _symmetry_equiv_pos_as_xyz
  1  'x, y, z'
loop_
 _atom_site_type_symbol
 _atom_site_label
 _atom_site_symmetry_multiplicity
 _atom_site_fract_x
 _atom_site_fract_y
 _atom_site_fract_z
 _atom_site_occupancy
  C  C0  1  0.95291700  0.99545561  0.97537467  1.0
  C  C1  1  0.95291700  0.50454439  0.47537467  1.0
  C  C2  1  0.04708300  0.49545561  0.52462533  1.0
  C  C3  1  0.04708300  0.00454439  0.02462533  1.0
  C  C4  1  0.54356657  0.95674532  0.50068237  1.0
  C  C5  1  0.54356657  0.54325468  0.00068237  1.0
  C  C6  1  0.45643343  0.45674532  0.99931763  1.0
  C  C7  1  0.45643343  0.04325468  0.49931763  1.0
  I  I8  1  0.89899434  0.81222418  0.82648511  1.0
  I  I9  1  0.89899434  0.68777582  0.32648511  1.0
  I  I10  1  0.10100566  0.31222418  0.67351489  1.0
  I  I11  1  0.10100566  0.18777582  0.17351489  1.0
  I  I12  1  0.84573176  0.33768113  0.53711409  1.0
  I  I13  1  0.84573176  0.16231887  0.03711409  1.0
  I  I14  1  0.15426824  0.83768113  0.96288591  1.0
  I  I15  1  0.15426824  0.66231887  0.46288591  1.0
  I  I16  1  0.57849011  0.71626315  0.86825120  1.0
  I  I17  1  0.57849011  0.78373685  0.36825120  1.0
  I  I18  1  0.42150989  0.21626315  0.63174880  1.0
  I  I19  1  0.42150989  0.28373685  0.13174880  1.0
  I  I20  1  0.33774349  0.47944582  0.85977310  1.0
  I  I21  1  0.33774349  1.02055418  0.35977310  1.0
  I  I22  1  0.66225651  -0.02055418  0.64022690  1.0
  I  I23  1  0.66225651  0.52055418  0.14022690  1.0
