# generated using pymatgen
data_CaH2
_symmetry_space_group_name_H-M   'P 1'
_cell_length_a   5.89925027
_cell_length_b   3.57106145
_cell_length_c   6.76298948
_cell_angle_alpha   90.00000000
_cell_angle_beta   90.00000000
_cell_angle_gamma   90.00000000
_symmetry_Int_Tables_number   1
_chemical_formula_structural   CaH2
_chemical_formula_sum   'Ca4 H8'
_cell_volume   142.47309430
_cell_formula_units_Z   4
loop_
 _symmetry_equiv_pos_site_id
 _symmetry_equiv_pos_as_xyz
  1  'x, y, z'
loop_
 _atom_site_type_symbol
 _atom_site_label
 _atom_site_symmetry_multiplicity
 _atom_site_fract_x
 _atom_site_fract_y
 _atom_site_fract_z
 _atom_site_occupancy
  Ca  Ca0  1  0.73915532  0.75000000  0.38976780  1.0
  Ca  Ca1  1  0.23915532  0.75000000  0.11023220  1.0
  Ca  Ca2  1  0.26084468  0.25000000  0.61023220  1.0
  Ca  Ca3  1  0.76084468  0.25000000  0.88976780  1.0
  H  H4  1  -0.02550748  0.75000000  0.67710808  1.0
  H  H5  1  0.47449252  0.75000000  0.82289192  1.0
  H  H6  1  0.02550748  0.25000000  0.32289192  1.0
  H  H7  1  0.52550748  0.25000000  0.17710808  1.0
  H  H8  1  0.85546313  0.75000000  0.07245658  1.0
  H  H9  1  0.35546313  0.75000000  0.42754342  1.0
  H  H10  1  0.14453687  0.25000000  0.92754342  1.0
  H  H11  1  0.64453687  0.25000000  0.57245658  1.0
