# generated using pymatgen
data_Gd2Ge5Ru3
_symmetry_space_group_name_H-M   'P 1'
_cell_length_a   8.49595237
_cell_length_b   8.49595237
_cell_length_c   8.49595237
_cell_angle_alpha   108.62467319
_cell_angle_beta   85.08341524
_cell_angle_gamma   140.02616523
_symmetry_Int_Tables_number   1
_chemical_formula_structural   Gd2Ge5Ru3
_chemical_formula_sum   'Gd4 Ge10 Ru6'
_cell_volume   360.37751819
_cell_formula_units_Z   2
loop_
 _symmetry_equiv_pos_site_id
 _symmetry_equiv_pos_as_xyz
  1  'x, y, z'
loop_
 _atom_site_type_symbol
 _atom_site_label
 _atom_site_symmetry_multiplicity
 _atom_site_fract_x
 _atom_site_fract_y
 _atom_site_fract_z
 _atom_site_occupancy
  Gd  Gd0  1  0.63923339  0.73099143  0.37022481  1.0
  Gd  Gd1  1  0.86076661  0.23099143  1.09175804  1.0
  Gd  Gd2  1  0.13923339  0.76900857  0.90824196  1.0
  Gd  Gd3  1  1.36076661  1.26900857  1.62977519  1.0
  Ge  Ge4  1  0.91203129  0.67488677  1.58691806  1.0
  Ge  Ge5  1  0.58796871  1.17488677  0.76285548  1.0
  Ge  Ge6  1  1.41203129  0.82511323  1.23714452  1.0
  Ge  Ge7  1  0.08796871  0.32511323  0.41308194  1.0
  Ge  Ge8  1  0.45764108  0.75000000  0.70764108  1.0
  Ge  Ge9  1  0.95764108  1.25000000  0.70764108  1.0
  Ge  Ge10  1  1.54235892  1.25000000  1.29235892  1.0
  Ge  Ge11  1  1.04235892  0.75000000  1.29235892  1.0
  Ge  Ge12  1  0.75000000  0.75000000  0.00000000  1.0
  Ge  Ge13  1  0.25000000  0.25000000  0.00000000  1.0
  Ru  Ru14  1  0.85290565  0.90846762  0.76137327  1.0
  Ru  Ru15  1  0.64709435  0.40846762  1.05556196  1.0
  Ru  Ru16  1  0.35290565  0.59153238  0.94443804  1.0
  Ru  Ru17  1  1.14709435  1.09153238  1.23862673  1.0
  Ru  Ru18  1  0.75000000  1.25000000  0.50000000  1.0
  Ru  Ru19  1  0.25000000  0.75000000  0.50000000  1.0
