# generated using pymatgen
data_CrH12(ClO2)3
_symmetry_space_group_name_H-M   'P 1'
_cell_length_a   8.02518609
_cell_length_b   8.02518609
_cell_length_c   8.02518608
_cell_angle_alpha   90.19483486
_cell_angle_beta   90.19483486
_cell_angle_gamma   90.19483485
_symmetry_Int_Tables_number   1
_chemical_formula_structural   CrH12(ClO2)3
_chemical_formula_sum   'Cr2 H24 Cl6 O12'
_cell_volume   516.84198317
_cell_formula_units_Z   2
loop_
 _symmetry_equiv_pos_site_id
 _symmetry_equiv_pos_as_xyz
  1  'x, y, z'
loop_
 _atom_site_type_symbol
 _atom_site_label
 _atom_site_symmetry_multiplicity
 _atom_site_fract_x
 _atom_site_fract_y
 _atom_site_fract_z
 _atom_site_occupancy
  Cr  Cr0  1  0.50000000  0.50000000  0.50000000  1.0
  Cr  Cr1  1  0.00000000  0.00000000  0.00000000  1.0
  H  H2  1  1.28641417  -0.45253021  0.25018576  1.0
  H  H3  1  0.78641417  0.75018576  0.04746979  1.0
  H  H4  1  1.24981424  -0.04746979  0.21358583  1.0
  H  H5  1  0.74981424  0.71358583  0.45253021  1.0
  H  H6  1  1.45253021  0.74981424  -0.28641417  1.0
  H  H7  1  0.95253021  0.21358583  0.24981424  1.0
  H  H8  1  0.71358583  1.45253021  -0.25018576  1.0
  H  H9  1  1.21358583  0.24981424  -0.04746979  1.0
  H  H10  1  1.25018576  0.28641417  -0.45253021  1.0
  H  H11  1  0.75018576  1.04746979  -0.21358583  1.0
  H  H12  1  1.04746979  0.78641417  -0.24981424  1.0
  H  H13  1  0.54746979  0.25018576  0.28641417  1.0
  H  H14  1  1.20155833  -0.37790397  0.42048923  1.0
  H  H15  1  0.70155833  0.92048923  0.12209603  1.0
  H  H16  1  1.07951077  -0.12209603  0.29844167  1.0
  H  H17  1  0.57951077  0.79844167  0.37790397  1.0
  H  H18  1  1.37790397  0.57951077  -0.20155833  1.0
  H  H19  1  0.87790397  0.29844167  0.07951077  1.0
  H  H20  1  0.79844167  1.37790397  -0.42048923  1.0
  H  H21  1  1.29844167  0.07951077  -0.12209603  1.0
  H  H22  1  1.42048923  0.20155833  -0.37790397  1.0
  H  H23  1  0.92048923  1.12209603  -0.29844167  1.0
  H  H24  1  1.12209603  0.70155833  -0.07951077  1.0
  H  H25  1  0.62209603  0.42048923  0.20155833  1.0
  Cl  Cl26  1  1.00439965  0.25000000  0.49560035  1.0
  Cl  Cl27  1  0.50439965  0.99560035  -0.25000000  1.0
  Cl  Cl28  1  0.75000000  0.50439965  -0.00439965  1.0
  Cl  Cl29  1  1.25000000  0.49560035  0.00439965  1.0
  Cl  Cl30  1  0.99560035  0.75000000  -0.49560035  1.0
  Cl  Cl31  1  1.49560035  0.00439965  0.25000000  1.0
  O  O32  1  1.30709180  -0.41915479  0.36899069  1.0
  O  O33  1  0.80709180  0.86899069  0.08084521  1.0
  O  O34  1  1.13100931  -0.08084521  0.19290820  1.0
  O  O35  1  0.63100931  0.69290820  0.41915479  1.0
  O  O36  1  1.41915479  0.63100931  -0.30709180  1.0
  O  O37  1  0.91915479  0.19290820  0.13100931  1.0
  O  O38  1  0.69290820  1.41915479  -0.36899069  1.0
  O  O39  1  1.19290820  0.13100931  -0.08084521  1.0
  O  O40  1  1.36899069  0.30709180  -0.41915479  1.0
  O  O41  1  0.86899069  1.08084521  -0.19290820  1.0
  O  O42  1  1.08084521  0.80709180  -0.13100931  1.0
  O  O43  1  0.58084521  0.36899069  0.30709180  1.0
