# generated using pymatgen
data_BaP2PdO7
_symmetry_space_group_name_H-M   'P 1'
_cell_length_a   14.06257449
_cell_length_b   6.26062001
_cell_length_c   7.70787799
_cell_angle_alpha   90.00000000
_cell_angle_beta   90.00000000
_cell_angle_gamma   90.00000000
_symmetry_Int_Tables_number   1
_chemical_formula_structural   BaP2PdO7
_chemical_formula_sum   'Ba4 P8 Pd4 O28'
_cell_volume   678.60493298
_cell_formula_units_Z   4
loop_
 _symmetry_equiv_pos_site_id
 _symmetry_equiv_pos_as_xyz
  1  'x, y, z'
loop_
 _atom_site_type_symbol
 _atom_site_label
 _atom_site_symmetry_multiplicity
 _atom_site_fract_x
 _atom_site_fract_y
 _atom_site_fract_z
 _atom_site_occupancy
  Ba  Ba0  1  0.24999844  0.75000000  0.25002540  1.0
  Ba  Ba1  1  0.74999844  0.75000000  0.24997460  1.0
  Ba  Ba2  1  0.75000156  0.25000000  0.74997460  1.0
  Ba  Ba3  1  0.25000156  0.25000000  0.75002540  1.0
  P  P4  1  0.39739864  0.75000000  0.79300092  1.0
  P  P5  1  0.89739864  0.75000000  0.70699908  1.0
  P  P6  1  0.60260136  0.25000000  0.20699908  1.0
  P  P7  1  0.10260136  0.25000000  0.29300092  1.0
  P  P8  1  0.10251390  0.75000000  0.70696562  1.0
  P  P9  1  0.60251390  0.75000000  0.79303438  1.0
  P  P10  1  0.89748610  0.25000000  0.29303438  1.0
  P  P11  1  0.39748610  0.25000000  0.20696562  1.0
  Pd  Pd12  1  0.50000000  0.00000000  0.50000000  1.0
  Pd  Pd13  1  0.50000000  0.50000000  0.50000000  1.0
  Pd  Pd14  1  0.00000000  0.00000000  0.00000000  1.0
  Pd  Pd15  1  0.00000000  0.50000000  0.00000000  1.0
  O  O16  1  0.39488577  0.95750174  0.67995383  1.0
  O  O17  1  0.39488577  0.54249826  0.67995383  1.0
  O  O18  1  0.89488577  0.95750174  0.82004617  1.0
  O  O19  1  0.89488577  0.54249826  0.82004617  1.0
  O  O20  1  0.60511423  0.45750174  0.32004617  1.0
  O  O21  1  0.60511423  0.04249826  0.32004617  1.0
  O  O22  1  0.10511423  0.45750174  0.17995383  1.0
  O  O23  1  0.10511423  0.04249826  0.17995383  1.0
  O  O24  1  0.10502470  0.95751050  0.81998965  1.0
  O  O25  1  0.10502470  0.54248950  0.81998965  1.0
  O  O26  1  0.60502470  0.95751050  0.68001035  1.0
  O  O27  1  0.60502470  0.54248950  0.68001035  1.0
  O  O28  1  0.89497530  0.45751050  0.18001035  1.0
  O  O29  1  0.89497530  0.04248950  0.18001035  1.0
  O  O30  1  0.39497530  0.45751050  0.31998965  1.0
  O  O31  1  0.39497530  0.04248950  0.31998965  1.0
  O  O32  1  0.49995258  0.75000000  0.89240043  1.0
  O  O33  1  0.99995258  0.75000000  0.60759957  1.0
  O  O34  1  0.50004742  0.25000000  0.10759957  1.0
  O  O35  1  0.00004742  0.25000000  0.39240043  1.0
  O  O36  1  0.31925244  0.75000000  0.92644609  1.0
  O  O37  1  0.81925244  0.75000000  0.57355391  1.0
  O  O38  1  0.68074756  0.25000000  0.07355391  1.0
  O  O39  1  0.18074756  0.25000000  0.42644609  1.0
  O  O40  1  0.18069148  0.75000000  0.57358049  1.0
  O  O41  1  0.68069148  0.75000000  0.92641951  1.0
  O  O42  1  0.81930852  0.25000000  0.42641951  1.0
  O  O43  1  0.31930852  0.25000000  0.07358049  1.0
