# generated using pymatgen
data_YB4Rh
_symmetry_space_group_name_H-M   'P 1'
_cell_length_a   5.95792662
_cell_length_b   11.55467049
_cell_length_c   3.55980742
_cell_angle_alpha   90.00000000
_cell_angle_beta   90.00000000
_cell_angle_gamma   90.00000000
_symmetry_Int_Tables_number   1
_chemical_formula_structural   YB4Rh
_chemical_formula_sum   'Y4 B16 Rh4'
_cell_volume   245.06383092
_cell_formula_units_Z   4
loop_
 _symmetry_equiv_pos_site_id
 _symmetry_equiv_pos_as_xyz
  1  'x, y, z'
loop_
 _atom_site_type_symbol
 _atom_site_label
 _atom_site_symmetry_multiplicity
 _atom_site_fract_x
 _atom_site_fract_y
 _atom_site_fract_z
 _atom_site_occupancy
  Y  Y0  1  0.13110960  0.64883444  0.50000000  1.0
  Y  Y1  1  0.63110960  0.85116556  0.50000000  1.0
  Y  Y2  1  0.86889040  0.35116556  0.50000000  1.0
  Y  Y3  1  0.36889040  0.14883444  0.50000000  1.0
  B  B4  1  0.36368117  0.96925184  0.00000000  1.0
  B  B5  1  0.86368117  0.53074816  0.00000000  1.0
  B  B6  1  0.63631883  0.03074816  0.00000000  1.0
  B  B7  1  0.13631883  0.46925184  0.00000000  1.0
  B  B8  1  0.47750754  0.69257976  0.00000000  1.0
  B  B9  1  0.97750754  0.80742024  0.00000000  1.0
  B  B10  1  0.52249246  0.30742024  0.00000000  1.0
  B  B11  1  0.02249246  0.19257976  0.00000000  1.0
  B  B12  1  0.38786860  0.54679722  0.00000000  1.0
  B  B13  1  0.88786860  0.95320278  0.00000000  1.0
  B  B14  1  0.61213140  0.45320278  0.00000000  1.0
  B  B15  1  0.11213140  0.04679722  0.00000000  1.0
  B  B16  1  0.28958110  0.81299619  0.00000000  1.0
  B  B17  1  0.78958110  0.68700381  0.00000000  1.0
  B  B18  1  0.71041890  0.18700381  0.00000000  1.0
  B  B19  1  0.21041890  0.31299619  0.00000000  1.0
  Rh  Rh20  1  0.14189571  0.90567898  0.50000000  1.0
  Rh  Rh21  1  0.64189571  0.59432102  0.50000000  1.0
  Rh  Rh22  1  0.85810429  0.09432102  0.50000000  1.0
  Rh  Rh23  1  0.35810429  0.40567898  0.50000000  1.0
