# generated using pymatgen
data_ZnHg(OF6)2
_symmetry_space_group_name_H-M   'P 1'
_cell_length_a   8.14574976
_cell_length_b   8.14574976
_cell_length_c   8.14574976
_cell_angle_alpha   60.00000000
_cell_angle_beta   60.00000000
_cell_angle_gamma   60.00000000
_symmetry_Int_Tables_number   1
_chemical_formula_structural   ZnHg(OF6)2
_chemical_formula_sum   'Zn2 Hg2 O4 F24'
_cell_volume   382.18901014
_cell_formula_units_Z   2
loop_
 _symmetry_equiv_pos_site_id
 _symmetry_equiv_pos_as_xyz
  1  'x, y, z'
loop_
 _atom_site_type_symbol
 _atom_site_label
 _atom_site_symmetry_multiplicity
 _atom_site_fract_x
 _atom_site_fract_y
 _atom_site_fract_z
 _atom_site_occupancy
  Zn  Zn0  1  -0.00000000  1.00000000  -0.00000000  1.0
  Zn  Zn1  1  0.25000000  0.25000000  0.25000000  1.0
  Hg  Hg2  1  0.50000000  0.50000000  -0.50000000  1.0
  Hg  Hg3  1  0.75000000  -0.25000000  0.75000000  1.0
  O  O4  1  0.62500000  -0.37500000  1.12500000  1.0
  O  O5  1  0.62500000  0.12500000  0.62500000  1.0
  O  O6  1  0.62500000  -0.37500000  0.62500000  1.0
  O  O7  1  1.12500000  -0.37500000  0.62500000  1.0
  F  F8  1  0.98169092  -0.69182642  0.72844457  1.0
  F  F9  1  -0.01830908  0.72844457  0.30817358  1.0
  F  F10  1  -0.05817358  0.26830908  0.26830908  1.0
  F  F11  1  0.52155543  0.26830908  0.26830908  1.0
  F  F12  1  -0.69182642  0.98169092  0.72844457  1.0
  F  F13  1  0.98169092  -0.01830908  0.72844457  1.0
  F  F14  1  0.98169092  -0.27155543  0.98169092  1.0
  F  F15  1  -0.69182642  0.72844457  0.98169092  1.0
  F  F16  1  0.26830908  -0.05817358  0.26830908  1.0
  F  F17  1  0.26830908  0.26830908  -0.05817358  1.0
  F  F18  1  0.52155543  0.26830908  -0.05817358  1.0
  F  F19  1  0.52155543  -0.05817358  0.26830908  1.0
  F  F20  1  0.72844457  -0.01830908  0.98169092  1.0
  F  F21  1  -0.69182642  0.98169092  0.98169092  1.0
  F  F22  1  0.26830908  0.52155543  -0.05817358  1.0
  F  F23  1  0.26830908  -0.05817358  0.52155543  1.0
  F  F24  1  -0.27155543  0.98169092  0.30817358  1.0
  F  F25  1  0.72844457  -0.69182642  0.98169092  1.0
  F  F26  1  0.98169092  -0.69182642  0.98169092  1.0
  F  F27  1  -0.01830908  0.98169092  0.30817358  1.0
  F  F28  1  0.26830908  0.52155543  0.26830908  1.0
  F  F29  1  -0.05817358  0.52155543  0.26830908  1.0
  F  F30  1  -0.05817358  0.26830908  0.52155543  1.0
  F  F31  1  0.26830908  0.26830908  0.52155543  1.0
