# generated using pymatgen
data_La(HO)3
_symmetry_space_group_name_H-M   'P 1'
_cell_length_a   6.62118253
_cell_length_b   6.62118253
_cell_length_c   3.85230575
_cell_angle_alpha   90.00000000
_cell_angle_beta   90.00000000
_cell_angle_gamma   120.00000000
_symmetry_Int_Tables_number   1
_chemical_formula_structural   La(HO)3
_chemical_formula_sum   'La2 H6 O6'
_cell_volume   146.25896672
_cell_formula_units_Z   2
loop_
 _symmetry_equiv_pos_site_id
 _symmetry_equiv_pos_as_xyz
  1  'x, y, z'
loop_
 _atom_site_type_symbol
 _atom_site_label
 _atom_site_symmetry_multiplicity
 _atom_site_fract_x
 _atom_site_fract_y
 _atom_site_fract_z
 _atom_site_occupancy
  La  La0  1  0.33333333  0.66666667  0.25000000  1.0
  La  La1  1  0.66666667  0.33333333  0.75000000  1.0
  H  H2  1  0.85424229  0.72171283  0.25000000  1.0
  H  H3  1  0.72171283  0.86747054  0.75000000  1.0
  H  H4  1  0.86747054  0.14575771  0.25000000  1.0
  H  H5  1  0.27828717  0.13252946  0.25000000  1.0
  H  H6  1  0.14575771  0.27828717  0.75000000  1.0
  H  H7  1  0.13252946  0.85424229  0.75000000  1.0
  O  O8  1  0.68893817  0.60667645  0.25000000  1.0
  O  O9  1  0.60667645  0.91773828  0.75000000  1.0
  O  O10  1  0.91773828  0.31106183  0.25000000  1.0
  O  O11  1  0.39332355  0.08226172  0.25000000  1.0
  O  O12  1  0.31106183  0.39332355  0.75000000  1.0
  O  O13  1  0.08226172  0.68893817  0.75000000  1.0
