# generated using pymatgen
data_KPH3O4F
_symmetry_space_group_name_H-M   'P 1'
_cell_length_a   6.76355903
_cell_length_b   7.72117969
_cell_length_c   9.63186627
_cell_angle_alpha   90.00000000
_cell_angle_beta   100.92018857
_cell_angle_gamma   90.00000000
_symmetry_Int_Tables_number   1
_chemical_formula_structural   KPH3O4F
_chemical_formula_sum   'K4 P4 H12 O16 F4'
_cell_volume   493.89328344
_cell_formula_units_Z   4
loop_
 _symmetry_equiv_pos_site_id
 _symmetry_equiv_pos_as_xyz
  1  'x, y, z'
loop_
 _atom_site_type_symbol
 _atom_site_label
 _atom_site_symmetry_multiplicity
 _atom_site_fract_x
 _atom_site_fract_y
 _atom_site_fract_z
 _atom_site_occupancy
  K  K0  1  0.33585814  0.77737792  0.96050007  1.0
  K  K1  1  0.33585814  0.72262208  0.46050007  1.0
  K  K2  1  0.66414186  0.27737792  0.53949993  1.0
  K  K3  1  0.66414186  0.22262208  0.03949993  1.0
  P  P4  1  0.88047424  0.80205392  0.67213930  1.0
  P  P5  1  0.88047424  0.69794608  0.17213930  1.0
  P  P6  1  0.11952576  0.30205392  0.82786070  1.0
  P  P7  1  0.11952576  0.19794608  0.32786070  1.0
  H  H8  1  0.90727343  0.52140046  0.83372351  1.0
  H  H9  1  0.90727343  0.97859954  0.33372351  1.0
  H  H10  1  0.09272657  0.02140046  0.66627649  1.0
  H  H11  1  0.09272657  0.47859954  0.16627649  1.0
  H  H12  1  0.86405980  0.80885018  0.96173419  1.0
  H  H13  1  0.86405980  0.69114982  0.46173419  1.0
  H  H14  1  0.13594020  0.30885018  0.53826581  1.0
  H  H15  1  0.13594020  0.19114982  0.03826581  1.0
  H  H16  1  0.60974758  0.97301471  0.74235736  1.0
  H  H17  1  0.60974758  0.52698529  0.24235736  1.0
  H  H18  1  0.39025242  0.47301471  0.75764264  1.0
  H  H19  1  0.39025242  0.02698529  0.25764264  1.0
  O  O20  1  0.90488680  0.71942043  0.81914992  1.0
  O  O21  1  0.90488680  0.78057957  0.31914992  1.0
  O  O22  1  0.09511320  0.21942043  0.68085008  1.0
  O  O23  1  0.09511320  0.28057957  0.18085008  1.0
  O  O24  1  0.91297374  0.38926395  0.84737380  1.0
  O  O25  1  0.91297374  0.11073605  0.34737380  1.0
  O  O26  1  0.08702626  0.88926395  0.65262620  1.0
  O  O27  1  0.08702626  0.61073605  0.15262620  1.0
  O  O28  1  0.85200083  0.64851003  0.55981275  1.0
  O  O29  1  0.85200083  0.85148997  0.05981275  1.0
  O  O30  1  0.14799917  0.14851003  0.94018725  1.0
  O  O31  1  0.14799917  0.35148997  0.44018725  1.0
  O  O32  1  0.70632118  0.93255419  0.63902957  1.0
  O  O33  1  0.70632118  0.56744581  0.13902957  1.0
  O  O34  1  0.29367882  0.43255419  0.86097043  1.0
  O  O35  1  0.29367882  0.06744581  0.36097043  1.0
  F  F36  1  0.46832485  0.51215019  0.67770381  1.0
  F  F37  1  0.46832485  0.98784981  0.17770381  1.0
  F  F38  1  0.53167515  0.01215019  0.82229619  1.0
  F  F39  1  0.53167515  0.48784981  0.32229619  1.0
