# generated using pymatgen
data_Y2WO6
_symmetry_space_group_name_H-M   'P 1'
_cell_length_a   7.68425918
_cell_length_b   5.37033422
_cell_length_c   11.43303313
_cell_angle_alpha   90.00000000
_cell_angle_beta   104.38009796
_cell_angle_gamma   90.00000000
_symmetry_Int_Tables_number   1
_chemical_formula_structural   Y2WO6
_chemical_formula_sum   'Y8 W4 O24'
_cell_volume   457.02546701
_cell_formula_units_Z   4
loop_
 _symmetry_equiv_pos_site_id
 _symmetry_equiv_pos_as_xyz
  1  'x, y, z'
loop_
 _atom_site_type_symbol
 _atom_site_label
 _atom_site_symmetry_multiplicity
 _atom_site_fract_x
 _atom_site_fract_y
 _atom_site_fract_z
 _atom_site_occupancy
  Y  Y0  1  0.29695865  0.81357384  0.92201423  1.0
  Y  Y1  1  0.29695865  0.18642616  0.42201423  1.0
  Y  Y2  1  0.70304135  0.81357384  0.57798577  1.0
  Y  Y3  1  0.70304135  0.18642616  0.07798577  1.0
  Y  Y4  1  0.50000000  0.73767887  0.25000000  1.0
  Y  Y5  1  0.50000000  0.26232113  0.75000000  1.0
  Y  Y6  1  0.00000000  0.68130189  0.25000000  1.0
  Y  Y7  1  -0.00000000  0.31869811  0.75000000  1.0
  W  W8  1  0.77781229  0.74620575  0.88613522  1.0
  W  W9  1  0.77781229  0.25379425  0.38613522  1.0
  W  W10  1  0.22218771  0.74620575  0.61386478  1.0
  W  W11  1  0.22218771  0.25379425  0.11386478  1.0
  O  O12  1  0.99098781  0.35770375  0.11324148  1.0
  O  O13  1  0.99098781  0.64229625  0.61324148  1.0
  O  O14  1  0.00901219  0.35770375  0.38675852  1.0
  O  O15  1  0.00901219  0.64229625  0.88675852  1.0
  O  O16  1  0.86472574  0.84703456  0.04731865  1.0
  O  O17  1  0.86472574  0.15296544  0.54731865  1.0
  O  O18  1  0.13527425  0.84703456  0.45268135  1.0
  O  O19  1  0.13527425  0.15296544  0.95268135  1.0
  O  O20  1  0.78960853  0.98487642  0.27141960  1.0
  O  O21  1  0.78960853  0.01512358  0.77141960  1.0
  O  O22  1  0.21039147  0.98487642  0.22858040  1.0
  O  O23  1  0.21039147  0.01512358  0.72858040  1.0
  O  O24  1  0.71322456  0.46187638  0.22766983  1.0
  O  O25  1  0.71322456  0.53812362  0.72766983  1.0
  O  O26  1  0.28677544  0.46187638  0.27233017  1.0
  O  O27  1  0.28677544  0.53812362  0.77233017  1.0
  O  O28  1  0.65057033  0.52583549  0.42981120  1.0
  O  O29  1  0.65057033  0.47416451  0.92981120  1.0
  O  O30  1  0.34942967  0.52583549  0.07018880  1.0
  O  O31  1  0.34942967  0.47416451  0.57018880  1.0
  O  O32  1  0.56193614  0.96073997  0.89593553  1.0
  O  O33  1  0.56193614  0.03926003  0.39593553  1.0
  O  O34  1  0.43806386  0.96073997  0.60406447  1.0
  O  O35  1  0.43806386  0.03926003  0.10406447  1.0
