# generated using pymatgen
data_Pr3Mg2Sb3O14
_symmetry_space_group_name_H-M   'P 1'
_cell_length_a   7.33977696
_cell_length_b   7.33977696
_cell_length_c   7.33977696
_cell_angle_alpha   61.53223055
_cell_angle_beta   61.53223055
_cell_angle_gamma   61.53223055
_symmetry_Int_Tables_number   1
_chemical_formula_structural   Pr3Mg2Sb3O14
_chemical_formula_sum   'Pr3 Mg2 Sb3 O14'
_cell_volume   289.21218732
_cell_formula_units_Z   1
loop_
 _symmetry_equiv_pos_site_id
 _symmetry_equiv_pos_as_xyz
  1  'x, y, z'
loop_
 _atom_site_type_symbol
 _atom_site_label
 _atom_site_symmetry_multiplicity
 _atom_site_fract_x
 _atom_site_fract_y
 _atom_site_fract_z
 _atom_site_occupancy
  Pr  Pr0  1  0.50000000  -0.50000000  0.00000000  1.0
  Pr  Pr1  1  0.50000000  -0.00000000  -0.50000000  1.0
  Pr  Pr2  1  1.00000000  0.50000000  -0.50000000  1.0
  Mg  Mg3  1  0.00000000  0.00000000  0.00000000  1.0
  Mg  Mg4  1  0.50000000  0.50000000  -0.50000000  1.0
  Sb  Sb5  1  1.00000000  -0.00000000  -0.50000000  1.0
  Sb  Sb6  1  1.00000000  -0.50000000  -0.00000000  1.0
  Sb  Sb7  1  1.50000000  1.00000000  0.00000000  1.0
  O  O8  1  0.61394312  0.61394312  -0.38605688  1.0
  O  O9  1  0.38605688  0.38605688  -0.61394312  1.0
  O  O10  1  0.91668713  0.32408639  -0.67591361  1.0
  O  O11  1  0.32408639  0.32408639  -0.08331287  1.0
  O  O12  1  0.32408639  0.91668713  -0.67591361  1.0
  O  O13  1  1.08331287  -0.32408639  -0.32408639  1.0
  O  O14  1  0.67591361  -0.32408639  0.08331287  1.0
  O  O15  1  0.67591361  0.08331287  -0.32408639  1.0
  O  O16  1  1.34499081  -0.08745556  -0.08745556  1.0
  O  O17  1  0.91254444  -0.08745556  0.34499081  1.0
  O  O18  1  0.91254444  0.34499081  -0.08745556  1.0
  O  O19  1  1.65500919  1.08745556  0.08745556  1.0
  O  O20  1  1.08745556  1.08745556  0.65500919  1.0
  O  O21  1  1.08745556  1.65500919  0.08745556  1.0
