# generated using pymatgen
data_CsW3Br7
_symmetry_space_group_name_H-M   'P 1'
_cell_length_a   10.36420849
_cell_length_b   10.36420849
_cell_length_c   16.60242807
_cell_angle_alpha   90.00000000
_cell_angle_beta   90.00000000
_cell_angle_gamma   120.00000000
_symmetry_Int_Tables_number   1
_chemical_formula_structural   CsW3Br7
_chemical_formula_sum   'Cs4 W12 Br28'
_cell_volume   1544.45237555
_cell_formula_units_Z   4
loop_
 _symmetry_equiv_pos_site_id
 _symmetry_equiv_pos_as_xyz
  1  'x, y, z'
loop_
 _atom_site_type_symbol
 _atom_site_label
 _atom_site_symmetry_multiplicity
 _atom_site_fract_x
 _atom_site_fract_y
 _atom_site_fract_z
 _atom_site_occupancy
  Cs  Cs0  1  0.66666667  0.33333333  0.25000000  1.0
  Cs  Cs1  1  0.33333333  0.66666667  0.75000000  1.0
  Cs  Cs2  1  0.00000000  0.00000000  0.00000000  1.0
  Cs  Cs3  1  0.00000000  0.00000000  0.50000000  1.0
  W  W4  1  0.33429588  0.81496525  0.18498225  1.0
  W  W5  1  0.33429588  0.51933063  0.31501775  1.0
  W  W6  1  0.81496525  0.33429588  0.68498225  1.0
  W  W7  1  0.81496525  0.48066937  0.81501775  1.0
  W  W8  1  0.48066937  0.81496525  0.31501775  1.0
  W  W9  1  0.48066937  0.66570412  0.18498225  1.0
  W  W10  1  0.18503475  0.66570412  0.31501775  1.0
  W  W11  1  0.18503475  0.51933063  0.18498225  1.0
  W  W12  1  0.66570412  0.48066937  0.68498225  1.0
  W  W13  1  0.66570412  0.18503475  0.81501775  1.0
  W  W14  1  0.51933063  0.33429588  0.81501775  1.0
  W  W15  1  0.51933063  0.18503475  0.68498225  1.0
  Br  Br16  1  0.32914443  0.96078392  0.31716592  1.0
  Br  Br17  1  0.32914443  0.36836051  0.18283408  1.0
  Br  Br18  1  0.96078392  0.32914443  0.81716592  1.0
  Br  Br19  1  0.96078392  0.63163949  0.68283408  1.0
  Br  Br20  1  0.63163949  0.96078392  0.18283408  1.0
  Br  Br21  1  0.63163949  0.67085557  0.31716592  1.0
  Br  Br22  1  0.03921608  0.67085557  0.18283408  1.0
  Br  Br23  1  0.03921608  0.36836051  0.31716592  1.0
  Br  Br24  1  0.67085557  0.63163949  0.81716592  1.0
  Br  Br25  1  0.67085557  0.03921608  0.68283408  1.0
  Br  Br26  1  0.36836051  0.32914443  0.68283408  1.0
  Br  Br27  1  0.36836051  0.03921608  0.81716592  1.0
  Br  Br28  1  0.68820912  0.65687709  0.09835963  1.0
  Br  Br29  1  0.68820912  0.03133203  0.40164037  1.0
  Br  Br30  1  0.65687709  0.68820912  0.59835963  1.0
  Br  Br31  1  0.65687709  0.96866797  0.90164037  1.0
  Br  Br32  1  0.96866797  0.65687709  0.40164037  1.0
  Br  Br33  1  0.96866797  0.31179088  0.09835963  1.0
  Br  Br34  1  0.34312291  0.31179088  0.40164037  1.0
  Br  Br35  1  0.34312291  0.03133203  0.09835963  1.0
  Br  Br36  1  0.31179088  0.96866797  0.59835963  1.0
  Br  Br37  1  0.31179088  0.34312291  0.90164037  1.0
  Br  Br38  1  0.03133203  0.68820912  0.90164037  1.0
  Br  Br39  1  0.03133203  0.34312291  0.59835963  1.0
  Br  Br40  1  0.33333333  0.66666667  0.05479651  1.0
  Br  Br41  1  0.33333333  0.66666667  0.44520349  1.0
  Br  Br42  1  0.66666667  0.33333333  0.55479651  1.0
  Br  Br43  1  0.66666667  0.33333333  0.94520349  1.0
