# generated using pymatgen
data_Ba5Mn3O12F
_symmetry_space_group_name_H-M   'P 1'
_cell_length_a   10.47414289
_cell_length_b   10.47414289
_cell_length_c   7.92002485
_cell_angle_alpha   90.00000000
_cell_angle_beta   90.00000000
_cell_angle_gamma   120.00000000
_symmetry_Int_Tables_number   1
_chemical_formula_structural   Ba5Mn3O12F
_chemical_formula_sum   'Ba10 Mn6 O24 F2'
_cell_volume   752.47861918
_cell_formula_units_Z   2
loop_
 _symmetry_equiv_pos_site_id
 _symmetry_equiv_pos_as_xyz
  1  'x, y, z'
loop_
 _atom_site_type_symbol
 _atom_site_label
 _atom_site_symmetry_multiplicity
 _atom_site_fract_x
 _atom_site_fract_y
 _atom_site_fract_z
 _atom_site_occupancy
  Ba  Ba0  1  0.01353154  0.75838969  0.25000000  1.0
  Ba  Ba1  1  0.75838969  0.74485815  0.75000000  1.0
  Ba  Ba2  1  0.74485815  0.98646846  0.25000000  1.0
  Ba  Ba3  1  0.24161031  0.25514185  0.25000000  1.0
  Ba  Ba4  1  0.98646846  0.24161031  0.75000000  1.0
  Ba  Ba5  1  0.25514185  0.01353154  0.75000000  1.0
  Ba  Ba6  1  0.33333333  0.66666667  0.50181966  1.0
  Ba  Ba7  1  0.33333333  0.66666667  -0.00181966  1.0
  Ba  Ba8  1  0.66666667  0.33333333  1.00181966  1.0
  Ba  Ba9  1  0.66666667  0.33333333  0.49818034  1.0
  Mn  Mn10  1  0.63253669  0.59996743  0.25000000  1.0
  Mn  Mn11  1  0.59996743  0.96743074  0.75000000  1.0
  Mn  Mn12  1  0.96743074  0.36746331  0.25000000  1.0
  Mn  Mn13  1  0.40003257  0.03256926  0.25000000  1.0
  Mn  Mn14  1  0.36746331  0.40003257  0.75000000  1.0
  Mn  Mn15  1  0.03256926  0.63253669  0.75000000  1.0
  O  O16  1  0.74459340  0.65332410  0.42221118  1.0
  O  O17  1  0.74459340  0.65332410  0.07778882  1.0
  O  O18  1  0.65332410  0.90873070  0.92221118  1.0
  O  O19  1  0.65332410  0.90873070  0.57778882  1.0
  O  O20  1  0.90873070  0.25540660  0.42221118  1.0
  O  O21  1  0.90873070  0.25540660  0.07778882  1.0
  O  O22  1  0.34667590  0.09126930  0.42221118  1.0
  O  O23  1  0.34667590  0.09126930  0.07778882  1.0
  O  O24  1  0.25540660  0.34667590  0.92221118  1.0
  O  O25  1  0.25540660  0.34667590  0.57778882  1.0
  O  O26  1  0.09126930  0.74459340  0.92221118  1.0
  O  O27  1  0.09126930  0.74459340  0.57778882  1.0
  O  O28  1  0.32541476  0.84590623  0.25000000  1.0
  O  O29  1  0.84590623  0.52049148  0.75000000  1.0
  O  O30  1  0.52049148  0.67458524  0.25000000  1.0
  O  O31  1  0.15409377  0.47950852  0.25000000  1.0
  O  O32  1  0.67458524  0.15409377  0.75000000  1.0
  O  O33  1  0.47950852  0.32541476  0.75000000  1.0
  O  O34  1  0.53565238  0.41166179  0.25000000  1.0
  O  O35  1  0.41166179  0.87600941  0.75000000  1.0
  O  O36  1  0.87600941  0.46434762  0.25000000  1.0
  O  O37  1  0.58833821  0.12399059  0.25000000  1.0
  O  O38  1  0.46434762  0.58833821  0.75000000  1.0
  O  O39  1  0.12399059  0.53565238  0.75000000  1.0
  F  F40  1  0.00000000  0.00000000  0.25000000  1.0
  F  F41  1  -0.00000000  -0.00000000  0.75000000  1.0
