# generated using pymatgen
data_KAgAsS2
_symmetry_space_group_name_H-M   'P 1'
_cell_length_a   8.23489798
_cell_length_b   5.30519838
_cell_length_c   11.90474591
_cell_angle_alpha   90.00000000
_cell_angle_beta   97.80919794
_cell_angle_gamma   90.00000000
_symmetry_Int_Tables_number   1
_chemical_formula_structural   KAgAsS2
_chemical_formula_sum   'K4 Ag4 As4 S8'
_cell_volume   515.26846049
_cell_formula_units_Z   4
loop_
 _symmetry_equiv_pos_site_id
 _symmetry_equiv_pos_as_xyz
  1  'x, y, z'
loop_
 _atom_site_type_symbol
 _atom_site_label
 _atom_site_symmetry_multiplicity
 _atom_site_fract_x
 _atom_site_fract_y
 _atom_site_fract_z
 _atom_site_occupancy
  K  K0  1  0.07616469  0.77540026  0.12767709  1.0
  K  K1  1  0.92383531  0.27540026  0.37232291  1.0
  K  K2  1  0.92383531  0.22459974  0.87232291  1.0
  K  K3  1  0.07616469  0.72459974  0.62767709  1.0
  Ag  Ag4  1  0.57478788  0.02549048  0.18933790  1.0
  Ag  Ag5  1  0.42521212  0.52549048  0.31066210  1.0
  Ag  Ag6  1  0.42521212  0.97450952  0.81066210  1.0
  Ag  Ag7  1  0.57478788  0.47450952  0.68933790  1.0
  As  As8  1  0.62086873  0.63324787  0.03788281  1.0
  As  As9  1  0.37913127  0.13324787  0.46211719  1.0
  As  As10  1  0.37913127  0.36675213  0.96211719  1.0
  As  As11  1  0.62086873  0.86675213  0.53788281  1.0
  S  S12  1  0.79580620  0.32527484  0.10786102  1.0
  S  S13  1  0.20419380  0.82527484  0.39213898  1.0
  S  S14  1  0.20419380  0.67472516  0.89213898  1.0
  S  S15  1  0.79580620  0.17472516  0.60786102  1.0
  S  S16  1  0.69374104  0.73327870  0.86418433  1.0
  S  S17  1  0.30625896  0.23327870  0.63581567  1.0
  S  S18  1  0.30625896  0.26672130  0.13581567  1.0
  S  S19  1  0.69374104  0.76672130  0.36418433  1.0
