# generated using pymatgen
data_Ba5Gd8Zn4O21
_symmetry_space_group_name_H-M   'P 1'
_cell_length_a   10.34155900
_cell_length_b   10.34155900
_cell_length_c   10.34155900
_cell_angle_alpha   94.52790782
_cell_angle_beta   94.52790782
_cell_angle_gamma   147.36367622
_symmetry_Int_Tables_number   1
_chemical_formula_structural   Ba5Gd8Zn4O21
_chemical_formula_sum   'Ba5 Gd8 Zn4 O21'
_cell_volume   572.44683831
_cell_formula_units_Z   1
loop_
 _symmetry_equiv_pos_site_id
 _symmetry_equiv_pos_as_xyz
  1  'x, y, z'
loop_
 _atom_site_type_symbol
 _atom_site_label
 _atom_site_symmetry_multiplicity
 _atom_site_fract_x
 _atom_site_fract_y
 _atom_site_fract_z
 _atom_site_occupancy
  Ba  Ba0  1  0.86189674  0.53296332  0.39486006  1.0
  Ba  Ba1  1  0.53296332  0.13810326  0.67106658  1.0
  Ba  Ba2  1  1.13810326  1.46703668  1.60513994  1.0
  Ba  Ba3  1  0.46703668  0.86189674  1.32893342  1.0
  Ba  Ba4  1  0.00000000  0.00000000  0.00000000  1.0
  Gd  Gd5  1  0.75278768  0.83289765  1.58568533  1.0
  Gd  Gd6  1  0.83289765  1.24721232  1.08010996  1.0
  Gd  Gd7  1  0.24721232  0.16710235  0.41431467  1.0
  Gd  Gd8  1  1.16710235  0.75278768  0.91989004  1.0
  Gd  Gd9  1  0.58899934  0.64287747  1.23187681  1.0
  Gd  Gd10  1  0.64287747  1.41100066  1.05387813  1.0
  Gd  Gd11  1  0.41100066  0.35712253  0.76812319  1.0
  Gd  Gd12  1  1.35712253  0.58899934  0.94612187  1.0
  Zn  Zn13  1  0.95897191  0.74693401  0.70590592  1.0
  Zn  Zn14  1  0.74693401  0.04102809  0.78796210  1.0
  Zn  Zn15  1  1.04102809  1.25306599  1.29409408  1.0
  Zn  Zn16  1  0.25306599  0.95897191  1.21203790  1.0
  O  O17  1  1.09842742  0.98644449  0.59336603  1.0
  O  O18  1  0.60692154  0.49493860  0.59336603  1.0
  O  O19  1  0.98644449  0.39307846  0.88801706  1.0
  O  O20  1  1.49493860  0.90157258  0.88801706  1.0
  O  O21  1  1.39307846  1.50506140  1.40663397  1.0
  O  O22  1  0.90157258  1.01355551  1.40663397  1.0
  O  O23  1  0.50506140  1.09842742  1.11198294  1.0
  O  O24  1  1.01355551  1.60692154  1.11198294  1.0
  O  O25  1  1.06951255  1.20138567  1.77455838  1.0
  O  O26  1  1.57317270  1.70504583  1.77455838  1.0
  O  O27  1  1.20138567  1.42682730  1.13187313  1.0
  O  O28  1  0.70504583  0.93048745  1.13187313  1.0
  O  O29  1  0.42682730  0.29495417  0.22544162  1.0
  O  O30  1  0.93048745  0.79861433  0.22544162  1.0
  O  O31  1  1.29495417  1.06951255  0.86812687  1.0
  O  O32  1  0.79861433  0.57317270  0.86812687  1.0
  O  O33  1  0.62575519  0.96596661  1.59172180  1.0
  O  O34  1  0.96596661  1.37424481  1.34021142  1.0
  O  O35  1  0.37424481  0.03403339  0.40827820  1.0
  O  O36  1  1.03403339  0.62575519  0.65978858  1.0
  O  O37  1  0.50000000  0.50000000  0.00000000  1.0
