# generated using pymatgen
data_Rh3S4
_symmetry_space_group_name_H-M   'P 1'
_cell_length_a   7.53993340
_cell_length_b   7.53993340
_cell_length_c   6.30066200
_cell_angle_alpha   77.70345823
_cell_angle_beta   102.29654177
_cell_angle_gamma   87.76366377
_symmetry_Int_Tables_number   1
_chemical_formula_structural   Rh3S4
_chemical_formula_sum   'Rh9 S12'
_cell_volume   340.61140903
_cell_formula_units_Z   3
loop_
 _symmetry_equiv_pos_site_id
 _symmetry_equiv_pos_as_xyz
  1  'x, y, z'
loop_
 _atom_site_type_symbol
 _atom_site_label
 _atom_site_symmetry_multiplicity
 _atom_site_fract_x
 _atom_site_fract_y
 _atom_site_fract_z
 _atom_site_occupancy
  Rh  Rh0  1  0.50838286  -0.21566321  0.95050109  1.0
  Rh  Rh1  1  1.21566321  0.49161714  0.95050109  1.0
  Rh  Rh2  1  0.78433679  -0.49161714  0.04949891  1.0
  Rh  Rh3  1  1.49161714  0.21566321  0.04949891  1.0
  Rh  Rh4  1  0.64995429  -0.64995429  0.44763066  1.0
  Rh  Rh5  1  0.35004571  -0.35004571  0.55236934  1.0
  Rh  Rh6  1  0.83892540  -0.16107460  0.50000000  1.0
  Rh  Rh7  1  1.16107460  0.16107460  0.50000000  1.0
  Rh  Rh8  1  0.00000000  0.00000000  -0.00000000  1.0
  S  S9  1  0.55952650  -0.14195314  0.60118482  1.0
  S  S10  1  1.14195314  0.44047350  0.60118482  1.0
  S  S11  1  0.85804686  -0.44047350  0.39881518  1.0
  S  S12  1  1.44047350  0.14195314  0.39881518  1.0
  S  S13  1  1.28403656  0.03299985  0.88563920  1.0
  S  S14  1  0.96700015  -0.28403656  0.88563920  1.0
  S  S15  1  1.03299985  0.28403656  0.11436080  1.0
  S  S16  1  0.71596344  -0.03299985  0.11436080  1.0
  S  S17  1  0.88283425  -0.88283425  0.61167550  1.0
  S  S18  1  0.11716575  -0.11716575  0.38832450  1.0
  S  S19  1  0.58446696  -0.58446696  0.77381288  1.0
  S  S20  1  0.41553304  -0.41553304  0.22618712  1.0
