# generated using pymatgen
data_Zr(Fe2P)2
_symmetry_space_group_name_H-M   'P 1'
_cell_length_a   6.86958442
_cell_length_b   6.86958442
_cell_length_c   3.64086148
_cell_angle_alpha   90.00000000
_cell_angle_beta   90.00000000
_cell_angle_gamma   90.00000000
_symmetry_Int_Tables_number   1
_chemical_formula_structural   Zr(Fe2P)2
_chemical_formula_sum   'Zr2 Fe8 P4'
_cell_volume   171.81658636
_cell_formula_units_Z   2
loop_
 _symmetry_equiv_pos_site_id
 _symmetry_equiv_pos_as_xyz
  1  'x, y, z'
loop_
 _atom_site_type_symbol
 _atom_site_label
 _atom_site_symmetry_multiplicity
 _atom_site_fract_x
 _atom_site_fract_y
 _atom_site_fract_z
 _atom_site_occupancy
  Zr  Zr0  1  0.50000000  0.50000000  0.50000000  1.0
  Zr  Zr1  1  0.00000000  0.00000000  0.00000000  1.0
  Fe  Fe2  1  0.34160696  0.08617127  0.50000000  1.0
  Fe  Fe3  1  0.84160696  0.41382873  0.00000000  1.0
  Fe  Fe4  1  0.91382873  0.65839304  0.50000000  1.0
  Fe  Fe5  1  0.41382873  0.84160696  0.00000000  1.0
  Fe  Fe6  1  0.65839304  0.91382873  0.50000000  1.0
  Fe  Fe7  1  0.15839304  0.58617127  0.00000000  1.0
  Fe  Fe8  1  0.08617127  0.34160696  0.50000000  1.0
  Fe  Fe9  1  0.58617127  0.15839304  0.00000000  1.0
  P  P10  1  0.21732722  0.78267278  0.50000000  1.0
  P  P11  1  0.71732722  0.71732722  0.00000000  1.0
  P  P12  1  0.78267278  0.21732722  0.50000000  1.0
  P  P13  1  0.28267278  0.28267278  0.00000000  1.0
