# generated using pymatgen
data_Ba2Ge2Se5
_symmetry_space_group_name_H-M   'P 1'
_cell_length_a   12.82219496
_cell_length_b   9.20853575
_cell_length_c   9.38489330
_cell_angle_alpha   90.00000000
_cell_angle_beta   90.00000000
_cell_angle_gamma   90.00000000
_symmetry_Int_Tables_number   1
_chemical_formula_structural   Ba2Ge2Se5
_chemical_formula_sum   'Ba8 Ge8 Se20'
_cell_volume   1108.10852034
_cell_formula_units_Z   4
loop_
 _symmetry_equiv_pos_site_id
 _symmetry_equiv_pos_as_xyz
  1  'x, y, z'
loop_
 _atom_site_type_symbol
 _atom_site_label
 _atom_site_symmetry_multiplicity
 _atom_site_fract_x
 _atom_site_fract_y
 _atom_site_fract_z
 _atom_site_occupancy
  Ba  Ba0  1  0.67784917  0.49596878  0.37612998  1.0
  Ba  Ba1  1  0.67784917  0.00403122  0.37612998  1.0
  Ba  Ba2  1  0.17784917  0.49596878  0.12387002  1.0
  Ba  Ba3  1  0.17784917  0.00403122  0.12387002  1.0
  Ba  Ba4  1  0.32215083  0.99596878  0.62387002  1.0
  Ba  Ba5  1  0.32215083  0.50403122  0.62387002  1.0
  Ba  Ba6  1  0.82215083  0.99596878  0.87612998  1.0
  Ba  Ba7  1  0.82215083  0.50403122  0.87612998  1.0
  Ge  Ge8  1  0.96348743  0.25000000  0.52569261  1.0
  Ge  Ge9  1  0.46348743  0.25000000  0.97430739  1.0
  Ge  Ge10  1  0.03651257  0.75000000  0.47430739  1.0
  Ge  Ge11  1  0.53651257  0.75000000  0.02569261  1.0
  Ge  Ge12  1  0.90307923  0.25000000  0.18329704  1.0
  Ge  Ge13  1  0.40307923  0.25000000  0.31670296  1.0
  Ge  Ge14  1  0.09692077  0.75000000  0.81670296  1.0
  Ge  Ge15  1  0.59692077  0.75000000  0.68329704  1.0
  Se  Se16  1  0.94104242  0.45802133  0.32759474  1.0
  Se  Se17  1  0.94104242  0.04197867  0.32759474  1.0
  Se  Se18  1  0.44104242  0.45802133  0.17240526  1.0
  Se  Se19  1  0.44104242  0.04197867  0.17240526  1.0
  Se  Se20  1  0.05895758  0.95802133  0.67240526  1.0
  Se  Se21  1  0.05895758  0.54197867  0.67240526  1.0
  Se  Se22  1  0.55895758  0.95802133  0.82759474  1.0
  Se  Se23  1  0.55895758  0.54197867  0.82759474  1.0
  Se  Se24  1  0.78232162  0.25000000  0.61800821  1.0
  Se  Se25  1  0.28232162  0.25000000  0.88199179  1.0
  Se  Se26  1  0.21767838  0.75000000  0.38199179  1.0
  Se  Se27  1  0.71767838  0.75000000  0.11800821  1.0
  Se  Se28  1  0.72366043  0.25000000  0.11491519  1.0
  Se  Se29  1  0.22366043  0.25000000  0.38508481  1.0
  Se  Se30  1  0.27633957  0.75000000  0.88508481  1.0
  Se  Se31  1  0.77633957  0.75000000  0.61491519  1.0
  Se  Se32  1  0.50613469  0.25000000  0.52461761  1.0
  Se  Se33  1  0.00613469  0.25000000  0.97538239  1.0
  Se  Se34  1  0.49386531  0.75000000  0.47538239  1.0
  Se  Se35  1  0.99386531  0.75000000  0.02461761  1.0
