# generated using pymatgen
data_Mg2P2O7
_symmetry_space_group_name_H-M   'P 1'
_cell_length_a   7.73690591
_cell_length_b   9.11379761
_cell_length_c   8.34207601
_cell_angle_alpha   90.00000000
_cell_angle_beta   113.60409890
_cell_angle_gamma   90.00000000
_symmetry_Int_Tables_number   1
_chemical_formula_structural   Mg2P2O7
_chemical_formula_sum   'Mg8 P8 O28'
_cell_volume   539.00734067
_cell_formula_units_Z   4
loop_
 _symmetry_equiv_pos_site_id
 _symmetry_equiv_pos_as_xyz
  1  'x, y, z'
loop_
 _atom_site_type_symbol
 _atom_site_label
 _atom_site_symmetry_multiplicity
 _atom_site_fract_x
 _atom_site_fract_y
 _atom_site_fract_z
 _atom_site_occupancy
  Mg  Mg0  1  0.32748278  0.48763266  0.19865562  1.0
  Mg  Mg1  1  0.67251722  -0.01236734  0.30134438  1.0
  Mg  Mg2  1  0.67251722  0.51236734  0.80134438  1.0
  Mg  Mg3  1  0.32748278  1.01236734  0.69865562  1.0
  Mg  Mg4  1  0.21680576  0.97102922  0.28475104  1.0
  Mg  Mg5  1  0.78319424  0.47102922  0.21524896  1.0
  Mg  Mg6  1  0.78319424  0.02897078  0.71524896  1.0
  Mg  Mg7  1  0.21680576  0.52897078  0.78475104  1.0
  P  P8  1  0.58222832  0.19950891  0.96256600  1.0
  P  P9  1  0.41777168  0.69950891  0.53743400  1.0
  P  P10  1  0.41777168  0.80049109  0.03743400  1.0
  P  P11  1  0.58222832  0.30049109  0.46256600  1.0
  P  P12  1  0.17350769  0.21057737  -0.04178740  1.0
  P  P13  1  0.82649231  0.71057737  0.54178740  1.0
  P  P14  1  0.82649231  0.78942263  1.04178740  1.0
  P  P15  1  0.17350769  0.28942263  0.45821260  1.0
  O  O16  1  0.35747099  0.17005400  0.91143898  1.0
  O  O17  1  0.64252901  0.67005400  0.58856102  1.0
  O  O18  1  0.64252901  0.82994600  0.08856102  1.0
  O  O19  1  0.35747099  0.32994600  0.41143898  1.0
  O  O20  1  0.01170883  0.14916529  0.80034725  1.0
  O  O21  1  0.98829117  0.64916529  0.69965275  1.0
  O  O22  1  0.98829117  0.85083471  0.19965275  1.0
  O  O23  1  0.01170883  0.35083471  0.30034725  1.0
  O  O24  1  0.69636259  0.13053379  0.13769410  1.0
  O  O25  1  0.30363741  0.63053379  0.36230590  1.0
  O  O26  1  0.30363741  0.86946621  0.86230590  1.0
  O  O27  1  0.69636259  0.36946621  0.63769410  1.0
  O  O28  1  0.62204835  0.36648784  0.96580311  1.0
  O  O29  1  0.37795165  0.86648784  0.53419689  1.0
  O  O30  1  0.37795165  0.63351216  0.03419689  1.0
  O  O31  1  0.62204835  0.13351216  0.46580311  1.0
  O  O32  1  0.18111207  0.38195340  -0.02820368  1.0
  O  O33  1  0.81888793  0.88195340  0.52820368  1.0
  O  O34  1  0.81888793  0.61804660  1.02820368  1.0
  O  O35  1  0.18111207  0.11804660  0.47179632  1.0
  O  O36  1  0.58842074  0.11904039  0.80116111  1.0
  O  O37  1  0.41157926  0.61904039  0.69883889  1.0
  O  O38  1  0.41157926  0.88095961  0.19883889  1.0
  O  O39  1  0.58842074  0.38095961  0.30116111  1.0
  O  O40  1  0.20364562  0.14001841  0.13098171  1.0
  O  O41  1  0.79635438  0.64001841  0.36901829  1.0
  O  O42  1  0.79635438  0.85998159  0.86901829  1.0
  O  O43  1  0.20364562  0.35998159  0.63098171  1.0
