# generated using pymatgen
data_GdNiO3
_symmetry_space_group_name_H-M   'P 1'
_cell_length_a   5.56193067
_cell_length_b   7.51426789
_cell_length_c   5.28365853
_cell_angle_alpha   90.00000000
_cell_angle_beta   90.00000000
_cell_angle_gamma   90.00000000
_symmetry_Int_Tables_number   1
_chemical_formula_structural   GdNiO3
_chemical_formula_sum   'Gd4 Ni4 O12'
_cell_volume   220.82436335
_cell_formula_units_Z   4
loop_
 _symmetry_equiv_pos_site_id
 _symmetry_equiv_pos_as_xyz
  1  'x, y, z'
loop_
 _atom_site_type_symbol
 _atom_site_label
 _atom_site_symmetry_multiplicity
 _atom_site_fract_x
 _atom_site_fract_y
 _atom_site_fract_z
 _atom_site_occupancy
  Gd  Gd0  1  0.06779439  0.75000000  0.51700522  1.0
  Gd  Gd1  1  0.56779439  0.75000000  0.98299478  1.0
  Gd  Gd2  1  0.93220561  0.25000000  0.48299478  1.0
  Gd  Gd3  1  0.43220561  0.25000000  0.01700522  1.0
  Ni  Ni4  1  0.50000000  0.00000000  0.50000000  1.0
  Ni  Ni5  1  0.50000000  0.50000000  0.50000000  1.0
  Ni  Ni6  1  0.00000000  0.00000000  0.00000000  1.0
  Ni  Ni7  1  0.00000000  0.50000000  0.00000000  1.0
  O  O8  1  0.29856758  0.95311078  0.80024700  1.0
  O  O9  1  0.29856758  0.54688922  0.80024700  1.0
  O  O10  1  0.79856758  0.95311078  0.69975300  1.0
  O  O11  1  0.79856758  0.54688922  0.69975300  1.0
  O  O12  1  0.70143242  0.45311078  0.19975300  1.0
  O  O13  1  0.70143242  0.04688922  0.19975300  1.0
  O  O14  1  0.20143242  0.45311078  0.30024700  1.0
  O  O15  1  0.20143242  0.04688922  0.30024700  1.0
  O  O16  1  0.97594061  0.75000000  0.09206192  1.0
  O  O17  1  0.47594061  0.75000000  0.40793808  1.0
  O  O18  1  0.02405939  0.25000000  0.90793808  1.0
  O  O19  1  0.52405939  0.25000000  0.59206192  1.0
