# generated using pymatgen
data_BaY6Si3B6(O12F)2
_symmetry_space_group_name_H-M   'P 1'
_cell_length_a   10.70762974
_cell_length_b   10.70762974
_cell_length_c   4.74407895
_cell_angle_alpha   90.00000000
_cell_angle_beta   90.00000000
_cell_angle_gamma   120.00000000
_symmetry_Int_Tables_number   1
_chemical_formula_structural   BaY6Si3B6(O12F)2
_chemical_formula_sum   'Ba1 Y6 Si3 B6 O24 F2'
_cell_volume   471.05241091
_cell_formula_units_Z   1
loop_
 _symmetry_equiv_pos_site_id
 _symmetry_equiv_pos_as_xyz
  1  'x, y, z'
loop_
 _atom_site_type_symbol
 _atom_site_label
 _atom_site_symmetry_multiplicity
 _atom_site_fract_x
 _atom_site_fract_y
 _atom_site_fract_z
 _atom_site_occupancy
  Ba  Ba0  1  0.33333333  0.66666667  0.72637513  1.0
  Y  Y1  1  0.11830837  0.88169719  0.78035178  1.0
  Y  Y2  1  0.76338881  0.88169163  0.78035178  1.0
  Y  Y3  1  0.11830281  0.23661119  0.78035178  1.0
  Y  Y4  1  0.54891331  0.45105081  0.73034651  1.0
  Y  Y5  1  0.90213749  0.45108669  0.73034651  1.0
  Y  Y6  1  0.54894919  0.09786251  0.73034651  1.0
  Si  Si7  1  0.84098564  0.68198241  0.33464902  1.0
  Si  Si8  1  0.84099677  0.15901436  0.33464902  1.0
  Si  Si9  1  0.31801759  0.15900323  0.33464902  1.0
  B  B10  1  0.33344279  0.91721147  0.25261959  1.0
  B  B11  1  0.58376868  0.66655721  0.25261959  1.0
  B  B12  1  0.08278853  0.41623132  0.25261959  1.0
  B  B13  1  0.08276248  0.66655179  0.25257937  1.0
  B  B14  1  0.58378931  0.91723752  0.25257937  1.0
  B  B15  1  0.33344821  0.41621069  0.25257937  1.0
  O  O16  1  0.47799692  0.95599658  0.13752360  1.0
  O  O17  1  0.47799966  0.52200308  0.13752360  1.0
  O  O18  1  0.04400342  0.52200034  0.13752360  1.0
  O  O19  1  0.33150721  0.92769865  0.55340669  1.0
  O  O20  1  0.59619145  0.66849279  0.55340669  1.0
  O  O21  1  0.07230135  0.40380855  0.55340669  1.0
  O  O22  1  0.90745505  0.81491622  0.55576693  1.0
  O  O23  1  0.90746117  0.09254495  0.55576693  1.0
  O  O24  1  0.18508378  0.09253883  0.55576693  1.0
  O  O25  1  0.22337214  0.77661134  0.13177297  1.0
  O  O26  1  0.55323920  0.77662786  0.13177297  1.0
  O  O27  1  0.22338866  0.44676080  0.13177297  1.0
  O  O28  1  0.72605492  0.69459098  0.11279163  1.0
  O  O29  1  0.96853605  0.27394508  0.11279163  1.0
  O  O30  1  0.30540902  0.03146395  0.11279163  1.0
  O  O31  1  0.96849163  0.69455760  0.11272009  1.0
  O  O32  1  0.72606597  0.03150837  0.11272009  1.0
  O  O33  1  0.30544240  0.27393403  0.11272009  1.0
  O  O34  1  0.07225035  0.66851866  0.55335482  1.0
  O  O35  1  0.59626830  0.92774965  0.55335482  1.0
  O  O36  1  0.33148134  0.40373170  0.55335482  1.0
  O  O37  1  0.76386315  0.52776110  0.50259653  1.0
  O  O38  1  0.76389796  0.23613685  0.50259653  1.0
  O  O39  1  0.47223890  0.23610204  0.50259653  1.0
  F  F40  1  0.66666667  0.33333333  0.93235753  1.0
  F  F41  1  0.00000000  0.00000000  -0.01307128  1.0
