# generated using pymatgen
data_Tm(FeP3)4
_symmetry_space_group_name_H-M   'P 1'
_cell_length_a   6.74161429
_cell_length_b   6.74161429
_cell_length_c   6.74161429
_cell_angle_alpha   109.47122063
_cell_angle_beta   109.47122063
_cell_angle_gamma   109.47122063
_symmetry_Int_Tables_number   1
_chemical_formula_structural   Tm(FeP3)4
_chemical_formula_sum   'Tm1 Fe4 P12'
_cell_volume   235.86842826
_cell_formula_units_Z   1
loop_
 _symmetry_equiv_pos_site_id
 _symmetry_equiv_pos_as_xyz
  1  'x, y, z'
loop_
 _atom_site_type_symbol
 _atom_site_label
 _atom_site_symmetry_multiplicity
 _atom_site_fract_x
 _atom_site_fract_y
 _atom_site_fract_z
 _atom_site_occupancy
  Tm  Tm0  1  0.00000000  0.00000000  0.00000000  1.0
  Fe  Fe1  1  0.50000000  1.00000000  1.00000000  1.0
  Fe  Fe2  1  0.50000000  0.50000000  0.50000000  1.0
  Fe  Fe3  1  1.00000000  1.00000000  0.50000000  1.0
  Fe  Fe4  1  1.00000000  0.50000000  1.00000000  1.0
  P  P5  1  0.84981651  1.35160743  1.20142394  1.0
  P  P6  1  0.84981651  0.64839257  0.49820908  1.0
  P  P7  1  0.15018349  0.35160743  0.50179092  1.0
  P  P8  1  0.15018349  0.64839257  0.79857606  1.0
  P  P9  1  0.49820908  0.84981651  0.64839257  1.0
  P  P10  1  1.20142394  0.84981651  1.35160743  1.0
  P  P11  1  0.64839257  0.79857606  0.15018349  1.0
  P  P12  1  0.64839257  0.49820908  0.84981651  1.0
  P  P13  1  0.79857606  0.15018349  0.64839257  1.0
  P  P14  1  0.50179092  0.15018349  0.35160743  1.0
  P  P15  1  0.35160743  0.50179092  0.15018349  1.0
  P  P16  1  1.35160743  1.20142394  0.84981651  1.0
