# generated using pymatgen
data_CsGaP3HO10
_symmetry_space_group_name_H-M   'P 1'
_cell_length_a   8.93682436
_cell_length_b   5.06783011
_cell_length_c   12.00185546
_cell_angle_alpha   90.00000000
_cell_angle_beta   117.34989784
_cell_angle_gamma   90.00000000
_symmetry_Int_Tables_number   1
_chemical_formula_structural   CsGaP3HO10
_chemical_formula_sum   'Cs2 Ga2 P6 H2 O20'
_cell_volume   482.80634785
_cell_formula_units_Z   2
loop_
 _symmetry_equiv_pos_site_id
 _symmetry_equiv_pos_as_xyz
  1  'x, y, z'
loop_
 _atom_site_type_symbol
 _atom_site_label
 _atom_site_symmetry_multiplicity
 _atom_site_fract_x
 _atom_site_fract_y
 _atom_site_fract_z
 _atom_site_occupancy
  Cs  Cs0  1  0.50000000  0.99377142  0.25000000  1.0
  Cs  Cs1  1  0.50000000  0.00622858  0.75000000  1.0
  Ga  Ga2  1  -0.00000000  -0.00000000  0.50000000  1.0
  Ga  Ga3  1  0.00000000  -0.00000000  0.00000000  1.0
  P  P4  1  0.77657525  0.49607824  0.50567863  1.0
  P  P5  1  0.77657525  0.50392176  0.00567863  1.0
  P  P6  1  0.22342475  0.49607824  0.99432137  1.0
  P  P7  1  0.22342475  0.50392176  0.49432137  1.0
  P  P8  1  -0.00000000  0.76318158  0.25000000  1.0
  P  P9  1  -0.00000000  0.23681842  0.75000000  1.0
  H  H10  1  0.50000000  0.50000000  0.50000000  1.0
  H  H11  1  0.50000000  0.50000000  0.00000000  1.0
  O  O12  1  0.92192978  0.91601399  0.31870323  1.0
  O  O13  1  0.92192978  0.08398601  0.81870323  1.0
  O  O14  1  0.07807022  0.91601399  0.18129677  1.0
  O  O15  1  0.07807022  0.08398601  0.68129677  1.0
  O  O16  1  0.85184752  0.69078288  0.94483942  1.0
  O  O17  1  0.85184752  0.30921712  0.44483942  1.0
  O  O18  1  0.14815248  0.69078288  0.55516058  1.0
  O  O19  1  0.14815248  0.30921712  0.05516058  1.0
  O  O20  1  0.85576555  0.56836704  0.15602366  1.0
  O  O21  1  0.85576555  0.43163296  0.65602366  1.0
  O  O22  1  0.14423445  0.56836704  0.34397634  1.0
  O  O23  1  0.14423445  0.43163296  0.84397634  1.0
  O  O24  1  0.80904205  0.78950623  0.49560407  1.0
  O  O25  1  0.80904205  0.21049377  0.99560407  1.0
  O  O26  1  0.19095795  0.78950623  0.00439593  1.0
  O  O27  1  0.19095795  0.21049377  0.50439593  1.0
  O  O28  1  0.58561724  0.44387229  0.45040795  1.0
  O  O29  1  0.58561724  0.55612771  0.95040795  1.0
  O  O30  1  0.41438276  0.44387229  0.04959205  1.0
  O  O31  1  0.41438276  0.55612771  0.54959205  1.0
