# generated using pymatgen
data_Ta2Pd3Se8
_symmetry_space_group_name_H-M   'P 1'
_cell_length_a   11.12232374
_cell_length_b   15.55057736
_cell_length_c   3.59974733
_cell_angle_alpha   90.00000000
_cell_angle_beta   90.00000000
_cell_angle_gamma   90.00000000
_symmetry_Int_Tables_number   1
_chemical_formula_structural   Ta2Pd3Se8
_chemical_formula_sum   'Ta4 Pd6 Se16'
_cell_volume   622.60709915
_cell_formula_units_Z   2
loop_
 _symmetry_equiv_pos_site_id
 _symmetry_equiv_pos_as_xyz
  1  'x, y, z'
loop_
 _atom_site_type_symbol
 _atom_site_label
 _atom_site_symmetry_multiplicity
 _atom_site_fract_x
 _atom_site_fract_y
 _atom_site_fract_z
 _atom_site_occupancy
  Ta  Ta0  1  0.30357703  0.62428599  0.50000000  1.0
  Ta  Ta1  1  0.80357703  0.87571401  0.50000000  1.0
  Ta  Ta2  1  0.69642297  0.37571401  0.50000000  1.0
  Ta  Ta3  1  0.19642297  0.12428599  0.50000000  1.0
  Pd  Pd4  1  0.50000000  0.50000000  0.00000000  1.0
  Pd  Pd5  1  0.00000000  0.00000000  -0.00000000  1.0
  Pd  Pd6  1  0.14589925  0.72426894  0.00000000  1.0
  Pd  Pd7  1  0.64589925  0.77573106  0.00000000  1.0
  Pd  Pd8  1  0.85410075  0.27573106  0.00000000  1.0
  Pd  Pd9  1  0.35410075  0.22426894  0.00000000  1.0
  Se  Se10  1  0.27338745  0.78787710  0.50000000  1.0
  Se  Se11  1  0.77338745  0.71212290  0.50000000  1.0
  Se  Se12  1  0.72661255  0.21212290  0.50000000  1.0
  Se  Se13  1  0.22661255  0.28787710  0.50000000  1.0
  Se  Se14  1  0.07228582  0.62664268  0.50000000  1.0
  Se  Se15  1  0.57228582  0.87335732  0.50000000  1.0
  Se  Se16  1  0.92771418  0.37335732  0.50000000  1.0
  Se  Se17  1  0.42771418  0.12664268  0.50000000  1.0
  Se  Se18  1  0.47168792  0.65701368  -0.00000000  1.0
  Se  Se19  1  0.97168792  0.84298632  -0.00000000  1.0
  Se  Se20  1  0.52831208  0.34298632  0.00000000  1.0
  Se  Se21  1  0.02831208  0.15701368  -0.00000000  1.0
  Se  Se22  1  0.22186059  1.00223165  0.00000000  1.0
  Se  Se23  1  0.72186059  0.49776835  -0.00000000  1.0
  Se  Se24  1  0.77813941  -0.00223165  0.00000000  1.0
  Se  Se25  1  0.27813941  0.50223165  -0.00000000  1.0
