# generated using pymatgen
data_Na4Al3Ge3B(HO3)4
_symmetry_space_group_name_H-M   'P 1'
_cell_length_a   9.13182253
_cell_length_b   9.13182253
_cell_length_c   9.13182253
_cell_angle_alpha   90.00000000
_cell_angle_beta   90.00000000
_cell_angle_gamma   90.00000000
_symmetry_Int_Tables_number   1
_chemical_formula_structural   Na4Al3Ge3B(HO3)4
_chemical_formula_sum   'Na8 Al6 Ge6 B2 H8 O24'
_cell_volume   761.50434946
_cell_formula_units_Z   2
loop_
 _symmetry_equiv_pos_site_id
 _symmetry_equiv_pos_as_xyz
  1  'x, y, z'
loop_
 _atom_site_type_symbol
 _atom_site_label
 _atom_site_symmetry_multiplicity
 _atom_site_fract_x
 _atom_site_fract_y
 _atom_site_fract_z
 _atom_site_occupancy
  Na  Na0  1  0.32882671  0.32882671  0.67117329  1.0
  Na  Na1  1  0.32882671  0.67117329  0.32882671  1.0
  Na  Na2  1  0.82882671  0.82882671  0.17117329  1.0
  Na  Na3  1  0.82882671  0.17117329  0.82882671  1.0
  Na  Na4  1  0.67117329  0.32882671  0.32882671  1.0
  Na  Na5  1  0.67117329  0.67117329  0.67117329  1.0
  Na  Na6  1  0.17117329  0.82882671  0.82882671  1.0
  Na  Na7  1  0.17117329  0.17117329  0.17117329  1.0
  Al  Al8  1  0.25000000  0.00000000  0.50000000  1.0
  Al  Al9  1  0.75000000  0.00000000  0.50000000  1.0
  Al  Al10  1  0.50000000  0.25000000  0.00000000  1.0
  Al  Al11  1  0.50000000  0.75000000  0.00000000  1.0
  Al  Al12  1  0.00000000  0.50000000  0.25000000  1.0
  Al  Al13  1  0.00000000  0.50000000  0.75000000  1.0
  Ge  Ge14  1  0.25000000  0.50000000  0.00000000  1.0
  Ge  Ge15  1  0.75000000  0.50000000  0.00000000  1.0
  Ge  Ge16  1  0.00000000  0.25000000  0.50000000  1.0
  Ge  Ge17  1  0.00000000  0.75000000  0.50000000  1.0
  Ge  Ge18  1  0.50000000  0.00000000  0.25000000  1.0
  Ge  Ge19  1  0.50000000  0.00000000  0.75000000  1.0
  B  B20  1  0.50000000  0.50000000  0.50000000  1.0
  B  B21  1  0.00000000  0.00000000  0.00000000  1.0
  H  H22  1  0.07766040  0.07766040  0.92233960  1.0
  H  H23  1  0.07766040  0.92233960  0.07766040  1.0
  H  H24  1  0.57766040  0.57766040  0.42233960  1.0
  H  H25  1  0.57766040  0.42233960  0.57766040  1.0
  H  H26  1  0.92233960  0.07766040  0.07766040  1.0
  H  H27  1  0.92233960  0.92233960  0.92233960  1.0
  H  H28  1  0.42233960  0.57766040  0.57766040  1.0
  H  H29  1  0.42233960  0.42233960  0.42233960  1.0
  O  O30  1  0.35694160  0.07495225  0.64350486  1.0
  O  O31  1  0.35694160  0.92504775  0.35649514  1.0
  O  O32  1  0.85694160  0.85649514  0.42504775  1.0
  O  O33  1  0.85694160  0.14350486  0.57495225  1.0
  O  O34  1  0.35649514  0.35694160  0.92504775  1.0
  O  O35  1  0.35649514  0.64305840  0.07495225  1.0
  O  O36  1  0.85649514  0.57495225  0.14305840  1.0
  O  O37  1  0.85649514  0.42504775  0.85694160  1.0
  O  O38  1  0.07495225  0.35649514  0.64305840  1.0
  O  O39  1  0.07495225  0.64350486  0.35694160  1.0
  O  O40  1  0.57495225  0.85694160  0.14350486  1.0
  O  O41  1  0.57495225  0.14305840  0.85649514  1.0
  O  O42  1  0.64305840  0.07495225  0.35649514  1.0
  O  O43  1  0.64305840  0.92504775  0.64350486  1.0
  O  O44  1  0.14305840  0.85649514  0.57495225  1.0
  O  O45  1  0.14305840  0.14350486  0.42504775  1.0
  O  O46  1  0.64350486  0.35694160  0.07495225  1.0
  O  O47  1  0.64350486  0.64305840  0.92504775  1.0
  O  O48  1  0.14350486  0.57495225  0.85694160  1.0
  O  O49  1  0.14350486  0.42504775  0.14305840  1.0
  O  O50  1  0.92504775  0.35649514  0.35694160  1.0
  O  O51  1  0.92504775  0.64350486  0.64305840  1.0
  O  O52  1  0.42504775  0.85694160  0.85649514  1.0
  O  O53  1  0.42504775  0.14305840  0.14350486  1.0
