# generated using pymatgen
data_Gd2MgNi2
_symmetry_space_group_name_H-M   'P 1'
_cell_length_a   7.41573181
_cell_length_b   7.41573181
_cell_length_c   3.77303230
_cell_angle_alpha   90.00000000
_cell_angle_beta   90.00000000
_cell_angle_gamma   90.00000000
_symmetry_Int_Tables_number   1
_chemical_formula_structural   Gd2MgNi2
_chemical_formula_sum   'Gd4 Mg2 Ni4'
_cell_volume   207.49066042
_cell_formula_units_Z   2
loop_
 _symmetry_equiv_pos_site_id
 _symmetry_equiv_pos_as_xyz
  1  'x, y, z'
loop_
 _atom_site_type_symbol
 _atom_site_label
 _atom_site_symmetry_multiplicity
 _atom_site_fract_x
 _atom_site_fract_y
 _atom_site_fract_z
 _atom_site_occupancy
  Gd  Gd0  1  0.32749891  0.17250109  0.50000000  1.0
  Gd  Gd1  1  0.82749891  0.32749891  0.50000000  1.0
  Gd  Gd2  1  0.67250109  0.82749891  0.50000000  1.0
  Gd  Gd3  1  0.17250109  0.67250109  0.50000000  1.0
  Mg  Mg4  1  0.50000000  0.50000000  0.00000000  1.0
  Mg  Mg5  1  0.00000000  0.00000000  0.00000000  1.0
  Ni  Ni6  1  0.87903597  0.62096403  0.00000000  1.0
  Ni  Ni7  1  0.37903597  0.87903597  0.00000000  1.0
  Ni  Ni8  1  0.12096403  0.37903597  0.00000000  1.0
  Ni  Ni9  1  0.62096403  0.12096403  0.00000000  1.0
