# generated using pymatgen
data_ZrRh
_symmetry_space_group_name_H-M   'P 1'
_cell_length_a   3.23875210
_cell_length_b   4.47072484
_cell_length_c   5.28910538
_cell_angle_alpha   90.00000000
_cell_angle_beta   107.84695154
_cell_angle_gamma   90.00000000
_symmetry_Int_Tables_number   1
_chemical_formula_structural   ZrRh
_chemical_formula_sum   'Zr2 Rh2'
_cell_volume   72.89863851
_cell_formula_units_Z   2
loop_
 _symmetry_equiv_pos_site_id
 _symmetry_equiv_pos_as_xyz
  1  'x, y, z'
loop_
 _atom_site_type_symbol
 _atom_site_label
 _atom_site_symmetry_multiplicity
 _atom_site_fract_x
 _atom_site_fract_y
 _atom_site_fract_z
 _atom_site_occupancy
  Zr  Zr0  1  0.64089583  0.75000000  0.28161623  1.0
  Zr  Zr1  1  0.35910417  0.25000000  0.71838377  1.0
  Rh  Rh2  1  0.90698855  0.75000000  0.81403405  1.0
  Rh  Rh3  1  0.09301145  0.25000000  0.18596595  1.0
