# generated using pymatgen
data_NaP5
_symmetry_space_group_name_H-M   'P 1'
_cell_length_a   11.00433978
_cell_length_b   6.56249955
_cell_length_c   7.14249119
_cell_angle_alpha   90.00000000
_cell_angle_beta   90.00000000
_cell_angle_gamma   90.00000000
_symmetry_Int_Tables_number   1
_chemical_formula_structural   NaP5
_chemical_formula_sum   'Na4 P20'
_cell_volume   515.80196437
_cell_formula_units_Z   4
loop_
 _symmetry_equiv_pos_site_id
 _symmetry_equiv_pos_as_xyz
  1  'x, y, z'
loop_
 _atom_site_type_symbol
 _atom_site_label
 _atom_site_symmetry_multiplicity
 _atom_site_fract_x
 _atom_site_fract_y
 _atom_site_fract_z
 _atom_site_occupancy
  Na  Na0  1  0.07445080  0.75000000  0.59694859  1.0
  Na  Na1  1  0.57445080  0.75000000  0.90305141  1.0
  Na  Na2  1  0.92554920  0.25000000  0.40305141  1.0
  Na  Na3  1  0.42554920  0.25000000  0.09694859  1.0
  P  P4  1  0.41790183  0.98619716  0.59292104  1.0
  P  P5  1  0.41790183  0.51380284  0.59292104  1.0
  P  P6  1  0.91790183  0.98619716  0.90707896  1.0
  P  P7  1  0.91790183  0.51380284  0.90707896  1.0
  P  P8  1  0.58209817  0.48619716  0.40707896  1.0
  P  P9  1  0.58209817  0.01380284  0.40707896  1.0
  P  P10  1  0.08209817  0.48619716  0.09292104  1.0
  P  P11  1  0.08209817  0.01380284  0.09292104  1.0
  P  P12  1  0.36112330  0.75000000  0.13606379  1.0
  P  P13  1  0.86112330  0.75000000  0.36393621  1.0
  P  P14  1  0.63887670  0.25000000  0.86393621  1.0
  P  P15  1  0.13887670  0.25000000  0.63606379  1.0
  P  P16  1  0.19039341  0.75000000  0.98136757  1.0
  P  P17  1  0.69039341  0.75000000  0.51863243  1.0
  P  P18  1  0.80960659  0.25000000  0.01863243  1.0
  P  P19  1  0.30960659  0.25000000  0.48136757  1.0
  P  P20  1  0.81298009  0.75000000  0.06600212  1.0
  P  P21  1  0.31298009  0.75000000  0.43399788  1.0
  P  P22  1  0.18701991  0.25000000  0.93399788  1.0
  P  P23  1  0.68701991  0.25000000  0.56600212  1.0
