# generated using pymatgen
data_Co2Mo3O8
_symmetry_space_group_name_H-M   'P 1'
_cell_length_a   5.79286443
_cell_length_b   5.79286443
_cell_length_c   9.90795069
_cell_angle_alpha   90.00000000
_cell_angle_beta   90.00000000
_cell_angle_gamma   120.00000000
_symmetry_Int_Tables_number   1
_chemical_formula_structural   Co2Mo3O8
_chemical_formula_sum   'Co4 Mo6 O16'
_cell_volume   287.93946741
_cell_formula_units_Z   2
loop_
 _symmetry_equiv_pos_site_id
 _symmetry_equiv_pos_as_xyz
  1  'x, y, z'
loop_
 _atom_site_type_symbol
 _atom_site_label
 _atom_site_symmetry_multiplicity
 _atom_site_fract_x
 _atom_site_fract_y
 _atom_site_fract_z
 _atom_site_occupancy
  Co  Co0  1  0.33333333  0.66666667  0.62756732  1.0
  Co  Co1  1  0.66666667  0.33333333  0.12756732  1.0
  Co  Co2  1  0.33333333  0.66666667  0.05928036  1.0
  Co  Co3  1  0.66666667  0.33333333  0.55928036  1.0
  O  O4  1  0.33839832  0.16919916  0.24342708  1.0
  O  O5  1  0.16919916  0.33839832  0.74342708  1.0
  O  O6  1  0.16919916  0.83080084  0.74342708  1.0
  O  O7  1  0.83080084  0.16919916  0.24342708  1.0
  O  O8  1  0.83080084  0.66160168  0.24342708  1.0
  O  O9  1  0.66160168  0.83080084  0.74342708  1.0
  O  O10  1  0.33333333  0.66666667  0.25475183  1.0
  O  O11  1  0.66666667  0.33333333  0.75475183  1.0
  O  O12  1  0.00000000  0.00000000  0.00231403  1.0
  O  O13  1  0.00000000  -0.00000000  0.50231403  1.0
  O  O14  1  0.02179437  0.51089719  0.47858851  1.0
  O  O15  1  0.51089719  0.02179437  0.97858851  1.0
  O  O16  1  0.51089719  0.48910281  0.97858851  1.0
  O  O17  1  0.48910281  0.51089719  0.47858851  1.0
  O  O18  1  0.48910281  0.97820563  0.47858851  1.0
  O  O19  1  0.97820563  0.48910281  0.97858851  1.0
  Mo  Mo20  1  0.70850325  0.85425162  0.36047990  1.0
  Mo  Mo21  1  0.85425162  0.70850325  0.86047990  1.0
  Mo  Mo22  1  0.85425162  0.14574838  0.86047990  1.0
  Mo  Mo23  1  0.14574838  0.85425162  0.36047990  1.0
  Mo  Mo24  1  0.14574838  0.29149675  0.36047990  1.0
  Mo  Mo25  1  0.29149675  0.14574838  0.86047990  1.0
