# generated using pymatgen
data_Cs4P2PdSe8
_symmetry_space_group_name_H-M   'P 1'
_cell_length_a   7.66455308
_cell_length_b   13.92049809
_cell_length_c   10.47082704
_cell_angle_alpha   90.00000000
_cell_angle_beta   94.51079135
_cell_angle_gamma   90.00000000
_symmetry_Int_Tables_number   1
_chemical_formula_structural   Cs4P2PdSe8
_chemical_formula_sum   'Cs8 P4 Pd2 Se16'
_cell_volume   1113.71815463
_cell_formula_units_Z   2
loop_
 _symmetry_equiv_pos_site_id
 _symmetry_equiv_pos_as_xyz
  1  'x, y, z'
loop_
 _atom_site_type_symbol
 _atom_site_label
 _atom_site_symmetry_multiplicity
 _atom_site_fract_x
 _atom_site_fract_y
 _atom_site_fract_z
 _atom_site_occupancy
  Cs  Cs0  1  0.22596433  0.14706511  0.02974346  1.0
  Cs  Cs1  1  0.77403567  0.64706511  0.47025654  1.0
  Cs  Cs2  1  0.77403567  0.85293489  0.97025654  1.0
  Cs  Cs3  1  0.22596433  0.35293489  0.52974346  1.0
  Cs  Cs4  1  0.67597979  0.37148037  0.16642431  1.0
  Cs  Cs5  1  0.32402021  0.87148037  0.33357569  1.0
  Cs  Cs6  1  0.32402021  0.62851963  0.83357569  1.0
  Cs  Cs7  1  0.67597979  0.12851963  0.66642431  1.0
  P  P8  1  0.73915797  0.08329614  0.25659317  1.0
  P  P9  1  0.26084203  0.58329614  0.24340683  1.0
  P  P10  1  0.26084203  0.91670386  0.74340683  1.0
  P  P11  1  0.73915797  0.41670386  0.75659317  1.0
  Pd  Pd12  1  0.00000000  0.50000000  0.00000000  1.0
  Pd  Pd13  1  0.00000000  0.00000000  0.50000000  1.0
  Se  Se14  1  0.74153272  0.11076509  0.05131274  1.0
  Se  Se15  1  0.25846728  0.61076509  0.44868726  1.0
  Se  Se16  1  0.25846728  0.88923491  0.94868726  1.0
  Se  Se17  1  0.74153272  0.38923491  0.55131274  1.0
  Se  Se18  1  0.19209950  0.43013414  0.17870041  1.0
  Se  Se19  1  0.80790050  0.93013414  0.32129959  1.0
  Se  Se20  1  0.80790050  0.56986586  0.82129959  1.0
  Se  Se21  1  0.19209950  0.06986586  0.67870041  1.0
  Se  Se22  1  0.98008416  0.35383457  0.86714300  1.0
  Se  Se23  1  0.01991584  0.85383457  0.63285700  1.0
  Se  Se24  1  0.01991584  0.64616543  0.13285700  1.0
  Se  Se25  1  0.98008416  0.14616543  0.36714300  1.0
  Se  Se26  1  0.49351395  0.13170956  0.32963377  1.0
  Se  Se27  1  0.50648605  0.63170956  0.17036623  1.0
  Se  Se28  1  0.50648605  0.86829044  0.67036623  1.0
  Se  Se29  1  0.49351395  0.36829044  0.82963377  1.0
