# generated using pymatgen
data_LuGeRh
_symmetry_space_group_name_H-M   'P 1'
_cell_length_a   6.78358491
_cell_length_b   4.25354994
_cell_length_c   7.54077172
_cell_angle_alpha   90.00000000
_cell_angle_beta   90.00000000
_cell_angle_gamma   90.00000000
_symmetry_Int_Tables_number   1
_chemical_formula_structural   LuGeRh
_chemical_formula_sum   'Lu4 Ge4 Rh4'
_cell_volume   217.58381888
_cell_formula_units_Z   4
loop_
 _symmetry_equiv_pos_site_id
 _symmetry_equiv_pos_as_xyz
  1  'x, y, z'
loop_
 _atom_site_type_symbol
 _atom_site_label
 _atom_site_symmetry_multiplicity
 _atom_site_fract_x
 _atom_site_fract_y
 _atom_site_fract_z
 _atom_site_occupancy
  Lu  Lu0  1  0.99357697  0.75000000  0.69436630  1.0
  Lu  Lu1  1  0.49357697  0.75000000  0.80563370  1.0
  Lu  Lu2  1  0.00642303  0.25000000  0.30563370  1.0
  Lu  Lu3  1  0.50642303  0.25000000  0.19436630  1.0
  Ge  Ge4  1  0.71511865  0.75000000  0.39117212  1.0
  Ge  Ge5  1  0.21511865  0.75000000  0.10882788  1.0
  Ge  Ge6  1  0.28488135  0.25000000  0.60882788  1.0
  Ge  Ge7  1  0.78488135  0.25000000  0.89117212  1.0
  Rh  Rh8  1  0.84306844  0.75000000  0.06539766  1.0
  Rh  Rh9  1  0.34306844  0.75000000  0.43460234  1.0
  Rh  Rh10  1  0.15693156  0.25000000  0.93460234  1.0
  Rh  Rh11  1  0.65693156  0.25000000  0.56539766  1.0
