# generated using pymatgen
data_KNaGeF6
_symmetry_space_group_name_H-M   'P 1'
_cell_length_a   9.87660473
_cell_length_b   9.94386965
_cell_length_c   5.73343514
_cell_angle_alpha   90.00000000
_cell_angle_beta   90.00000000
_cell_angle_gamma   90.00000000
_symmetry_Int_Tables_number   1
_chemical_formula_structural   KNaGeF6
_chemical_formula_sum   'K4 Na4 Ge4 F24'
_cell_volume   563.09024026
_cell_formula_units_Z   4
loop_
 _symmetry_equiv_pos_site_id
 _symmetry_equiv_pos_as_xyz
  1  'x, y, z'
loop_
 _atom_site_type_symbol
 _atom_site_label
 _atom_site_symmetry_multiplicity
 _atom_site_fract_x
 _atom_site_fract_y
 _atom_site_fract_z
 _atom_site_occupancy
  K  K0  1  0.48500886  0.67150990  0.01405502  1.0
  K  K1  1  0.98500886  0.82849010  0.01405502  1.0
  K  K2  1  0.51499114  0.32849010  0.51405502  1.0
  K  K3  1  0.01499114  0.17150990  0.51405502  1.0
  Na  Na4  1  0.37242402  0.95868727  0.51403043  1.0
  Na  Na5  1  0.87242402  0.54131273  0.51403043  1.0
  Na  Na6  1  0.62757598  0.04131273  0.01403043  1.0
  Na  Na7  1  0.12757598  0.45868727  0.01403043  1.0
  Ge  Ge8  1  0.22842505  0.58394002  0.51412497  1.0
  Ge  Ge9  1  0.72842505  0.91605998  0.51412497  1.0
  Ge  Ge10  1  0.77157495  0.41605998  0.01412497  1.0
  Ge  Ge11  1  0.27157495  0.08394002  0.01412497  1.0
  F  F12  1  0.37628825  0.15711363  0.78475935  1.0
  F  F13  1  0.87628825  0.34288637  0.78475935  1.0
  F  F14  1  0.62371175  0.84288637  0.28475935  1.0
  F  F15  1  0.12371175  0.65711363  0.28475935  1.0
  F  F16  1  0.38988743  0.93928052  0.01430920  1.0
  F  F17  1  0.88988743  0.56071948  0.01430920  1.0
  F  F18  1  0.61011257  0.06071948  0.51430920  1.0
  F  F19  1  0.11011257  0.43928052  0.51430920  1.0
  F  F20  1  0.34372027  0.72695200  0.51400674  1.0
  F  F21  1  0.84372027  0.77304800  0.51400674  1.0
  F  F22  1  0.65627973  0.27304800  0.01400674  1.0
  F  F23  1  0.15627973  0.22695200  0.01400674  1.0
  F  F24  1  0.32871019  0.50021394  0.74145343  1.0
  F  F25  1  0.82871019  0.99978606  0.74145343  1.0
  F  F26  1  0.67128981  0.49978606  0.24145343  1.0
  F  F27  1  0.17128981  0.00021394  0.24145343  1.0
  F  F28  1  0.17164028  1.00029377  0.78626878  1.0
  F  F29  1  0.67164028  0.49970623  0.78626878  1.0
  F  F30  1  0.82835972  -0.00029377  0.28626878  1.0
  F  F31  1  0.32835972  0.50029377  0.28626878  1.0
  F  F32  1  0.12410059  0.65704618  0.74409207  1.0
  F  F33  1  0.62410059  0.84295382  0.74409207  1.0
  F  F34  1  0.87589941  0.34295382  0.24409207  1.0
  F  F35  1  0.37589941  0.15704618  0.24409207  1.0
