# generated using pymatgen
data_Bi14Te13S8
_symmetry_space_group_name_H-M   'P 1'
_cell_length_a   12.41512462
_cell_length_b   12.41512462
_cell_length_c   12.41512462
_cell_angle_alpha   54.18389017
_cell_angle_beta   54.18389017
_cell_angle_gamma   54.18389017
_symmetry_Int_Tables_number   1
_chemical_formula_structural   Bi14Te13S8
_chemical_formula_sum   'Bi14 Te13 S8'
_cell_volume   1169.42937847
_cell_formula_units_Z   1
loop_
 _symmetry_equiv_pos_site_id
 _symmetry_equiv_pos_as_xyz
  1  'x, y, z'
loop_
 _atom_site_type_symbol
 _atom_site_label
 _atom_site_symmetry_multiplicity
 _atom_site_fract_x
 _atom_site_fract_y
 _atom_site_fract_z
 _atom_site_occupancy
  Bi  Bi0  1  0.32270114  1.04895372  -0.53516638  1.0
  Bi  Bi1  1  0.53516638  -0.32270114  -0.04895372  1.0
  Bi  Bi2  1  0.95104628  -0.46483362  -0.32270114  1.0
  Bi  Bi3  1  0.67729886  -0.04895372  -0.46483362  1.0
  Bi  Bi4  1  0.46483362  0.32270114  0.04895372  1.0
  Bi  Bi5  1  1.04895372  0.46483362  -0.67729886  1.0
  Bi  Bi6  1  0.11213340  0.81233869  -0.74466582  1.0
  Bi  Bi7  1  0.74466582  -0.11213340  0.18766131  1.0
  Bi  Bi8  1  1.18766131  -0.25533418  -0.11213340  1.0
  Bi  Bi9  1  0.88786660  0.18766131  -0.25533418  1.0
  Bi  Bi10  1  0.25533418  0.11213340  -0.18766131  1.0
  Bi  Bi11  1  0.81233869  0.25533418  -0.88786660  1.0
  Bi  Bi12  1  0.39119256  0.39119256  -0.60880744  1.0
  Bi  Bi13  1  0.60880744  0.60880744  -0.39119256  1.0
  Te  Te14  1  0.51003194  0.20595385  -0.37100583  1.0
  Te  Te15  1  0.37100583  0.48996806  -0.20595385  1.0
  Te  Te16  1  0.79404615  0.37100583  -0.51003194  1.0
  Te  Te17  1  0.48996806  0.79404615  -0.62899417  1.0
  Te  Te18  1  0.62899417  0.51003194  -0.79404615  1.0
  Te  Te19  1  0.20595385  0.62899417  -0.48996806  1.0
  Te  Te20  1  0.35635534  -0.07678697  0.06153443  1.0
  Te  Te21  1  0.93846557  -0.35635534  0.07678697  1.0
  Te  Te22  1  1.07678697  -0.06153443  -0.35635534  1.0
  Te  Te23  1  0.64364466  0.07678697  -0.06153443  1.0
  Te  Te24  1  1.06153443  -0.64364466  -0.07678697  1.0
  Te  Te25  1  0.92321303  0.06153443  -0.64364466  1.0
  Te  Te26  1  -0.00000000  0.00000000  0.00000000  1.0
  S  S27  1  0.57161649  0.13980260  0.29112551  1.0
  S  S28  1  0.70887449  -0.57161649  -0.13980260  1.0
  S  S29  1  0.86019740  -0.29112551  -0.57161649  1.0
  S  S30  1  0.42838351  -0.13980260  -0.29112551  1.0
  S  S31  1  1.29112551  -0.42838351  0.13980260  1.0
  S  S32  1  1.13980260  0.29112551  -0.42838351  1.0
  S  S33  1  0.23564165  0.23564165  0.23564165  1.0
  S  S34  1  0.76435835  -0.23564165  -0.23564165  1.0
