# generated using pymatgen
data_Na2FeCl4
_symmetry_space_group_name_H-M   'P 1'
_cell_length_a   6.91370035
_cell_length_b   11.85986492
_cell_length_c   3.86740827
_cell_angle_alpha   90.00000000
_cell_angle_beta   90.00000000
_cell_angle_gamma   90.00000000
_symmetry_Int_Tables_number   1
_chemical_formula_structural   Na2FeCl4
_chemical_formula_sum   'Na4 Fe2 Cl8'
_cell_volume   317.11027706
_cell_formula_units_Z   2
loop_
 _symmetry_equiv_pos_site_id
 _symmetry_equiv_pos_as_xyz
  1  'x, y, z'
loop_
 _atom_site_type_symbol
 _atom_site_label
 _atom_site_symmetry_multiplicity
 _atom_site_fract_x
 _atom_site_fract_y
 _atom_site_fract_z
 _atom_site_occupancy
  Na  Na0  1  0.41673945  0.82295798  0.50000000  1.0
  Na  Na1  1  0.91673945  0.67704202  0.50000000  1.0
  Na  Na2  1  0.58326055  0.17704202  0.50000000  1.0
  Na  Na3  1  0.08326055  0.32295798  0.50000000  1.0
  Fe  Fe4  1  0.50000000  0.50000000  0.00000000  1.0
  Fe  Fe5  1  0.00000000  0.00000000  0.00000000  1.0
  Cl  Cl6  1  0.11897318  0.80783959  0.00000000  1.0
  Cl  Cl7  1  0.61897318  0.69216041  0.00000000  1.0
  Cl  Cl8  1  0.88102682  0.19216041  0.00000000  1.0
  Cl  Cl9  1  0.38102682  0.30783959  0.00000000  1.0
  Cl  Cl10  1  0.26909869  0.54465444  0.50000000  1.0
  Cl  Cl11  1  0.76909869  0.95534556  0.50000000  1.0
  Cl  Cl12  1  0.73090131  0.45534556  0.50000000  1.0
  Cl  Cl13  1  0.23090131  0.04465444  0.50000000  1.0
