# generated using pymatgen
data_Sr6Li23
_symmetry_space_group_name_H-M   'P 1'
_cell_length_a   10.44397517
_cell_length_b   10.44397517
_cell_length_c   10.44397517
_cell_angle_alpha   60.00000000
_cell_angle_beta   60.00000000
_cell_angle_gamma   60.00000000
_symmetry_Int_Tables_number   1
_chemical_formula_structural   Sr6Li23
_chemical_formula_sum   'Sr6 Li23'
_cell_volume   805.53143661
_cell_formula_units_Z   1
loop_
 _symmetry_equiv_pos_site_id
 _symmetry_equiv_pos_as_xyz
  1  'x, y, z'
loop_
 _atom_site_type_symbol
 _atom_site_label
 _atom_site_symmetry_multiplicity
 _atom_site_fract_x
 _atom_site_fract_y
 _atom_site_fract_z
 _atom_site_occupancy
  Sr  Sr0  1  -0.70619270  0.70619270  0.70619270  1.0
  Sr  Sr1  1  -0.29380730  0.29380730  0.70619270  1.0
  Sr  Sr2  1  0.70619270  0.70619270  -0.70619270  1.0
  Sr  Sr3  1  0.29380730  1.29380730  -0.29380730  1.0
  Sr  Sr4  1  0.29380730  -0.29380730  1.29380730  1.0
  Sr  Sr5  1  -0.29380730  0.29380730  0.29380730  1.0
  Li  Li6  1  0.00000000  0.00000000  0.00000000  1.0
  Li  Li7  1  0.87813918  0.87813918  -0.12186082  1.0
  Li  Li8  1  1.12186082  0.12186082  0.63441754  1.0
  Li  Li9  1  1.12186082  0.63441754  0.12186082  1.0
  Li  Li10  1  0.36558246  0.87813918  -0.12186082  1.0
  Li  Li11  1  1.63441754  0.12186082  0.12186082  1.0
  Li  Li12  1  0.87813918  0.36558246  -0.12186082  1.0
  Li  Li13  1  0.87813918  0.87813918  -0.63441754  1.0
  Li  Li14  1  1.12186082  0.12186082  0.12186082  1.0
  Li  Li15  1  0.67773336  0.67773336  -0.32226664  1.0
  Li  Li16  1  0.32226664  1.32226664  0.03320008  1.0
  Li  Li17  1  1.32226664  0.03320008  0.32226664  1.0
  Li  Li18  1  0.96679992  0.67773336  0.67773336  1.0
  Li  Li19  1  0.03320008  1.32226664  0.32226664  1.0
  Li  Li20  1  0.67773336  0.96679992  -0.32226664  1.0
  Li  Li21  1  0.67773336  0.67773336  0.96679992  1.0
  Li  Li22  1  1.32226664  0.32226664  0.32226664  1.0
  Li  Li23  1  1.50000000  0.00000000  -0.00000000  1.0
  Li  Li24  1  1.00000000  0.50000000  -0.50000000  1.0
  Li  Li25  1  0.00000000  1.50000000  -0.00000000  1.0
  Li  Li26  1  0.50000000  1.00000000  -0.50000000  1.0
  Li  Li27  1  -0.00000000  -0.00000000  0.50000000  1.0
  Li  Li28  1  0.50000000  -0.50000000  1.00000000  1.0
