# generated using pymatgen
data_Al2SiO5
_symmetry_space_group_name_H-M   'P 1'
_cell_length_a   5.63963432
_cell_length_b   7.94111334
_cell_length_c   7.20909868
_cell_angle_alpha   106.00900816
_cell_angle_beta   101.12921762
_cell_angle_gamma   89.91411654
_symmetry_Int_Tables_number   1
_chemical_formula_structural   Al2SiO5
_chemical_formula_sum   'Al8 Si4 O20'
_cell_volume   304.04372933
_cell_formula_units_Z   4
loop_
 _symmetry_equiv_pos_site_id
 _symmetry_equiv_pos_as_xyz
  1  'x, y, z'
loop_
 _atom_site_type_symbol
 _atom_site_label
 _atom_site_symmetry_multiplicity
 _atom_site_fract_x
 _atom_site_fract_y
 _atom_site_fract_z
 _atom_site_occupancy
  Al  Al0  1  -0.95806801  -0.20402498  -0.82501103  1.0
  Al  Al1  1  -0.04193199  -0.79597502  -0.17498897  1.0
  Al  Al2  1  -0.45039584  -0.19884277  -0.79727581  1.0
  Al  Al3  1  -0.54960416  -0.80115723  -0.20272419  1.0
  Al  Al4  1  -0.14019490  -0.88625123  -0.59977470  1.0
  Al  Al5  1  -0.85980510  -0.11374877  -0.40022530  1.0
  Al  Al6  1  -0.66498547  -0.41734389  -0.61184292  1.0
  Al  Al7  1  -0.33501453  -0.58265611  -0.38815708  1.0
  Si  Si8  1  -0.68887567  -0.83155318  -0.79081294  1.0
  Si  Si9  1  -0.31112433  -0.16844682  -0.20918706  1.0
  Si  Si10  1  -0.20674863  -0.56485713  -0.79599522  1.0
  Si  Si11  1  -0.79325137  -0.43514287  -0.20400478  1.0
  O  O12  1  -0.25601766  -0.73000609  -0.00184987  1.0
  O  O13  1  -0.74398234  -0.26999391  -0.99815013  1.0
  O  O14  1  -0.74446675  -0.77633306  -0.00118337  1.0
  O  O15  1  -0.25553325  -0.22366694  -0.99881663  1.0
  O  O16  1  -0.96631745  -0.44679086  -0.79056115  1.0
  O  O17  1  -0.03368255  -0.55320914  -0.20943885  1.0
  O  O18  1  -0.45512251  -0.95471744  -0.77400672  1.0
  O  O19  1  -0.54487749  -0.04528256  -0.22599328  1.0
  O  O20  1  -0.16748408  -0.65270317  -0.60886912  1.0
  O  O21  1  -0.83251592  -0.34729683  -0.39113088  1.0
  O  O22  1  -0.62828175  -0.64664853  -0.60993375  1.0
  O  O23  1  -0.37171825  -0.35335147  -0.39006625  1.0
  O  O24  1  -0.43453439  -0.43479542  -0.78245765  1.0
  O  O25  1  -0.56546561  -0.56520458  -0.21754235  1.0
  O  O26  1  -0.92776733  -0.94465979  -0.78139730  1.0
  O  O27  1  -0.07223267  -0.05534021  -0.21860270  1.0
  O  O28  1  -0.13896502  -0.13000441  -0.62233087  1.0
  O  O29  1  -0.86103498  -0.86999559  -0.37766913  1.0
  O  O30  1  -0.68158685  -0.18594631  -0.62320153  1.0
  O  O31  1  -0.31841315  -0.81405369  -0.37679847  1.0
