# generated using pymatgen
data_ZrW2O11
_symmetry_space_group_name_H-M   'P 1'
_cell_length_a   10.46339915
_cell_length_b   10.46339915
_cell_length_c   10.46339915
_cell_angle_alpha   111.08425661
_cell_angle_beta   111.08425661
_cell_angle_gamma   106.29118947
_symmetry_Int_Tables_number   1
_chemical_formula_structural   ZrW2O11
_chemical_formula_sum   'Zr4 W8 O44'
_cell_volume   879.83062721
_cell_formula_units_Z   4
loop_
 _symmetry_equiv_pos_site_id
 _symmetry_equiv_pos_as_xyz
  1  'x, y, z'
loop_
 _atom_site_type_symbol
 _atom_site_label
 _atom_site_symmetry_multiplicity
 _atom_site_fract_x
 _atom_site_fract_y
 _atom_site_fract_z
 _atom_site_occupancy
  O  O0  1  1.38114136  0.97924965  1.62694395  1.0
  O  O1  1  0.85230570  1.47924965  0.59810828  1.0
  O  O2  1  1.00419741  0.10230570  0.87305605  1.0
  O  O3  1  0.72924965  0.60230570  1.09810828  1.0
  O  O4  1  0.88114136  1.25419741  1.40189172  1.0
  O  O5  1  1.35230570  1.75419741  1.37305605  1.0
  O  O6  1  1.50419741  1.63114136  1.90189172  1.0
  O  O7  1  0.22924965  1.13114136  1.12694395  1.0
  O  O8  1  1.30337985  1.30787649  1.71903945  1.0
  O  O9  1  1.08883704  1.80787649  1.00449664  1.0
  O  O10  1  0.83434040  0.33883704  0.78096055  1.0
  O  O11  1  1.05787649  0.83883704  1.50449664  1.0
  O  O12  1  0.80337985  1.08434040  0.99550336  1.0
  O  O13  1  1.58883704  1.58434040  1.28096055  1.0
  O  O14  1  1.33434040  1.55337985  1.49550336  1.0
  O  O15  1  1.55787649  1.05337985  1.21903945  1.0
  O  O16  1  0.99236241  0.82639717  1.15702758  1.0
  O  O17  1  1.16936959  0.32639717  0.83403476  1.0
  O  O18  1  1.08533483  1.41936959  1.34297242  1.0
  O  O19  1  0.57639717  0.91936959  1.33403476  1.0
  O  O20  1  0.49236241  1.33533483  1.16596524  1.0
  O  O21  1  0.66936959  0.83533483  0.84297242  1.0
  O  O22  1  0.58533483  0.24236241  0.66596524  1.0
  O  O23  1  0.07639717  0.74236241  0.65702758  1.0
  O  O24  1  1.12424094  1.15058440  1.34348954  1.0
  O  O25  1  1.30709486  0.65058440  1.02634347  1.0
  O  O26  1  1.03075140  0.55709486  1.15651046  1.0
  O  O27  1  0.90058440  1.05709486  1.52634347  1.0
  O  O28  1  1.62424094  1.28075140  0.97365653  1.0
  O  O29  1  1.80709486  1.78075140  1.65651046  1.0
  O  O30  1  1.53075140  1.37424094  1.47365653  1.0
  O  O31  1  1.40058440  0.87424094  0.84348954  1.0
  O  O32  1  1.26362222  1.07151173  1.83915426  1.0
  O  O33  1  0.73235747  0.57151173  0.80788951  1.0
  O  O34  1  0.67446796  -0.01764253  0.66084574  1.0
  O  O35  1  0.82151173  0.48235747  1.30788951  1.0
  O  O36  1  0.76362222  0.92446796  1.19211049  1.0
  O  O37  1  0.23235747  0.42446796  0.16084574  1.0
  O  O38  1  1.17446796  1.51362222  1.69211049  1.0
  O  O39  1  0.32151173  1.01362222  1.33915426  1.0
  O  O40  1  1.17402430  0.67402430  0.50000000  1.0
  O  O41  1  0.67402430  0.17402430  0.50000000  1.0
  O  O42  1  0.92402430  0.92402430  1.00000000  1.0
  O  O43  1  0.42402430  0.42402430  -0.00000000  1.0
  W  W44  1  1.15689631  1.02492261  1.21289223  1.0
  W  W45  1  1.31203038  0.52492261  0.86802630  1.0
  W  W46  1  1.19400408  1.56203038  1.28710777  1.0
  W  W47  1  0.77492261  1.06203038  1.36802630  1.0
  W  W48  1  1.65689631  1.44400408  1.13197370  1.0
  W  W49  1  1.81203038  1.94400408  1.78710777  1.0
  W  W50  1  1.69400408  1.40689631  1.63197370  1.0
  W  W51  1  0.27492261  0.90689631  0.71289223  1.0
  Zr  Zr52  1  0.49373757  -0.00626243  0.50000000  1.0
  Zr  Zr53  1  0.99373757  0.49373757  0.50000000  1.0
  Zr  Zr54  1  0.24373757  0.24373757  0.00000000  1.0
  Zr  Zr55  1  0.74373757  0.74373757  1.00000000  1.0
