# generated using pymatgen
data_CaCu2O3
_symmetry_space_group_name_H-M   'P 1'
_cell_length_a   4.15462768
_cell_length_b   10.06142741
_cell_length_c   3.66428890
_cell_angle_alpha   90.00000000
_cell_angle_beta   90.00000000
_cell_angle_gamma   90.00000000
_symmetry_Int_Tables_number   1
_chemical_formula_structural   CaCu2O3
_chemical_formula_sum   'Ca2 Cu4 O6'
_cell_volume   153.17271683
_cell_formula_units_Z   2
loop_
 _symmetry_equiv_pos_site_id
 _symmetry_equiv_pos_as_xyz
  1  'x, y, z'
loop_
 _atom_site_type_symbol
 _atom_site_label
 _atom_site_symmetry_multiplicity
 _atom_site_fract_x
 _atom_site_fract_y
 _atom_site_fract_z
 _atom_site_occupancy
  Ca  Ca0  1  0.00000000  0.50000000  0.10159085  1.0
  Ca  Ca1  1  0.50000000  0.00000000  0.89840915  1.0
  Cu  Cu2  1  0.00000000  0.16370238  0.38092575  1.0
  Cu  Cu3  1  0.00000000  0.83629762  0.38092575  1.0
  Cu  Cu4  1  0.50000000  0.66370238  0.61907425  1.0
  Cu  Cu5  1  0.50000000  0.33629762  0.61907425  1.0
  O  O6  1  0.00000000  0.66356914  0.58376221  1.0
  O  O7  1  0.00000000  0.33643086  0.58376221  1.0
  O  O8  1  0.50000000  0.16356914  0.41623779  1.0
  O  O9  1  0.50000000  0.83643086  0.41623779  1.0
  O  O10  1  0.00000000  0.00000000  0.13847440  1.0
  O  O11  1  0.50000000  0.50000000  0.86152560  1.0
