# generated using pymatgen
data_Na2CuF4
_symmetry_space_group_name_H-M   'P 1'
_cell_length_a   3.37700554
_cell_length_b   9.43519488
_cell_length_c   5.72006871
_cell_angle_alpha   90.00000000
_cell_angle_beta   93.27583725
_cell_angle_gamma   90.00000000
_symmetry_Int_Tables_number   1
_chemical_formula_structural   Na2CuF4
_chemical_formula_sum   'Na4 Cu2 F8'
_cell_volume   181.95905721
_cell_formula_units_Z   2
loop_
 _symmetry_equiv_pos_site_id
 _symmetry_equiv_pos_as_xyz
  1  'x, y, z'
loop_
 _atom_site_type_symbol
 _atom_site_label
 _atom_site_symmetry_multiplicity
 _atom_site_fract_x
 _atom_site_fract_y
 _atom_site_fract_z
 _atom_site_occupancy
  Na  Na0  1  0.48138891  0.31777689  0.08276087  1.0
  Na  Na1  1  0.48138891  0.18222311  0.58276087  1.0
  Na  Na2  1  0.51861109  0.81777689  0.41723913  1.0
  Na  Na3  1  0.51861109  0.68222311  0.91723913  1.0
  Cu  Cu4  1  -0.00000000  0.50000000  0.50000000  1.0
  Cu  Cu5  1  -0.00000000  0.00000000  -0.00000000  1.0
  F  F6  1  0.98875694  0.30964110  0.37524999  1.0
  F  F7  1  0.98875694  0.19035890  0.87524999  1.0
  F  F8  1  0.01124306  0.80964110  0.12475001  1.0
  F  F9  1  0.01124306  0.69035890  0.62475001  1.0
  F  F10  1  0.42092113  0.04949901  0.23472487  1.0
  F  F11  1  0.42092113  0.45050099  0.73472487  1.0
  F  F12  1  0.57907887  0.54949901  0.26527513  1.0
  F  F13  1  0.57907887  0.95050099  0.76527513  1.0
