# generated using pymatgen
data_Rb4PbO4
_symmetry_space_group_name_H-M   'P 1'
_cell_length_a   10.44304015
_cell_length_b   6.97647256
_cell_length_c   6.97846237
_cell_angle_alpha   67.15242170
_cell_angle_beta   71.59712727
_cell_angle_gamma   79.65757760
_symmetry_Int_Tables_number   1
_chemical_formula_structural   Rb4PbO4
_chemical_formula_sum   'Rb8 Pb2 O8'
_cell_volume   443.62536404
_cell_formula_units_Z   2
loop_
 _symmetry_equiv_pos_site_id
 _symmetry_equiv_pos_as_xyz
  1  'x, y, z'
loop_
 _atom_site_type_symbol
 _atom_site_label
 _atom_site_symmetry_multiplicity
 _atom_site_fract_x
 _atom_site_fract_y
 _atom_site_fract_z
 _atom_site_occupancy
  Rb  Rb0  1  0.61309265  0.22601000  0.95883071  1.0
  Rb  Rb1  1  0.38690735  0.77399000  0.04116929  1.0
  Rb  Rb2  1  0.97718506  0.75548902  0.23700409  1.0
  Rb  Rb3  1  0.02281494  0.24451098  0.76299591  1.0
  Rb  Rb4  1  0.56259282  0.72881325  0.48590639  1.0
  Rb  Rb5  1  0.43740718  0.27118675  0.51409361  1.0
  Rb  Rb6  1  0.83011298  0.25387514  0.40760833  1.0
  Rb  Rb7  1  0.16988702  0.74612486  0.59239167  1.0
  Pb  Pb8  1  0.75422732  0.72243157  0.84480650  1.0
  Pb  Pb9  1  0.24577268  0.27756843  0.15519350  1.0
  O  O10  1  0.62219145  0.96908931  0.70039481  1.0
  O  O11  1  0.37780855  0.03091069  0.29960519  1.0
  O  O12  1  0.91497709  0.87032233  0.84050133  1.0
  O  O13  1  0.08502291  0.12967767  0.15949867  1.0
  O  O14  1  0.80760484  0.53351282  0.65016588  1.0
  O  O15  1  0.19239516  0.46648718  0.34983412  1.0
  O  O16  1  0.35562573  0.46521744  0.84194876  1.0
  O  O17  1  0.64437427  0.53478256  0.15805124  1.0
