# generated using pymatgen
data_Na5P3O10
_symmetry_space_group_name_H-M   'P 1'
_cell_length_a   8.59315085
_cell_length_b   8.59315085
_cell_length_c   11.38607552
_cell_angle_alpha   86.73208177
_cell_angle_beta   93.26791823
_cell_angle_gamma   144.02244178
_symmetry_Int_Tables_number   1
_chemical_formula_structural   Na5P3O10
_chemical_formula_sum   'Na10 P6 O20'
_cell_volume   493.03977119
_cell_formula_units_Z   2
loop_
 _symmetry_equiv_pos_site_id
 _symmetry_equiv_pos_as_xyz
  1  'x, y, z'
loop_
 _atom_site_type_symbol
 _atom_site_label
 _atom_site_symmetry_multiplicity
 _atom_site_fract_x
 _atom_site_fract_y
 _atom_site_fract_z
 _atom_site_occupancy
  Na  Na0  1  0.50000000  -0.00000000  0.00000000  1.0
  Na  Na1  1  1.00000000  0.50000000  0.50000000  1.0
  Na  Na2  1  0.27812729  0.19521106  0.96188802  1.0
  Na  Na3  1  0.80478894  0.72187271  0.46188802  1.0
  Na  Na4  1  1.19521106  0.27812729  0.53811198  1.0
  Na  Na5  1  0.72187271  -0.19521106  0.03811198  1.0
  Na  Na6  1  0.38993312  0.06957240  0.70618367  1.0
  Na  Na7  1  0.93042760  0.61006688  0.20618367  1.0
  Na  Na8  1  1.06957240  0.38993312  0.79381633  1.0
  Na  Na9  1  0.61006688  -0.06957240  0.29381633  1.0
  P  P10  1  0.55049135  -0.15626885  0.60017105  1.0
  P  P11  1  1.15626885  0.44950865  0.10017105  1.0
  P  P12  1  0.84373115  0.55049135  0.89982895  1.0
  P  P13  1  0.44950865  0.15626885  0.39982895  1.0
  P  P14  1  0.80791312  0.80791312  0.75000000  1.0
  P  P15  1  0.19208688  0.19208688  0.25000000  1.0
  O  O16  1  0.91881097  -0.00602735  0.84740361  1.0
  O  O17  1  1.00602735  0.08118903  0.34740361  1.0
  O  O18  1  0.99397265  0.91881097  0.65259639  1.0
  O  O19  1  0.08118903  0.00602735  0.15259639  1.0
  O  O20  1  0.54130021  -0.32668829  0.69421316  1.0
  O  O21  1  1.32668829  0.45869979  0.19421316  1.0
  O  O22  1  0.67331171  0.54130021  0.80578684  1.0
  O  O23  1  0.45869979  0.32668829  0.30578684  1.0
  O  O24  1  1.28894577  0.52865449  0.98262216  1.0
  O  O25  1  0.47134551  -0.28894577  0.48262216  1.0
  O  O26  1  0.52865449  0.28894577  0.51737784  1.0
  O  O27  1  0.71105423  0.47134551  0.01737784  1.0
  O  O28  1  0.33419739  -0.23051447  0.64968745  1.0
  O  O29  1  1.23051447  0.66580261  0.14968745  1.0
  O  O30  1  0.76948553  0.33419739  0.85031255  1.0
  O  O31  1  0.66580261  0.23051447  0.35031255  1.0
  O  O32  1  0.83303616  0.13633228  0.60712488  1.0
  O  O33  1  0.86366772  0.16696384  0.10712488  1.0
  O  O34  1  1.13633228  0.83303616  0.89287512  1.0
  O  O35  1  0.16696384  -0.13633228  0.39287512  1.0
