# generated using pymatgen
data_ErClO
_symmetry_space_group_name_H-M   'P 1'
_cell_length_a   3.88251863
_cell_length_b   3.88251863
_cell_length_c   6.78064469
_cell_angle_alpha   90.00000000
_cell_angle_beta   90.00000000
_cell_angle_gamma   90.00000000
_symmetry_Int_Tables_number   1
_chemical_formula_structural   ErClO
_chemical_formula_sum   'Er2 Cl2 O2'
_cell_volume   102.21110503
_cell_formula_units_Z   2
loop_
 _symmetry_equiv_pos_site_id
 _symmetry_equiv_pos_as_xyz
  1  'x, y, z'
loop_
 _atom_site_type_symbol
 _atom_site_label
 _atom_site_symmetry_multiplicity
 _atom_site_fract_x
 _atom_site_fract_y
 _atom_site_fract_z
 _atom_site_occupancy
  Er  Er0  1  0.50000000  0.00000000  0.16843820  1.0
  Er  Er1  1  0.00000000  0.50000000  0.83156180  1.0
  Cl  Cl2  1  0.50000000  0.00000000  0.63086778  1.0
  Cl  Cl3  1  0.00000000  0.50000000  0.36913222  1.0
  O  O4  1  0.00000000  0.00000000  0.00000000  1.0
  O  O5  1  0.50000000  0.50000000  0.00000000  1.0
