# generated using pymatgen
data_Fe3H9S2O15
_symmetry_space_group_name_H-M   'P 1'
_cell_length_a   7.21034396
_cell_length_b   7.21034396
_cell_length_c   7.21034396
_cell_angle_alpha   62.29052412
_cell_angle_beta   62.29052412
_cell_angle_gamma   62.29052412
_symmetry_Int_Tables_number   1
_chemical_formula_structural   Fe3H9S2O15
_chemical_formula_sum   'Fe3 H9 S2 O15'
_cell_volume   278.61670317
_cell_formula_units_Z   1
loop_
 _symmetry_equiv_pos_site_id
 _symmetry_equiv_pos_as_xyz
  1  'x, y, z'
loop_
 _atom_site_type_symbol
 _atom_site_label
 _atom_site_symmetry_multiplicity
 _atom_site_fract_x
 _atom_site_fract_y
 _atom_site_fract_z
 _atom_site_occupancy
  Fe  Fe0  1  1.18452886  -0.30643656  -0.30643656  1.0
  Fe  Fe1  1  0.69356344  0.18452886  -0.30643656  1.0
  Fe  Fe2  1  0.69356344  -0.30643656  0.18452886  1.0
  O  O3  1  1.08486618  1.08486618  0.08486618  1.0
  O  O4  1  1.29940386  1.29940386  0.29940386  1.0
  O  O5  1  0.67680750  0.67680750  -0.32319250  1.0
  O  O6  1  0.56850773  0.96203357  -0.03796643  1.0
  O  O7  1  0.96203357  0.56850773  -0.03796643  1.0
  O  O8  1  0.96203357  0.96203357  -0.43149227  1.0
  O  O9  1  0.81440198  0.43421326  -0.56578674  1.0
  O  O10  1  0.43421326  0.81440198  -0.56578674  1.0
  O  O11  1  0.43421326  0.43421326  -0.18559802  1.0
  O  O12  1  1.18931663  -0.13902472  -0.13902472  1.0
  O  O13  1  0.86097528  0.18931663  -0.13902472  1.0
  O  O14  1  0.86097528  -0.13902472  0.18931663  1.0
  O  O15  1  0.19462856  0.52349050  -0.47650950  1.0
  O  O16  1  0.52349050  0.19462856  -0.47650950  1.0
  O  O17  1  0.52349050  0.52349050  -0.80537144  1.0
  S  S18  1  -0.00058555  -0.00058555  -0.00058555  1.0
  S  S19  1  0.38470039  0.38470039  -0.61529961  1.0
  H  H20  1  0.97662910  0.37678521  -0.62321479  1.0
  H  H21  1  0.37678521  0.97662910  -0.62321479  1.0
  H  H22  1  0.37678521  0.37678521  -0.02337090  1.0
  H  H23  1  0.78691348  0.57909643  -0.42090357  1.0
  H  H24  1  0.57909643  0.78691348  -0.42090357  1.0
  H  H25  1  0.57909643  0.57909643  -0.21308652  1.0
  H  H26  1  1.41259009  -0.01126209  -0.01126209  1.0
  H  H27  1  0.98873791  0.41259009  -0.01126209  1.0
  H  H28  1  0.98873791  -0.01126209  0.41259009  1.0
