# generated using pymatgen
data_BPS4
_symmetry_space_group_name_H-M   'P 1'
_cell_length_a   6.59871545
_cell_length_b   6.59871545
_cell_length_c   6.59871545
_cell_angle_alpha   132.69385731
_cell_angle_beta   123.80445545
_cell_angle_gamma   76.44131965
_symmetry_Int_Tables_number   1
_chemical_formula_structural   BPS4
_chemical_formula_sum   'B1 P1 S4'
_cell_volume   170.61492180
_cell_formula_units_Z   1
loop_
 _symmetry_equiv_pos_site_id
 _symmetry_equiv_pos_as_xyz
  1  'x, y, z'
loop_
 _atom_site_type_symbol
 _atom_site_label
 _atom_site_symmetry_multiplicity
 _atom_site_fract_x
 _atom_site_fract_y
 _atom_site_fract_z
 _atom_site_occupancy
  B  B0  1  0.00000000  0.00000000  0.00000000  1.0
  P  P1  1  0.00000000  0.50000000  0.50000000  1.0
  S  S2  1  0.93011219  0.86867810  1.59519456  1.0
  S  S3  1  1.06988781  0.66508237  0.93856591  1.0
  S  S4  1  0.72651646  1.13132190  1.06143409  1.0
  S  S5  1  0.27348354  0.33491763  0.40480544  1.0
