# generated using pymatgen
data_Y10Mn13C18
_symmetry_space_group_name_H-M   'P 1'
_cell_length_a   8.72150239
_cell_length_b   8.72150239
_cell_length_c   8.72150239
_cell_angle_alpha   109.47122063
_cell_angle_beta   109.47122063
_cell_angle_gamma   109.47122063
_symmetry_Int_Tables_number   1
_chemical_formula_structural   Y10Mn13C18
_chemical_formula_sum   'Y10 Mn13 C18'
_cell_volume   510.68372935
_cell_formula_units_Z   1
loop_
 _symmetry_equiv_pos_site_id
 _symmetry_equiv_pos_as_xyz
  1  'x, y, z'
loop_
 _atom_site_type_symbol
 _atom_site_label
 _atom_site_symmetry_multiplicity
 _atom_site_fract_x
 _atom_site_fract_y
 _atom_site_fract_z
 _atom_site_occupancy
  Mn  Mn0  1  0.84738400  0.66731141  0.66731141  1.0
  Mn  Mn1  1  0.66731141  0.84738400  0.66731141  1.0
  Mn  Mn2  1  1.00000000  1.18007259  0.33268859  1.0
  Mn  Mn3  1  1.18007259  1.00000000  0.33268859  1.0
  Mn  Mn4  1  0.66731141  0.66731141  0.84738400  1.0
  Mn  Mn5  1  0.81992741  0.81992741  0.15261600  1.0
  Mn  Mn6  1  1.00000000  0.33268859  1.18007259  1.0
  Mn  Mn7  1  0.81992741  0.15261600  0.81992741  1.0
  Mn  Mn8  1  0.15261600  0.81992741  0.81992741  1.0
  Mn  Mn9  1  0.33268859  1.00000000  1.18007259  1.0
  Mn  Mn10  1  1.18007259  0.33268859  1.00000000  1.0
  Mn  Mn11  1  0.33268859  1.18007259  1.00000000  1.0
  Mn  Mn12  1  0.00000000  0.00000000  0.00000000  1.0
  Y  Y13  1  0.25000000  0.75000000  0.50000000  1.0
  Y  Y14  1  0.75000000  0.25000000  0.50000000  1.0
  Y  Y15  1  0.25000000  0.50000000  0.75000000  1.0
  Y  Y16  1  0.50000000  0.25000000  0.75000000  1.0
  Y  Y17  1  0.75000000  0.50000000  0.25000000  1.0
  Y  Y18  1  0.50000000  0.75000000  0.25000000  1.0
  Y  Y19  1  0.41088916  0.41088916  0.41088916  1.0
  Y  Y20  1  1.00000000  1.00000000  0.58911084  1.0
  Y  Y21  1  1.00000000  0.58911084  1.00000000  1.0
  Y  Y22  1  0.58911084  1.00000000  1.00000000  1.0
  C  C23  1  0.56882270  0.56882270  0.00000000  1.0
  C  C24  1  0.56882270  -0.00000000  0.56882270  1.0
  C  C25  1  0.00000000  0.56882270  0.56882270  1.0
  C  C26  1  0.43117730  -0.00000000  0.43117730  1.0
  C  C27  1  0.00000000  0.43117730  0.43117730  1.0
  C  C28  1  0.43117730  0.43117730  0.00000000  1.0
  C  C29  1  0.48657787  0.70574971  0.70574971  1.0
  C  C30  1  0.70574971  0.48657787  0.70574971  1.0
  C  C31  1  1.00000000  0.78082816  1.29425029  1.0
  C  C32  1  0.78082816  1.00000000  1.29425029  1.0
  C  C33  1  0.70574971  0.70574971  0.48657787  1.0
  C  C34  1  1.21917184  1.21917184  0.51342213  1.0
  C  C35  1  1.00000000  1.29425029  0.78082816  1.0
  C  C36  1  1.21917184  0.51342213  1.21917184  1.0
  C  C37  1  0.51342213  1.21917184  1.21917184  1.0
  C  C38  1  1.29425029  1.00000000  0.78082816  1.0
  C  C39  1  0.78082816  1.29425029  1.00000000  1.0
  C  C40  1  1.29425029  0.78082816  1.00000000  1.0
