# generated using pymatgen
data_Ca(HO)2
_symmetry_space_group_name_H-M   'P 1'
_cell_length_a   5.51637075
_cell_length_b   6.12006354
_cell_length_c   6.07036163
_cell_angle_alpha   90.00000000
_cell_angle_beta   105.83690956
_cell_angle_gamma   90.00000000
_symmetry_Int_Tables_number   1
_chemical_formula_structural   Ca(HO)2
_chemical_formula_sum   'Ca4 H8 O8'
_cell_volume   197.15970176
_cell_formula_units_Z   4
loop_
 _symmetry_equiv_pos_site_id
 _symmetry_equiv_pos_as_xyz
  1  'x, y, z'
loop_
 _atom_site_type_symbol
 _atom_site_label
 _atom_site_symmetry_multiplicity
 _atom_site_fract_x
 _atom_site_fract_y
 _atom_site_fract_z
 _atom_site_occupancy
  Ca  Ca0  1  0.68881423  0.42516691  0.31844974  1.0
  Ca  Ca1  1  0.68881423  0.07483309  0.81844974  1.0
  Ca  Ca2  1  0.31118577  0.92516691  0.18155026  1.0
  Ca  Ca3  1  0.31118577  0.57483309  0.68155026  1.0
  H  H4  1  0.87979894  1.00082945  0.29684605  1.0
  H  H5  1  0.87979894  0.49917055  0.79684605  1.0
  H  H6  1  0.12020106  0.50082945  0.20315395  1.0
  H  H7  1  0.12020106  -0.00082945  0.70315395  1.0
  H  H8  1  0.23380797  0.21895005  0.42310909  1.0
  H  H9  1  0.23380797  0.28104995  0.92310909  1.0
  H  H10  1  0.76619203  0.71895005  0.07689091  1.0
  H  H11  1  0.76619203  0.78104995  0.57689091  1.0
  O  O12  1  0.93775157  0.12523854  0.22453316  1.0
  O  O13  1  0.93775157  0.37476146  0.72453316  1.0
  O  O14  1  0.06224843  0.62523854  0.27546684  1.0
  O  O15  1  0.06224843  0.87476146  0.77546684  1.0
  O  O16  1  0.41428507  0.24445377  0.49949841  1.0
  O  O17  1  0.41428507  0.25554623  -0.00050159  1.0
  O  O18  1  0.58571493  0.74445377  1.00050159  1.0
  O  O19  1  0.58571493  0.75554623  0.50050159  1.0
