# generated using pymatgen
data_Cs3LiBr4
_symmetry_space_group_name_H-M   'P 1'
_cell_length_a   9.31445230
_cell_length_b   9.31445230
_cell_length_c   8.28821308
_cell_angle_alpha   90.00000000
_cell_angle_beta   90.00000000
_cell_angle_gamma   104.83836581
_symmetry_Int_Tables_number   1
_chemical_formula_structural   Cs3LiBr4
_chemical_formula_sum   'Cs6 Li2 Br8'
_cell_volume   695.09755843
_cell_formula_units_Z   2
loop_
 _symmetry_equiv_pos_site_id
 _symmetry_equiv_pos_as_xyz
  1  'x, y, z'
loop_
 _atom_site_type_symbol
 _atom_site_label
 _atom_site_symmetry_multiplicity
 _atom_site_fract_x
 _atom_site_fract_y
 _atom_site_fract_z
 _atom_site_occupancy
  Br  Br0  1  0.48729152  0.48729152  0.00000000  1.0
  Br  Br1  1  0.51270848  0.51270848  0.50000000  1.0
  Br  Br2  1  0.03316493  0.03316493  0.00000000  1.0
  Br  Br3  1  0.96683507  0.96683507  0.50000000  1.0
  Br  Br4  1  -0.37368277  1.00286645  0.15824922  1.0
  Br  Br5  1  0.00286645  0.62631723  0.84175078  1.0
  Br  Br6  1  0.37368277  0.99713355  0.65824922  1.0
  Br  Br7  1  -0.00286645  1.37368277  0.34175078  1.0
  Li  Li8  1  0.10810070  0.89189930  0.75000000  1.0
  Li  Li9  1  -0.10810070  1.10810070  0.25000000  1.0
  Cs  Cs10  1  -0.30201357  1.30201357  0.75000000  1.0
  Cs  Cs11  1  0.30201357  0.69798643  0.25000000  1.0
  Cs  Cs12  1  -0.18595753  1.65988425  0.22790719  1.0
  Cs  Cs13  1  0.65988425  0.81404247  0.77209281  1.0
  Cs  Cs14  1  0.18595753  0.34011575  0.72790719  1.0
  Cs  Cs15  1  -0.65988425  1.18595753  0.27209281  1.0
