# generated using pymatgen
data_La12InCo6
_symmetry_space_group_name_H-M   'P 1'
_cell_length_a   8.81441542
_cell_length_b   8.81441542
_cell_length_c   8.81441542
_cell_angle_alpha   109.47122063
_cell_angle_beta   109.47122063
_cell_angle_gamma   109.47122063
_symmetry_Int_Tables_number   1
_chemical_formula_structural   La12InCo6
_chemical_formula_sum   'La12 In1 Co6'
_cell_volume   527.17966955
_cell_formula_units_Z   1
loop_
 _symmetry_equiv_pos_site_id
 _symmetry_equiv_pos_as_xyz
  1  'x, y, z'
loop_
 _atom_site_type_symbol
 _atom_site_label
 _atom_site_symmetry_multiplicity
 _atom_site_fract_x
 _atom_site_fract_y
 _atom_site_fract_z
 _atom_site_occupancy
  La  La0  1  0.80892805  1.31088456  1.11981262  1.0
  La  La1  1  0.80892805  0.68911544  0.49804349  1.0
  La  La2  1  0.19107195  0.31088456  0.50195651  1.0
  La  La3  1  0.19107195  0.68911544  0.88018738  1.0
  La  La4  1  0.49804349  0.80892805  0.68911544  1.0
  La  La5  1  1.11981262  0.80892805  1.31088456  1.0
  La  La6  1  0.68911544  0.88018738  0.19107195  1.0
  La  La7  1  0.68911544  0.49804349  0.80892805  1.0
  La  La8  1  0.88018738  0.19107195  0.68911544  1.0
  La  La9  1  0.50195651  0.19107195  0.31088456  1.0
  La  La10  1  0.31088456  0.50195651  0.19107195  1.0
  La  La11  1  1.31088456  1.11981262  0.80892805  1.0
  In  In12  1  0.00000000  0.00000000  0.00000000  1.0
  Co  Co13  1  0.88514096  0.38514096  0.50000000  1.0
  Co  Co14  1  0.50000000  0.11485904  0.61485904  1.0
  Co  Co15  1  0.50000000  0.88514096  0.38514096  1.0
  Co  Co16  1  0.38514096  0.50000000  0.88514096  1.0
  Co  Co17  1  0.61485904  0.50000000  0.11485904  1.0
  Co  Co18  1  0.11485904  0.61485904  0.50000000  1.0
