# generated using pymatgen
data_CaMoO3
_symmetry_space_group_name_H-M   'P 1'
_cell_length_a   5.62372625
_cell_length_b   7.80708152
_cell_length_c   5.45731279
_cell_angle_alpha   90.00000000
_cell_angle_beta   90.00000000
_cell_angle_gamma   90.00000000
_symmetry_Int_Tables_number   1
_chemical_formula_structural   CaMoO3
_chemical_formula_sum   'Ca4 Mo4 O12'
_cell_volume   239.60271378
_cell_formula_units_Z   4
loop_
 _symmetry_equiv_pos_site_id
 _symmetry_equiv_pos_as_xyz
  1  'x, y, z'
loop_
 _atom_site_type_symbol
 _atom_site_label
 _atom_site_symmetry_multiplicity
 _atom_site_fract_x
 _atom_site_fract_y
 _atom_site_fract_z
 _atom_site_occupancy
  Ca  Ca0  1  0.05055902  0.75000000  0.51127775  1.0
  Ca  Ca1  1  0.55055902  0.75000000  0.98872225  1.0
  Ca  Ca2  1  0.94944098  0.25000000  0.48872225  1.0
  Ca  Ca3  1  0.44944098  0.25000000  0.01127775  1.0
  Mo  Mo4  1  0.50000000  0.00000000  0.50000000  1.0
  Mo  Mo5  1  0.50000000  0.50000000  0.50000000  1.0
  Mo  Mo6  1  0.00000000  0.00000000  0.00000000  1.0
  Mo  Mo7  1  0.00000000  0.50000000  0.00000000  1.0
  O  O8  1  0.29043432  0.95875071  0.79395717  1.0
  O  O9  1  0.29043432  0.54124929  0.79395717  1.0
  O  O10  1  0.79043432  0.95875071  0.70604283  1.0
  O  O11  1  0.79043432  0.54124929  0.70604283  1.0
  O  O12  1  0.70956568  0.45875071  0.20604283  1.0
  O  O13  1  0.70956568  0.04124929  0.20604283  1.0
  O  O14  1  0.20956568  0.45875071  0.29395717  1.0
  O  O15  1  0.20956568  0.04124929  0.29395717  1.0
  O  O16  1  0.98008360  0.75000000  0.07916067  1.0
  O  O17  1  0.48008360  0.75000000  0.42083933  1.0
  O  O18  1  0.01991640  0.25000000  0.92083933  1.0
  O  O19  1  0.51991640  0.25000000  0.57916067  1.0
