# generated using pymatgen
data_SnCSNF
_symmetry_space_group_name_H-M   'P 1'
_cell_length_a   7.79667292
_cell_length_b   4.41099738
_cell_length_c   12.81778138
_cell_angle_alpha   90.00000000
_cell_angle_beta   90.00000000
_cell_angle_gamma   90.00000000
_symmetry_Int_Tables_number   1
_chemical_formula_structural   SnCSNF
_chemical_formula_sum   'Sn4 C4 S4 N4 F4'
_cell_volume   440.81765072
_cell_formula_units_Z   4
loop_
 _symmetry_equiv_pos_site_id
 _symmetry_equiv_pos_as_xyz
  1  'x, y, z'
loop_
 _atom_site_type_symbol
 _atom_site_label
 _atom_site_symmetry_multiplicity
 _atom_site_fract_x
 _atom_site_fract_y
 _atom_site_fract_z
 _atom_site_occupancy
  Sn  Sn0  1  0.64078518  0.75000000  0.59080096  1.0
  Sn  Sn1  1  0.14078518  0.75000000  0.90919904  1.0
  Sn  Sn2  1  0.35921482  0.25000000  0.40919904  1.0
  Sn  Sn3  1  0.85921482  0.25000000  0.09080096  1.0
  C  C4  1  0.93058102  0.75000000  0.39411818  1.0
  C  C5  1  0.43058102  0.75000000  0.10588182  1.0
  C  C6  1  0.06941898  0.25000000  0.60588182  1.0
  C  C7  1  0.56941898  0.25000000  0.89411818  1.0
  S  S8  1  0.58137269  0.75000000  0.19314120  1.0
  S  S9  1  0.08137269  0.75000000  0.30685880  1.0
  S  S10  1  0.41862731  0.25000000  0.80685880  1.0
  S  S11  1  0.91862731  0.25000000  0.69314120  1.0
  N  N12  1  0.81713930  0.75000000  0.45555921  1.0
  N  N13  1  0.31713930  0.75000000  0.04444079  1.0
  N  N14  1  0.18286070  0.25000000  0.54444079  1.0
  N  N15  1  0.68286070  0.25000000  0.95555921  1.0
  F  F16  1  0.92353544  0.75000000  0.02816870  1.0
  F  F17  1  0.42353544  0.75000000  0.47183130  1.0
  F  F18  1  0.07646456  0.25000000  0.97183130  1.0
  F  F19  1  0.57646456  0.25000000  0.52816870  1.0
