# generated using pymatgen
data_Hg2Pb(SBr)2
_symmetry_space_group_name_H-M   'P 1'
_cell_length_a   9.96886272
_cell_length_b   8.15787995
_cell_length_c   12.80318345
_cell_angle_alpha   90.00000000
_cell_angle_beta   122.30996089
_cell_angle_gamma   90.00000000
_symmetry_Int_Tables_number   1
_chemical_formula_structural   Hg2Pb(SBr)2
_chemical_formula_sum   'Hg8 Pb4 S8 Br8'
_cell_volume   880.00352864
_cell_formula_units_Z   4
loop_
 _symmetry_equiv_pos_site_id
 _symmetry_equiv_pos_as_xyz
  1  'x, y, z'
loop_
 _atom_site_type_symbol
 _atom_site_label
 _atom_site_symmetry_multiplicity
 _atom_site_fract_x
 _atom_site_fract_y
 _atom_site_fract_z
 _atom_site_occupancy
  Hg  Hg0  1  0.74300937  0.54173227  0.87681749  1.0
  Hg  Hg1  1  0.74300937  0.95826773  0.37681749  1.0
  Hg  Hg2  1  0.25699063  0.45826773  0.12318251  1.0
  Hg  Hg3  1  0.25699063  0.04173227  0.62318251  1.0
  Hg  Hg4  1  0.57946903  0.80588895  0.62033272  1.0
  Hg  Hg5  1  0.57946903  0.69411105  0.12033272  1.0
  Hg  Hg6  1  0.42053097  0.19411105  0.37966728  1.0
  Hg  Hg7  1  0.42053097  0.30588895  0.87966728  1.0
  Pb  Pb8  1  0.86361892  0.41501483  0.58269967  1.0
  Pb  Pb9  1  0.86361892  0.08498517  0.08269967  1.0
  Pb  Pb10  1  0.13638108  0.58498517  0.41730033  1.0
  Pb  Pb11  1  0.13638108  0.91501483  0.91730033  1.0
  S  S12  1  0.82713051  0.67224487  0.75479796  1.0
  S  S13  1  0.82713051  0.82775513  0.25479796  1.0
  S  S14  1  0.17286949  0.32775513  0.24520204  1.0
  S  S15  1  0.17286949  0.17224487  0.74520204  1.0
  S  S16  1  0.68293484  0.41244698  0.01393191  1.0
  S  S17  1  0.68293484  0.08755302  0.51393191  1.0
  S  S18  1  0.31706516  0.58755302  0.98606809  1.0
  S  S19  1  0.31706516  0.91244698  0.48606809  1.0
  Br  Br20  1  0.58471075  0.58955770  0.39018862  1.0
  Br  Br21  1  0.58471075  0.91044230  0.89018862  1.0
  Br  Br22  1  0.41528925  0.41044230  0.60981138  1.0
  Br  Br23  1  0.41528925  0.08955770  0.10981138  1.0
  Br  Br24  1  0.92261467  0.30584371  0.38597349  1.0
  Br  Br25  1  0.92261467  0.19415629  0.88597349  1.0
  Br  Br26  1  0.07738533  0.69415629  0.61402651  1.0
  Br  Br27  1  0.07738533  0.80584371  0.11402651  1.0
