# generated using pymatgen
data_NaScP2O7
_symmetry_space_group_name_H-M   'P 1'
_cell_length_a   8.98950343
_cell_length_b   5.36162911
_cell_length_c   13.62331378
_cell_angle_alpha   90.00000000
_cell_angle_beta   115.86879178
_cell_angle_gamma   90.00000000
_symmetry_Int_Tables_number   1
_chemical_formula_structural   NaScP2O7
_chemical_formula_sum   'Na4 Sc4 P8 O28'
_cell_volume   590.82529309
_cell_formula_units_Z   4
loop_
 _symmetry_equiv_pos_site_id
 _symmetry_equiv_pos_as_xyz
  1  'x, y, z'
loop_
 _atom_site_type_symbol
 _atom_site_label
 _atom_site_symmetry_multiplicity
 _atom_site_fract_x
 _atom_site_fract_y
 _atom_site_fract_z
 _atom_site_occupancy
  Na  Na0  1  0.94796802  0.73168932  0.30832104  1.0
  Na  Na1  1  0.94796802  0.76831068  0.80832104  1.0
  Na  Na2  1  0.05203198  0.23168932  0.19167896  1.0
  Na  Na3  1  0.05203198  0.26831068  0.69167896  1.0
  Sc  Sc4  1  0.24019576  0.25976074  0.47384721  1.0
  Sc  Sc5  1  0.24019576  0.24023926  0.97384721  1.0
  Sc  Sc6  1  0.75980424  0.75976074  0.02615279  1.0
  Sc  Sc7  1  0.75980424  0.74023926  0.52615279  1.0
  P  P8  1  0.81862307  0.22658418  0.38231027  1.0
  P  P9  1  0.81862307  0.27341582  0.88231027  1.0
  P  P10  1  0.18137693  0.72658418  0.11768973  1.0
  P  P11  1  0.18137693  0.77341582  0.61768973  1.0
  P  P12  1  0.66851169  0.24476493  0.14567013  1.0
  P  P13  1  0.66851169  0.25523507  0.64567013  1.0
  P  P14  1  0.33148831  0.74476493  0.35432987  1.0
  P  P15  1  0.33148831  0.75523507  0.85432987  1.0
  O  O16  1  0.97669724  0.27710913  0.36735784  1.0
  O  O17  1  0.97669724  0.22289087  0.86735784  1.0
  O  O18  1  0.02330276  0.77710913  0.13264216  1.0
  O  O19  1  0.02330276  0.72289087  0.63264216  1.0
  O  O20  1  0.80973415  0.95180304  0.41209837  1.0
  O  O21  1  0.80973415  0.54819696  0.91209837  1.0
  O  O22  1  0.19026585  0.45180304  0.08790163  1.0
  O  O23  1  0.19026585  0.04819696  0.58790163  1.0
  O  O24  1  0.79458537  0.41014647  0.45944532  1.0
  O  O25  1  0.79458537  0.08985353  0.95944532  1.0
  O  O26  1  0.20541463  0.91014647  0.04055468  1.0
  O  O27  1  0.20541463  0.58985353  0.54055468  1.0
  O  O28  1  0.77441648  0.45890046  0.13322986  1.0
  O  O29  1  0.77441648  0.04109954  0.63322986  1.0
  O  O30  1  0.22558352  0.95890046  0.36677014  1.0
  O  O31  1  0.22558352  0.54109954  0.86677014  1.0
  O  O32  1  0.75289022  0.99120493  0.15140836  1.0
  O  O33  1  0.75289022  0.50879507  0.65140836  1.0
  O  O34  1  0.24710978  0.49120493  0.34859164  1.0
  O  O35  1  0.24710978  0.00879507  0.84859164  1.0
  O  O36  1  0.66557044  0.28165428  0.26359574  1.0
  O  O37  1  0.66557044  0.21834572  0.76359574  1.0
  O  O38  1  0.33442956  0.78165428  0.23640426  1.0
  O  O39  1  0.33442956  0.71834572  0.73640426  1.0
  O  O40  1  0.48822649  0.25669391  0.06284875  1.0
  O  O41  1  0.48822649  0.24330609  0.56284875  1.0
  O  O42  1  0.51177351  0.75669391  0.43715125  1.0
  O  O43  1  0.51177351  0.74330609  0.93715125  1.0
