# generated using pymatgen
data_K2NaH10IO10
_symmetry_space_group_name_H-M   'P 1'
_cell_length_a   7.39397900
_cell_length_b   6.99025723
_cell_length_c   10.85876209
_cell_angle_alpha   71.34571992
_cell_angle_beta   80.01147252
_cell_angle_gamma   87.30437776
_symmetry_Int_Tables_number   1
_chemical_formula_structural   K2NaH10IO10
_chemical_formula_sum   'K4 Na2 H20 I2 O20'
_cell_volume   523.67786109
_cell_formula_units_Z   2
loop_
 _symmetry_equiv_pos_site_id
 _symmetry_equiv_pos_as_xyz
  1  'x, y, z'
loop_
 _atom_site_type_symbol
 _atom_site_label
 _atom_site_symmetry_multiplicity
 _atom_site_fract_x
 _atom_site_fract_y
 _atom_site_fract_z
 _atom_site_occupancy
  K  K0  1  -0.34729271  -0.03603570  0.63366492  1.0
  K  K1  1  -0.65270729  0.03603570  0.36633508  1.0
  K  K2  1  -0.70510978  -0.41589066  0.85007406  1.0
  K  K3  1  -0.29489022  0.41589066  0.14992594  1.0
  Na  Na4  1  -0.80284689  0.56318430  0.23026048  1.0
  Na  Na5  1  -0.19715311  -0.56318430  0.76973952  1.0
  H  H6  1  -0.48984196  0.82420252  0.10205709  1.0
  H  H7  1  -0.51015804  -0.82420252  0.89794291  1.0
  H  H8  1  -0.47615643  0.52915969  0.36662866  1.0
  H  H9  1  -0.52384357  -0.52915969  0.63337134  1.0
  H  H10  1  -0.63978856  0.39718133  0.46573427  1.0
  H  H11  1  -0.36021144  -0.39718133  0.53426573  1.0
  H  H12  1  -0.35561912  -0.27085065  0.93236386  1.0
  H  H13  1  -0.64438088  0.27085065  0.06763614  1.0
  H  H14  1  -0.14612464  -0.22069977  0.86508636  1.0
  H  H15  1  -0.85387536  0.22069977  0.13491364  1.0
  H  H16  1  -0.89043210  -0.21749854  0.61680966  1.0
  H  H17  1  -0.10956790  0.21749854  0.38319034  1.0
  H  H18  1  -0.87337512  -0.44143455  0.60790932  1.0
  H  H19  1  -0.12662488  0.44143455  0.39209068  1.0
  H  H20  1  -0.97292312  -0.23785546  0.42740657  1.0
  H  H21  1  -0.02707688  0.23785546  0.57259343  1.0
  H  H22  1  -0.40054360  -0.86049878  1.01836663  1.0
  H  H23  1  -0.59945640  0.86049878  -0.01836663  1.0
  H  H24  1  -0.97670526  -0.81612086  0.95829756  1.0
  H  H25  1  -0.02329474  0.81612086  0.04170244  1.0
  I  I26  1  -0.82511774  0.10330473  0.74966573  1.0
  I  I27  1  -0.17488226  -0.10330473  0.25033427  1.0
  O  O28  1  -0.72339952  0.35975661  0.62935786  1.0
  O  O29  1  -0.27660048  -0.35975661  0.37064214  1.0
  O  O30  1  -0.60964596  0.03891941  0.83243330  1.0
  O  O31  1  -0.39035404  -0.03891941  0.16756670  1.0
  O  O32  1  -0.06311455  0.18183422  0.67076595  1.0
  O  O33  1  -0.93688545  -0.18183422  0.32923405  1.0
  O  O34  1  -0.58108036  0.44091149  0.37065744  1.0
  O  O35  1  -0.41891964  -0.44091149  0.62934256  1.0
  O  O36  1  -0.95935194  -0.12319007  0.87828237  1.0
  O  O37  1  -0.04064806  0.12319007  0.12171763  1.0
  O  O38  1  -0.74115878  -0.04542190  0.63053486  1.0
  O  O39  1  -0.25884122  0.04542190  0.36946514  1.0
  O  O40  1  -0.25639256  -0.30438146  0.86915348  1.0
  O  O41  1  -0.74360744  0.30438146  0.13084652  1.0
  O  O42  1  -0.95883810  -0.32335710  0.59841134  1.0
  O  O43  1  -0.04116190  0.32335710  0.40158866  1.0
  O  O44  1  -0.44621951  -0.75090383  0.94541784  1.0
  O  O45  1  -0.55378049  0.75090383  0.05458216  1.0
  O  O46  1  -0.93349465  -0.72379793  0.86582978  1.0
  O  O47  1  -0.06650535  0.72379793  0.13417022  1.0
