# generated using pymatgen
data_VFe2C
_symmetry_space_group_name_H-M   'P 1'
_cell_length_a   5.14463125
_cell_length_b   6.82087452
_cell_length_c   4.39956789
_cell_angle_alpha   90.00000000
_cell_angle_beta   90.00000000
_cell_angle_gamma   90.00000000
_symmetry_Int_Tables_number   1
_chemical_formula_structural   VFe2C
_chemical_formula_sum   'V4 Fe8 C4'
_cell_volume   154.38472726
_cell_formula_units_Z   4
loop_
 _symmetry_equiv_pos_site_id
 _symmetry_equiv_pos_as_xyz
  1  'x, y, z'
loop_
 _atom_site_type_symbol
 _atom_site_label
 _atom_site_symmetry_multiplicity
 _atom_site_fract_x
 _atom_site_fract_y
 _atom_site_fract_z
 _atom_site_occupancy
  V  V0  1  0.53052648  0.25000000  0.64457601  1.0
  V  V1  1  0.03052648  0.25000000  0.85542399  1.0
  V  V2  1  0.46947352  0.75000000  0.35542399  1.0
  V  V3  1  0.96947352  0.75000000  0.14457601  1.0
  Fe  Fe4  1  0.82247511  0.56573230  0.65670698  1.0
  Fe  Fe5  1  0.32247510  0.93426770  0.84329302  1.0
  Fe  Fe6  1  0.17752490  0.06573230  0.34329302  1.0
  Fe  Fe7  1  0.67752490  0.43426770  0.15670698  1.0
  Fe  Fe8  1  0.17752490  0.43426770  0.34329302  1.0
  Fe  Fe9  1  0.67752490  0.06573230  0.15670698  1.0
  Fe  Fe10  1  0.82247511  0.93426770  0.65670698  1.0
  Fe  Fe11  1  0.32247510  0.56573230  0.84329302  1.0
  C  C12  1  0.88563931  0.25000000  0.40618594  1.0
  C  C13  1  0.38563931  0.25000000  0.09381406  1.0
  C  C14  1  0.11436069  0.75000000  0.59381406  1.0
  C  C15  1  0.61436069  0.75000000  0.90618594  1.0
