# generated using pymatgen
data_Al(Bi3O5)4
_symmetry_space_group_name_H-M   'P 1'
_cell_length_a   8.86438548
_cell_length_b   8.86438548
_cell_length_c   8.86438548
_cell_angle_alpha   109.47122063
_cell_angle_beta   109.47122063
_cell_angle_gamma   109.47122063
_symmetry_Int_Tables_number   1
_chemical_formula_structural   Al(Bi3O5)4
_chemical_formula_sum   'Al1 Bi12 O20'
_cell_volume   536.19654299
_cell_formula_units_Z   1
loop_
 _symmetry_equiv_pos_site_id
 _symmetry_equiv_pos_as_xyz
  1  'x, y, z'
loop_
 _atom_site_type_symbol
 _atom_site_label
 _atom_site_symmetry_multiplicity
 _atom_site_fract_x
 _atom_site_fract_y
 _atom_site_fract_z
 _atom_site_occupancy
  O  O0  1  0.73618255  0.61743440  0.38321225  1.0
  O  O1  1  1.23422215  1.35297029  0.61678775  1.0
  O  O2  1  0.38321225  0.73618255  0.61743440  1.0
  O  O3  1  1.11874815  0.76577785  1.38256560  1.0
  O  O4  1  0.61743440  0.38321225  0.73618255  1.0
  O  O5  1  0.64702971  0.88125185  0.26381745  1.0
  O  O6  1  0.76577785  1.38256560  1.11874815  1.0
  O  O7  1  0.26381745  0.64702971  0.88125185  1.0
  O  O8  1  0.88125185  0.26381745  0.64702971  1.0
  O  O9  1  0.61678775  1.23422215  1.35297029  1.0
  O  O10  1  1.35297029  0.61678775  1.23422215  1.0
  O  O11  1  1.38256560  1.11874815  0.76577785  1.0
  O  O12  1  0.38388508  0.38388508  0.38388508  1.0
  O  O13  1  1.00000000  1.00000000  0.61611492  1.0
  O  O14  1  1.00000000  0.61611492  1.00000000  1.0
  O  O15  1  0.61611492  1.00000000  1.00000000  1.0
  O  O16  1  0.79606511  0.79606511  0.79606511  1.0
  O  O17  1  1.00000000  1.00000000  0.20393489  1.0
  O  O18  1  1.00000000  0.20393489  1.00000000  1.0
  O  O19  1  0.20393489  1.00000000  1.00000000  1.0
  Al  Al20  1  0.00000000  0.00000000  0.00000000  1.0
  Bi  Bi21  1  0.49100832  0.32602740  0.18675229  1.0
  Bi  Bi22  1  1.13927511  1.30425603  0.81324771  1.0
  Bi  Bi23  1  0.18675229  0.49100832  0.32602740  1.0
  Bi  Bi24  1  1.16498092  0.86072489  1.67397260  1.0
  Bi  Bi25  1  0.32602740  0.18675229  0.49100832  1.0
  Bi  Bi26  1  0.69574397  0.83501908  0.50899168  1.0
  Bi  Bi27  1  0.86072489  1.67397260  1.16498092  1.0
  Bi  Bi28  1  0.50899168  0.69574397  0.83501908  1.0
  Bi  Bi29  1  0.83501908  0.50899168  0.69574397  1.0
  Bi  Bi30  1  0.81324771  1.13927511  1.30425603  1.0
  Bi  Bi31  1  1.30425603  0.81324771  1.13927511  1.0
  Bi  Bi32  1  1.67397260  1.16498092  0.86072489  1.0
