# generated using pymatgen
data_Ca2Sn
_symmetry_space_group_name_H-M   'P 1'
_cell_length_a   7.84658411
_cell_length_b   5.10669804
_cell_length_c   9.60192199
_cell_angle_alpha   90.00000000
_cell_angle_beta   90.00000000
_cell_angle_gamma   90.00000000
_symmetry_Int_Tables_number   1
_chemical_formula_structural   Ca2Sn
_chemical_formula_sum   'Ca8 Sn4'
_cell_volume   384.75031742
_cell_formula_units_Z   4
loop_
 _symmetry_equiv_pos_site_id
 _symmetry_equiv_pos_as_xyz
  1  'x, y, z'
loop_
 _atom_site_type_symbol
 _atom_site_label
 _atom_site_symmetry_multiplicity
 _atom_site_fract_x
 _atom_site_fract_y
 _atom_site_fract_z
 _atom_site_occupancy
  Ca  Ca0  1  0.97819175  0.75000000  0.68751336  1.0
  Ca  Ca1  1  0.47819175  0.75000000  0.81248664  1.0
  Ca  Ca2  1  0.02180825  0.25000000  0.31248664  1.0
  Ca  Ca3  1  0.52180825  0.25000000  0.18751336  1.0
  Ca  Ca4  1  0.83887267  0.75000000  0.07039933  1.0
  Ca  Ca5  1  0.33887267  0.75000000  0.42960067  1.0
  Ca  Ca6  1  0.16112733  0.25000000  0.92960067  1.0
  Ca  Ca7  1  0.66112733  0.25000000  0.57039933  1.0
  Sn  Sn8  1  0.75228825  0.75000000  0.39184089  1.0
  Sn  Sn9  1  0.25228825  0.75000000  0.10815911  1.0
  Sn  Sn10  1  0.24771175  0.25000000  0.60815911  1.0
  Sn  Sn11  1  0.74771175  0.25000000  0.89184089  1.0
