# generated using pymatgen
data_Hf5NiSn3
_symmetry_space_group_name_H-M   'P 1'
_cell_length_a   8.58893870
_cell_length_b   8.58893870
_cell_length_c   5.81255223
_cell_angle_alpha   90.00000000
_cell_angle_beta   90.00000000
_cell_angle_gamma   120.00000000
_symmetry_Int_Tables_number   1
_chemical_formula_structural   Hf5NiSn3
_chemical_formula_sum   'Hf10 Ni2 Sn6'
_cell_volume   371.34408136
_cell_formula_units_Z   2
loop_
 _symmetry_equiv_pos_site_id
 _symmetry_equiv_pos_as_xyz
  1  'x, y, z'
loop_
 _atom_site_type_symbol
 _atom_site_label
 _atom_site_symmetry_multiplicity
 _atom_site_fract_x
 _atom_site_fract_y
 _atom_site_fract_z
 _atom_site_occupancy
  Hf  Hf0  1  0.74610402  0.74610402  0.25000000  1.0
  Hf  Hf1  1  0.74610402  0.00000000  0.75000000  1.0
  Hf  Hf2  1  -0.00000000  0.74610402  0.75000000  1.0
  Hf  Hf3  1  -0.00000000  0.25389598  0.25000000  1.0
  Hf  Hf4  1  0.25389598  0.25389598  0.75000000  1.0
  Hf  Hf5  1  0.25389598  0.00000000  0.25000000  1.0
  Hf  Hf6  1  0.33333333  0.66666667  0.50000000  1.0
  Hf  Hf7  1  0.33333333  0.66666667  0.00000000  1.0
  Hf  Hf8  1  0.66666667  0.33333333  0.50000000  1.0
  Hf  Hf9  1  0.66666667  0.33333333  0.00000000  1.0
  Ni  Ni10  1  0.00000000  0.00000000  0.50000000  1.0
  Ni  Ni11  1  0.00000000  0.00000000  0.00000000  1.0
  Sn  Sn12  1  0.39230783  0.39230783  0.25000000  1.0
  Sn  Sn13  1  0.39230783  0.00000000  0.75000000  1.0
  Sn  Sn14  1  0.00000000  0.39230783  0.75000000  1.0
  Sn  Sn15  1  -0.00000000  0.60769217  0.25000000  1.0
  Sn  Sn16  1  0.60769217  0.60769217  0.75000000  1.0
  Sn  Sn17  1  0.60769217  0.00000000  0.25000000  1.0
