# generated using pymatgen
data_LiC6
_symmetry_space_group_name_H-M   'P 1'
_cell_length_a   2.52049635
_cell_length_b   5.99301716
_cell_length_c   6.31102126
_cell_angle_alpha   90.00000000
_cell_angle_beta   90.00000000
_cell_angle_gamma   90.00000000
_symmetry_Int_Tables_number   1
_chemical_formula_structural   LiC6
_chemical_formula_sum   'Li2 C12'
_cell_volume   95.33036084
_cell_formula_units_Z   2
loop_
 _symmetry_equiv_pos_site_id
 _symmetry_equiv_pos_as_xyz
  1  'x, y, z'
loop_
 _atom_site_type_symbol
 _atom_site_label
 _atom_site_symmetry_multiplicity
 _atom_site_fract_x
 _atom_site_fract_y
 _atom_site_fract_z
 _atom_site_occupancy
  Li  Li0  1  0.50000000  0.00000000  0.25193300  1.0
  Li  Li1  1  0.00000000  0.50000000  0.74806700  1.0
  C  C2  1  0.50000000  0.00000000  0.82088043  1.0
  C  C3  1  0.00000000  0.50000000  0.17911957  1.0
  C  C4  1  0.50000000  0.79131576  0.96252819  1.0
  C  C5  1  0.50000000  0.20868424  0.96252819  1.0
  C  C6  1  0.00000000  0.70868424  0.03747181  1.0
  C  C7  1  0.00000000  0.29131576  0.03747181  1.0
  C  C8  1  0.50000000  0.50000000  0.32290636  1.0
  C  C9  1  0.00000000  0.00000000  0.67709364  1.0
  C  C10  1  0.50000000  0.70497529  0.46724732  1.0
  C  C11  1  0.50000000  0.29502471  0.46724732  1.0
  C  C12  1  0.00000000  0.79502471  0.53275268  1.0
  C  C13  1  0.00000000  0.20497529  0.53275268  1.0
