# generated using pymatgen
data_Li3GaSiO5
_symmetry_space_group_name_H-M   'P 1'
_cell_length_a   5.42998416
_cell_length_b   15.72511275
_cell_length_c   4.90921053
_cell_angle_alpha   90.00000000
_cell_angle_beta   90.00000000
_cell_angle_gamma   90.00000000
_symmetry_Int_Tables_number   1
_chemical_formula_structural   Li3GaSiO5
_chemical_formula_sum   'Li12 Ga4 Si4 O20'
_cell_volume   419.18331447
_cell_formula_units_Z   4
loop_
 _symmetry_equiv_pos_site_id
 _symmetry_equiv_pos_as_xyz
  1  'x, y, z'
loop_
 _atom_site_type_symbol
 _atom_site_label
 _atom_site_symmetry_multiplicity
 _atom_site_fract_x
 _atom_site_fract_y
 _atom_site_fract_z
 _atom_site_occupancy
  Li  Li0  1  0.33525076  0.50527060  0.51728349  1.0
  Li  Li1  1  0.83525076  0.99472940  0.51728349  1.0
  Li  Li2  1  0.66474924  0.49472940  0.01728349  1.0
  Li  Li3  1  0.16474924  0.00527060  0.01728349  1.0
  Li  Li4  1  0.32163547  0.69492119  0.51482102  1.0
  Li  Li5  1  0.82163547  0.80507881  0.51482102  1.0
  Li  Li6  1  0.67836453  0.30507881  1.01482102  1.0
  Li  Li7  1  0.17836453  0.19492119  1.01482102  1.0
  Li  Li8  1  0.16638596  0.59248469  0.01397751  1.0
  Li  Li9  1  0.66638596  0.90751531  0.01397751  1.0
  Li  Li10  1  0.83361404  0.40751531  0.51397751  1.0
  Li  Li11  1  0.33361404  0.09248469  0.51397751  1.0
  Ga  Ga12  1  0.16925365  0.80088754  0.01441819  1.0
  Ga  Ga13  1  0.66925365  0.69911246  0.01441819  1.0
  Ga  Ga14  1  0.83074635  0.19911246  0.51441819  1.0
  Ga  Ga15  1  0.33074635  0.30088754  0.51441819  1.0
  Si  Si16  1  0.33345462  0.90234932  0.51989002  1.0
  Si  Si17  1  0.83345462  0.59765068  0.51989002  1.0
  Si  Si18  1  0.66654538  0.09765068  0.01989002  1.0
  Si  Si19  1  0.16654538  0.40234932  0.01989002  1.0
  O  O20  1  0.34005544  0.70294657  0.11194823  1.0
  O  O21  1  0.84005544  0.79705343  0.11194823  1.0
  O  O22  1  0.65994456  0.29705343  0.61194823  1.0
  O  O23  1  0.15994456  0.20294657  0.61194823  1.0
  O  O24  1  0.31806848  0.89510826  0.17733204  1.0
  O  O25  1  0.81806848  0.60489174  0.17733204  1.0
  O  O26  1  0.68193152  0.10489174  0.67733204  1.0
  O  O27  1  0.18193152  0.39510826  0.67733204  1.0
  O  O28  1  0.18655804  0.81316026  0.63155834  1.0
  O  O29  1  0.68655804  0.68683974  0.63155834  1.0
  O  O30  1  0.81344196  0.18683974  0.13155834  1.0
  O  O31  1  0.31344196  0.31316026  0.13155834  1.0
  O  O32  1  0.18359083  0.98587795  0.61890084  1.0
  O  O33  1  0.68359083  0.51412205  0.61890084  1.0
  O  O34  1  0.81640917  0.01412205  0.11890084  1.0
  O  O35  1  0.31640917  0.48587795  0.11890084  1.0
  O  O36  1  0.11917269  0.60133512  0.61687032  1.0
  O  O37  1  0.61917269  0.89866488  0.61687032  1.0
  O  O38  1  0.88082731  0.39866488  0.11687032  1.0
  O  O39  1  0.38082731  0.10133512  0.11687032  1.0
