# generated using pymatgen
data_K3La(PO4)2
_symmetry_space_group_name_H-M   'P 1'
_cell_length_a   7.60845638
_cell_length_b   5.76087902
_cell_length_c   9.75157464
_cell_angle_alpha   90.00000000
_cell_angle_beta   91.20944027
_cell_angle_gamma   90.00000000
_symmetry_Int_Tables_number   1
_chemical_formula_structural   K3La(PO4)2
_chemical_formula_sum   'K6 La2 P4 O16'
_cell_volume   427.32991461
_cell_formula_units_Z   2
loop_
 _symmetry_equiv_pos_site_id
 _symmetry_equiv_pos_as_xyz
  1  'x, y, z'
loop_
 _atom_site_type_symbol
 _atom_site_label
 _atom_site_symmetry_multiplicity
 _atom_site_fract_x
 _atom_site_fract_y
 _atom_site_fract_z
 _atom_site_occupancy
  K  K0  1  0.79645317  0.75000000  0.91542990  1.0
  K  K1  1  0.20354683  0.25000000  0.08457010  1.0
  K  K2  1  0.35788299  0.75000000  0.59334618  1.0
  K  K3  1  0.64211701  0.25000000  0.40665382  1.0
  K  K4  1  0.50723447  0.75000000  0.19081949  1.0
  K  K5  1  0.49276553  0.25000000  0.80918051  1.0
  La  La6  1  0.00657820  0.75000000  0.29137321  1.0
  La  La7  1  0.99342180  0.25000000  0.70862679  1.0
  P  P8  1  0.80173362  0.75000000  0.57303866  1.0
  P  P9  1  0.19826638  0.25000000  0.42696134  1.0
  P  P10  1  0.76337997  0.25000000  0.08474135  1.0
  P  P11  1  0.23662003  0.75000000  0.91525865  1.0
  O  O12  1  0.00517964  0.75000000  0.55461436  1.0
  O  O13  1  0.99482036  0.25000000  0.44538564  1.0
  O  O14  1  0.71491669  0.75000000  0.42575103  1.0
  O  O15  1  0.28508331  0.25000000  0.57424897  1.0
  O  O16  1  0.74522022  0.97176243  0.65344620  1.0
  O  O17  1  0.25477978  0.47176243  0.34655380  1.0
  O  O18  1  0.25477978  0.02823757  0.34655380  1.0
  O  O19  1  0.74522022  0.52823757  0.65344620  1.0
  O  O20  1  0.84287361  0.02818874  0.15650286  1.0
  O  O21  1  0.15712639  0.52818874  0.84349714  1.0
  O  O22  1  0.15712639  0.97181126  0.84349714  1.0
  O  O23  1  0.84287361  0.47181126  0.15650286  1.0
  O  O24  1  0.81689553  0.25000000  0.93046605  1.0
  O  O25  1  0.18310447  0.75000000  0.06953395  1.0
  O  O26  1  0.56166449  0.25000000  0.09935845  1.0
  O  O27  1  0.43833551  0.75000000  0.90064155  1.0
