# generated using pymatgen
data_LiAlO2
_symmetry_space_group_name_H-M   'P 1'
_cell_length_a   5.22813663
_cell_length_b   5.22813663
_cell_length_c   6.30140130
_cell_angle_alpha   90.00000000
_cell_angle_beta   90.00000000
_cell_angle_gamma   90.00000000
_symmetry_Int_Tables_number   1
_chemical_formula_structural   LiAlO2
_chemical_formula_sum   'Li4 Al4 O8'
_cell_volume   172.23880203
_cell_formula_units_Z   4
loop_
 _symmetry_equiv_pos_site_id
 _symmetry_equiv_pos_as_xyz
  1  'x, y, z'
loop_
 _atom_site_type_symbol
 _atom_site_label
 _atom_site_symmetry_multiplicity
 _atom_site_fract_x
 _atom_site_fract_y
 _atom_site_fract_z
 _atom_site_occupancy
  Li  Li0  1  0.18608618  0.81391382  0.25000000  1.0
  Li  Li1  1  0.68608618  0.68608618  0.50000000  1.0
  Li  Li2  1  0.81391382  0.18608618  0.75000000  1.0
  Li  Li3  1  0.31391382  0.31391382  0.00000000  1.0
  Al  Al4  1  0.82388231  0.17611769  0.25000000  1.0
  Al  Al5  1  0.32388231  0.32388231  0.50000000  1.0
  Al  Al6  1  0.17611769  0.82388231  0.75000000  1.0
  Al  Al7  1  0.67611769  0.67611769  0.00000000  1.0
  O  O8  1  0.33661552  0.70810800  0.97883332  1.0
  O  O9  1  0.83661552  0.79189200  0.77116668  1.0
  O  O10  1  0.29189200  0.66338448  0.52116668  1.0
  O  O11  1  0.79189200  0.83661552  0.22883332  1.0
  O  O12  1  0.66338448  0.29189200  0.47883332  1.0
  O  O13  1  0.16338448  0.20810800  0.27116668  1.0
  O  O14  1  0.70810800  0.33661552  0.02116668  1.0
  O  O15  1  0.20810800  0.16338448  0.72883332  1.0
