# generated using pymatgen
data_Ba5P3O13
_symmetry_space_group_name_H-M   'P 1'
_cell_length_a   10.23817082
_cell_length_b   10.23817082
_cell_length_c   7.69240368
_cell_angle_alpha   90.00000000
_cell_angle_beta   90.00000000
_cell_angle_gamma   120.00000000
_symmetry_Int_Tables_number   1
_chemical_formula_structural   Ba5P3O13
_chemical_formula_sum   'Ba10 P6 O26'
_cell_volume   698.29260195
_cell_formula_units_Z   2
loop_
 _symmetry_equiv_pos_site_id
 _symmetry_equiv_pos_as_xyz
  1  'x, y, z'
loop_
 _atom_site_type_symbol
 _atom_site_label
 _atom_site_symmetry_multiplicity
 _atom_site_fract_x
 _atom_site_fract_y
 _atom_site_fract_z
 _atom_site_occupancy
  Ba  Ba0  1  0.98711650  0.76001802  0.25000000  1.0
  Ba  Ba1  1  0.76001802  0.77290152  0.75000000  1.0
  Ba  Ba2  1  0.77290152  0.01288350  0.25000000  1.0
  Ba  Ba3  1  0.23998198  0.22709848  0.25000000  1.0
  Ba  Ba4  1  0.01288350  0.23998198  0.75000000  1.0
  Ba  Ba5  1  0.22709848  0.98711650  0.75000000  1.0
  Ba  Ba6  1  0.33333333  0.66666667  0.49850627  1.0
  Ba  Ba7  1  0.33333333  0.66666667  0.00149373  1.0
  Ba  Ba8  1  0.66666667  0.33333333  0.99850627  1.0
  Ba  Ba9  1  0.66666667  0.33333333  0.50149373  1.0
  O  O10  1  0.26863063  0.91935923  0.41423364  1.0
  O  O11  1  0.26863063  0.91935923  0.08576636  1.0
  O  O12  1  0.91935923  0.65072860  0.91423364  1.0
  O  O13  1  0.91935923  0.65072860  0.58576636  1.0
  O  O14  1  0.65072860  0.73136937  0.41423364  1.0
  O  O15  1  0.65072860  0.73136937  0.08576636  1.0
  O  O16  1  0.08064077  0.34927140  0.41423364  1.0
  O  O17  1  0.08064077  0.34927140  0.08576636  1.0
  O  O18  1  0.73136937  0.08064077  0.91423364  1.0
  O  O19  1  0.73136937  0.08064077  0.58576636  1.0
  O  O20  1  0.34927140  0.26863063  0.91423364  1.0
  O  O21  1  0.34927140  0.26863063  0.58576636  1.0
  O  O22  1  0.46917188  0.89132505  0.25000000  1.0
  O  O23  1  0.89132505  0.42215317  0.75000000  1.0
  O  O24  1  0.42215317  0.53082812  0.25000000  1.0
  O  O25  1  0.10867495  0.57784683  0.25000000  1.0
  O  O26  1  0.53082812  0.10867495  0.75000000  1.0
  O  O27  1  0.57784683  0.46917188  0.75000000  1.0
  O  O28  1  0.66998733  0.52359708  0.25000000  1.0
  O  O29  1  0.52359708  0.85360975  0.75000000  1.0
  O  O30  1  0.85360975  0.33001267  0.25000000  1.0
  O  O31  1  0.47640292  0.14639025  0.25000000  1.0
  O  O32  1  0.33001267  0.47640292  0.75000000  1.0
  O  O33  1  0.14639025  0.66998733  0.75000000  1.0
  O  O34  1  0.00000000  0.00000000  0.50000000  1.0
  O  O35  1  0.00000000  0.00000000  0.00000000  1.0
  P  P36  1  0.37304531  0.97140478  0.25000000  1.0
  P  P37  1  0.97140478  0.59835947  0.75000000  1.0
  P  P38  1  0.59835947  0.62695469  0.25000000  1.0
  P  P39  1  0.02859522  0.40164053  0.25000000  1.0
  P  P40  1  0.62695469  0.02859522  0.75000000  1.0
  P  P41  1  0.40164053  0.37304531  0.75000000  1.0
