# generated using pymatgen
data_Tl2PtI6
_symmetry_space_group_name_H-M   'P 1'
_cell_length_a   7.66910075
_cell_length_b   7.66910075
_cell_length_c   11.85794761
_cell_angle_alpha   90.00000000
_cell_angle_beta   90.00000000
_cell_angle_gamma   90.00000000
_symmetry_Int_Tables_number   1
_chemical_formula_structural   Tl2PtI6
_chemical_formula_sum   'Tl4 Pt2 I12'
_cell_volume   697.42645020
_cell_formula_units_Z   2
loop_
 _symmetry_equiv_pos_site_id
 _symmetry_equiv_pos_as_xyz
  1  'x, y, z'
loop_
 _atom_site_type_symbol
 _atom_site_label
 _atom_site_symmetry_multiplicity
 _atom_site_fract_x
 _atom_site_fract_y
 _atom_site_fract_z
 _atom_site_occupancy
  Tl  Tl0  1  0.50000000  0.00000000  0.25000000  1.0
  Tl  Tl1  1  0.50000000  0.00000000  0.75000000  1.0
  Tl  Tl2  1  0.00000000  0.50000000  0.75000000  1.0
  Tl  Tl3  1  0.00000000  0.50000000  0.25000000  1.0
  Pt  Pt4  1  0.50000000  0.50000000  0.50000000  1.0
  Pt  Pt5  1  0.00000000  0.00000000  0.00000000  1.0
  I  I6  1  0.30483921  0.79559658  0.50000000  1.0
  I  I7  1  0.80483921  0.70440342  0.00000000  1.0
  I  I8  1  0.20440342  0.30483921  0.50000000  1.0
  I  I9  1  0.70440342  0.19516079  0.00000000  1.0
  I  I10  1  0.69516079  0.20440342  0.50000000  1.0
  I  I11  1  0.19516079  0.29559658  0.00000000  1.0
  I  I12  1  0.79559658  0.69516079  0.50000000  1.0
  I  I13  1  0.29559658  0.80483921  0.00000000  1.0
  I  I14  1  0.50000000  0.50000000  0.27161778  1.0
  I  I15  1  0.50000000  0.50000000  0.72838222  1.0
  I  I16  1  0.00000000  0.00000000  0.77161778  1.0
  I  I17  1  0.00000000  0.00000000  0.22838222  1.0
