# generated using pymatgen
data_SnSb2As2F18
_symmetry_space_group_name_H-M   'P 1'
_cell_length_a   6.16439806
_cell_length_b   12.56352230
_cell_length_c   11.03859330
_cell_angle_alpha   90.00000000
_cell_angle_beta   89.51769975
_cell_angle_gamma   90.00000000
_symmetry_Int_Tables_number   1
_chemical_formula_structural   SnSb2As2F18
_chemical_formula_sum   'Sn2 Sb4 As4 F36'
_cell_volume   854.87070684
_cell_formula_units_Z   2
loop_
 _symmetry_equiv_pos_site_id
 _symmetry_equiv_pos_as_xyz
  1  'x, y, z'
loop_
 _atom_site_type_symbol
 _atom_site_label
 _atom_site_symmetry_multiplicity
 _atom_site_fract_x
 _atom_site_fract_y
 _atom_site_fract_z
 _atom_site_occupancy
  Sn  Sn0  1  -0.00788997  0.64079412  0.49572800  1.0
  Sn  Sn1  1  -0.00788997  0.35920588  -0.00427200  1.0
  Sb  Sb2  1  0.48720838  0.51965094  0.76077022  1.0
  Sb  Sb3  1  0.48720838  0.48034906  0.26077022  1.0
  Sb  Sb4  1  0.49113417  0.88350573  0.46823848  1.0
  Sb  Sb5  1  0.49113417  0.11649427  0.96823848  1.0
  As  As6  1  0.11638243  0.84595544  0.80080107  1.0
  As  As7  1  0.11638243  0.15404456  0.30080107  1.0
  As  As8  1  0.88760449  0.75151690  0.13089901  1.0
  As  As9  1  0.88760449  0.24848310  0.63089901  1.0
  F  F10  1  0.89621591  0.80173766  0.89862576  1.0
  F  F11  1  0.89621591  0.19826234  0.39862576  1.0
  F  F12  1  0.96304413  0.94753401  0.73115956  1.0
  F  F13  1  0.96304413  0.05246599  0.23115956  1.0
  F  F14  1  0.04548738  0.74616813  0.68495144  1.0
  F  F15  1  0.04548738  0.25383187  0.18495144  1.0
  F  F16  1  0.23840120  0.46752922  0.85290712  1.0
  F  F17  1  0.23840120  0.53247078  0.35290712  1.0
  F  F18  1  0.29780100  0.55836107  0.62788820  1.0
  F  F19  1  0.29780100  0.44163893  0.12788820  1.0
  F  F20  1  0.73420874  0.57190649  0.66831920  1.0
  F  F21  1  0.73420874  0.42809351  0.16831920  1.0
  F  F22  1  0.52428348  0.38169318  0.68986127  1.0
  F  F23  1  0.52428348  0.61830682  0.18986127  1.0
  F  F24  1  0.98102067  0.62776446  0.07019124  1.0
  F  F25  1  0.98102067  0.37223554  0.57019124  1.0
  F  F26  1  0.41843877  0.88686824  0.63829142  1.0
  F  F27  1  0.41843877  0.11313176  0.13829142  1.0
  F  F28  1  0.56040558  0.86549924  0.30087615  1.0
  F  F29  1  0.56040558  0.13450076  0.80087615  1.0
  F  F30  1  0.26117732  0.98121945  0.43275807  1.0
  F  F31  1  0.26117732  0.01878055  0.93275807  1.0
  F  F32  1  0.70789617  0.77312042  0.50645543  1.0
  F  F33  1  0.70789617  0.22687958  1.00645543  1.0
  F  F34  1  0.70036677  -0.00734962  0.48858274  1.0
  F  F35  1  0.70036677  1.00734962  0.98858274  1.0
  F  F36  1  0.28141830  0.76478095  0.45465998  1.0
  F  F37  1  0.28141830  0.23521905  0.95465998  1.0
  F  F38  1  0.44540572  0.65700530  0.83118605  1.0
  F  F39  1  0.44540572  0.34299470  0.33118605  1.0
  F  F40  1  0.93858748  0.70883289  0.28951782  1.0
  F  F41  1  0.93858748  0.29116711  0.78951782  1.0
  F  F42  1  0.67835548  0.47864908  0.89156463  1.0
  F  F43  1  0.67835548  0.52135092  0.39156463  1.0
  F  F44  1  0.14294641  0.81664785  0.12016714  1.0
  F  F45  1  0.14294641  0.18335215  0.62016714  1.0
