# generated using pymatgen
data_LiTi2(PO4)3
_symmetry_space_group_name_H-M   'P 1'
_cell_length_a   8.61474310
_cell_length_b   8.61474310
_cell_length_c   8.61474310
_cell_angle_alpha   60.09926950
_cell_angle_beta   60.09926950
_cell_angle_gamma   60.09926950
_symmetry_Int_Tables_number   1
_chemical_formula_structural   LiTi2(PO4)3
_chemical_formula_sum   'Li2 Ti4 P6 O24'
_cell_volume   453.09341077
_cell_formula_units_Z   2
loop_
 _symmetry_equiv_pos_site_id
 _symmetry_equiv_pos_as_xyz
  1  'x, y, z'
loop_
 _atom_site_type_symbol
 _atom_site_label
 _atom_site_symmetry_multiplicity
 _atom_site_fract_x
 _atom_site_fract_y
 _atom_site_fract_z
 _atom_site_occupancy
  Li  Li0  1  1.00000000  -0.00000000  -0.00000000  1.0
  Li  Li1  1  0.50000000  0.50000000  0.50000000  1.0
  Ti  Ti2  1  0.85851436  -0.14148564  -0.14148564  1.0
  Ti  Ti3  1  0.35851436  0.35851436  0.35851436  1.0
  Ti  Ti4  1  0.64148564  0.64148564  -0.35851436  1.0
  Ti  Ti5  1  1.14148564  0.14148564  0.14148564  1.0
  P  P6  1  0.45952398  0.75000000  0.04047602  1.0
  P  P7  1  0.95952398  -0.45952398  0.25000000  1.0
  P  P8  1  0.25000000  0.95952398  -0.45952398  1.0
  P  P9  1  0.75000000  1.04047602  -0.54047602  1.0
  P  P10  1  0.54047602  0.25000000  -0.04047602  1.0
  P  P11  1  1.04047602  0.45952398  -0.25000000  1.0
  O  O12  1  0.80715866  0.99782225  -0.37518974  1.0
  O  O13  1  1.30715866  0.12481026  -0.50217775  1.0
  O  O14  1  0.87518974  0.50217775  -0.30715866  1.0
  O  O15  1  0.37518974  0.19284134  0.00217775  1.0
  O  O16  1  1.00217775  0.37518974  -0.80715866  1.0
  O  O17  1  0.50217775  0.69284134  -0.12481026  1.0
  O  O18  1  0.19284134  1.00217775  -0.62481026  1.0
  O  O19  1  0.69284134  0.87518974  -0.49782225  1.0
  O  O20  1  0.62481026  0.80715866  -0.00217775  1.0
  O  O21  1  1.12481026  -0.50217775  0.30715866  1.0
  O  O22  1  0.49782225  0.30715866  0.12481026  1.0
  O  O23  1  0.99782225  0.62481026  -0.19284134  1.0
  O  O24  1  0.73155351  0.08368023  -0.05643025  1.0
  O  O25  1  1.23155351  0.44356975  -0.41631977  1.0
  O  O26  1  0.55643025  0.41631977  -0.23155351  1.0
  O  O27  1  1.05643025  0.26844649  -0.08368023  1.0
  O  O28  1  0.91631977  0.05643025  0.26844649  1.0
  O  O29  1  0.41631977  0.76844649  -0.44356975  1.0
  O  O30  1  1.26844649  -0.08368023  0.05643025  1.0
  O  O31  1  0.76844649  0.55643025  -0.58368023  1.0
  O  O32  1  0.94356975  -0.26844649  0.08368023  1.0
  O  O33  1  0.44356975  0.58368023  0.23155351  1.0
  O  O34  1  0.58368023  1.23155351  -0.55643025  1.0
  O  O35  1  1.08368023  -0.05643025  -0.26844649  1.0
