# generated using pymatgen
data_Lu2Hf3Si4
_symmetry_space_group_name_H-M   'P 1'
_cell_length_a   7.22020601
_cell_length_b   7.22020601
_cell_length_c   13.19459069
_cell_angle_alpha   90.00000000
_cell_angle_beta   90.00000000
_cell_angle_gamma   90.00000000
_symmetry_Int_Tables_number   1
_chemical_formula_structural   Lu2Hf3Si4
_chemical_formula_sum   'Lu8 Hf12 Si16'
_cell_volume   687.85215366
_cell_formula_units_Z   4
loop_
 _symmetry_equiv_pos_site_id
 _symmetry_equiv_pos_as_xyz
  1  'x, y, z'
loop_
 _atom_site_type_symbol
 _atom_site_label
 _atom_site_symmetry_multiplicity
 _atom_site_fract_x
 _atom_site_fract_y
 _atom_site_fract_z
 _atom_site_occupancy
  Lu  Lu0  1  0.50479319  0.84481544  0.03466089  1.0
  Lu  Lu1  1  1.00479319  0.65518456  0.71533911  1.0
  Lu  Lu2  1  0.15518456  0.49520681  0.46533911  1.0
  Lu  Lu3  1  0.65518456  1.00479319  0.28466089  1.0
  Lu  Lu4  1  0.49520681  0.15518456  0.53466089  1.0
  Lu  Lu5  1  -0.00479319  0.34481544  0.21533911  1.0
  Lu  Lu6  1  0.84481544  0.50479319  0.96533911  1.0
  Lu  Lu7  1  0.34481544  -0.00479319  0.78466089  1.0
  Hf  Hf8  1  0.32460221  0.67539779  0.25000000  1.0
  Hf  Hf9  1  0.82460221  0.82460221  0.50000000  1.0
  Hf  Hf10  1  0.67539779  0.32460221  0.75000000  1.0
  Hf  Hf11  1  0.17539779  0.17539779  0.00000000  1.0
  Hf  Hf12  1  0.35402627  0.49814055  0.87548661  1.0
  Hf  Hf13  1  0.85402627  1.00185945  0.87451339  1.0
  Hf  Hf14  1  0.50185945  0.64597373  0.62451339  1.0
  Hf  Hf15  1  1.00185945  0.85402627  0.12548661  1.0
  Hf  Hf16  1  0.64597373  0.50185945  0.37548661  1.0
  Hf  Hf17  1  0.14597373  -0.00185945  0.37451339  1.0
  Hf  Hf18  1  0.49814055  0.35402627  0.12451339  1.0
  Hf  Hf19  1  -0.00185945  0.14597373  0.62548661  1.0
  Si  Si20  1  0.20090822  0.54838465  0.06436302  1.0
  Si  Si21  1  0.70090822  0.95161535  0.68563698  1.0
  Si  Si22  1  0.45161535  0.79909178  0.43563698  1.0
  Si  Si23  1  0.95161535  0.70090822  0.31436302  1.0
  Si  Si24  1  0.79909178  0.45161535  0.56436302  1.0
  Si  Si25  1  0.29909178  0.04838465  0.18563698  1.0
  Si  Si26  1  0.54838465  0.20090822  0.93563698  1.0
  Si  Si27  1  0.04838465  0.29909178  0.81436302  1.0
  Si  Si28  1  0.14294006  0.79588427  0.93144435  1.0
  Si  Si29  1  0.64294006  0.70411573  0.81855565  1.0
  Si  Si30  1  0.20411573  0.85705994  0.56855565  1.0
  Si  Si31  1  0.70411573  0.64294006  0.18144435  1.0
  Si  Si32  1  0.85705994  0.20411573  0.43144435  1.0
  Si  Si33  1  0.35705994  0.29588427  0.31855565  1.0
  Si  Si34  1  0.79588427  0.14294006  0.06855565  1.0
  Si  Si35  1  0.29588427  0.35705994  0.68144435  1.0
