# generated using pymatgen
data_KPH3O4F
_symmetry_space_group_name_H-M   'P 1'
_cell_length_a   6.40676174
_cell_length_b   12.50658083
_cell_length_c   6.99613194
_cell_angle_alpha   90.00000000
_cell_angle_beta   115.04678233
_cell_angle_gamma   90.00000000
_symmetry_Int_Tables_number   1
_chemical_formula_structural   KPH3O4F
_chemical_formula_sum   'K4 P4 H12 O16 F4'
_cell_volume   507.86155694
_cell_formula_units_Z   4
loop_
 _symmetry_equiv_pos_site_id
 _symmetry_equiv_pos_as_xyz
  1  'x, y, z'
loop_
 _atom_site_type_symbol
 _atom_site_label
 _atom_site_symmetry_multiplicity
 _atom_site_fract_x
 _atom_site_fract_y
 _atom_site_fract_z
 _atom_site_occupancy
  K  K0  1  0.11631802  0.13562501  0.39196551  1.0
  K  K1  1  0.11631802  0.36437499  0.89196551  1.0
  K  K2  1  0.88368198  0.63562501  0.10803449  1.0
  K  K3  1  0.88368198  0.86437499  0.60803449  1.0
  P  P4  1  0.62715764  0.35655501  0.40604892  1.0
  P  P5  1  0.62715764  0.14344499  0.90604892  1.0
  P  P6  1  0.37284236  0.85655501  0.09395108  1.0
  P  P7  1  0.37284236  0.64344499  0.59395108  1.0
  H  H8  1  0.94153426  0.38795677  0.29868080  1.0
  H  H9  1  0.94153426  0.11204323  0.79868080  1.0
  H  H10  1  0.05846574  0.88795677  0.20131920  1.0
  H  H11  1  0.05846574  0.61204323  0.70131920  1.0
  H  H12  1  0.53168119  0.20428051  0.22568886  1.0
  H  H13  1  0.53168119  0.29571949  0.72568886  1.0
  H  H14  1  0.46831881  0.70428051  0.27431114  1.0
  H  H15  1  0.46831881  0.79571949  0.77431114  1.0
  H  H16  1  0.53664447  0.01596090  0.19087428  1.0
  H  H17  1  0.53664447  0.48403910  0.69087428  1.0
  H  H18  1  0.46335553  0.51596090  0.30912572  1.0
  H  H19  1  0.46335553  0.98403910  0.80912572  1.0
  O  O20  1  0.87108489  0.33364242  0.42735254  1.0
  O  O21  1  0.87108489  0.16635758  0.92735254  1.0
  O  O22  1  0.12891511  0.83364242  0.07264746  1.0
  O  O23  1  0.12891511  0.66635758  0.57264746  1.0
  O  O24  1  0.61503487  0.12190550  0.11743388  1.0
  O  O25  1  0.61503487  0.37809450  0.61743388  1.0
  O  O26  1  0.38496513  0.62190550  0.38256612  1.0
  O  O27  1  0.38496513  0.87809450  0.88256612  1.0
  O  O28  1  0.52091182  0.45432053  0.24936714  1.0
  O  O29  1  0.52091182  0.04567947  0.74936714  1.0
  O  O30  1  0.47908818  0.95432053  0.25063286  1.0
  O  O31  1  0.47908818  0.54567947  0.75063286  1.0
  O  O32  1  0.46320958  0.25728441  0.29741784  1.0
  O  O33  1  0.46320958  0.24271559  0.79741784  1.0
  O  O34  1  0.53679042  0.75728441  0.20258216  1.0
  O  O35  1  0.53679042  0.74271559  0.70258216  1.0
  F  F36  1  0.99996391  0.92797423  0.30095902  1.0
  F  F37  1  0.99996391  0.57202577  0.80095902  1.0
  F  F38  1  0.00003609  0.42797423  0.19904098  1.0
  F  F39  1  0.00003609  0.07202577  0.69904098  1.0
