# generated using pymatgen
data_WO2
_symmetry_space_group_name_H-M   'P 1'
_cell_length_a   9.76738251
_cell_length_b   8.50216738
_cell_length_c   4.83969231
_cell_angle_alpha   90.00000000
_cell_angle_beta   90.00000000
_cell_angle_gamma   90.00000000
_symmetry_Int_Tables_number   1
_chemical_formula_structural   WO2
_chemical_formula_sum   'W12 O24'
_cell_volume   401.90702603
_cell_formula_units_Z   12
loop_
 _symmetry_equiv_pos_site_id
 _symmetry_equiv_pos_as_xyz
  1  'x, y, z'
loop_
 _atom_site_type_symbol
 _atom_site_label
 _atom_site_symmetry_multiplicity
 _atom_site_fract_x
 _atom_site_fract_y
 _atom_site_fract_z
 _atom_site_occupancy
  W  W0  1  0.86662173  0.39978984  -0.00762617  1.0
  W  W1  1  0.86662173  0.10021016  -0.00762617  1.0
  W  W2  1  0.36662173  0.39978984  0.50762617  1.0
  W  W3  1  0.36662173  0.10021016  0.50762617  1.0
  W  W4  1  0.13337827  0.89978984  1.00762617  1.0
  W  W5  1  0.13337827  0.60021016  1.00762617  1.0
  W  W6  1  0.63337827  0.89978984  0.49237383  1.0
  W  W7  1  0.63337827  0.60021016  0.49237383  1.0
  W  W8  1  0.63476273  0.25000000  -0.02018268  1.0
  W  W9  1  0.13476273  0.25000000  0.52018268  1.0
  W  W10  1  0.36523727  0.75000000  1.02018268  1.0
  W  W11  1  0.86523727  0.75000000  0.47981732  1.0
  O  O12  1  0.95552747  0.91295291  0.22213492  1.0
  O  O13  1  0.95552747  0.58704709  0.22213492  1.0
  O  O14  1  0.45552747  0.91295291  0.27786508  1.0
  O  O15  1  0.45552747  0.58704709  0.27786508  1.0
  O  O16  1  0.04447253  0.41295291  0.77786508  1.0
  O  O17  1  0.04447253  0.08704709  0.77786508  1.0
  O  O18  1  0.54447253  0.41295291  0.72213492  1.0
  O  O19  1  0.54447253  0.08704709  0.72213492  1.0
  O  O20  1  0.69913639  0.42770741  0.22300237  1.0
  O  O21  1  0.69913639  0.07229259  0.22300237  1.0
  O  O22  1  0.19913639  0.42770741  0.27699763  1.0
  O  O23  1  0.19913639  0.07229259  0.27699763  1.0
  O  O24  1  0.30086361  0.92770741  0.77699763  1.0
  O  O25  1  0.30086361  0.57229259  0.77699763  1.0
  O  O26  1  0.80086361  0.92770741  0.72300237  1.0
  O  O27  1  0.80086361  0.57229259  0.72300237  1.0
  O  O28  1  0.95944533  0.25000000  0.25453942  1.0
  O  O29  1  0.45944533  0.25000000  0.24546058  1.0
  O  O30  1  0.04055467  0.75000000  0.74546058  1.0
  O  O31  1  0.54055467  0.75000000  0.75453942  1.0
  O  O32  1  0.79422140  0.25000000  0.69866853  1.0
  O  O33  1  0.29422140  0.25000000  0.80133147  1.0
  O  O34  1  0.20577860  0.75000000  0.30133147  1.0
  O  O35  1  0.70577860  0.75000000  0.19866853  1.0
