# generated using pymatgen
data_Ba(GdSe2)2
_symmetry_space_group_name_H-M   'P 1'
_cell_length_a   12.87805528
_cell_length_b   4.26169569
_cell_length_c   15.33577197
_cell_angle_alpha   90.00000000
_cell_angle_beta   90.00000000
_cell_angle_gamma   90.00000000
_symmetry_Int_Tables_number   1
_chemical_formula_structural   Ba(GdSe2)2
_chemical_formula_sum   'Ba4 Gd8 Se16'
_cell_volume   841.66324571
_cell_formula_units_Z   4
loop_
 _symmetry_equiv_pos_site_id
 _symmetry_equiv_pos_as_xyz
  1  'x, y, z'
loop_
 _atom_site_type_symbol
 _atom_site_label
 _atom_site_symmetry_multiplicity
 _atom_site_fract_x
 _atom_site_fract_y
 _atom_site_fract_z
 _atom_site_occupancy
  Ba  Ba0  1  0.75831591  0.75000000  0.66349187  1.0
  Ba  Ba1  1  0.25831591  0.75000000  0.83650813  1.0
  Ba  Ba2  1  0.24168409  0.25000000  0.33650813  1.0
  Ba  Ba3  1  0.74168409  0.25000000  0.16349187  1.0
  Gd  Gd4  1  0.92075056  0.75000000  0.39958857  1.0
  Gd  Gd5  1  0.42075056  0.75000000  0.10041143  1.0
  Gd  Gd6  1  0.07924944  0.25000000  0.60041143  1.0
  Gd  Gd7  1  0.57924944  0.25000000  0.89958857  1.0
  Gd  Gd8  1  0.43319045  0.75000000  0.60887309  1.0
  Gd  Gd9  1  0.93319045  0.75000000  0.89112691  1.0
  Gd  Gd10  1  0.56680955  0.25000000  0.39112691  1.0
  Gd  Gd11  1  0.06680955  0.25000000  0.10887309  1.0
  Se  Se12  1  0.91624502  0.75000000  0.07799308  1.0
  Se  Se13  1  0.41624502  0.75000000  0.42200692  1.0
  Se  Se14  1  0.08375498  0.25000000  0.92200692  1.0
  Se  Se15  1  0.58375498  0.25000000  0.57799308  1.0
  Se  Se16  1  0.70712330  0.75000000  0.33281750  1.0
  Se  Se17  1  0.20712330  0.75000000  0.16718250  1.0
  Se  Se18  1  0.29287670  0.25000000  0.66718250  1.0
  Se  Se19  1  0.79287670  0.25000000  0.83281750  1.0
  Se  Se20  1  0.62751730  0.75000000  0.02490335  1.0
  Se  Se21  1  0.12751730  0.75000000  0.47509665  1.0
  Se  Se22  1  0.37248270  0.25000000  0.97509665  1.0
  Se  Se23  1  0.87248270  0.25000000  0.52490335  1.0
  Se  Se24  1  0.52280847  0.75000000  0.78334798  1.0
  Se  Se25  1  0.02280847  0.75000000  0.71665202  1.0
  Se  Se26  1  0.47719153  0.25000000  0.21665202  1.0
  Se  Se27  1  0.97719153  0.25000000  0.28334798  1.0
