# generated using pymatgen
data_Sr5Re3ClO15
_symmetry_space_group_name_H-M   'P 1'
_cell_length_a   10.77390950
_cell_length_b   10.77390950
_cell_length_c   7.53550004
_cell_angle_alpha   90.00000000
_cell_angle_beta   90.00000000
_cell_angle_gamma   120.00000000
_symmetry_Int_Tables_number   1
_chemical_formula_structural   Sr5Re3ClO15
_chemical_formula_sum   'Sr10 Re6 Cl2 O30'
_cell_volume   757.51171650
_cell_formula_units_Z   2
loop_
 _symmetry_equiv_pos_site_id
 _symmetry_equiv_pos_as_xyz
  1  'x, y, z'
loop_
 _atom_site_type_symbol
 _atom_site_label
 _atom_site_symmetry_multiplicity
 _atom_site_fract_x
 _atom_site_fract_y
 _atom_site_fract_z
 _atom_site_occupancy
  Sr  Sr0  1  0.27636193  0.27636193  0.21580035  1.0
  Sr  Sr1  1  0.27636193  0.00000000  0.71580035  1.0
  Sr  Sr2  1  0.00000000  0.27636193  0.71580035  1.0
  Sr  Sr3  1  -0.00000000  0.72363807  0.21580035  1.0
  Sr  Sr4  1  0.72363807  0.72363807  0.71580035  1.0
  Sr  Sr5  1  0.72363807  0.00000000  0.21580035  1.0
  Sr  Sr6  1  0.33333333  0.66666667  0.46442586  1.0
  Sr  Sr7  1  0.33333333  0.66666667  0.96442586  1.0
  Sr  Sr8  1  0.66666667  0.33333333  0.46442586  1.0
  Sr  Sr9  1  0.66666667  0.33333333  0.96442586  1.0
  Re  Re10  1  0.60997896  0.60997896  0.16557236  1.0
  Re  Re11  1  0.60997896  0.00000000  0.66557236  1.0
  Re  Re12  1  0.00000000  0.60997896  0.66557236  1.0
  Re  Re13  1  0.00000000  0.39002104  0.16557236  1.0
  Re  Re14  1  0.39002104  0.39002104  0.66557236  1.0
  Re  Re15  1  0.39002104  0.00000000  0.16557236  1.0
  Cl  Cl16  1  0.00000000  0.00000000  0.14853048  1.0
  Cl  Cl17  1  0.00000000  0.00000000  0.64853048  1.0
  O  O18  1  0.44674307  0.86508588  0.20640844  1.0
  O  O19  1  0.44674307  0.58165719  0.70640844  1.0
  O  O20  1  0.86508588  0.44674307  0.20640844  1.0
  O  O21  1  0.86508588  0.41834281  0.70640844  1.0
  O  O22  1  0.41834281  0.86508588  0.70640844  1.0
  O  O23  1  0.41834281  0.55325693  0.20640844  1.0
  O  O24  1  0.13491412  0.55325693  0.70640844  1.0
  O  O25  1  0.13491412  0.58165719  0.20640844  1.0
  O  O26  1  0.55325693  0.41834281  0.20640844  1.0
  O  O27  1  0.55325693  0.13491412  0.70640844  1.0
  O  O28  1  0.58165719  0.44674307  0.70640844  1.0
  O  O29  1  0.58165719  0.13491412  0.20640844  1.0
  O  O30  1  0.25383714  0.86495122  0.01849995  1.0
  O  O31  1  0.25383714  0.38888592  0.51849995  1.0
  O  O32  1  0.86495122  0.25383714  0.01849995  1.0
  O  O33  1  0.86495122  0.61111408  0.51849995  1.0
  O  O34  1  0.61111408  0.86495122  0.51849995  1.0
  O  O35  1  0.61111408  0.74616286  0.01849995  1.0
  O  O36  1  0.13504878  0.74616286  0.51849995  1.0
  O  O37  1  0.13504878  0.38888592  0.01849995  1.0
  O  O38  1  0.74616286  0.61111408  0.01849995  1.0
  O  O39  1  0.74616286  0.13504878  0.51849995  1.0
  O  O40  1  0.38888592  0.25383714  0.51849995  1.0
  O  O41  1  0.38888592  0.13504878  0.01849995  1.0
  O  O42  1  0.70457690  0.70457690  0.35351644  1.0
  O  O43  1  0.70457690  0.00000000  0.85351644  1.0
  O  O44  1  -0.00000000  0.70457690  0.85351644  1.0
  O  O45  1  0.00000000  0.29542310  0.35351644  1.0
  O  O46  1  0.29542310  0.29542310  0.85351644  1.0
  O  O47  1  0.29542310  0.00000000  0.35351644  1.0
