# generated using pymatgen
data_LiBH4
_symmetry_space_group_name_H-M   'P 1'
_cell_length_a   8.55276949
_cell_length_b   4.36289987
_cell_length_c   5.78701625
_cell_angle_alpha   90.00000000
_cell_angle_beta   90.00000000
_cell_angle_gamma   90.00000000
_symmetry_Int_Tables_number   1
_chemical_formula_structural   LiBH4
_chemical_formula_sum   'Li4 B4 H16'
_cell_volume   215.94179892
_cell_formula_units_Z   4
loop_
 _symmetry_equiv_pos_site_id
 _symmetry_equiv_pos_as_xyz
  1  'x, y, z'
loop_
 _atom_site_type_symbol
 _atom_site_label
 _atom_site_symmetry_multiplicity
 _atom_site_fract_x
 _atom_site_fract_y
 _atom_site_fract_z
 _atom_site_occupancy
  Li  Li0  1  0.85592199  0.75000000  0.91948369  1.0
  Li  Li1  1  0.35592199  0.75000000  0.58051631  1.0
  Li  Li2  1  0.14407801  0.25000000  0.08051631  1.0
  Li  Li3  1  0.64407801  0.25000000  0.41948369  1.0
  B  B4  1  0.36348462  0.25000000  0.34775869  1.0
  B  B5  1  0.86348462  0.25000000  0.15224131  1.0
  B  B6  1  0.63651538  0.75000000  0.65224131  1.0
  B  B7  1  0.13651538  0.75000000  0.84775869  1.0
  H  H8  1  0.28233781  0.47833847  0.31809399  1.0
  H  H9  1  0.78233781  0.02166153  0.18190601  1.0
  H  H10  1  0.71766219  0.97833847  0.68190601  1.0
  H  H11  1  0.21766219  0.52166153  0.81809399  1.0
  H  H12  1  0.71766219  0.52166153  0.68190601  1.0
  H  H13  1  0.21766219  0.97833847  0.81809399  1.0
  H  H14  1  0.28233781  0.02166153  0.31809399  1.0
  H  H15  1  0.78233781  0.47833847  0.18190601  1.0
  H  H16  1  0.46925723  0.25000000  0.20594886  1.0
  H  H17  1  0.96925723  0.25000000  0.29405114  1.0
  H  H18  1  0.53074277  0.75000000  0.79405114  1.0
  H  H19  1  0.03074277  0.75000000  0.70594886  1.0
  H  H20  1  0.41145696  0.25000000  0.54758551  1.0
  H  H21  1  0.91145696  0.25000000  0.95241449  1.0
  H  H22  1  0.58854304  0.75000000  0.45241449  1.0
  H  H23  1  0.08854304  0.75000000  0.04758551  1.0
