# generated using pymatgen
data_BaSeO4
_symmetry_space_group_name_H-M   'P 1'
_cell_length_a   9.15231270
_cell_length_b   5.82036823
_cell_length_c   7.49341990
_cell_angle_alpha   90.00000000
_cell_angle_beta   90.00000000
_cell_angle_gamma   90.00000000
_symmetry_Int_Tables_number   1
_chemical_formula_structural   BaSeO4
_chemical_formula_sum   'Ba4 Se4 O16'
_cell_volume   399.17320488
_cell_formula_units_Z   4
loop_
 _symmetry_equiv_pos_site_id
 _symmetry_equiv_pos_as_xyz
  1  'x, y, z'
loop_
 _atom_site_type_symbol
 _atom_site_label
 _atom_site_symmetry_multiplicity
 _atom_site_fract_x
 _atom_site_fract_y
 _atom_site_fract_z
 _atom_site_occupancy
  Ba  Ba0  1  0.31662360  0.75000000  0.15761789  1.0
  Ba  Ba1  1  0.81662360  0.75000000  0.34238211  1.0
  Ba  Ba2  1  0.68337640  0.25000000  0.84238211  1.0
  Ba  Ba3  1  0.18337640  0.25000000  0.65761789  1.0
  Se  Se4  1  0.43809402  0.75000000  0.68372543  1.0
  Se  Se5  1  0.93809402  0.75000000  0.81627457  1.0
  Se  Se6  1  0.56190598  0.25000000  0.31627457  1.0
  Se  Se7  1  0.06190598  0.25000000  0.18372543  1.0
  O  O8  1  0.42063324  0.98289345  0.81418970  1.0
  O  O9  1  0.42063324  0.51710655  0.81418970  1.0
  O  O10  1  0.92063324  0.98289345  0.68581030  1.0
  O  O11  1  0.92063324  0.51710655  0.68581030  1.0
  O  O12  1  0.57936676  0.48289345  0.18581030  1.0
  O  O13  1  0.57936676  0.01710655  0.18581030  1.0
  O  O14  1  0.07936676  0.48289345  0.31418970  1.0
  O  O15  1  0.07936676  0.01710655  0.31418970  1.0
  O  O16  1  0.30280025  0.75000000  0.53501596  1.0
  O  O17  1  0.80280025  0.75000000  0.96498404  1.0
  O  O18  1  0.69719975  0.25000000  0.46498404  1.0
  O  O19  1  0.19719975  0.25000000  0.03501596  1.0
  O  O20  1  0.10304880  0.75000000  0.90723975  1.0
  O  O21  1  0.60304880  0.75000000  0.59276025  1.0
  O  O22  1  0.89695120  0.25000000  0.09276025  1.0
  O  O23  1  0.39695120  0.25000000  0.40723975  1.0
