# generated using pymatgen
data_Be15(Nb3Cu4)2
_symmetry_space_group_name_H-M   'P 1'
_cell_length_a   7.66437236
_cell_length_b   7.66437236
_cell_length_c   7.66437236
_cell_angle_alpha   60.00000000
_cell_angle_beta   60.00000000
_cell_angle_gamma   60.00000000
_symmetry_Int_Tables_number   1
_chemical_formula_structural   Be15(Nb3Cu4)2
_chemical_formula_sum   'Be15 Nb6 Cu8'
_cell_volume   318.35728351
_cell_formula_units_Z   1
loop_
 _symmetry_equiv_pos_site_id
 _symmetry_equiv_pos_as_xyz
  1  'x, y, z'
loop_
 _atom_site_type_symbol
 _atom_site_label
 _atom_site_symmetry_multiplicity
 _atom_site_fract_x
 _atom_site_fract_y
 _atom_site_fract_z
 _atom_site_occupancy
  Be  Be0  1  0.67348617  0.67348617  -0.32651383  1.0
  Be  Be1  1  1.32651383  0.32651383  0.02045851  1.0
  Be  Be2  1  1.32651383  0.02045851  0.32651383  1.0
  Be  Be3  1  0.97954149  0.67348617  -0.32651383  1.0
  Be  Be4  1  1.02045851  0.32651383  0.32651383  1.0
  Be  Be5  1  0.67348617  0.97954149  -0.32651383  1.0
  Be  Be6  1  0.67348617  0.67348617  -0.02045851  1.0
  Be  Be7  1  1.32651383  0.32651383  0.32651383  1.0
  Be  Be8  1  1.50000000  0.00000000  -0.00000000  1.0
  Be  Be9  1  1.00000000  0.50000000  -0.50000000  1.0
  Be  Be10  1  0.00000000  1.50000000  -0.00000000  1.0
  Be  Be11  1  0.50000000  1.00000000  -0.50000000  1.0
  Be  Be12  1  0.00000000  -0.00000000  0.50000000  1.0
  Be  Be13  1  0.50000000  -0.50000000  1.00000000  1.0
  Be  Be14  1  0.00000000  0.00000000  -0.00000000  1.0
  Nb  Nb15  1  -0.69250311  0.69250311  0.69250311  1.0
  Nb  Nb16  1  -0.30749689  0.30749689  0.69250311  1.0
  Nb  Nb17  1  0.69250311  0.69250311  -0.69250311  1.0
  Nb  Nb18  1  0.30749689  1.30749689  -0.30749689  1.0
  Nb  Nb19  1  0.30749689  -0.30749689  1.30749689  1.0
  Nb  Nb20  1  -0.30749689  0.30749689  0.30749689  1.0
  Cu  Cu21  1  0.87683105  0.87683105  -0.12316895  1.0
  Cu  Cu22  1  1.12316895  0.12316895  0.63049314  1.0
  Cu  Cu23  1  1.12316895  0.63049314  0.12316895  1.0
  Cu  Cu24  1  0.36950686  0.87683105  -0.12316895  1.0
  Cu  Cu25  1  1.63049314  0.12316895  0.12316895  1.0
  Cu  Cu26  1  0.87683105  0.36950686  -0.12316895  1.0
  Cu  Cu27  1  0.87683105  0.87683105  -0.63049314  1.0
  Cu  Cu28  1  1.12316895  0.12316895  0.12316895  1.0
