# generated using pymatgen
data_Mg(FeO2)2
_symmetry_space_group_name_H-M   'P 1'
_cell_length_a   2.91380227
_cell_length_b   9.67538507
_cell_length_c   9.47618575
_cell_angle_alpha   90.00000000
_cell_angle_beta   90.00000000
_cell_angle_gamma   90.00000000
_symmetry_Int_Tables_number   1
_chemical_formula_structural   Mg(FeO2)2
_chemical_formula_sum   'Mg4 Fe8 O16'
_cell_volume   267.15413528
_cell_formula_units_Z   4
loop_
 _symmetry_equiv_pos_site_id
 _symmetry_equiv_pos_as_xyz
  1  'x, y, z'
loop_
 _atom_site_type_symbol
 _atom_site_label
 _atom_site_symmetry_multiplicity
 _atom_site_fract_x
 _atom_site_fract_y
 _atom_site_fract_z
 _atom_site_occupancy
  Fe  Fe0  1  0.78415892  0.61604998  0.92968472  1.0
  Fe  Fe1  1  0.78415892  0.61604998  0.57031528  1.0
  Fe  Fe2  1  0.78415892  0.88395002  0.42968472  1.0
  Fe  Fe3  1  0.78415892  0.88395002  0.07031528  1.0
  Fe  Fe4  1  0.21584108  0.11604998  0.92968472  1.0
  Fe  Fe5  1  0.21584108  0.11604998  0.57031528  1.0
  Fe  Fe6  1  0.21584108  0.38395002  0.42968472  1.0
  Fe  Fe7  1  0.21584108  0.38395002  0.07031528  1.0
  O  O8  1  0.80019116  0.70246733  0.75000000  1.0
  O  O9  1  0.80019116  0.79753267  0.25000000  1.0
  O  O10  1  0.19980884  0.20246733  0.75000000  1.0
  O  O11  1  0.19980884  0.29753267  0.25000000  1.0
  O  O12  1  0.37128754  0.75000000  0.00000000  1.0
  O  O13  1  0.37128754  0.75000000  0.50000000  1.0
  O  O14  1  0.62871246  0.25000000  -0.00000000  1.0
  O  O15  1  0.62871246  0.25000000  0.50000000  1.0
  O  O16  1  -0.20196247  0.96654824  0.88592273  1.0
  O  O17  1  -0.20196247  0.96654824  0.61407727  1.0
  O  O18  1  -0.20196247  0.53345176  0.38592273  1.0
  O  O19  1  -0.20196247  0.53345176  0.11407727  1.0
  O  O20  1  0.20196247  0.46654824  0.88592273  1.0
  O  O21  1  0.20196247  0.46654824  0.61407727  1.0
  O  O22  1  0.20196247  0.03345176  0.38592273  1.0
  O  O23  1  0.20196247  0.03345176  0.11407727  1.0
  Mg  Mg24  1  0.30422797  0.85770135  0.75000000  1.0
  Mg  Mg25  1  0.30422797  0.64229865  0.25000000  1.0
  Mg  Mg26  1  0.69577203  0.35770135  0.75000000  1.0
  Mg  Mg27  1  0.69577203  0.14229865  0.25000000  1.0
