# generated using pymatgen
data_BP2Pb2O9
_symmetry_space_group_name_H-M   'P 1'
_cell_length_a   5.69043128
_cell_length_b   18.16085363
_cell_length_c   10.16768882
_cell_angle_alpha   90.00000000
_cell_angle_beta   125.00749236
_cell_angle_gamma   90.00000000
_symmetry_Int_Tables_number   1
_chemical_formula_structural   BP2Pb2O9
_chemical_formula_sum   'B4 P8 Pb8 O36'
_cell_volume   860.65369115
_cell_formula_units_Z   4
loop_
 _symmetry_equiv_pos_site_id
 _symmetry_equiv_pos_as_xyz
  1  'x, y, z'
loop_
 _atom_site_type_symbol
 _atom_site_label
 _atom_site_symmetry_multiplicity
 _atom_site_fract_x
 _atom_site_fract_y
 _atom_site_fract_z
 _atom_site_occupancy
  O  O0  1  0.58928305  0.44848956  0.40513531  1.0
  O  O1  1  0.58928305  0.05151044  0.90513531  1.0
  O  O2  1  0.41071695  0.55151044  0.59486469  1.0
  O  O3  1  0.41071695  0.94848956  0.09486469  1.0
  O  O4  1  0.74639610  0.35368654  0.61391387  1.0
  O  O5  1  0.74639610  0.14631346  0.11391387  1.0
  O  O6  1  0.25360390  0.64631346  0.38608613  1.0
  O  O7  1  0.25360390  0.85368654  0.88608613  1.0
  O  O8  1  0.07324953  0.40616646  0.03764518  1.0
  O  O9  1  0.07324953  0.09383354  0.53764518  1.0
  O  O10  1  0.92675047  0.59383354  0.96235482  1.0
  O  O11  1  0.92675047  0.90616646  0.46235482  1.0
  O  O12  1  0.57136824  0.41195949  0.09286104  1.0
  O  O13  1  0.57136824  0.08804051  0.59286104  1.0
  O  O14  1  0.42863176  0.58804051  0.90713896  1.0
  O  O15  1  0.42863176  0.91195949  0.40713896  1.0
  O  O16  1  -0.01196817  0.48148651  0.70286926  1.0
  O  O17  1  -0.01196817  0.01851349  0.20286926  1.0
  O  O18  1  1.01196817  0.51851349  0.29713074  1.0
  O  O19  1  1.01196817  0.98148651  0.79713074  1.0
  O  O20  1  0.20073307  0.33539558  0.86582119  1.0
  O  O21  1  0.20073307  0.16460442  0.36582119  1.0
  O  O22  1  0.79926693  0.66460442  0.13417881  1.0
  O  O23  1  0.79926693  0.83539558  0.63417881  1.0
  O  O24  1  0.10775054  0.39768793  0.55380954  1.0
  O  O25  1  0.10775054  0.10231207  0.05380954  1.0
  O  O26  1  0.89224946  0.60231207  0.44619046  1.0
  O  O27  1  0.89224946  0.89768793  0.94619046  1.0
  O  O28  1  0.84984153  0.24107361  0.76401163  1.0
  O  O29  1  0.84984153  0.25892639  0.26401163  1.0
  O  O30  1  0.15015847  0.75892639  0.23598837  1.0
  O  O31  1  0.15015847  0.74107361  0.73598837  1.0
  O  O32  1  0.38245848  0.29473364  0.15577576  1.0
  O  O33  1  0.38245848  0.20526636  0.65577576  1.0
  O  O34  1  0.61754152  0.70526636  0.84422424  1.0
  O  O35  1  0.61754152  0.79473364  0.34422424  1.0
  Pb  Pb36  1  0.10089524  0.37850166  0.30721635  1.0
  Pb  Pb37  1  0.10089524  0.12149834  0.80721635  1.0
  Pb  Pb38  1  0.89910476  0.62149834  0.69278365  1.0
  Pb  Pb39  1  0.89910476  0.87850166  0.19278365  1.0
  Pb  Pb40  1  0.48656058  0.53349693  0.19181065  1.0
  Pb  Pb41  1  0.48656058  0.96650307  0.69181065  1.0
  Pb  Pb42  1  0.51343942  0.46650307  0.80818935  1.0
  Pb  Pb43  1  0.51343942  0.03349693  0.30818935  1.0
  P  P44  1  0.86158122  0.42386601  0.56506615  1.0
  P  P45  1  0.86158122  0.07613399  0.06506615  1.0
  P  P46  1  0.13841878  0.57613399  0.43493385  1.0
  P  P47  1  0.13841878  0.92386601  0.93493385  1.0
  P  P48  1  0.31158182  0.36141168  0.04476318  1.0
  P  P49  1  0.31158182  0.13858832  0.54476318  1.0
  P  P50  1  0.68841818  0.63858832  0.95523682  1.0
  P  P51  1  0.68841818  0.86141168  0.45523682  1.0
  B  B52  1  0.92394891  0.30787663  0.74589853  1.0
  B  B53  1  0.92394891  0.19212337  0.24589853  1.0
  B  B54  1  0.07605109  0.69212337  0.25410147  1.0
  B  B55  1  0.07605109  0.80787663  0.75410147  1.0
