# generated using pymatgen
data_BeF2
_symmetry_space_group_name_H-M   'P 1'
_cell_length_a   4.91765835
_cell_length_b   4.91765835
_cell_length_c   6.77444666
_cell_angle_alpha   90.00000000
_cell_angle_beta   90.00000000
_cell_angle_gamma   90.00000000
_symmetry_Int_Tables_number   1
_chemical_formula_structural   BeF2
_chemical_formula_sum   'Be4 F8'
_cell_volume   163.82890686
_cell_formula_units_Z   4
loop_
 _symmetry_equiv_pos_site_id
 _symmetry_equiv_pos_as_xyz
  1  'x, y, z'
loop_
 _atom_site_type_symbol
 _atom_site_label
 _atom_site_symmetry_multiplicity
 _atom_site_fract_x
 _atom_site_fract_y
 _atom_site_fract_z
 _atom_site_occupancy
  Be  Be0  1  0.20492717  0.79507283  0.25000000  1.0
  Be  Be1  1  0.70492717  0.70492717  0.50000000  1.0
  Be  Be2  1  0.79507283  0.20492717  0.75000000  1.0
  Be  Be3  1  0.29507283  0.29507283  0.00000000  1.0
  F  F4  1  0.25881483  0.59301354  0.07619223  1.0
  F  F5  1  0.75881483  0.90698646  0.67380777  1.0
  F  F6  1  0.40698646  0.74118517  0.42380777  1.0
  F  F7  1  0.90698646  0.75881483  0.32619223  1.0
  F  F8  1  0.74118517  0.40698646  0.57619223  1.0
  F  F9  1  0.24118517  0.09301354  0.17380777  1.0
  F  F10  1  0.59301354  0.25881483  0.92380777  1.0
  F  F11  1  0.09301354  0.24118517  0.82619223  1.0
