# generated using pymatgen
data_FeSb2
_symmetry_space_group_name_H-M   'P 1'
_cell_length_a   5.84577046
_cell_length_b   6.52219138
_cell_length_c   3.16821677
_cell_angle_alpha   90.00000000
_cell_angle_beta   90.00000000
_cell_angle_gamma   90.00000000
_symmetry_Int_Tables_number   1
_chemical_formula_structural   FeSb2
_chemical_formula_sum   'Fe2 Sb4'
_cell_volume   120.79534123
_cell_formula_units_Z   2
loop_
 _symmetry_equiv_pos_site_id
 _symmetry_equiv_pos_as_xyz
  1  'x, y, z'
loop_
 _atom_site_type_symbol
 _atom_site_label
 _atom_site_symmetry_multiplicity
 _atom_site_fract_x
 _atom_site_fract_y
 _atom_site_fract_z
 _atom_site_occupancy
  Fe  Fe0  1  0.50000000  0.50000000  0.50000000  1.0
  Fe  Fe1  1  0.00000000  0.00000000  0.00000000  1.0
  Sb  Sb2  1  0.30927786  0.85414626  0.50000000  1.0
  Sb  Sb3  1  0.80927786  0.64585374  0.00000000  1.0
  Sb  Sb4  1  0.69072214  0.14585374  0.50000000  1.0
  Sb  Sb5  1  0.19072214  0.35414626  0.00000000  1.0
