# generated using pymatgen
data_K2Mo9S11
_symmetry_space_group_name_H-M   'P 1'
_cell_length_a   13.19479679
_cell_length_b   13.19479679
_cell_length_c   13.19479679
_cell_angle_alpha   41.65173317
_cell_angle_beta   41.65173317
_cell_angle_gamma   41.65173317
_symmetry_Int_Tables_number   1
_chemical_formula_structural   K2Mo9S11
_chemical_formula_sum   'K4 Mo18 S22'
_cell_volume   917.21433601
_cell_formula_units_Z   2
loop_
 _symmetry_equiv_pos_site_id
 _symmetry_equiv_pos_as_xyz
  1  'x, y, z'
loop_
 _atom_site_type_symbol
 _atom_site_label
 _atom_site_symmetry_multiplicity
 _atom_site_fract_x
 _atom_site_fract_y
 _atom_site_fract_z
 _atom_site_occupancy
  K  K0  1  0.94662108  -0.05337892  -0.05337892  1.0
  K  K1  1  0.44662108  0.44662108  0.44662108  1.0
  K  K2  1  0.55337892  0.55337892  -0.44662108  1.0
  K  K3  1  1.05337892  0.05337892  0.05337892  1.0
  Mo  Mo4  1  0.64454533  0.97146071  -0.17680097  1.0
  Mo  Mo5  1  1.14454533  0.32319903  -0.52853929  1.0
  Mo  Mo6  1  0.67680097  0.52853929  -0.14454533  1.0
  Mo  Mo7  1  1.17680097  -0.64454533  0.02853929  1.0
  Mo  Mo8  1  1.02853929  0.17680097  -0.64454533  1.0
  Mo  Mo9  1  0.52853929  0.85545467  -0.32319903  1.0
  Mo  Mo10  1  0.35545467  0.02853929  0.17680097  1.0
  Mo  Mo11  1  0.85545467  0.67680097  -0.47146071  1.0
  Mo  Mo12  1  0.82319903  0.64454533  -0.02853929  1.0
  Mo  Mo13  1  0.32319903  0.47146071  0.14454533  1.0
  Mo  Mo14  1  0.47146071  1.14454533  -0.67680097  1.0
  Mo  Mo15  1  0.97146071  0.82319903  -0.35545467  1.0
  Mo  Mo16  1  0.58309390  0.75000000  -0.08309390  1.0
  Mo  Mo17  1  1.08309390  -0.58309390  0.25000000  1.0
  Mo  Mo18  1  0.25000000  1.08309390  -0.58309390  1.0
  Mo  Mo19  1  0.75000000  0.91690610  -0.41690610  1.0
  Mo  Mo20  1  0.41690610  0.25000000  0.08309390  1.0
  Mo  Mo21  1  0.91690610  0.58309390  -0.25000000  1.0
  S  S22  1  0.78631927  1.12087378  -0.48375904  1.0
  S  S23  1  1.28631927  0.01624096  -0.37912622  1.0
  S  S24  1  0.98375904  0.37912622  -0.28631927  1.0
  S  S25  1  0.48375904  0.21368073  -0.12087378  1.0
  S  S26  1  0.87912622  0.48375904  -0.78631927  1.0
  S  S27  1  0.37912622  0.71368073  -0.01624096  1.0
  S  S28  1  0.21368073  0.87912622  -0.51624096  1.0
  S  S29  1  0.71368073  0.98375904  -0.62087378  1.0
  S  S30  1  0.51624096  0.78631927  0.12087378  1.0
  S  S31  1  1.01624096  -0.37912622  0.28631927  1.0
  S  S32  1  0.62087378  0.28631927  0.01624096  1.0
  S  S33  1  1.12087378  0.51624096  -0.21368073  1.0
  S  S34  1  1.05358726  0.75000000  -0.55358726  1.0
  S  S35  1  0.55358726  -0.05358726  0.25000000  1.0
  S  S36  1  0.25000000  0.55358726  -0.05358726  1.0
  S  S37  1  0.75000000  0.44641274  0.05358726  1.0
  S  S38  1  0.94641274  0.25000000  -0.44641274  1.0
  S  S39  1  0.44641274  1.05358726  -0.25000000  1.0
  S  S40  1  0.86394422  -0.13605578  -0.13605578  1.0
  S  S41  1  0.36394422  0.36394422  0.36394422  1.0
  S  S42  1  0.63605578  0.63605578  -0.36394422  1.0
  S  S43  1  1.13605578  0.13605578  0.13605578  1.0
