# generated using pymatgen
data_PdS2
_symmetry_space_group_name_H-M   'P 1'
_cell_length_a   5.50004684
_cell_length_b   5.58971320
_cell_length_c   8.31497981
_cell_angle_alpha   90.00000000
_cell_angle_beta   90.00000000
_cell_angle_gamma   90.00000000
_symmetry_Int_Tables_number   1
_chemical_formula_structural   PdS2
_chemical_formula_sum   'Pd4 S8'
_cell_volume   255.63311486
_cell_formula_units_Z   4
loop_
 _symmetry_equiv_pos_site_id
 _symmetry_equiv_pos_as_xyz
  1  'x, y, z'
loop_
 _atom_site_type_symbol
 _atom_site_label
 _atom_site_symmetry_multiplicity
 _atom_site_fract_x
 _atom_site_fract_y
 _atom_site_fract_z
 _atom_site_occupancy
  Pd  Pd0  1  0.50000000  0.00000000  0.50000000  1.0
  Pd  Pd1  1  0.50000000  0.50000000  0.00000000  1.0
  Pd  Pd2  1  0.00000000  0.00000000  0.00000000  1.0
  Pd  Pd3  1  0.00000000  0.50000000  0.50000000  1.0
  S  S4  1  0.39475847  0.61116944  0.57530456  1.0
  S  S5  1  0.39475847  0.88883056  0.07530456  1.0
  S  S6  1  0.89475847  0.61116944  0.92469544  1.0
  S  S7  1  0.89475847  0.88883056  0.42469544  1.0
  S  S8  1  0.60524153  0.11116944  0.92469544  1.0
  S  S9  1  0.60524153  0.38883056  0.42469544  1.0
  S  S10  1  0.10524153  0.11116944  0.57530456  1.0
  S  S11  1  0.10524153  0.38883056  0.07530456  1.0
