# generated using pymatgen
data_Yb2O3
_symmetry_space_group_name_H-M   'P 1'
_cell_length_a   9.12878027
_cell_length_b   9.12878027
_cell_length_c   9.12878027
_cell_angle_alpha   109.47122063
_cell_angle_beta   109.47122063
_cell_angle_gamma   109.47122063
_symmetry_Int_Tables_number   1
_chemical_formula_structural   Yb2O3
_chemical_formula_sum   'Yb16 O24'
_cell_volume   585.62063462
_cell_formula_units_Z   8
loop_
 _symmetry_equiv_pos_site_id
 _symmetry_equiv_pos_as_xyz
  1  'x, y, z'
loop_
 _atom_site_type_symbol
 _atom_site_label
 _atom_site_symmetry_multiplicity
 _atom_site_fract_x
 _atom_site_fract_y
 _atom_site_fract_z
 _atom_site_occupancy
  Yb  Yb0  1  1.21735397  0.96735397  1.25000000  1.0
  Yb  Yb1  1  1.25000000  1.21735397  0.96735397  1.0
  Yb  Yb2  1  0.75000000  1.28264603  0.53264603  1.0
  Yb  Yb3  1  0.96735397  1.25000000  1.21735397  1.0
  Yb  Yb4  1  1.53264603  0.75000000  1.28264603  1.0
  Yb  Yb5  1  1.28264603  0.53264603  0.75000000  1.0
  Yb  Yb6  1  0.71731875  0.46731875  0.25000000  1.0
  Yb  Yb7  1  0.25000000  0.71731875  0.46731875  1.0
  Yb  Yb8  1  0.75000000  0.78268125  1.03268125  1.0
  Yb  Yb9  1  0.46731875  1.25000000  0.71731875  1.0
  Yb  Yb10  1  1.03268125  0.75000000  0.78268125  1.0
  Yb  Yb11  1  0.78268125  1.03268125  0.75000000  1.0
  Yb  Yb12  1  0.50007383  0.50007383  0.50007383  1.0
  Yb  Yb13  1  1.50000000  1.00000000  0.99992617  1.0
  Yb  Yb14  1  1.00000000  0.99992617  1.50000000  1.0
  Yb  Yb15  1  0.99992617  0.50000000  1.00000000  1.0
  O  O16  1  1.04221013  1.27128689  1.00884755  1.0
  O  O17  1  0.76243934  1.03336258  0.49115245  1.0
  O  O18  1  1.00884755  1.04221013  0.27128689  1.0
  O  O19  1  1.27092323  0.73756066  1.22871311  1.0
  O  O20  1  0.27128689  1.00884755  1.04221013  1.0
  O  O21  1  1.46663742  1.22907677  1.45778987  1.0
  O  O22  1  1.73756066  1.22871311  1.27092323  1.0
  O  O23  1  0.45778987  0.46663742  0.22907677  1.0
  O  O24  1  0.22907677  0.45778987  0.46663742  1.0
  O  O25  1  0.49115245  0.76243934  1.03336258  1.0
  O  O26  1  1.03336258  0.49115245  0.76243934  1.0
  O  O27  1  1.22871311  1.27092323  1.73756066  1.0
  O  O28  1  0.99117187  0.95777856  0.72878228  1.0
  O  O29  1  0.72899628  1.26238959  0.77121772  1.0
  O  O30  1  1.72878228  0.99117187  0.95777856  1.0
  O  O31  1  0.53339331  0.77100372  0.54222144  1.0
  O  O32  1  0.95777856  1.72878228  0.99117187  1.0
  O  O33  1  1.23761041  0.96660669  1.50882813  1.0
  O  O34  1  1.77100372  1.54222144  1.53339331  1.0
  O  O35  1  1.50882813  1.23761041  0.96660669  1.0
  O  O36  1  0.96660669  0.50882813  1.23761041  1.0
  O  O37  1  0.77121772  0.72899628  0.26238959  1.0
  O  O38  1  0.26238959  0.77121772  0.72899628  1.0
  O  O39  1  1.54222144  1.53339331  1.77100372  1.0
