# generated using pymatgen
data_Lu2S3
_symmetry_space_group_name_H-M   'P 1'
_cell_length_a   10.44454897
_cell_length_b   3.78348628
_cell_length_c   10.37928559
_cell_angle_alpha   90.00000000
_cell_angle_beta   90.00000000
_cell_angle_gamma   90.00000000
_symmetry_Int_Tables_number   1
_chemical_formula_structural   Lu2S3
_chemical_formula_sum   'Lu8 S12'
_cell_volume   410.15623333
_cell_formula_units_Z   4
loop_
 _symmetry_equiv_pos_site_id
 _symmetry_equiv_pos_as_xyz
  1  'x, y, z'
loop_
 _atom_site_type_symbol
 _atom_site_label
 _atom_site_symmetry_multiplicity
 _atom_site_fract_x
 _atom_site_fract_y
 _atom_site_fract_z
 _atom_site_occupancy
  Lu  Lu0  1  0.48883965  0.75000000  0.18725605  1.0
  Lu  Lu1  1  0.98883965  0.75000000  0.31274395  1.0
  Lu  Lu2  1  0.51116035  0.25000000  0.81274395  1.0
  Lu  Lu3  1  0.01116035  0.25000000  0.68725605  1.0
  Lu  Lu4  1  0.30801379  0.75000000  0.50337910  1.0
  Lu  Lu5  1  0.80801379  0.75000000  0.99662090  1.0
  Lu  Lu6  1  0.69198621  0.25000000  0.49662090  1.0
  Lu  Lu7  1  0.19198621  0.25000000  0.00337910  1.0
  S  S8  1  0.38178110  0.75000000  0.94433198  1.0
  S  S9  1  0.88178110  0.75000000  0.55566802  1.0
  S  S10  1  0.61821890  0.25000000  0.05566802  1.0
  S  S11  1  0.11821890  0.25000000  0.44433198  1.0
  S  S12  1  0.22612716  0.75000000  0.19278341  1.0
  S  S13  1  0.72612716  0.75000000  0.30721659  1.0
  S  S14  1  0.77387284  0.25000000  0.80721659  1.0
  S  S15  1  0.27387284  0.25000000  0.69278341  1.0
  S  S16  1  0.04564569  0.75000000  0.87340245  1.0
  S  S17  1  0.54564569  0.75000000  0.62659755  1.0
  S  S18  1  0.95435431  0.25000000  0.12659755  1.0
  S  S19  1  0.45435431  0.25000000  0.37340245  1.0
