# generated using pymatgen
data_Hf9Re4Se
_symmetry_space_group_name_H-M   'P 1'
_cell_length_a   8.67383974
_cell_length_b   8.67383974
_cell_length_c   8.57985535
_cell_angle_alpha   90.00000000
_cell_angle_beta   90.00000000
_cell_angle_gamma   120.00000000
_symmetry_Int_Tables_number   1
_chemical_formula_structural   Hf9Re4Se
_chemical_formula_sum   'Hf18 Re8 Se2'
_cell_volume   559.02777421
_cell_formula_units_Z   2
loop_
 _symmetry_equiv_pos_site_id
 _symmetry_equiv_pos_as_xyz
  1  'x, y, z'
loop_
 _atom_site_type_symbol
 _atom_site_label
 _atom_site_symmetry_multiplicity
 _atom_site_fract_x
 _atom_site_fract_y
 _atom_site_fract_z
 _atom_site_occupancy
  Hf  Hf0  1  0.19065563  0.80934437  0.44854883  1.0
  Hf  Hf1  1  0.19065563  0.38131126  0.44854883  1.0
  Hf  Hf2  1  0.61868874  0.80934437  0.44854883  1.0
  Hf  Hf3  1  0.80934437  0.19065563  0.55145117  1.0
  Hf  Hf4  1  0.80934437  0.61868874  0.55145117  1.0
  Hf  Hf5  1  0.38131126  0.19065563  0.55145117  1.0
  Hf  Hf6  1  0.80934437  0.19065563  0.94854883  1.0
  Hf  Hf7  1  0.80934437  0.61868874  0.94854883  1.0
  Hf  Hf8  1  0.38131126  0.19065563  0.94854883  1.0
  Hf  Hf9  1  0.19065563  0.80934437  0.05145117  1.0
  Hf  Hf10  1  0.19065563  0.38131126  0.05145117  1.0
  Hf  Hf11  1  0.61868874  0.80934437  0.05145117  1.0
  Hf  Hf12  1  0.54639395  0.45360605  0.25000000  1.0
  Hf  Hf13  1  0.54639395  0.09278791  0.25000000  1.0
  Hf  Hf14  1  0.90721209  0.45360605  0.25000000  1.0
  Hf  Hf15  1  0.45360605  0.54639395  0.75000000  1.0
  Hf  Hf16  1  0.45360605  0.90721209  0.75000000  1.0
  Hf  Hf17  1  0.09278791  0.54639395  0.75000000  1.0
  Re  Re18  1  0.89000919  0.10999081  0.25000000  1.0
  Re  Re19  1  0.89000919  0.78001839  0.25000000  1.0
  Re  Re20  1  0.21998161  0.10999081  0.25000000  1.0
  Re  Re21  1  0.10999081  0.89000919  0.75000000  1.0
  Re  Re22  1  0.10999081  0.21998161  0.75000000  1.0
  Re  Re23  1  0.78001839  0.89000919  0.75000000  1.0
  Re  Re24  1  0.00000000  0.00000000  0.50000000  1.0
  Re  Re25  1  0.00000000  0.00000000  0.00000000  1.0
  Se  Se26  1  0.33333333  0.66666667  0.25000000  1.0
  Se  Se27  1  0.66666667  0.33333333  0.75000000  1.0
