# generated using pymatgen
data_YCd4B3O10
_symmetry_space_group_name_H-M   'P 1'
_cell_length_a   8.90833130
_cell_length_b   8.90833130
_cell_length_c   3.52898837
_cell_angle_alpha   85.43673400
_cell_angle_beta   94.56326600
_cell_angle_gamma   53.43832025
_symmetry_Int_Tables_number   1
_chemical_formula_structural   YCd4B3O10
_chemical_formula_sum   'Y1 Cd4 B3 O10'
_cell_volume   221.39481677
_cell_formula_units_Z   1
loop_
 _symmetry_equiv_pos_site_id
 _symmetry_equiv_pos_as_xyz
  1  'x, y, z'
loop_
 _atom_site_type_symbol
 _atom_site_label
 _atom_site_symmetry_multiplicity
 _atom_site_fract_x
 _atom_site_fract_y
 _atom_site_fract_z
 _atom_site_occupancy
  Y  Y0  1  0.80054624  -0.80054624  0.40895968  1.0
  Cd  Cd1  1  0.87646202  -0.24369634  0.04465943  1.0
  Cd  Cd2  1  0.24369634  0.12353798  0.04465943  1.0
  Cd  Cd3  1  1.32819833  -0.55182866  0.74242524  1.0
  Cd  Cd4  1  0.55182866  -0.32819833  0.74242524  1.0
  B  B5  1  0.94521746  -0.55235886  0.49475014  1.0
  B  B6  1  0.55235886  0.05478254  0.49475014  1.0
  B  B7  1  0.16698260  -0.16698260  0.11425919  1.0
  O  O8  1  0.76479061  -0.41122235  0.29853697  1.0
  O  O9  1  0.41122235  0.23520939  0.29853697  1.0
  O  O10  1  1.17749351  -0.32913289  0.17198467  1.0
  O  O11  1  0.32913289  -0.17749351  0.17198467  1.0
  O  O12  1  1.04152637  -0.50533961  0.71584093  1.0
  O  O13  1  0.50533961  -0.04152637  0.71584093  1.0
  O  O14  1  1.02500429  -0.74261915  0.48242020  1.0
  O  O15  1  0.74261915  -0.02500429  0.48242020  1.0
  O  O16  1  -0.00701483  0.00701483  -0.00105201  1.0
  O  O17  1  0.62499554  -0.62499554  0.83499798  1.0
