# generated using pymatgen
data_GeBi4Te7
_symmetry_space_group_name_H-M   'P 1'
_cell_length_a   4.40970480
_cell_length_b   4.40970480
_cell_length_c   24.70459554
_cell_angle_alpha   90.00000000
_cell_angle_beta   90.00000000
_cell_angle_gamma   120.00000000
_symmetry_Int_Tables_number   1
_chemical_formula_structural   GeBi4Te7
_chemical_formula_sum   'Ge1 Bi4 Te7'
_cell_volume   416.03264903
_cell_formula_units_Z   1
loop_
 _symmetry_equiv_pos_site_id
 _symmetry_equiv_pos_as_xyz
  1  'x, y, z'
loop_
 _atom_site_type_symbol
 _atom_site_label
 _atom_site_symmetry_multiplicity
 _atom_site_fract_x
 _atom_site_fract_y
 _atom_site_fract_z
 _atom_site_occupancy
  Ge  Ge0  1  0.00000000  -0.00000000  0.50000000  1.0
  Bi  Bi1  1  0.33333333  0.66666667  0.34828633  1.0
  Bi  Bi2  1  0.66666667  0.33333333  0.65171367  1.0
  Bi  Bi3  1  0.33333333  0.66666667  0.08354857  1.0
  Bi  Bi4  1  0.66666667  0.33333333  0.91645143  1.0
  Te  Te5  1  0.33333333  0.66666667  0.56692562  1.0
  Te  Te6  1  0.66666667  0.33333333  0.43307438  1.0
  Te  Te7  1  0.33333333  0.66666667  0.84609683  1.0
  Te  Te8  1  0.66666667  0.33333333  0.15390317  1.0
  Te  Te9  1  -0.00000000  -0.00000000  0.27795069  1.0
  Te  Te10  1  -0.00000000  -0.00000000  0.72204931  1.0
  Te  Te11  1  -0.00000000  0.00000000  -0.00000000  1.0
