# generated using pymatgen
data_Na5Eu4Si4O16F
_symmetry_space_group_name_H-M   'P 1'
_cell_length_a   8.88276115
_cell_length_b   8.88276115
_cell_length_c   8.88276115
_cell_angle_alpha   95.56569669
_cell_angle_beta   95.56569669
_cell_angle_gamma   143.70945173
_symmetry_Int_Tables_number   1
_chemical_formula_structural   Na5Eu4Si4O16F
_chemical_formula_sum   'Na5 Eu4 Si4 O16 F1'
_cell_volume   394.20740172
_cell_formula_units_Z   1
loop_
 _symmetry_equiv_pos_site_id
 _symmetry_equiv_pos_as_xyz
  1  'x, y, z'
loop_
 _atom_site_type_symbol
 _atom_site_label
 _atom_site_symmetry_multiplicity
 _atom_site_fract_x
 _atom_site_fract_y
 _atom_site_fract_z
 _atom_site_occupancy
  Na  Na0  1  0.87881142  0.57453794  0.48172816  1.0
  Na  Na1  1  0.60291674  0.12118858  0.69572652  1.0
  Na  Na2  1  1.09280978  1.39708326  1.51827184  1.0
  Na  Na3  1  0.42546206  0.90719022  1.30427348  1.0
  Na  Na4  1  0.00000000  0.00000000  0.00000000  1.0
  Eu  Eu5  1  0.40959136  0.34269376  0.70079535  1.0
  Eu  Eu6  1  1.29120399  0.59040864  0.93310240  1.0
  Eu  Eu7  1  0.64189841  0.70879601  1.29920465  1.0
  Eu  Eu8  1  0.65730624  1.35810159  1.06689760  1.0
  Si  Si9  1  1.73903377  1.88572767  1.64915662  1.0
  Si  Si10  1  0.91012285  1.26096623  1.14669390  1.0
  Si  Si11  1  1.23657104  1.08987715  0.35084338  1.0
  Si  Si12  1  1.11427233  0.76342896  0.85330610  1.0
  O  O13  1  0.87252879  1.36469053  1.27936119  1.0
  O  O14  1  0.40683241  0.12747121  0.49216174  1.0
  O  O15  1  1.08532933  0.59316759  0.72063881  1.0
  O  O16  1  0.63530947  0.91467067  1.50783826  1.0
  O  O17  1  0.72562401  0.69946611  0.56242848  1.0
  O  O18  1  0.83680447  0.27437599  0.97384210  1.0
  O  O19  1  1.13703764  1.16319553  1.43757152  1.0
  O  O20  1  0.30053389  0.86296236  1.02615790  1.0
  O  O21  1  1.53119529  1.70898295  1.75512776  1.0
  O  O22  1  1.22393247  1.46880471  1.17778767  1.0
  O  O23  1  0.95385519  0.77606753  0.24487224  1.0
  O  O24  1  1.29101705  1.04614481  0.82221233  1.0
  O  O25  1  0.41429012  0.27612083  0.23645079  1.0
  O  O26  1  0.82216067  0.58570988  0.86183072  1.0
  O  O27  1  1.03967004  1.17783933  1.76354921  1.0
  O  O28  1  0.72387917  0.96032996  1.13816928  1.0
  F  F29  1  0.50000000  0.50000000  0.00000000  1.0
