# generated using pymatgen
data_Ti3P4NO18
_symmetry_space_group_name_H-M   'P 1'
_cell_length_a   5.16318719
_cell_length_b   8.74012628
_cell_length_c   8.41909882
_cell_angle_alpha   106.89634275
_cell_angle_beta   91.32511983
_cell_angle_gamma   96.26949085
_symmetry_Int_Tables_number   1
_chemical_formula_structural   Ti3P4NO18
_chemical_formula_sum   'Ti3 P4 N1 O18'
_cell_volume   360.75133564
_cell_formula_units_Z   1
loop_
 _symmetry_equiv_pos_site_id
 _symmetry_equiv_pos_as_xyz
  1  'x, y, z'
loop_
 _atom_site_type_symbol
 _atom_site_label
 _atom_site_symmetry_multiplicity
 _atom_site_fract_x
 _atom_site_fract_y
 _atom_site_fract_z
 _atom_site_occupancy
  O  O0  1  -0.93240060  -0.31102012  -0.75873198  1.0
  O  O1  1  -0.06759940  -0.68897988  -0.24126802  1.0
  O  O2  1  -0.92910286  -0.41239006  -0.33248289  1.0
  O  O3  1  -0.07089714  -0.58760994  -0.66751711  1.0
  O  O4  1  -0.58681321  -0.55242835  -0.71496176  1.0
  O  O5  1  -0.41318679  -0.44757165  -0.28503824  1.0
  O  O6  1  -0.24854738  -0.56100186  -0.96057686  1.0
  O  O7  1  -0.75145262  -0.43899814  -0.03942314  1.0
  O  O8  1  -0.26831016  -1.01976466  -0.83801985  1.0
  O  O9  1  -0.73168984  0.01976466  -0.16198015  1.0
  O  O10  1  -0.84521579  -0.82578715  -0.81413901  1.0
  O  O11  1  -0.15478421  -0.17421285  -0.18586099  1.0
  O  O12  1  -0.77437324  -0.13726410  -0.93273584  1.0
  O  O13  1  -0.22562676  -0.86273590  -0.06726416  1.0
  O  O14  1  -0.75011204  -0.69237528  -0.50477002  1.0
  O  O15  1  -0.24988796  -0.30762472  -0.49522998  1.0
  O  O16  1  -0.44847078  -0.27010920  -0.79926229  1.0
  O  O17  1  -0.55152922  -0.72989080  -0.20073771  1.0
  P  P18  1  -0.81222003  -0.66153876  -0.67246641  1.0
  P  P19  1  -0.18777997  -0.33846124  -0.32753359  1.0
  P  P20  1  -0.72650991  -0.29183016  -0.88443590  1.0
  P  P21  1  -0.27349009  -0.70816984  -0.11556410  1.0
  Ti  Ti22  1  -0.74727607  -0.56809077  -0.26898873  1.0
  Ti  Ti23  1  -0.25272393  -0.43190923  -0.73101127  1.0
  Ti  Ti24  1  0.00000000  0.00000000  0.00000000  1.0
  N  N25  1  -0.00000000  -0.00000000  -0.50000000  1.0
