# generated using pymatgen
data_H4BrNO4
_symmetry_space_group_name_H-M   'P 1'
_cell_length_a   9.03127936
_cell_length_b   6.63572405
_cell_length_c   7.71683931
_cell_angle_alpha   90.00000000
_cell_angle_beta   90.00000000
_cell_angle_gamma   90.00000000
_symmetry_Int_Tables_number   1
_chemical_formula_structural   H4BrNO4
_chemical_formula_sum   'H16 Br4 N4 O16'
_cell_volume   462.46306215
_cell_formula_units_Z   4
loop_
 _symmetry_equiv_pos_site_id
 _symmetry_equiv_pos_as_xyz
  1  'x, y, z'
loop_
 _atom_site_type_symbol
 _atom_site_label
 _atom_site_symmetry_multiplicity
 _atom_site_fract_x
 _atom_site_fract_y
 _atom_site_fract_z
 _atom_site_occupancy
  H  H0  1  0.24311174  0.75000000  0.11318640  1.0
  H  H1  1  0.74311174  0.75000000  0.38681360  1.0
  H  H2  1  0.75688826  0.25000000  0.88681360  1.0
  H  H3  1  0.25688826  0.25000000  0.61318640  1.0
  H  H4  1  0.30197275  0.75000000  0.32190011  1.0
  H  H5  1  0.80197275  0.75000000  0.17809989  1.0
  H  H6  1  0.69802725  0.25000000  0.67809989  1.0
  H  H7  1  0.19802725  0.25000000  0.82190011  1.0
  H  H8  1  0.39873210  0.87668902  0.17012911  1.0
  H  H9  1  0.39873210  0.62331098  0.17012911  1.0
  H  H10  1  0.89873210  0.87668902  0.32987089  1.0
  H  H11  1  0.89873210  0.62331098  0.32987089  1.0
  H  H12  1  0.60126790  0.37668902  0.82987089  1.0
  H  H13  1  0.60126790  0.12331098  0.82987089  1.0
  H  H14  1  0.10126790  0.37668902  0.67012911  1.0
  H  H15  1  0.10126790  0.12331098  0.67012911  1.0
  Br  Br16  1  0.43003342  0.75000000  0.68689729  1.0
  Br  Br17  1  0.93003342  0.75000000  0.81310271  1.0
  Br  Br18  1  0.56996658  0.25000000  0.31310271  1.0
  Br  Br19  1  0.06996658  0.25000000  0.18689729  1.0
  N  N20  1  0.33441347  0.75000000  0.19277041  1.0
  N  N21  1  0.83441347  0.75000000  0.30722959  1.0
  N  N22  1  0.66558653  0.25000000  0.80722959  1.0
  N  N23  1  0.16558653  0.25000000  0.69277041  1.0
  O  O24  1  0.42888897  0.95308140  0.81282992  1.0
  O  O25  1  0.42888897  0.54691860  0.81282992  1.0
  O  O26  1  0.92888897  0.95308140  0.68717008  1.0
  O  O27  1  0.92888897  0.54691860  0.68717008  1.0
  O  O28  1  0.57111103  0.45308140  0.18717008  1.0
  O  O29  1  0.57111103  0.04691860  0.18717008  1.0
  O  O30  1  0.07111103  0.45308140  0.31282992  1.0
  O  O31  1  0.07111103  0.04691860  0.31282992  1.0
  O  O32  1  0.07833015  0.75000000  0.93849717  1.0
  O  O33  1  0.57833015  0.75000000  0.56150283  1.0
  O  O34  1  0.92166985  0.25000000  0.06150283  1.0
  O  O35  1  0.42166985  0.25000000  0.43849717  1.0
  O  O36  1  0.27796404  0.75000000  0.56573359  1.0
  O  O37  1  0.77796404  0.75000000  0.93426641  1.0
  O  O38  1  0.72203596  0.25000000  0.43426641  1.0
  O  O39  1  0.22203596  0.25000000  0.06573359  1.0
