# generated using pymatgen
data_In(MoSe)3
_symmetry_space_group_name_H-M   'P 1'
_cell_length_a   9.10444728
_cell_length_b   9.10444728
_cell_length_c   4.51546096
_cell_angle_alpha   90.00000000
_cell_angle_beta   90.00000000
_cell_angle_gamma   120.00000000
_symmetry_Int_Tables_number   1
_chemical_formula_structural   In(MoSe)3
_chemical_formula_sum   'In2 Mo6 Se6'
_cell_volume   324.14542374
_cell_formula_units_Z   2
loop_
 _symmetry_equiv_pos_site_id
 _symmetry_equiv_pos_as_xyz
  1  'x, y, z'
loop_
 _atom_site_type_symbol
 _atom_site_label
 _atom_site_symmetry_multiplicity
 _atom_site_fract_x
 _atom_site_fract_y
 _atom_site_fract_z
 _atom_site_occupancy
  In  In0  1  0.33333333  0.66666667  0.25000000  1.0
  In  In1  1  0.66666667  0.33333333  0.75000000  1.0
  Mo  Mo2  1  1.03241415  0.85002099  0.25000000  1.0
  Mo  Mo3  1  0.81760684  -0.03241415  0.25000000  1.0
  Mo  Mo4  1  0.14997901  0.18239316  0.25000000  1.0
  Mo  Mo5  1  -0.03241415  0.14997901  0.75000000  1.0
  Mo  Mo6  1  0.18239316  1.03241415  0.75000000  1.0
  Mo  Mo7  1  0.85002099  0.81760684  0.75000000  1.0
  Se  Se8  1  0.36223126  1.06649065  0.25000000  1.0
  Se  Se9  1  0.70425939  0.63776874  0.25000000  1.0
  Se  Se10  1  -0.06649065  0.29574061  0.25000000  1.0
  Se  Se11  1  0.63776874  -0.06649065  0.75000000  1.0
  Se  Se12  1  0.29574061  0.36223126  0.75000000  1.0
  Se  Se13  1  1.06649065  0.70425939  0.75000000  1.0
