# generated using pymatgen
data_GdCo5As3
_symmetry_space_group_name_H-M   'P 1'
_cell_length_a   12.19952001
_cell_length_b   3.80688062
_cell_length_c   10.71282526
_cell_angle_alpha   90.00000000
_cell_angle_beta   90.00000000
_cell_angle_gamma   90.00000000
_symmetry_Int_Tables_number   1
_chemical_formula_structural   GdCo5As3
_chemical_formula_sum   'Gd4 Co20 As12'
_cell_volume   497.52627615
_cell_formula_units_Z   4
loop_
 _symmetry_equiv_pos_site_id
 _symmetry_equiv_pos_as_xyz
  1  'x, y, z'
loop_
 _atom_site_type_symbol
 _atom_site_label
 _atom_site_symmetry_multiplicity
 _atom_site_fract_x
 _atom_site_fract_y
 _atom_site_fract_z
 _atom_site_occupancy
  As  As0  1  0.39096993  0.75000000  0.10101590  1.0
  As  As1  1  0.89096993  0.75000000  0.39898410  1.0
  As  As2  1  0.60903007  0.25000000  0.89898410  1.0
  As  As3  1  0.10903007  0.25000000  0.60101590  1.0
  As  As4  1  0.36980395  0.75000000  0.72983114  1.0
  As  As5  1  0.86980395  0.75000000  0.77016886  1.0
  As  As6  1  0.63019605  0.25000000  0.27016886  1.0
  As  As7  1  0.13019605  0.25000000  0.22983114  1.0
  As  As8  1  0.11458582  0.75000000  0.91485715  1.0
  As  As9  1  0.61458582  0.75000000  0.58514285  1.0
  As  As10  1  0.88541418  0.25000000  0.08514285  1.0
  As  As11  1  0.38541418  0.25000000  0.41485715  1.0
  Co  Co12  1  0.43294165  0.75000000  0.53024917  1.0
  Co  Co13  1  0.93294165  0.75000000  0.96975083  1.0
  Co  Co14  1  0.56705835  0.25000000  0.46975083  1.0
  Co  Co15  1  0.06705835  0.25000000  0.03024917  1.0
  Co  Co16  1  0.19630377  0.75000000  0.11581789  1.0
  Co  Co17  1  0.69630377  0.75000000  0.38418211  1.0
  Co  Co18  1  0.80369623  0.25000000  0.88418211  1.0
  Co  Co19  1  0.30369623  0.25000000  0.61581789  1.0
  Co  Co20  1  0.48972075  0.75000000  0.29066279  1.0
  Co  Co21  1  0.98972075  0.75000000  0.20933721  1.0
  Co  Co22  1  0.51027925  0.25000000  0.70933721  1.0
  Co  Co23  1  0.01027925  0.25000000  0.79066279  1.0
  Co  Co24  1  0.48796283  0.75000000  0.90618806  1.0
  Co  Co25  1  0.98796283  0.75000000  0.59381194  1.0
  Co  Co26  1  0.51203717  0.25000000  0.09381194  1.0
  Co  Co27  1  0.01203717  0.25000000  0.40618806  1.0
  Co  Co28  1  0.17706747  0.75000000  0.71513058  1.0
  Co  Co29  1  0.67706747  0.75000000  0.78486942  1.0
  Co  Co30  1  0.82293253  0.25000000  0.28486942  1.0
  Co  Co31  1  0.32293253  0.25000000  0.21513058  1.0
  Gd  Gd32  1  0.20120317  0.75000000  0.41786102  1.0
  Gd  Gd33  1  0.70120317  0.75000000  0.08213898  1.0
  Gd  Gd34  1  0.79879683  0.25000000  0.58213898  1.0
  Gd  Gd35  1  0.29879683  0.25000000  0.91786102  1.0
