# generated using pymatgen
data_RbP15
_symmetry_space_group_name_H-M   'P 1'
_cell_length_a   12.78707271
_cell_length_b   9.63925381
_cell_length_c   7.65586746
_cell_angle_alpha   112.37535278
_cell_angle_beta   101.20070052
_cell_angle_gamma   89.08240265
_symmetry_Int_Tables_number   1
_chemical_formula_structural   RbP15
_chemical_formula_sum   'Rb2 P30'
_cell_volume   854.23058093
_cell_formula_units_Z   2
loop_
 _symmetry_equiv_pos_site_id
 _symmetry_equiv_pos_as_xyz
  1  'x, y, z'
loop_
 _atom_site_type_symbol
 _atom_site_label
 _atom_site_symmetry_multiplicity
 _atom_site_fract_x
 _atom_site_fract_y
 _atom_site_fract_z
 _atom_site_occupancy
  Rb  Rb0  1  0.00168599  0.22187280  -0.77445224  1.0
  Rb  Rb1  1  -0.00168599  0.77812720  -0.22554776  1.0
  P  P2  1  0.39963188  0.33772833  -0.99032379  1.0
  P  P3  1  0.60036812  0.66227167  -0.00967621  1.0
  P  P4  1  0.81512125  0.43414491  -0.98563841  1.0
  P  P5  1  0.18487875  0.56585509  -0.01436159  1.0
  P  P6  1  0.66382737  0.89219452  -0.96198482  1.0
  P  P7  1  0.33617263  0.10780548  -0.03801518  1.0
  P  P8  1  0.30456367  0.75930478  -0.87950474  1.0
  P  P9  1  0.69543633  0.24069522  -0.12049526  1.0
  P  P10  1  0.83528686  0.89578751  -0.87270215  1.0
  P  P11  1  0.16471314  0.10421249  -0.12729785  1.0
  P  P12  1  0.72029393  0.59610505  -0.79975178  1.0
  P  P13  1  0.27970607  0.40389495  -0.20024822  1.0
  P  P14  1  0.36164304  0.46594570  -0.70521145  1.0
  P  P15  1  0.63835696  0.53405430  -0.29478855  1.0
  P  P16  1  0.18490433  0.87421297  -0.70849964  1.0
  P  P17  1  0.81509567  0.12578703  -0.29150036  1.0
  P  P18  1  0.59979661  0.98383611  -0.68974192  1.0
  P  P19  1  0.40020339  0.01616389  -0.31025808  1.0
  P  P20  1  0.42638891  0.69029381  -0.66394183  1.0
  P  P21  1  0.57361109  0.30970619  -0.33605817  1.0
  P  P22  1  0.83739977  0.79728762  -0.66163391  1.0
  P  P23  1  0.16260023  0.20271238  -0.33836609  1.0
  P  P24  1  0.81380499  0.26301488  -0.47231720  1.0
  P  P25  1  0.18619501  0.73698512  -0.52768280  1.0
  P  P26  1  0.71926640  0.91570391  -0.48122116  1.0
  P  P27  1  0.28073360  0.08429609  -0.51877884  1.0
  P  P28  1  0.36110860  0.77398806  -0.39742725  1.0
  P  P29  1  0.63889140  0.22601194  -0.60257275  1.0
  P  P30  1  0.81350311  0.49936596  -0.23777692  1.0
  P  P31  1  0.18649689  0.50063404  -0.76222308  1.0
