# generated using pymatgen
data_Rb6AlSb3
_symmetry_space_group_name_H-M   'P 1'
_cell_length_a   10.88547167
_cell_length_b   6.32319028
_cell_length_c   12.52069133
_cell_angle_alpha   90.00000000
_cell_angle_beta   100.82225315
_cell_angle_gamma   90.00000000
_symmetry_Int_Tables_number   1
_chemical_formula_structural   Rb6AlSb3
_chemical_formula_sum   'Rb12 Al2 Sb6'
_cell_volume   846.48274222
_cell_formula_units_Z   2
loop_
 _symmetry_equiv_pos_site_id
 _symmetry_equiv_pos_as_xyz
  1  'x, y, z'
loop_
 _atom_site_type_symbol
 _atom_site_label
 _atom_site_symmetry_multiplicity
 _atom_site_fract_x
 _atom_site_fract_y
 _atom_site_fract_z
 _atom_site_occupancy
  Rb  Rb0  1  0.91399846  0.25000000  0.63136296  1.0
  Rb  Rb1  1  0.08600154  0.75000000  0.36863704  1.0
  Rb  Rb2  1  0.87748492  0.25000000  0.32271426  1.0
  Rb  Rb3  1  0.12251508  0.75000000  0.67728574  1.0
  Rb  Rb4  1  0.86483195  0.25000000  0.97757563  1.0
  Rb  Rb5  1  0.13516805  0.75000000  0.02242437  1.0
  Rb  Rb6  1  0.56056551  0.25000000  0.45863272  1.0
  Rb  Rb7  1  0.43943449  0.75000000  0.54136728  1.0
  Rb  Rb8  1  0.54250982  0.25000000  0.07810670  1.0
  Rb  Rb9  1  0.45749018  0.75000000  0.92189330  1.0
  Rb  Rb10  1  0.25954946  0.25000000  0.22357779  1.0
  Rb  Rb11  1  0.74045054  0.75000000  0.77642221  1.0
  Al  Al12  1  0.32125969  0.25000000  0.72024629  1.0
  Al  Al13  1  0.67874031  0.75000000  0.27975371  1.0
  Sb  Sb14  1  0.56730974  0.25000000  0.77326215  1.0
  Sb  Sb15  1  0.43269026  0.75000000  0.22673785  1.0
  Sb  Sb16  1  0.21269282  0.25000000  0.51197150  1.0
  Sb  Sb17  1  0.78730718  0.75000000  0.48802850  1.0
  Sb  Sb18  1  0.17904889  0.25000000  0.87555712  1.0
  Sb  Sb19  1  0.82095111  0.75000000  0.12444288  1.0
