# generated using pymatgen
data_Tl2O3
_symmetry_space_group_name_H-M   'P 1'
_cell_length_a   9.32265573
_cell_length_b   9.32265573
_cell_length_c   9.32265573
_cell_angle_alpha   109.47122063
_cell_angle_beta   109.47122063
_cell_angle_gamma   109.47122063
_symmetry_Int_Tables_number   1
_chemical_formula_structural   Tl2O3
_chemical_formula_sum   'Tl16 O24'
_cell_volume   623.73059806
_cell_formula_units_Z   8
loop_
 _symmetry_equiv_pos_site_id
 _symmetry_equiv_pos_as_xyz
  1  'x, y, z'
loop_
 _atom_site_type_symbol
 _atom_site_label
 _atom_site_symmetry_multiplicity
 _atom_site_fract_x
 _atom_site_fract_y
 _atom_site_fract_z
 _atom_site_occupancy
  Tl  Tl0  1  1.21672678  0.96672678  1.25000000  1.0
  Tl  Tl1  1  1.25000000  1.21672678  0.96672678  1.0
  Tl  Tl2  1  0.75000000  1.28327322  0.53327322  1.0
  Tl  Tl3  1  0.96672678  1.25000000  1.21672678  1.0
  Tl  Tl4  1  1.53327322  0.75000000  1.28327322  1.0
  Tl  Tl5  1  1.28327322  0.53327322  0.75000000  1.0
  Tl  Tl6  1  0.71675161  0.46675161  0.25000000  1.0
  Tl  Tl7  1  0.25000000  0.71675161  0.46675161  1.0
  Tl  Tl8  1  0.75000000  0.78324839  1.03324839  1.0
  Tl  Tl9  1  0.46675161  1.25000000  0.71675161  1.0
  Tl  Tl10  1  1.03324839  0.75000000  0.78324839  1.0
  Tl  Tl11  1  0.78324839  1.03324839  0.75000000  1.0
  Tl  Tl12  1  0.49998131  0.49998131  0.49998131  1.0
  Tl  Tl13  1  1.50000000  1.00000000  1.00001869  1.0
  Tl  Tl14  1  1.00000000  1.00001869  1.50000000  1.0
  Tl  Tl15  1  1.00001869  0.50000000  1.00000000  1.0
  O  O16  1  1.04208402  1.27062153  1.00380268  1.0
  O  O17  1  0.76681886  1.03828134  0.49619732  1.0
  O  O18  1  1.00380268  1.04208402  0.27062153  1.0
  O  O19  1  1.27146248  0.73318114  1.22937847  1.0
  O  O20  1  0.27062153  1.00380268  1.04208402  1.0
  O  O21  1  1.46171866  1.22853752  1.45791598  1.0
  O  O22  1  1.73318114  1.22937847  1.27146248  1.0
  O  O23  1  0.45791598  0.46171866  0.22853752  1.0
  O  O24  1  0.22853752  0.45791598  0.46171866  1.0
  O  O25  1  0.49619732  0.76681886  1.03828134  1.0
  O  O26  1  1.03828134  0.49619732  0.76681886  1.0
  O  O27  1  1.22937847  1.27146248  1.73318114  1.0
  O  O28  1  0.99621122  0.95794714  0.72943068  1.0
  O  O29  1  0.72851646  1.26678054  0.77056932  1.0
  O  O30  1  1.72943068  0.99621122  0.95794714  1.0
  O  O31  1  0.53826408  0.77148354  0.54205286  1.0
  O  O32  1  0.95794714  1.72943068  0.99621122  1.0
  O  O33  1  1.23321946  0.96173592  1.50378878  1.0
  O  O34  1  1.77148354  1.54205286  1.53826408  1.0
  O  O35  1  1.50378878  1.23321946  0.96173592  1.0
  O  O36  1  0.96173592  0.50378878  1.23321946  1.0
  O  O37  1  0.77056932  0.72851646  0.26678054  1.0
  O  O38  1  0.26678054  0.77056932  0.72851646  1.0
  O  O39  1  1.54205286  1.53826408  1.77148354  1.0
