# generated using pymatgen
data_Bi4Te7Pb
_symmetry_space_group_name_H-M   'P 1'
_cell_length_a   4.47565897
_cell_length_b   4.47565897
_cell_length_c   24.91294298
_cell_angle_alpha   90.00000000
_cell_angle_beta   90.00000000
_cell_angle_gamma   120.00000000
_symmetry_Int_Tables_number   1
_chemical_formula_structural   Bi4Te7Pb
_chemical_formula_sum   'Bi4 Te7 Pb1'
_cell_volume   432.18495128
_cell_formula_units_Z   1
loop_
 _symmetry_equiv_pos_site_id
 _symmetry_equiv_pos_as_xyz
  1  'x, y, z'
loop_
 _atom_site_type_symbol
 _atom_site_label
 _atom_site_symmetry_multiplicity
 _atom_site_fract_x
 _atom_site_fract_y
 _atom_site_fract_z
 _atom_site_occupancy
  Bi  Bi0  1  0.33333333  0.66666667  0.08172364  1.0
  Bi  Bi1  1  0.66666667  0.33333333  0.91827636  1.0
  Bi  Bi2  1  0.33333333  0.66666667  0.33871862  1.0
  Bi  Bi3  1  0.66666667  0.33333333  0.66128138  1.0
  Te  Te4  1  0.33333333  0.66666667  0.57944648  1.0
  Te  Te5  1  0.66666667  0.33333333  0.42055352  1.0
  Te  Te6  1  0.33333333  0.66666667  0.84975717  1.0
  Te  Te7  1  0.66666667  0.33333333  0.15024283  1.0
  Te  Te8  1  0.00000000  0.00000000  0.27070894  1.0
  Te  Te9  1  0.00000000  0.00000000  0.72929106  1.0
  Te  Te10  1  0.00000000  0.00000000  0.00000000  1.0
  Pb  Pb11  1  0.00000000  0.00000000  0.50000000  1.0
