# generated using pymatgen
data_Eu2Se2O7
_symmetry_space_group_name_H-M   'P 1'
_cell_length_a   10.94101239
_cell_length_b   10.94101239
_cell_length_c   5.35697780
_cell_angle_alpha   90.00000000
_cell_angle_beta   90.00000000
_cell_angle_gamma   90.00000000
_symmetry_Int_Tables_number   1
_chemical_formula_structural   Eu2Se2O7
_chemical_formula_sum   'Eu8 Se8 O28'
_cell_volume   641.26105709
_cell_formula_units_Z   4
loop_
 _symmetry_equiv_pos_site_id
 _symmetry_equiv_pos_as_xyz
  1  'x, y, z'
loop_
 _atom_site_type_symbol
 _atom_site_label
 _atom_site_symmetry_multiplicity
 _atom_site_fract_x
 _atom_site_fract_y
 _atom_site_fract_z
 _atom_site_occupancy
  Eu  Eu0  1  0.62400697  0.37599303  0.75000000  1.0
  Eu  Eu1  1  0.62400697  0.62400697  0.25000000  1.0
  Eu  Eu2  1  0.37599303  0.37599303  0.25000000  1.0
  Eu  Eu3  1  0.37599303  0.62400697  0.75000000  1.0
  Eu  Eu4  1  0.87599303  0.12400697  0.75000000  1.0
  Eu  Eu5  1  0.12400697  0.12400697  0.25000000  1.0
  Eu  Eu6  1  0.87599303  0.87599303  0.25000000  1.0
  Eu  Eu7  1  0.12400697  0.87599303  0.75000000  1.0
  O  O8  1  0.81125090  0.31125090  0.95304843  1.0
  O  O9  1  0.81125090  0.68874910  0.45304843  1.0
  O  O10  1  0.18874910  0.31125090  0.45304843  1.0
  O  O11  1  0.18874910  0.68874910  0.95304843  1.0
  O  O12  1  0.68874910  0.18874910  0.54695157  1.0
  O  O13  1  0.68874910  0.81125090  0.04695157  1.0
  O  O14  1  0.31125090  0.18874910  0.04695157  1.0
  O  O15  1  0.31125090  0.81125090  0.54695157  1.0
  O  O16  1  0.43129771  0.24738444  0.62044477  1.0
  O  O17  1  0.43129771  0.75261556  0.12044477  1.0
  O  O18  1  0.56870229  0.24738444  0.12044477  1.0
  O  O19  1  0.56870229  0.75261556  0.62044477  1.0
  O  O20  1  0.74738444  0.93129771  0.62044477  1.0
  O  O21  1  0.25261556  0.93129771  0.12044477  1.0
  O  O22  1  0.74738444  0.06870229  0.12044477  1.0
  O  O23  1  0.25261556  0.06870229  0.62044477  1.0
  O  O24  1  0.06870229  0.25261556  0.87955523  1.0
  O  O25  1  0.06870229  0.74738444  0.37955523  1.0
  O  O26  1  0.93129771  0.25261556  0.37955523  1.0
  O  O27  1  0.93129771  0.74738444  0.87955523  1.0
  O  O28  1  0.75261556  0.56870229  0.87955523  1.0
  O  O29  1  0.24738444  0.56870229  0.37955523  1.0
  O  O30  1  0.75261556  0.43129771  0.37955523  1.0
  O  O31  1  0.24738444  0.43129771  0.87955523  1.0
  O  O32  1  0.00000000  0.00000000  0.00000000  1.0
  O  O33  1  0.00000000  0.00000000  0.50000000  1.0
  O  O34  1  0.50000000  0.50000000  0.00000000  1.0
  O  O35  1  0.50000000  0.50000000  0.50000000  1.0
  Se  Se36  1  0.87705307  0.37705307  0.21516711  1.0
  Se  Se37  1  0.87705307  0.62294693  0.71516711  1.0
  Se  Se38  1  0.12294693  0.37705307  0.71516711  1.0
  Se  Se39  1  0.12294693  0.62294693  0.21516711  1.0
  Se  Se40  1  0.62294693  0.12294693  0.28483289  1.0
  Se  Se41  1  0.62294693  0.87705307  0.78483289  1.0
  Se  Se42  1  0.37705307  0.12294693  0.78483289  1.0
  Se  Se43  1  0.37705307  0.87705307  0.28483289  1.0
