# generated using pymatgen
data_Cs3Li2F5
_symmetry_space_group_name_H-M   'P 1'
_cell_length_a   11.71155711
_cell_length_b   4.24705613
_cell_length_c   11.70091044
_cell_angle_alpha   79.68987800
_cell_angle_beta   20.90274052
_cell_angle_gamma   79.40738148
_symmetry_Int_Tables_number   1
_chemical_formula_structural   Cs3Li2F5
_chemical_formula_sum   'Cs3 Li2 F5'
_cell_volume   204.06507445
_cell_formula_units_Z   1
loop_
 _symmetry_equiv_pos_site_id
 _symmetry_equiv_pos_as_xyz
  1  'x, y, z'
loop_
 _atom_site_type_symbol
 _atom_site_label
 _atom_site_symmetry_multiplicity
 _atom_site_fract_x
 _atom_site_fract_y
 _atom_site_fract_z
 _atom_site_occupancy
  Cs  Cs0  1  0.40912327  -0.31632157  0.31632157  1.0
  Cs  Cs1  1  -0.31632157  0.40912327  0.59087673  1.0
  Cs  Cs2  1  0.04928058  1.04928058  -0.04928058  1.0
  Li  Li3  1  -0.15062470  0.28858745  0.71141255  1.0
  Li  Li4  1  0.28858745  -0.15062470  0.15062470  1.0
  F  F5  1  -0.44953668  0.55046332  0.44953668  1.0
  F  F6  1  0.22823005  0.22823005  0.27176995  1.0
  F  F7  1  0.72823005  0.72823005  -0.22823005  1.0
  F  F8  1  -0.09463778  0.18050933  0.81949067  1.0
  F  F9  1  0.18050933  -0.09463778  0.09463778  1.0
