# generated using pymatgen
data_V(NiP4)4
_symmetry_space_group_name_H-M   'P 1'
_cell_length_a   10.19893638
_cell_length_b   10.19893638
_cell_length_c   11.11182634
_cell_angle_alpha   79.50347305
_cell_angle_beta   100.49652695
_cell_angle_gamma   147.71674825
_symmetry_Int_Tables_number   1
_chemical_formula_structural   V(NiP4)4
_chemical_formula_sum   'V2 Ni8 P32'
_cell_volume   606.13276818
_cell_formula_units_Z   2
loop_
 _symmetry_equiv_pos_site_id
 _symmetry_equiv_pos_as_xyz
  1  'x, y, z'
loop_
 _atom_site_type_symbol
 _atom_site_label
 _atom_site_symmetry_multiplicity
 _atom_site_fract_x
 _atom_site_fract_y
 _atom_site_fract_z
 _atom_site_occupancy
  V  V0  1  0.60668001  0.60668001  0.75000000  1.0
  V  V1  1  0.39331999  0.39331999  0.25000000  1.0
  Ni  Ni2  1  0.80013968  0.01243511  0.42604136  1.0
  Ni  Ni3  1  0.98756489  0.19986032  0.92604136  1.0
  Ni  Ni4  1  1.01243511  0.80013968  0.07395864  1.0
  Ni  Ni5  1  0.19986032  -0.01243511  0.57395864  1.0
  Ni  Ni6  1  0.30643421  -0.19453114  0.87100515  1.0
  Ni  Ni7  1  1.19453114  0.69356579  0.37100515  1.0
  Ni  Ni8  1  0.80546886  0.30643421  0.62899485  1.0
  Ni  Ni9  1  0.69356579  0.19453114  0.12899485  1.0
  P  P10  1  0.26869657  -0.01204751  0.78046339  1.0
  P  P11  1  1.01204751  0.73130343  0.28046339  1.0
  P  P12  1  0.98795249  0.26869657  0.71953661  1.0
  P  P13  1  0.73130343  0.01204751  0.21953661  1.0
  P  P14  1  0.44364632  -0.11460676  0.68792447  1.0
  P  P15  1  1.11460676  0.55635368  0.18792447  1.0
  P  P16  1  0.88539324  0.44364632  0.81207553  1.0
  P  P17  1  0.55635368  0.11460676  0.31207553  1.0
  P  P18  1  0.72179771  0.14662199  0.94633286  1.0
  P  P19  1  0.85337801  0.27820229  0.44633286  1.0
  P  P20  1  1.14662199  0.72179771  0.55366714  1.0
  P  P21  1  0.27820229  -0.14662199  0.05366714  1.0
  P  P22  1  1.32120177  0.60325347  0.95815600  1.0
  P  P23  1  0.39674653  -0.32120177  0.45815600  1.0
  P  P24  1  0.60325347  0.32120177  0.54184400  1.0
  P  P25  1  0.67879823  0.39674653  0.04184400  1.0
  P  P26  1  0.65719607  -0.22169604  0.91747072  1.0
  P  P27  1  1.22169604  0.34280393  0.41747072  1.0
  P  P28  1  0.77830396  0.65719607  0.58252928  1.0
  P  P29  1  0.34280393  0.22169604  0.08252928  1.0
  P  P30  1  0.88503301  0.00466724  0.63375474  1.0
  P  P31  1  0.99533276  0.11496699  0.13375474  1.0
  P  P32  1  1.00466724  0.88503301  0.86624526  1.0
  P  P33  1  0.11496699  -0.00466724  0.36624526  1.0
  P  P34  1  1.26387013  0.27230684  0.89117856  1.0
  P  P35  1  0.72769316  -0.26387013  0.39117856  1.0
  P  P36  1  0.27230684  0.26387013  0.60882144  1.0
  P  P37  1  0.73612987  0.72769316  0.10882144  1.0
  P  P38  1  0.61805509  0.38120887  0.83658642  1.0
  P  P39  1  0.61879113  0.38194491  0.33658642  1.0
  P  P40  1  1.38120887  0.61805509  0.66341358  1.0
  P  P41  1  0.38194491  -0.38120887  0.16341358  1.0
