# generated using pymatgen
data_Sr2InSbO6
_symmetry_space_group_name_H-M   'P 1'
_cell_length_a   5.79107929
_cell_length_b   5.84346752
_cell_length_c   10.05843650
_cell_angle_alpha   90.00000000
_cell_angle_beta   125.26618324
_cell_angle_gamma   90.00000000
_symmetry_Int_Tables_number   1
_chemical_formula_structural   Sr2InSbO6
_chemical_formula_sum   'Sr4 In2 Sb2 O12'
_cell_volume   277.91077206
_cell_formula_units_Z   2
loop_
 _symmetry_equiv_pos_site_id
 _symmetry_equiv_pos_as_xyz
  1  'x, y, z'
loop_
 _atom_site_type_symbol
 _atom_site_label
 _atom_site_symmetry_multiplicity
 _atom_site_fract_x
 _atom_site_fract_y
 _atom_site_fract_z
 _atom_site_occupancy
  Sr  Sr0  1  0.74136875  0.03638405  0.24975792  1.0
  Sr  Sr1  1  0.74136875  0.46361595  0.74975792  1.0
  Sr  Sr2  1  0.25863125  0.53638405  0.25024208  1.0
  Sr  Sr3  1  0.25863125  0.96361595  0.75024208  1.0
  In  In4  1  0.50000000  0.50000000  -0.00000000  1.0
  In  In5  1  0.50000000  0.00000000  0.50000000  1.0
  Sb  Sb6  1  -0.00000000  0.50000000  0.50000000  1.0
  Sb  Sb7  1  0.00000000  0.00000000  0.00000000  1.0
  O  O8  1  0.83861638  0.47743137  0.26036303  1.0
  O  O9  1  0.83861638  0.02256863  0.76036303  1.0
  O  O10  1  0.16138362  0.97743137  0.23963697  1.0
  O  O11  1  0.16138362  0.52256863  0.73963697  1.0
  O  O12  1  0.75718133  0.77803560  0.45691197  1.0
  O  O13  1  0.75718133  0.72196440  0.95691197  1.0
  O  O14  1  0.24281867  0.27803560  0.04308803  1.0
  O  O15  1  0.24281867  0.22196440  0.54308803  1.0
  O  O16  1  0.68166776  0.29753944  0.45997691  1.0
  O  O17  1  0.68166776  0.20246056  0.95997691  1.0
  O  O18  1  0.31833224  0.79753944  0.04002309  1.0
  O  O19  1  0.31833224  0.70246056  0.54002309  1.0
