# generated using pymatgen
data_PbSe
_symmetry_space_group_name_H-M   'P 1'
_cell_length_a   12.41695875
_cell_length_b   4.39161485
_cell_length_c   4.38891148
_cell_angle_alpha   90.00000000
_cell_angle_beta   90.00000000
_cell_angle_gamma   90.00000000
_symmetry_Int_Tables_number   1
_chemical_formula_structural   PbSe
_chemical_formula_sum   'Pb4 Se4'
_cell_volume   239.32953951
_cell_formula_units_Z   4
loop_
 _symmetry_equiv_pos_site_id
 _symmetry_equiv_pos_as_xyz
  1  'x, y, z'
loop_
 _atom_site_type_symbol
 _atom_site_label
 _atom_site_symmetry_multiplicity
 _atom_site_fract_x
 _atom_site_fract_y
 _atom_site_fract_z
 _atom_site_occupancy
  Pb  Pb0  1  0.37500874  0.75000000  0.74999295  1.0
  Pb  Pb1  1  0.87500874  0.75000000  0.75000705  1.0
  Pb  Pb2  1  0.62499126  0.25000000  0.25000705  1.0
  Pb  Pb3  1  0.12499126  0.25000000  0.24999295  1.0
  Se  Se4  1  0.12495187  0.75000000  -0.24998224  1.0
  Se  Se5  1  0.62495187  0.75000000  0.74998224  1.0
  Se  Se6  1  0.87504813  0.25000000  1.24998224  1.0
  Se  Se7  1  0.37504813  0.25000000  0.25001776  1.0
