# generated using pymatgen
data_Os2C3
_symmetry_space_group_name_H-M   'P 1'
_cell_length_a   5.00611311
_cell_length_b   5.00611311
_cell_length_c   7.92132518
_cell_angle_alpha   90.00000000
_cell_angle_beta   90.00000000
_cell_angle_gamma   90.00000000
_symmetry_Int_Tables_number   1
_chemical_formula_structural   Os2C3
_chemical_formula_sum   'Os8 C12'
_cell_volume   198.51766483
_cell_formula_units_Z   4
loop_
 _symmetry_equiv_pos_site_id
 _symmetry_equiv_pos_as_xyz
  1  'x, y, z'
loop_
 _atom_site_type_symbol
 _atom_site_label
 _atom_site_symmetry_multiplicity
 _atom_site_fract_x
 _atom_site_fract_y
 _atom_site_fract_z
 _atom_site_occupancy
  Os  Os0  1  0.00000000  0.50000000  0.39553422  1.0
  Os  Os1  1  0.00000000  0.50000000  0.89553422  1.0
  Os  Os2  1  0.50000000  0.00000000  0.60446578  1.0
  Os  Os3  1  0.50000000  0.00000000  0.10446578  1.0
  Os  Os4  1  0.00000000  0.00000000  0.50000000  1.0
  Os  Os5  1  0.00000000  0.00000000  0.00000000  1.0
  Os  Os6  1  0.50000000  0.50000000  0.25000000  1.0
  Os  Os7  1  0.50000000  0.50000000  0.75000000  1.0
  C  C8  1  0.33900796  0.23085268  0.41956150  1.0
  C  C9  1  0.66099204  0.76914732  0.41956150  1.0
  C  C10  1  0.66099204  0.23085268  0.91956150  1.0
  C  C11  1  0.33900796  0.76914732  0.91956150  1.0
  C  C12  1  0.23085268  0.66099204  0.58043850  1.0
  C  C13  1  0.76914732  0.33900796  0.58043850  1.0
  C  C14  1  0.23085268  0.33900796  0.08043850  1.0
  C  C15  1  0.76914732  0.66099204  0.08043850  1.0
  C  C16  1  0.83106676  0.16893324  0.25000000  1.0
  C  C17  1  0.16893324  0.83106676  0.25000000  1.0
  C  C18  1  0.16893324  0.16893324  0.75000000  1.0
  C  C19  1  0.83106676  0.83106676  0.75000000  1.0
