# generated using pymatgen
data_Cd(AuF4)2
_symmetry_space_group_name_H-M   'P 1'
_cell_length_a   5.95199937
_cell_length_b   5.95199937
_cell_length_c   10.47168870
_cell_angle_alpha   90.00000000
_cell_angle_beta   90.00000000
_cell_angle_gamma   90.00000000
_symmetry_Int_Tables_number   1
_chemical_formula_structural   Cd(AuF4)2
_chemical_formula_sum   'Cd2 Au4 F16'
_cell_volume   370.97314927
_cell_formula_units_Z   2
loop_
 _symmetry_equiv_pos_site_id
 _symmetry_equiv_pos_as_xyz
  1  'x, y, z'
loop_
 _atom_site_type_symbol
 _atom_site_label
 _atom_site_symmetry_multiplicity
 _atom_site_fract_x
 _atom_site_fract_y
 _atom_site_fract_z
 _atom_site_occupancy
  Cd  Cd0  1  0.00000000  0.00000000  0.75000000  1.0
  Cd  Cd1  1  0.00000000  0.00000000  0.25000000  1.0
  Au  Au2  1  0.00000000  0.50000000  0.00000000  1.0
  Au  Au3  1  0.00000000  0.50000000  0.50000000  1.0
  Au  Au4  1  0.50000000  0.00000000  0.50000000  1.0
  Au  Au5  1  0.50000000  0.00000000  0.00000000  1.0
  F  F6  1  0.86247429  0.69282367  0.87056441  1.0
  F  F7  1  0.86247429  0.69282367  0.12943559  1.0
  F  F8  1  0.86247429  0.30717633  0.37056441  1.0
  F  F9  1  0.86247429  0.30717633  0.62943559  1.0
  F  F10  1  0.69282367  0.86247429  0.37056441  1.0
  F  F11  1  0.69282367  0.86247429  0.62943559  1.0
  F  F12  1  0.69282367  0.13752571  0.87056441  1.0
  F  F13  1  0.69282367  0.13752571  0.12943559  1.0
  F  F14  1  0.13752571  0.69282367  0.37056441  1.0
  F  F15  1  0.13752571  0.69282367  0.62943559  1.0
  F  F16  1  0.13752571  0.30717633  0.87056441  1.0
  F  F17  1  0.13752571  0.30717633  0.12943559  1.0
  F  F18  1  0.30717633  0.86247429  0.87056441  1.0
  F  F19  1  0.30717633  0.86247429  0.12943559  1.0
  F  F20  1  0.30717633  0.13752571  0.37056441  1.0
  F  F21  1  0.30717633  0.13752571  0.62943559  1.0
