# generated using pymatgen
data_Sc11Ru4
_symmetry_space_group_name_H-M   'P 1'
_cell_length_a   9.45701951
_cell_length_b   9.45701951
_cell_length_c   9.45701951
_cell_angle_alpha   60.00000000
_cell_angle_beta   60.00000000
_cell_angle_gamma   60.00000000
_symmetry_Int_Tables_number   1
_chemical_formula_structural   Sc11Ru4
_chemical_formula_sum   'Sc22 Ru8'
_cell_volume   598.06426984
_cell_formula_units_Z   2
loop_
 _symmetry_equiv_pos_site_id
 _symmetry_equiv_pos_as_xyz
  1  'x, y, z'
loop_
 _atom_site_type_symbol
 _atom_site_label
 _atom_site_symmetry_multiplicity
 _atom_site_fract_x
 _atom_site_fract_y
 _atom_site_fract_z
 _atom_site_occupancy
  Sc  Sc0  1  0.88338798  0.88338798  -0.11661202  1.0
  Sc  Sc1  1  1.11661202  0.11661202  0.65016393  1.0
  Sc  Sc2  1  1.11661202  0.65016393  0.11661202  1.0
  Sc  Sc3  1  0.34983607  0.88338798  -0.11661202  1.0
  Sc  Sc4  1  1.65016393  0.11661202  0.11661202  1.0
  Sc  Sc5  1  0.88338798  0.34983607  -0.11661202  1.0
  Sc  Sc6  1  0.88338798  0.88338798  -0.65016393  1.0
  Sc  Sc7  1  1.11661202  0.11661202  0.11661202  1.0
  Sc  Sc8  1  0.65657429  0.65657429  -0.34342571  1.0
  Sc  Sc9  1  0.34342571  1.34342571  -0.03027713  1.0
  Sc  Sc10  1  1.34342571  -0.03027713  0.34342571  1.0
  Sc  Sc11  1  1.03027713  0.65657429  0.65657429  1.0
  Sc  Sc12  1  -0.03027713  1.34342571  0.34342571  1.0
  Sc  Sc13  1  0.65657429  1.03027713  -0.34342571  1.0
  Sc  Sc14  1  0.65657429  0.65657429  1.03027713  1.0
  Sc  Sc15  1  1.34342571  0.34342571  0.34342571  1.0
  Sc  Sc16  1  -0.69773731  0.69773731  0.69773731  1.0
  Sc  Sc17  1  -0.30226269  0.30226269  0.69773731  1.0
  Sc  Sc18  1  0.69773731  0.69773731  -0.69773731  1.0
  Sc  Sc19  1  0.30226269  1.30226269  -0.30226269  1.0
  Sc  Sc20  1  0.30226269  -0.30226269  1.30226269  1.0
  Sc  Sc21  1  -0.30226269  0.30226269  0.30226269  1.0
  Ru  Ru22  1  1.50000000  0.00000000  -0.00000000  1.0
  Ru  Ru23  1  1.00000000  0.50000000  -0.50000000  1.0
  Ru  Ru24  1  0.00000000  1.50000000  -0.00000000  1.0
  Ru  Ru25  1  0.50000000  1.00000000  -0.50000000  1.0
  Ru  Ru26  1  0.00000000  0.00000000  0.50000000  1.0
  Ru  Ru27  1  0.50000000  -0.50000000  1.00000000  1.0
  Ru  Ru28  1  -0.50000000  0.50000000  0.50000000  1.0
  Ru  Ru29  1  0.00000000  0.00000000  0.00000000  1.0
