# generated using pymatgen
data_CSCl(OF)3
_symmetry_space_group_name_H-M   'P 1'
_cell_length_a   5.55592037
_cell_length_b   24.98186595
_cell_length_c   5.64566985
_cell_angle_alpha   90.00000000
_cell_angle_beta   115.24142428
_cell_angle_gamma   90.00000000
_symmetry_Int_Tables_number   1
_chemical_formula_structural   CSCl(OF)3
_chemical_formula_sum   'C4 S4 Cl4 O12 F12'
_cell_volume   708.78423412
_cell_formula_units_Z   4
loop_
 _symmetry_equiv_pos_site_id
 _symmetry_equiv_pos_as_xyz
  1  'x, y, z'
loop_
 _atom_site_type_symbol
 _atom_site_label
 _atom_site_symmetry_multiplicity
 _atom_site_fract_x
 _atom_site_fract_y
 _atom_site_fract_z
 _atom_site_occupancy
  C  C0  1  0.69937986  0.42950729  0.32874796  1.0
  C  C1  1  0.69937986  0.07049271  0.82874796  1.0
  C  C2  1  0.30062014  0.92950729  0.17125204  1.0
  C  C3  1  0.30062014  0.57049271  0.67125204  1.0
  S  S4  1  0.52634833  0.33862946  0.45214398  1.0
  S  S5  1  0.52634833  0.16137054  0.95214398  1.0
  S  S6  1  0.47365167  0.83862946  0.04785602  1.0
  S  S7  1  0.47365167  0.66137054  0.54785602  1.0
  Cl  Cl8  1  0.87077678  0.18716752  0.24349664  1.0
  Cl  Cl9  1  0.87077678  0.31283248  0.74349664  1.0
  Cl  Cl10  1  0.12922322  0.68716752  0.25650336  1.0
  Cl  Cl11  1  0.12922322  0.81283248  0.75650336  1.0
  O  O12  1  0.64176996  0.37494246  0.27843543  1.0
  O  O13  1  0.64176996  0.12505754  0.77843543  1.0
  O  O14  1  0.35823004  0.87494246  0.22156457  1.0
  O  O15  1  0.35823004  0.62505754  0.72156457  1.0
  O  O16  1  0.39169815  0.12769559  0.06261918  1.0
  O  O17  1  0.39169815  0.37230441  0.56261918  1.0
  O  O18  1  0.60830185  0.62769559  0.43738082  1.0
  O  O19  1  0.60830185  0.87230441  0.93738082  1.0
  O  O20  1  0.40258551  0.29427706  0.28335821  1.0
  O  O21  1  0.40258551  0.20572294  0.78335821  1.0
  O  O22  1  0.59741449  0.79427706  0.21664179  1.0
  O  O23  1  0.59741449  0.70572294  0.71664179  1.0
  F  F24  1  0.85801005  0.06078147  0.08309211  1.0
  F  F25  1  0.85801005  0.43921853  0.58309211  1.0
  F  F26  1  0.14198995  0.56078147  0.41690789  1.0
  F  F27  1  0.14198995  0.93921853  0.91690789  1.0
  F  F28  1  0.82517138  0.44404346  0.18210789  1.0
  F  F29  1  0.82517138  0.05595654  0.68210789  1.0
  F  F30  1  0.17482862  0.94404346  0.31789211  1.0
  F  F31  1  0.17482862  0.55595654  0.81789211  1.0
  F  F32  1  0.47564230  0.45871303  0.25771634  1.0
  F  F33  1  0.47564230  0.04128697  0.75771634  1.0
  F  F34  1  0.52435770  0.95871303  0.24228366  1.0
  F  F35  1  0.52435770  0.54128697  0.74228366  1.0
