# generated using pymatgen
data_NaSiSbO5
_symmetry_space_group_name_H-M   'P 1'
_cell_length_a   13.00495669
_cell_length_b   6.42470241
_cell_length_c   10.75440606
_cell_angle_alpha   90.00000000
_cell_angle_beta   90.00000000
_cell_angle_gamma   90.00000000
_symmetry_Int_Tables_number   1
_chemical_formula_structural   NaSiSbO5
_chemical_formula_sum   'Na8 Si8 Sb8 O40'
_cell_volume   898.56263647
_cell_formula_units_Z   8
loop_
 _symmetry_equiv_pos_site_id
 _symmetry_equiv_pos_as_xyz
  1  'x, y, z'
loop_
 _atom_site_type_symbol
 _atom_site_label
 _atom_site_symmetry_multiplicity
 _atom_site_fract_x
 _atom_site_fract_y
 _atom_site_fract_z
 _atom_site_occupancy
  Na  Na0  1  0.39355352  0.74781014  0.10107817  1.0
  Na  Na1  1  0.89355352  0.75218986  0.10107817  1.0
  Na  Na2  1  0.60644648  0.25218986  0.60107817  1.0
  Na  Na3  1  0.10644648  0.24781014  0.60107817  1.0
  Na  Na4  1  0.34778615  0.28988312  0.80363201  1.0
  Na  Na5  1  0.84778615  0.21011688  0.80363201  1.0
  Na  Na6  1  0.65221385  0.71011688  0.30363201  1.0
  Na  Na7  1  0.15221385  0.78988312  0.30363201  1.0
  Si  Si8  1  0.48544477  0.82584564  0.78481104  1.0
  Si  Si9  1  0.98544477  0.67415436  0.78481104  1.0
  Si  Si10  1  0.51455523  0.17415436  0.28481104  1.0
  Si  Si11  1  0.01455523  0.32584564  0.28481104  1.0
  Si  Si12  1  0.31536430  0.52452961  0.52184280  1.0
  Si  Si13  1  0.81536430  0.97547039  0.52184280  1.0
  Si  Si14  1  0.68463570  0.47547039  0.02184280  1.0
  Si  Si15  1  0.18463570  0.02452961  0.02184280  1.0
  Sb  Sb16  1  0.38229087  0.01934284  0.52912761  1.0
  Sb  Sb17  1  0.88229087  0.48065716  0.52912761  1.0
  Sb  Sb18  1  0.61770913  -0.01934284  0.02912761  1.0
  Sb  Sb19  1  0.11770913  0.51934284  0.02912761  1.0
  Sb  Sb20  1  0.23248456  0.76840739  0.76364955  1.0
  Sb  Sb21  1  0.73248456  0.73159261  0.76364955  1.0
  Sb  Sb22  1  0.76751544  0.23159261  0.26364955  1.0
  Sb  Sb23  1  0.26751544  0.26840739  0.26364955  1.0
  O  O24  1  0.47460760  1.01773166  0.68244564  1.0
  O  O25  1  0.97460760  0.48226834  0.68244564  1.0
  O  O26  1  0.52539240  -0.01773166  0.18244564  1.0
  O  O27  1  0.02539240  0.51773166  0.18244564  1.0
  O  O28  1  0.38165494  0.68054008  0.78304807  1.0
  O  O29  1  0.88165494  0.81945992  0.78304807  1.0
  O  O30  1  0.61834506  0.31945992  0.28304807  1.0
  O  O31  1  0.11834506  0.18054008  0.28304807  1.0
  O  O32  1  0.39628166  0.71657860  0.50573276  1.0
  O  O33  1  0.89628166  0.78342140  0.50573276  1.0
  O  O34  1  0.60371834  0.28342140  0.00573276  1.0
  O  O35  1  0.10371834  0.21657860  0.00573276  1.0
  O  O36  1  0.25819460  1.00081845  0.64242501  1.0
  O  O37  1  0.75819460  0.49918155  0.64242501  1.0
  O  O38  1  0.74180540  -0.00081845  0.14242501  1.0
  O  O39  1  0.24180540  0.50081845  0.14242501  1.0
  O  O40  1  0.25188075  0.98549515  0.89453465  1.0
  O  O41  1  0.75188075  0.51450485  0.89453465  1.0
  O  O42  1  0.74811925  0.01450485  0.39453465  1.0
  O  O43  1  0.24811925  0.48549515  0.39453465  1.0
  O  O44  1  0.22389154  0.55834393  0.62678536  1.0
  O  O45  1  0.72389154  0.94165607  0.62678536  1.0
  O  O46  1  0.77610846  0.44165607  0.12678536  1.0
  O  O47  1  0.27610846  0.05834393  0.12678536  1.0
  O  O48  1  0.21164397  0.53389929  0.88354362  1.0
  O  O49  1  0.71164397  0.96610071  0.88354362  1.0
  O  O50  1  0.78835603  0.46610071  0.38354362  1.0
  O  O51  1  0.28835603  0.03389929  0.38354362  1.0
  O  O52  1  0.11491482  0.82519835  0.06483409  1.0
  O  O53  1  0.61491482  0.67480165  0.06483409  1.0
  O  O54  1  0.88508518  0.17480165  0.56483409  1.0
  O  O55  1  0.38508518  0.32519835  0.56483409  1.0
  O  O56  1  0.08236612  0.83024182  0.75406300  1.0
  O  O57  1  0.58236612  0.66975818  0.75406300  1.0
  O  O58  1  0.91763388  0.16975818  0.25406300  1.0
  O  O59  1  0.41763388  0.33024182  0.25406300  1.0
  O  O60  1  -0.00734445  0.56557928  0.92434662  1.0
  O  O61  1  0.49265555  0.93442072  0.92434662  1.0
  O  O62  1  1.00734445  0.43442072  0.42434662  1.0
  O  O63  1  0.50734445  0.06557928  0.42434662  1.0
