# generated using pymatgen
data_Ca2SiB2O7
_symmetry_space_group_name_H-M   'P 1'
_cell_length_a   7.16452674
_cell_length_b   7.16452674
_cell_length_c   4.85095134
_cell_angle_alpha   90.00000000
_cell_angle_beta   90.00000000
_cell_angle_gamma   90.00000000
_symmetry_Int_Tables_number   1
_chemical_formula_structural   Ca2SiB2O7
_chemical_formula_sum   'Ca4 Si2 B4 O14'
_cell_volume   249.00148295
_cell_formula_units_Z   2
loop_
 _symmetry_equiv_pos_site_id
 _symmetry_equiv_pos_as_xyz
  1  'x, y, z'
loop_
 _atom_site_type_symbol
 _atom_site_label
 _atom_site_symmetry_multiplicity
 _atom_site_fract_x
 _atom_site_fract_y
 _atom_site_fract_z
 _atom_site_occupancy
  Ca  Ca0  1  0.83913354  0.33913354  0.48958750  1.0
  Ca  Ca1  1  0.66086646  0.83913354  0.51041250  1.0
  Ca  Ca2  1  0.16086646  0.66086646  0.48958750  1.0
  Ca  Ca3  1  0.33913354  0.16086646  0.51041250  1.0
  Si  Si4  1  0.50000000  0.50000000  0.00000000  1.0
  Si  Si5  1  0.00000000  0.00000000  0.00000000  1.0
  B  B6  1  0.36754066  0.86754066  0.03701666  1.0
  B  B7  1  0.13245934  0.36754066  0.96298334  1.0
  B  B8  1  0.63245934  0.13245934  0.03701666  1.0
  B  B9  1  0.86754066  0.63245934  0.96298334  1.0
  O  O10  1  0.32318642  0.42102752  0.81309030  1.0
  O  O11  1  0.17681358  0.92102752  0.18690970  1.0
  O  O12  1  0.57897248  0.32318642  0.18690970  1.0
  O  O13  1  0.92102752  0.82318642  0.81309030  1.0
  O  O14  1  0.67681358  0.57897248  0.81309030  1.0
  O  O15  1  0.82318642  0.07897248  0.18690970  1.0
  O  O16  1  0.42102752  0.67681358  0.18690970  1.0
  O  O17  1  0.07897248  0.17681358  0.81309030  1.0
  O  O18  1  0.35631670  0.85631670  0.75162186  1.0
  O  O19  1  0.14368330  0.35631670  0.24837814  1.0
  O  O20  1  0.64368330  0.14368330  0.75162186  1.0
  O  O21  1  0.85631670  0.64368330  0.24837814  1.0
  O  O22  1  0.00000000  0.50000000  0.84099684  1.0
  O  O23  1  0.50000000  0.00000000  0.15900316  1.0
