# generated using pymatgen
data_Sc(SiRh2)2
_symmetry_space_group_name_H-M   'P 1'
_cell_length_a   11.07830688
_cell_length_b   4.05415700
_cell_length_c   8.92354250
_cell_angle_alpha   90.00000000
_cell_angle_beta   90.00000000
_cell_angle_gamma   90.00000000
_symmetry_Int_Tables_number   1
_chemical_formula_structural   Sc(SiRh2)2
_chemical_formula_sum   'Sc4 Si8 Rh16'
_cell_volume   400.78480779
_cell_formula_units_Z   4
loop_
 _symmetry_equiv_pos_site_id
 _symmetry_equiv_pos_as_xyz
  1  'x, y, z'
loop_
 _atom_site_type_symbol
 _atom_site_label
 _atom_site_symmetry_multiplicity
 _atom_site_fract_x
 _atom_site_fract_y
 _atom_site_fract_z
 _atom_site_occupancy
  Sc  Sc0  1  0.82411981  0.25000000  0.14155221  1.0
  Sc  Sc1  1  0.32411981  0.25000000  0.35844779  1.0
  Sc  Sc2  1  0.17588019  0.75000000  0.85844779  1.0
  Sc  Sc3  1  0.67588019  0.75000000  0.64155221  1.0
  Si  Si4  1  0.63778402  0.25000000  0.41235817  1.0
  Si  Si5  1  0.13778402  0.25000000  0.08764183  1.0
  Si  Si6  1  0.36221598  0.75000000  0.58764183  1.0
  Si  Si7  1  0.86221598  0.75000000  0.91235817  1.0
  Si  Si8  1  0.06018394  0.25000000  0.61868322  1.0
  Si  Si9  1  0.56018394  0.25000000  0.88131678  1.0
  Si  Si10  1  0.93981606  0.75000000  0.38131678  1.0
  Si  Si11  1  0.43981606  0.75000000  0.11868322  1.0
  Rh  Rh12  1  0.50241602  0.25000000  0.61604855  1.0
  Rh  Rh13  1  0.00241602  0.25000000  0.88395145  1.0
  Rh  Rh14  1  0.49758398  0.75000000  0.38395145  1.0
  Rh  Rh15  1  0.99758398  0.75000000  0.11604855  1.0
  Rh  Rh16  1  0.26698604  0.25000000  0.69883668  1.0
  Rh  Rh17  1  0.76698604  0.25000000  0.80116332  1.0
  Rh  Rh18  1  0.73301396  0.75000000  0.30116332  1.0
  Rh  Rh19  1  0.23301396  0.75000000  0.19883668  1.0
  Rh  Rh20  1  0.56067378  0.25000000  0.17069909  1.0
  Rh  Rh21  1  0.06067378  0.25000000  0.32930091  1.0
  Rh  Rh22  1  0.43932622  0.75000000  0.82930091  1.0
  Rh  Rh23  1  0.93932622  0.75000000  0.67069909  1.0
  Rh  Rh24  1  0.34162167  0.25000000  0.00939352  1.0
  Rh  Rh25  1  0.84162167  0.25000000  0.49060648  1.0
  Rh  Rh26  1  0.65837833  0.75000000  0.99060648  1.0
  Rh  Rh27  1  0.15837833  0.75000000  0.50939352  1.0
