# generated using pymatgen
data_Ca5P3O12F
_symmetry_space_group_name_H-M   'P 1'
_cell_length_a   9.50601107
_cell_length_b   9.50601107
_cell_length_c   6.91309015
_cell_angle_alpha   90.00000000
_cell_angle_beta   90.00000000
_cell_angle_gamma   120.00000000
_symmetry_Int_Tables_number   1
_chemical_formula_structural   Ca5P3O12F
_chemical_formula_sum   'Ca10 P6 O24 F2'
_cell_volume   541.00276356
_cell_formula_units_Z   2
loop_
 _symmetry_equiv_pos_site_id
 _symmetry_equiv_pos_as_xyz
  1  'x, y, z'
loop_
 _atom_site_type_symbol
 _atom_site_label
 _atom_site_symmetry_multiplicity
 _atom_site_fract_x
 _atom_site_fract_y
 _atom_site_fract_z
 _atom_site_occupancy
  Ca  Ca0  1  0.00027930  0.75509459  0.25000000  1.0
  Ca  Ca1  1  0.75509459  0.75481529  0.75000000  1.0
  Ca  Ca2  1  0.75481529  0.99972070  0.25000000  1.0
  Ca  Ca3  1  0.24490541  0.24518471  0.25000000  1.0
  Ca  Ca4  1  0.99972070  0.24490541  0.75000000  1.0
  Ca  Ca5  1  0.24518471  0.00027930  0.75000000  1.0
  Ca  Ca6  1  0.33333333  0.66666667  0.49885741  1.0
  Ca  Ca7  1  0.33333333  0.66666667  1.00114259  1.0
  Ca  Ca8  1  0.66666667  0.33333333  -0.00114259  1.0
  Ca  Ca9  1  0.66666667  0.33333333  0.50114259  1.0
  P  P10  1  0.63051193  0.60161358  0.25000000  1.0
  P  P11  1  0.60161358  0.97110165  0.75000000  1.0
  P  P12  1  0.97110165  0.36948807  0.25000000  1.0
  P  P13  1  0.39838642  0.02889835  0.25000000  1.0
  P  P14  1  0.36948807  0.39838642  0.75000000  1.0
  P  P15  1  0.02889835  0.63051193  0.75000000  1.0
  O  O16  1  0.74330347  0.65951329  0.43105762  1.0
  O  O17  1  0.74330347  0.65951329  0.06894238  1.0
  O  O18  1  0.65951329  0.91620982  0.93105762  1.0
  O  O19  1  0.65951329  0.91620982  0.56894238  1.0
  O  O20  1  0.91620982  0.25669653  0.43105762  1.0
  O  O21  1  0.91620982  0.25669653  0.06894238  1.0
  O  O22  1  0.34048671  0.08379018  0.43105762  1.0
  O  O23  1  0.34048671  0.08379018  0.06894238  1.0
  O  O24  1  0.25669653  0.34048671  0.93105762  1.0
  O  O25  1  0.25669653  0.34048671  0.56894238  1.0
  O  O26  1  0.08379018  0.74330347  0.93105762  1.0
  O  O27  1  0.08379018  0.74330347  0.56894238  1.0
  O  O28  1  0.32908996  0.84221219  0.25000000  1.0
  O  O29  1  0.84221219  0.51312222  0.75000000  1.0
  O  O30  1  0.51312222  0.67091004  0.25000000  1.0
  O  O31  1  0.15778781  0.48687778  0.25000000  1.0
  O  O32  1  0.67091004  0.15778781  0.75000000  1.0
  O  O33  1  0.48687778  0.32908996  0.75000000  1.0
  O  O34  1  0.53438059  0.41126875  0.25000000  1.0
  O  O35  1  0.41126875  0.87688816  0.75000000  1.0
  O  O36  1  0.87688816  0.46561941  0.25000000  1.0
  O  O37  1  0.58873125  0.12311184  0.25000000  1.0
  O  O38  1  0.46561941  0.58873125  0.75000000  1.0
  O  O39  1  0.12311184  0.53438059  0.75000000  1.0
  F  F40  1  0.00000000  0.00000000  0.25000000  1.0
  F  F41  1  0.00000000  0.00000000  0.75000000  1.0
