# generated using pymatgen
data_GaTe
_symmetry_space_group_name_H-M   'P 1'
_cell_length_a   9.55044327
_cell_length_b   9.55044327
_cell_length_c   11.00278433
_cell_angle_alpha   72.26758992
_cell_angle_beta   107.73241008
_cell_angle_gamma   154.96007790
_symmetry_Int_Tables_number   1
_chemical_formula_structural   GaTe
_chemical_formula_sum   'Ga6 Te6'
_cell_volume   403.56061204
_cell_formula_units_Z   6
loop_
 _symmetry_equiv_pos_site_id
 _symmetry_equiv_pos_as_xyz
  1  'x, y, z'
loop_
 _atom_site_type_symbol
 _atom_site_label
 _atom_site_symmetry_multiplicity
 _atom_site_fract_x
 _atom_site_fract_y
 _atom_site_fract_z
 _atom_site_occupancy
  Ga  Ga0  1  0.76380393  0.23619607  0.69558781  1.0
  Ga  Ga1  1  0.23619607  -0.23619607  0.30441219  1.0
  Ga  Ga2  1  0.86018413  0.13981587  0.58578545  1.0
  Ga  Ga3  1  0.13981587  -0.13981587  0.41421455  1.0
  Ga  Ga4  1  0.43784608  -0.43784608  0.91595184  1.0
  Ga  Ga5  1  0.56215392  0.43784608  0.08404816  1.0
  Te  Te6  1  0.84962343  0.15037657  0.94283388  1.0
  Te  Te7  1  0.15037657  -0.15037657  0.05716612  1.0
  Te  Te8  1  0.83321635  0.16678365  0.33133236  1.0
  Te  Te9  1  0.16678365  -0.16678365  0.66866764  1.0
  Te  Te10  1  0.45507946  -0.45507946  0.67879176  1.0
  Te  Te11  1  0.54492054  0.45507946  0.32120824  1.0
