# generated using pymatgen
data_Nb3AgS4
_symmetry_space_group_name_H-M   'P 1'
_cell_length_a   8.90046537
_cell_length_b   8.90046537
_cell_length_c   4.33655226
_cell_angle_alpha   90.00000000
_cell_angle_beta   90.00000000
_cell_angle_gamma   120.00000000
_symmetry_Int_Tables_number   1
_chemical_formula_structural   Nb3AgS4
_chemical_formula_sum   'Nb6 Ag2 S8'
_cell_volume   297.50936803
_cell_formula_units_Z   2
loop_
 _symmetry_equiv_pos_site_id
 _symmetry_equiv_pos_as_xyz
  1  'x, y, z'
loop_
 _atom_site_type_symbol
 _atom_site_label
 _atom_site_symmetry_multiplicity
 _atom_site_fract_x
 _atom_site_fract_y
 _atom_site_fract_z
 _atom_site_occupancy
  Nb  Nb0  1  0.35108265  0.86489150  0.25000000  1.0
  Nb  Nb1  1  0.86489150  0.51380885  0.75000000  1.0
  Nb  Nb2  1  0.51380885  0.64891735  0.25000000  1.0
  Nb  Nb3  1  0.13510850  0.48619115  0.25000000  1.0
  Nb  Nb4  1  0.64891735  0.13510850  0.75000000  1.0
  Nb  Nb5  1  0.48619115  0.35108265  0.75000000  1.0
  Ag  Ag6  1  -0.00000000  0.00000000  0.25000000  1.0
  Ag  Ag7  1  -0.00000000  -0.00000000  0.75000000  1.0
  S  S8  1  0.02042570  0.68894121  0.25000000  1.0
  S  S9  1  0.68894121  0.66851551  0.75000000  1.0
  S  S10  1  0.66851551  0.97957430  0.25000000  1.0
  S  S11  1  0.31105879  0.33148449  0.25000000  1.0
  S  S12  1  0.97957430  0.31105879  0.75000000  1.0
  S  S13  1  0.33148449  0.02042570  0.75000000  1.0
  S  S14  1  0.66666667  0.33333333  0.25000000  1.0
  S  S15  1  0.33333333  0.66666667  0.75000000  1.0
