# generated using pymatgen
data_Tl2Ge2Se5
_symmetry_space_group_name_H-M   'P 1'
_cell_length_a   11.38093940
_cell_length_b   11.38093940
_cell_length_c   9.26663804
_cell_angle_alpha   79.76154734
_cell_angle_beta   100.23845266
_cell_angle_gamma   89.92591275
_symmetry_Int_Tables_number   1
_chemical_formula_structural   Tl2Ge2Se5
_chemical_formula_sum   'Tl8 Ge8 Se20'
_cell_volume   1161.67759236
_cell_formula_units_Z   4
loop_
 _symmetry_equiv_pos_site_id
 _symmetry_equiv_pos_as_xyz
  1  'x, y, z'
loop_
 _atom_site_type_symbol
 _atom_site_label
 _atom_site_symmetry_multiplicity
 _atom_site_fract_x
 _atom_site_fract_y
 _atom_site_fract_z
 _atom_site_occupancy
  Tl  Tl0  1  1.29573120  -0.04974796  0.39243210  1.0
  Tl  Tl1  1  1.04974796  -0.29573120  0.89243210  1.0
  Tl  Tl2  1  0.95025204  0.29573120  0.10756790  1.0
  Tl  Tl3  1  0.70426880  0.04974796  0.60756790  1.0
  Tl  Tl4  1  0.56663800  0.29502900  0.09115606  1.0
  Tl  Tl5  1  0.70497100  0.43336200  0.59115606  1.0
  Tl  Tl6  1  1.29502900  -0.43336200  0.40884394  1.0
  Tl  Tl7  1  1.43336200  -0.29502900  0.90884394  1.0
  Ge  Ge8  1  1.63279659  -0.23098832  0.39351779  1.0
  Ge  Ge9  1  1.23098832  -0.63279659  0.89351779  1.0
  Ge  Ge10  1  0.76901168  0.63279659  0.10648221  1.0
  Ge  Ge11  1  0.36720341  0.23098832  0.60648221  1.0
  Ge  Ge12  1  1.76531123  -0.02790850  0.09605341  1.0
  Ge  Ge13  1  1.02790850  -0.76531123  0.59605341  1.0
  Ge  Ge14  1  0.97209150  0.76531123  0.40394659  1.0
  Ge  Ge15  1  0.23468877  0.02790850  0.90394659  1.0
  Se  Se16  1  1.73925135  -0.17725946  0.93861456  1.0
  Se  Se17  1  1.17725946  -0.73925135  0.43861456  1.0
  Se  Se18  1  0.82274054  0.73925135  0.56138544  1.0
  Se  Se19  1  0.26074865  0.17725946  0.06138544  1.0
  Se  Se20  1  1.60713377  -0.03608489  0.24063635  1.0
  Se  Se21  1  1.03608489  -0.60713377  0.74063635  1.0
  Se  Se22  1  0.96391511  0.60713377  0.25936365  1.0
  Se  Se23  1  0.39286623  0.03608489  0.75936365  1.0
  Se  Se24  1  0.74243756  0.15839774  0.93973062  1.0
  Se  Se25  1  0.84160226  0.25756244  0.43973062  1.0
  Se  Se26  1  1.15839774  -0.25756244  0.56026938  1.0
  Se  Se27  1  1.25756244  -0.15839774  0.06026938  1.0
  Se  Se28  1  0.51063521  0.25657164  0.45601085  1.0
  Se  Se29  1  0.74342836  0.48936479  0.95601085  1.0
  Se  Se30  1  1.25657164  -0.48936479  0.04398915  1.0
  Se  Se31  1  1.48936479  -0.25657164  0.54398915  1.0
  Se  Se32  1  0.95982825  0.95982825  0.25000000  1.0
  Se  Se33  1  0.04017175  0.04017175  0.75000000  1.0
  Se  Se34  1  0.60857264  0.60857264  0.25000000  1.0
  Se  Se35  1  0.39142736  0.39142736  0.75000000  1.0
