# generated using pymatgen
data_GeO2
_symmetry_space_group_name_H-M   'P 1'
_cell_length_a   7.63799047
_cell_length_b   7.63799047
_cell_length_c   7.48737898
_cell_angle_alpha   76.39026678
_cell_angle_beta   103.60973322
_cell_angle_gamma   59.10291627
_symmetry_Int_Tables_number   1
_chemical_formula_structural   GeO2
_chemical_formula_sum   'Ge8 O16'
_cell_volume   329.40953784
_cell_formula_units_Z   8
loop_
 _symmetry_equiv_pos_site_id
 _symmetry_equiv_pos_as_xyz
  1  'x, y, z'
loop_
 _atom_site_type_symbol
 _atom_site_label
 _atom_site_symmetry_multiplicity
 _atom_site_fract_x
 _atom_site_fract_y
 _atom_site_fract_z
 _atom_site_occupancy
  Ge  Ge0  1  0.67977102  0.04291389  0.42964285  1.0
  Ge  Ge1  1  1.04291389  -0.32022898  0.07035715  1.0
  Ge  Ge2  1  1.32022898  -0.04291389  0.57035715  1.0
  Ge  Ge3  1  0.95708611  0.32022898  0.92964285  1.0
  Ge  Ge4  1  0.62432840  0.19543301  0.95311778  1.0
  Ge  Ge5  1  1.19543301  -0.37567160  0.54688222  1.0
  Ge  Ge6  1  1.37567160  -0.19543301  0.04688222  1.0
  Ge  Ge7  1  0.80456699  0.37567160  0.45311778  1.0
  O  O8  1  1.50000000  0.00000000  0.50000000  1.0
  O  O9  1  1.00000000  0.50000000  -0.00000000  1.0
  O  O10  1  0.35532716  0.35532716  0.75000000  1.0
  O  O11  1  0.64467284  0.64467284  0.25000000  1.0
  O  O12  1  0.96547595  -0.18743189  0.58956466  1.0
  O  O13  1  0.81256811  -0.03452405  0.91043534  1.0
  O  O14  1  1.03452405  0.18743189  0.41043534  1.0
  O  O15  1  1.18743189  0.03452405  0.08956466  1.0
  O  O16  1  0.59702379  0.09112860  0.17209441  1.0
  O  O17  1  1.09112860  -0.40297621  0.32790559  1.0
  O  O18  1  1.40297621  -0.09112860  0.82790559  1.0
  O  O19  1  0.90887140  0.40297621  0.67209441  1.0
  O  O20  1  1.28050561  -0.36249709  0.03239193  1.0
  O  O21  1  0.63750291  0.28050561  0.46760807  1.0
  O  O22  1  0.71949439  0.36249709  0.96760807  1.0
  O  O23  1  1.36249709  -0.28050561  0.53239193  1.0
