# generated using pymatgen
data_RbVTeO5
_symmetry_space_group_name_H-M   'P 1'
_cell_length_a   7.07549087
_cell_length_b   11.78729697
_cell_length_c   7.39512238
_cell_angle_alpha   90.00000000
_cell_angle_beta   111.62954507
_cell_angle_gamma   90.00000000
_symmetry_Int_Tables_number   1
_chemical_formula_structural   RbVTeO5
_chemical_formula_sum   'Rb4 V4 Te4 O20'
_cell_volume   573.33174626
_cell_formula_units_Z   4
loop_
 _symmetry_equiv_pos_site_id
 _symmetry_equiv_pos_as_xyz
  1  'x, y, z'
loop_
 _atom_site_type_symbol
 _atom_site_label
 _atom_site_symmetry_multiplicity
 _atom_site_fract_x
 _atom_site_fract_y
 _atom_site_fract_z
 _atom_site_occupancy
  Rb  Rb0  1  0.82266404  0.66978404  0.35789191  1.0
  Rb  Rb1  1  0.82266404  0.83021596  0.85789191  1.0
  Rb  Rb2  1  0.17733596  0.16978404  0.14210809  1.0
  Rb  Rb3  1  0.17733596  0.33021596  0.64210809  1.0
  V  V4  1  0.62880929  0.37243661  0.40724692  1.0
  V  V5  1  0.62880929  0.12756339  0.90724692  1.0
  V  V6  1  0.37119071  0.87243661  0.09275308  1.0
  V  V7  1  0.37119071  0.62756339  0.59275308  1.0
  Te  Te8  1  0.77447988  0.05703454  0.39370926  1.0
  Te  Te9  1  0.77447988  0.44296546  0.89370926  1.0
  Te  Te10  1  0.22552012  0.55703454  0.10629074  1.0
  Te  Te11  1  0.22552012  0.94296546  0.60629074  1.0
  O  O12  1  0.89842785  0.90645412  0.48866426  1.0
  O  O13  1  0.89842785  0.59354588  0.98866426  1.0
  O  O14  1  0.10157215  0.40645412  0.01133574  1.0
  O  O15  1  0.10157215  0.09354588  0.51133574  1.0
  O  O16  1  0.78200478  0.28815731  0.34043454  1.0
  O  O17  1  0.78200478  0.21184269  0.84043454  1.0
  O  O18  1  0.21799522  0.78815731  0.15956546  1.0
  O  O19  1  0.21799522  0.71184269  0.65956546  1.0
  O  O20  1  0.79474561  0.05376980  0.13196118  1.0
  O  O21  1  0.79474561  0.44623020  0.63196118  1.0
  O  O22  1  0.20525439  0.55376980  0.36803882  1.0
  O  O23  1  0.20525439  0.94623020  0.86803882  1.0
  O  O24  1  0.51374917  0.47850251  0.22679333  1.0
  O  O25  1  0.51374917  0.02149749  0.72679333  1.0
  O  O26  1  0.48625083  0.97850251  0.27320667  1.0
  O  O27  1  0.48625083  0.52149749  0.77320667  1.0
  O  O28  1  0.45549713  0.29626610  0.44818218  1.0
  O  O29  1  0.45549713  0.20373390  0.94818218  1.0
  O  O30  1  0.54450287  0.79626610  0.05181782  1.0
  O  O31  1  0.54450287  0.70373390  0.55181782  1.0
