# generated using pymatgen
data_Na3Ag3W2(OF)6
_symmetry_space_group_name_H-M   'P 1'
_cell_length_a   10.25164673
_cell_length_b   10.25164673
_cell_length_c   10.25164673
_cell_angle_alpha   33.09200803
_cell_angle_beta   33.09200803
_cell_angle_gamma   33.09200803
_symmetry_Int_Tables_number   1
_chemical_formula_structural   Na3Ag3W2(OF)6
_chemical_formula_sum   'Na3 Ag3 W2 O6 F6'
_cell_volume   285.86119996
_cell_formula_units_Z   1
loop_
 _symmetry_equiv_pos_site_id
 _symmetry_equiv_pos_as_xyz
  1  'x, y, z'
loop_
 _atom_site_type_symbol
 _atom_site_label
 _atom_site_symmetry_multiplicity
 _atom_site_fract_x
 _atom_site_fract_y
 _atom_site_fract_z
 _atom_site_occupancy
  Na  Na0  1  0.36395664  0.36395664  -0.63604336  1.0
  Na  Na1  1  0.63604336  0.63604336  -0.36395664  1.0
  Na  Na2  1  -0.00000000  0.00000000  0.00000000  1.0
  Ag  Ag3  1  0.12884730  0.12884730  0.12884730  1.0
  Ag  Ag4  1  0.87115270  -0.12884730  -0.12884730  1.0
  Ag  Ag5  1  0.50000000  0.50000000  -0.50000000  1.0
  W  W6  1  0.24435902  0.24435902  0.24435902  1.0
  W  W7  1  0.75564098  -0.24435902  -0.24435902  1.0
  O  O8  1  0.24732820  0.92640908  -0.52350514  1.0
  O  O9  1  0.52350514  -0.24732820  0.07359092  1.0
  O  O10  1  1.07359092  -0.47649486  -0.24732820  1.0
  O  O11  1  0.75267180  0.07359092  -0.47649486  1.0
  O  O12  1  0.47649486  0.24732820  -0.07359092  1.0
  O  O13  1  0.92640908  0.47649486  -0.75267180  1.0
  F  F14  1  0.43194361  -0.05442222  -0.26181673  1.0
  F  F15  1  1.26181673  -0.43194361  0.05442222  1.0
  F  F16  1  1.05442222  0.26181673  -0.43194361  1.0
  F  F17  1  0.56805639  0.05442222  0.26181673  1.0
  F  F18  1  0.73818327  -0.56805639  -0.05442222  1.0
  F  F19  1  0.94557778  -0.26181673  -0.56805639  1.0
