# generated using pymatgen
data_TlHg3Sb2Br3
_symmetry_space_group_name_H-M   'P 1'
_cell_length_a   6.75554309
_cell_length_b   13.48028963
_cell_length_c   13.49732093
_cell_angle_alpha   90.00000000
_cell_angle_beta   90.00000000
_cell_angle_gamma   90.00000000
_symmetry_Int_Tables_number   1
_chemical_formula_structural   TlHg3Sb2Br3
_chemical_formula_sum   'Tl4 Hg12 Sb8 Br12'
_cell_volume   1229.15617326
_cell_formula_units_Z   4
loop_
 _symmetry_equiv_pos_site_id
 _symmetry_equiv_pos_as_xyz
  1  'x, y, z'
loop_
 _atom_site_type_symbol
 _atom_site_label
 _atom_site_symmetry_multiplicity
 _atom_site_fract_x
 _atom_site_fract_y
 _atom_site_fract_z
 _atom_site_occupancy
  Tl  Tl0  1  1.03168383  0.73509512  0.25000000  1.0
  Tl  Tl1  1  1.03168383  0.76490488  0.75000000  1.0
  Tl  Tl2  1  -0.03168383  0.23509512  0.25000000  1.0
  Tl  Tl3  1  -0.03168383  0.26490488  0.75000000  1.0
  Hg  Hg4  1  0.47393088  0.48588160  0.25000000  1.0
  Hg  Hg5  1  0.47393088  0.01411840  0.75000000  1.0
  Hg  Hg6  1  0.52606912  0.98588160  0.25000000  1.0
  Hg  Hg7  1  0.52606912  0.51411840  0.75000000  1.0
  Hg  Hg8  1  0.45698375  0.25000000  0.50000000  1.0
  Hg  Hg9  1  0.45698375  0.25000000  0.00000000  1.0
  Hg  Hg10  1  0.54301625  0.75000000  0.50000000  1.0
  Hg  Hg11  1  0.54301625  0.75000000  0.00000000  1.0
  Hg  Hg12  1  0.00000000  0.50000000  0.50000000  1.0
  Hg  Hg13  1  0.00000000  0.50000000  0.00000000  1.0
  Hg  Hg14  1  0.00000000  0.00000000  0.00000000  1.0
  Hg  Hg15  1  0.00000000  0.00000000  0.50000000  1.0
  Sb  Sb16  1  0.37141468  0.44095768  0.44269372  1.0
  Sb  Sb17  1  0.37141468  0.44095768  0.05730628  1.0
  Sb  Sb18  1  0.37141468  0.05904232  0.94269372  1.0
  Sb  Sb19  1  0.37141468  0.05904232  0.55730628  1.0
  Sb  Sb20  1  0.62858532  0.94095768  0.44269372  1.0
  Sb  Sb21  1  0.62858532  0.94095768  0.05730628  1.0
  Sb  Sb22  1  0.62858532  0.55904232  0.94269372  1.0
  Sb  Sb23  1  0.62858532  0.55904232  0.55730628  1.0
  Br  Br24  1  0.90269233  0.47850302  0.25000000  1.0
  Br  Br25  1  0.90269233  0.02149698  0.75000000  1.0
  Br  Br26  1  0.09730767  0.97850302  0.25000000  1.0
  Br  Br27  1  0.09730767  0.52149698  0.75000000  1.0
  Br  Br28  1  0.49585122  0.20159801  0.25000000  1.0
  Br  Br29  1  0.49585122  0.29840199  0.75000000  1.0
  Br  Br30  1  0.50414878  0.70159801  0.25000000  1.0
  Br  Br31  1  0.50414878  0.79840199  0.75000000  1.0
  Br  Br32  1  0.89219161  0.25000000  0.50000000  1.0
  Br  Br33  1  0.89219161  0.25000000  0.00000000  1.0
  Br  Br34  1  0.10780839  0.75000000  0.50000000  1.0
  Br  Br35  1  0.10780839  0.75000000  0.00000000  1.0
