# generated using pymatgen
data_KSm(MoO4)2
_symmetry_space_group_name_H-M   'P 1'
_cell_length_a   5.17506985
_cell_length_b   18.59386845
_cell_length_c   8.28013912
_cell_angle_alpha   90.00000000
_cell_angle_beta   90.00000000
_cell_angle_gamma   90.00000000
_symmetry_Int_Tables_number   1
_chemical_formula_structural   KSm(MoO4)2
_chemical_formula_sum   'K4 Sm4 Mo8 O32'
_cell_volume   796.75281033
_cell_formula_units_Z   4
loop_
 _symmetry_equiv_pos_site_id
 _symmetry_equiv_pos_as_xyz
  1  'x, y, z'
loop_
 _atom_site_type_symbol
 _atom_site_label
 _atom_site_symmetry_multiplicity
 _atom_site_fract_x
 _atom_site_fract_y
 _atom_site_fract_z
 _atom_site_occupancy
  K  K0  1  0.50000000  0.72841907  0.25000000  1.0
  K  K1  1  0.50000000  0.27158093  0.75000000  1.0
  K  K2  1  0.00000000  0.22841907  0.25000000  1.0
  K  K3  1  0.00000000  0.77158093  0.75000000  1.0
  Sm  Sm4  1  0.50000000  0.49304578  0.25000000  1.0
  Sm  Sm5  1  0.50000000  0.50695422  0.75000000  1.0
  Sm  Sm6  1  0.00000000  0.99304578  0.25000000  1.0
  Sm  Sm7  1  0.00000000  0.00695422  0.75000000  1.0
  Mo  Mo8  1  0.47848213  0.10302866  0.01436384  1.0
  Mo  Mo9  1  0.47848213  0.89697134  0.51436384  1.0
  Mo  Mo10  1  0.97848213  0.60302866  0.48563616  1.0
  Mo  Mo11  1  0.97848213  0.39697134  0.98563616  1.0
  Mo  Mo12  1  0.52151787  0.10302866  0.48563616  1.0
  Mo  Mo13  1  0.52151787  0.89697134  0.98563616  1.0
  Mo  Mo14  1  0.02151787  0.60302866  0.01436384  1.0
  Mo  Mo15  1  0.02151787  0.39697134  0.51436384  1.0
  O  O16  1  0.39572900  0.18955149  0.47770853  1.0
  O  O17  1  0.39572900  0.81044851  0.97770853  1.0
  O  O18  1  0.89572900  0.68955149  0.02229147  1.0
  O  O19  1  0.89572900  0.31044851  0.52229147  1.0
  O  O20  1  0.60427100  0.18955149  0.02229147  1.0
  O  O21  1  0.60427100  0.81044851  0.52229147  1.0
  O  O22  1  0.10427100  0.68955149  0.47770853  1.0
  O  O23  1  0.10427100  0.31044851  0.97770853  1.0
  O  O24  1  0.26172626  0.09339545  0.18289999  1.0
  O  O25  1  0.26172626  0.90660455  0.68289999  1.0
  O  O26  1  0.76172626  0.59339545  0.31710001  1.0
  O  O27  1  0.76172626  0.40660455  0.81710001  1.0
  O  O28  1  0.73827374  0.09339545  0.31710001  1.0
  O  O29  1  0.73827374  0.90660455  0.81710001  1.0
  O  O30  1  0.23827374  0.59339545  0.18289999  1.0
  O  O31  1  0.23827374  0.40660455  0.68289999  1.0
  O  O32  1  0.24611750  0.46202438  0.00179924  1.0
  O  O33  1  0.24611750  0.53797562  0.50179924  1.0
  O  O34  1  0.74611750  0.96202438  0.49820076  1.0
  O  O35  1  0.74611750  0.03797562  0.99820076  1.0
  O  O36  1  0.75388250  0.46202438  0.49820076  1.0
  O  O37  1  0.75388250  0.53797562  0.99820076  1.0
  O  O38  1  0.25388250  0.96202438  0.00179924  1.0
  O  O39  1  0.25388250  0.03797562  0.50179924  1.0
  O  O40  1  0.22520430  0.39957462  0.34128933  1.0
  O  O41  1  0.22520430  0.60042538  0.84128933  1.0
  O  O42  1  0.72520430  0.89957462  0.15871067  1.0
  O  O43  1  0.72520430  0.10042538  0.65871067  1.0
  O  O44  1  0.77479570  0.39957462  0.15871067  1.0
  O  O45  1  0.77479570  0.60042538  0.65871067  1.0
  O  O46  1  0.27479570  0.89957462  0.34128933  1.0
  O  O47  1  0.27479570  0.10042538  0.84128933  1.0
