# generated using pymatgen
data_Ba3CrN3
_symmetry_space_group_name_H-M   'P 1'
_cell_length_a   8.41712988
_cell_length_b   8.41712988
_cell_length_c   5.46561122
_cell_angle_alpha   90.00000000
_cell_angle_beta   90.00000000
_cell_angle_gamma   120.00000000
_symmetry_Int_Tables_number   1
_chemical_formula_structural   Ba3CrN3
_chemical_formula_sum   'Ba6 Cr2 N6'
_cell_volume   335.34931614
_cell_formula_units_Z   2
loop_
 _symmetry_equiv_pos_site_id
 _symmetry_equiv_pos_as_xyz
  1  'x, y, z'
loop_
 _atom_site_type_symbol
 _atom_site_label
 _atom_site_symmetry_multiplicity
 _atom_site_fract_x
 _atom_site_fract_y
 _atom_site_fract_z
 _atom_site_occupancy
  Ba  Ba0  1  0.92236381  0.63733401  0.25000000  1.0
  Ba  Ba1  1  0.63733401  0.71497020  0.75000000  1.0
  Ba  Ba2  1  0.71497020  0.07763619  0.25000000  1.0
  Ba  Ba3  1  0.36266599  0.28502980  0.25000000  1.0
  Ba  Ba4  1  0.07763619  0.36266599  0.75000000  1.0
  Ba  Ba5  1  0.28502980  0.92236381  0.75000000  1.0
  Cr  Cr6  1  0.33333333  0.66666667  0.25000000  1.0
  Cr  Cr7  1  0.66666667  0.33333333  0.75000000  1.0
  N  N8  1  0.31946319  0.86378406  0.25000000  1.0
  N  N9  1  0.86378406  0.54432087  0.75000000  1.0
  N  N10  1  0.54432087  0.68053681  0.25000000  1.0
  N  N11  1  0.13621594  0.45567913  0.25000000  1.0
  N  N12  1  0.68053681  0.13621594  0.75000000  1.0
  N  N13  1  0.45567913  0.31946319  0.75000000  1.0
