# generated using pymatgen
data_Sr2MnWO6
_symmetry_space_group_name_H-M   'P 1'
_cell_length_a   8.05538823
_cell_length_b   8.05538823
_cell_length_c   8.10196115
_cell_angle_alpha   90.00000000
_cell_angle_beta   90.00000000
_cell_angle_gamma   90.00000000
_symmetry_Int_Tables_number   1
_chemical_formula_structural   Sr2MnWO6
_chemical_formula_sum   'Sr8 Mn4 W4 O24'
_cell_volume   525.73042129
_cell_formula_units_Z   4
loop_
 _symmetry_equiv_pos_site_id
 _symmetry_equiv_pos_as_xyz
  1  'x, y, z'
loop_
 _atom_site_type_symbol
 _atom_site_label
 _atom_site_symmetry_multiplicity
 _atom_site_fract_x
 _atom_site_fract_y
 _atom_site_fract_z
 _atom_site_occupancy
  Sr  Sr0  1  0.50000000  0.00000000  0.98561731  1.0
  Sr  Sr1  1  -0.00000000  0.50000000  0.51438269  1.0
  Sr  Sr2  1  -0.00000000  0.50000000  0.01438269  1.0
  Sr  Sr3  1  0.50000000  0.00000000  0.48561731  1.0
  Sr  Sr4  1  0.00000000  0.00000000  0.50000000  1.0
  Sr  Sr5  1  0.50000000  0.50000000  -0.00000000  1.0
  Sr  Sr6  1  0.00000000  0.00000000  0.00000000  1.0
  Sr  Sr7  1  0.50000000  0.50000000  0.50000000  1.0
  Mn  Mn8  1  0.25000000  0.25000000  0.75000000  1.0
  Mn  Mn9  1  0.75000000  0.75000000  0.75000000  1.0
  Mn  Mn10  1  0.25000000  0.75000000  0.25000000  1.0
  Mn  Mn11  1  0.75000000  0.25000000  0.25000000  1.0
  W  W12  1  0.25000000  0.25000000  0.25000000  1.0
  W  W13  1  0.75000000  0.75000000  0.25000000  1.0
  W  W14  1  0.25000000  0.75000000  0.75000000  1.0
  W  W15  1  0.75000000  0.25000000  0.75000000  1.0
  O  O16  1  0.22589735  0.22941046  0.01231630  1.0
  O  O17  1  0.72589735  0.72941046  0.48768370  1.0
  O  O18  1  0.22941046  0.77410265  0.98768370  1.0
  O  O19  1  0.72941046  0.27410265  0.51231630  1.0
  O  O20  1  0.27410265  0.27058954  0.48768370  1.0
  O  O21  1  0.77410265  0.77058954  0.01231630  1.0
  O  O22  1  0.27058954  0.72589735  0.51231630  1.0
  O  O23  1  0.77058954  0.22589735  0.98768370  1.0
  O  O24  1  0.20868727  0.01343854  0.27341476  1.0
  O  O25  1  0.70868727  0.51343854  0.22658524  1.0
  O  O26  1  0.01343854  0.79131273  0.72658524  1.0
  O  O27  1  0.51343854  0.29131273  0.77341476  1.0
  O  O28  1  0.29131273  0.48656146  0.22658524  1.0
  O  O29  1  0.79131273  0.98656146  0.27341476  1.0
  O  O30  1  0.48656146  0.70868727  0.77341476  1.0
  O  O31  1  0.98656146  0.20868727  0.72658524  1.0
  O  O32  1  0.20537673  0.51363646  0.77016296  1.0
  O  O33  1  0.70537673  0.01363646  0.72983704  1.0
  O  O34  1  0.51363646  0.79462327  0.22983704  1.0
  O  O35  1  0.01363646  0.29462327  0.27016296  1.0
  O  O36  1  0.29462327  0.98636354  0.72983704  1.0
  O  O37  1  0.79462327  0.48636354  0.77016296  1.0
  O  O38  1  0.98636354  0.70537673  0.27016296  1.0
  O  O39  1  0.48636354  0.20537673  0.22983704  1.0
