# generated using pymatgen
data_Mg2SiO4
_symmetry_space_group_name_H-M   'P 1'
_cell_length_a   6.00906770
_cell_length_b   6.00906770
_cell_length_c   4.82375773
_cell_angle_alpha   89.99643210
_cell_angle_beta   90.00356790
_cell_angle_gamma   120.01635467
_symmetry_Int_Tables_number   1
_chemical_formula_structural   Mg2SiO4
_chemical_formula_sum   'Mg4 Si2 O8'
_cell_volume   150.81992329
_cell_formula_units_Z   2
loop_
 _symmetry_equiv_pos_site_id
 _symmetry_equiv_pos_as_xyz
  1  'x, y, z'
loop_
 _atom_site_type_symbol
 _atom_site_label
 _atom_site_symmetry_multiplicity
 _atom_site_fract_x
 _atom_site_fract_y
 _atom_site_fract_z
 _atom_site_occupancy
  Mg  Mg0  1  0.00000000  0.00000000  -0.00000000  1.0
  Mg  Mg1  1  0.50000000  0.50000000  0.50000000  1.0
  Mg  Mg2  1  1.00000000  0.50000000  0.50000000  1.0
  Mg  Mg3  1  0.50000000  -0.00000000  0.50000000  1.0
  Si  Si4  1  0.66661774  0.33338226  0.07307840  1.0
  Si  Si5  1  0.33338226  -0.33338226  0.92692160  1.0
  O  O6  1  0.18856081  -0.18856081  0.77654507  1.0
  O  O7  1  0.81143919  0.18856081  0.22345493  1.0
  O  O8  1  0.66663111  0.33336889  0.73465415  1.0
  O  O9  1  0.33336889  -0.33336889  0.26534585  1.0
  O  O10  1  1.18846519  0.37690055  0.77655360  1.0
  O  O11  1  0.62309945  -0.18846519  0.77655360  1.0
  O  O12  1  0.81153481  0.62309945  0.22344640  1.0
  O  O13  1  0.37690055  0.18846519  0.22344640  1.0
