# generated using pymatgen
data_RhF6
_symmetry_space_group_name_H-M   'P 1'
_cell_length_a   10.06862236
_cell_length_b   9.20210104
_cell_length_c   5.31103709
_cell_angle_alpha   90.00000000
_cell_angle_beta   90.00000000
_cell_angle_gamma   90.00000000
_symmetry_Int_Tables_number   1
_chemical_formula_structural   RhF6
_chemical_formula_sum   'Rh4 F24'
_cell_volume   492.08075920
_cell_formula_units_Z   4
loop_
 _symmetry_equiv_pos_site_id
 _symmetry_equiv_pos_as_xyz
  1  'x, y, z'
loop_
 _atom_site_type_symbol
 _atom_site_label
 _atom_site_symmetry_multiplicity
 _atom_site_fract_x
 _atom_site_fract_y
 _atom_site_fract_z
 _atom_site_occupancy
  Rh  Rh0  1  0.87071142  0.25000000  0.40968160  1.0
  Rh  Rh1  1  0.37071142  0.25000000  0.09031840  1.0
  Rh  Rh2  1  0.12928858  0.75000000  0.59031840  1.0
  Rh  Rh3  1  0.62928858  0.75000000  0.90968160  1.0
  F  F4  1  0.76610918  0.39250995  0.55729526  1.0
  F  F5  1  0.76610918  0.10749005  0.55729526  1.0
  F  F6  1  0.26610918  0.39250995  0.94270474  1.0
  F  F7  1  0.26610918  0.10749005  0.94270474  1.0
  F  F8  1  0.23389082  0.89250995  0.44270474  1.0
  F  F9  1  0.23389082  0.60749005  0.44270474  1.0
  F  F10  1  0.73389082  0.89250995  0.05729526  1.0
  F  F11  1  0.73389082  0.60749005  0.05729526  1.0
  F  F12  1  0.97529209  0.39252137  0.26164779  1.0
  F  F13  1  0.97529209  0.10747863  0.26164779  1.0
  F  F14  1  0.47529209  0.39252137  0.23835221  1.0
  F  F15  1  0.47529209  0.10747863  0.23835221  1.0
  F  F16  1  0.02470791  0.89252137  0.73835221  1.0
  F  F17  1  0.02470791  0.60747863  0.73835221  1.0
  F  F18  1  0.52470791  0.89252137  0.76164779  1.0
  F  F19  1  0.52470791  0.60747863  0.76164779  1.0
  F  F20  1  0.98096739  0.25000000  0.68976816  1.0
  F  F21  1  0.48096739  0.25000000  0.81023184  1.0
  F  F22  1  0.01903261  0.75000000  0.31023184  1.0
  F  F23  1  0.51903261  0.75000000  0.18976816  1.0
  F  F24  1  0.76061574  0.25000000  0.12907005  1.0
  F  F25  1  0.26061574  0.25000000  0.37092995  1.0
  F  F26  1  0.23938426  0.75000000  0.87092995  1.0
  F  F27  1  0.73938426  0.75000000  0.62907005  1.0
