# generated using pymatgen
data_Ba2GaP4HO14
_symmetry_space_group_name_H-M   'P 1'
_cell_length_a   4.86235739
_cell_length_b   8.68344167
_cell_length_c   7.76237969
_cell_angle_alpha   108.08440534
_cell_angle_beta   106.86204777
_cell_angle_gamma   96.65382230
_symmetry_Int_Tables_number   1
_chemical_formula_structural   Ba2GaP4HO14
_chemical_formula_sum   'Ba2 Ga1 P4 H1 O14'
_cell_volume   290.41981010
_cell_formula_units_Z   1
loop_
 _symmetry_equiv_pos_site_id
 _symmetry_equiv_pos_as_xyz
  1  'x, y, z'
loop_
 _atom_site_type_symbol
 _atom_site_label
 _atom_site_symmetry_multiplicity
 _atom_site_fract_x
 _atom_site_fract_y
 _atom_site_fract_z
 _atom_site_occupancy
  Ba  Ba0  1  -0.83932007  -0.26103664  -0.52975344  1.0
  Ba  Ba1  1  -0.16067993  -0.73896336  -0.47024656  1.0
  Ga  Ga2  1  0.00000000  0.00000000  0.00000000  1.0
  P  P3  1  -0.62410139  -0.62651347  -0.83132725  1.0
  P  P4  1  -0.37589861  -0.37348653  -0.16867275  1.0
  P  P5  1  -0.55623068  -0.86315560  -0.18460320  1.0
  P  P6  1  -0.44376932  -0.13684440  -0.81539680  1.0
  H  H7  1  -0.00000000  -0.50000000  0.00000000  1.0
  O  O8  1  -0.84317458  -0.51117217  -0.85259373  1.0
  O  O9  1  -0.15682542  -0.48882783  -0.14740627  1.0
  O  O10  1  -0.77102240  -0.12940236  -0.86777995  1.0
  O  O11  1  -0.22897760  -0.87059764  -0.13222005  1.0
  O  O12  1  -0.74417949  -0.78408617  -0.79756163  1.0
  O  O13  1  -0.25582051  -0.21591383  -0.20243837  1.0
  O  O14  1  -0.66802752  -0.85796060  -0.38755665  1.0
  O  O15  1  -0.33197248  -0.14203940  -0.61244335  1.0
  O  O16  1  -0.41360886  -0.31152203  -0.95751686  1.0
  O  O17  1  -0.58639114  -0.68847797  -0.04248314  1.0
  O  O18  1  -0.32999769  -0.53377023  -0.67159008  1.0
  O  O19  1  -0.67000231  -0.46622977  -0.32840992  1.0
  O  O20  1  -0.24956888  -0.99321269  -0.83433651  1.0
  O  O21  1  -0.75043112  -0.00678731  -0.16566349  1.0
