# generated using pymatgen
data_Rb2Na2IrO4
_symmetry_space_group_name_H-M   'P 1'
_cell_length_a   6.31434627
_cell_length_b   11.26701309
_cell_length_c   9.87708331
_cell_angle_alpha   90.00000000
_cell_angle_beta   114.99460062
_cell_angle_gamma   90.00000000
_symmetry_Int_Tables_number   1
_chemical_formula_structural   Rb2Na2IrO4
_chemical_formula_sum   'Rb8 Na8 Ir4 O16'
_cell_volume   636.88453570
_cell_formula_units_Z   4
loop_
 _symmetry_equiv_pos_site_id
 _symmetry_equiv_pos_as_xyz
  1  'x, y, z'
loop_
 _atom_site_type_symbol
 _atom_site_label
 _atom_site_symmetry_multiplicity
 _atom_site_fract_x
 _atom_site_fract_y
 _atom_site_fract_z
 _atom_site_occupancy
  Rb  Rb0  1  0.84272450  0.13378684  0.22106926  1.0
  Rb  Rb1  1  0.84272450  0.36621316  0.72106926  1.0
  Rb  Rb2  1  0.15727550  0.63378684  0.27893074  1.0
  Rb  Rb3  1  0.15727550  0.86621316  0.77893074  1.0
  Rb  Rb4  1  0.82594453  0.86512236  0.99734324  1.0
  Rb  Rb5  1  0.82594453  0.63487764  0.49734324  1.0
  Rb  Rb6  1  0.17405547  0.36512236  0.50265676  1.0
  Rb  Rb7  1  0.17405547  0.13487764  0.00265676  1.0
  Na  Na8  1  0.93561808  0.39132503  0.08907248  1.0
  Na  Na9  1  0.93561808  0.10867497  0.58907248  1.0
  Na  Na10  1  0.06438192  0.89132503  0.41092752  1.0
  Na  Na11  1  0.06438192  0.60867497  0.91092752  1.0
  Na  Na12  1  0.43686440  0.11148060  0.40556089  1.0
  Na  Na13  1  0.43686440  0.38851940  0.90556089  1.0
  Na  Na14  1  0.56313560  0.61148060  0.09443911  1.0
  Na  Na15  1  0.56313560  0.88851940  0.59443911  1.0
  Ir  Ir16  1  0.50953881  0.36726162  0.26290308  1.0
  Ir  Ir17  1  0.50953881  0.13273838  0.76290308  1.0
  Ir  Ir18  1  0.49046119  0.86726162  0.23709692  1.0
  Ir  Ir19  1  0.49046119  0.63273838  0.73709692  1.0
  O  O20  1  0.77003011  0.45464400  0.25933162  1.0
  O  O21  1  0.77003011  0.04535600  0.75933162  1.0
  O  O22  1  0.22996989  0.95464400  0.24066838  1.0
  O  O23  1  0.22996989  0.54535600  0.74066838  1.0
  O  O24  1  0.75356913  0.77794035  0.24016874  1.0
  O  O25  1  0.75356913  0.72205965  0.74016874  1.0
  O  O26  1  0.24643087  0.27794035  0.25983126  1.0
  O  O27  1  0.24643087  0.22205965  0.75983126  1.0
  O  O28  1  0.71504051  0.27059306  0.42712385  1.0
  O  O29  1  0.71504051  0.22940694  0.92712385  1.0
  O  O30  1  0.28495949  0.77059306  0.07287615  1.0
  O  O31  1  0.28495949  0.72940694  0.57287615  1.0
  O  O32  1  0.70460656  0.95789850  0.40802824  1.0
  O  O33  1  0.70460656  0.54210150  0.90802824  1.0
  O  O34  1  0.29539344  0.45789850  0.09197176  1.0
  O  O35  1  0.29539344  0.04210150  0.59197176  1.0
