# generated using pymatgen
data_MgCu3H6(ClO3)2
_symmetry_space_group_name_H-M   'P 1'
_cell_length_a   6.31141974
_cell_length_b   6.31141974
_cell_length_c   5.81681107
_cell_angle_alpha   90.00000000
_cell_angle_beta   90.00000000
_cell_angle_gamma   120.00000000
_symmetry_Int_Tables_number   1
_chemical_formula_structural   MgCu3H6(ClO3)2
_chemical_formula_sum   'Mg1 Cu3 H6 Cl2 O6'
_cell_volume   200.66411657
_cell_formula_units_Z   1
loop_
 _symmetry_equiv_pos_site_id
 _symmetry_equiv_pos_as_xyz
  1  'x, y, z'
loop_
 _atom_site_type_symbol
 _atom_site_label
 _atom_site_symmetry_multiplicity
 _atom_site_fract_x
 _atom_site_fract_y
 _atom_site_fract_z
 _atom_site_occupancy
  Mg  Mg0  1  0.00000000  0.00000000  0.00000000  1.0
  Cu  Cu1  1  0.50000000  0.50000000  0.00000000  1.0
  Cu  Cu2  1  0.50000000  0.00000000  0.00000000  1.0
  Cu  Cu3  1  -0.00000000  0.50000000  0.00000000  1.0
  H  H4  1  0.40383946  0.20191973  0.31792026  1.0
  H  H5  1  0.20191973  0.40383946  0.68207974  1.0
  H  H6  1  0.20191973  0.79808027  0.68207974  1.0
  H  H7  1  0.79808027  0.20191973  0.31792026  1.0
  H  H8  1  0.79808027  0.59616054  0.31792026  1.0
  H  H9  1  0.59616054  0.79808027  0.68207974  1.0
  Cl  Cl10  1  0.33333333  0.66666667  0.38392028  1.0
  Cl  Cl11  1  0.66666667  0.33333333  0.61607972  1.0
  O  O12  1  0.35064442  0.17532221  0.15584874  1.0
  O  O13  1  0.17532221  0.35064442  0.84415126  1.0
  O  O14  1  0.17532221  0.82467779  0.84415126  1.0
  O  O15  1  0.82467779  0.17532221  0.15584874  1.0
  O  O16  1  0.82467779  0.64935558  0.15584874  1.0
  O  O17  1  0.64935558  0.82467779  0.84415126  1.0
