# generated using pymatgen
data_SrH2(CO2)2
_symmetry_space_group_name_H-M   'P 1'
_cell_length_a   7.26295681
_cell_length_b   7.26295681
_cell_length_c   9.77309246
_cell_angle_alpha   90.00000000
_cell_angle_beta   90.00000000
_cell_angle_gamma   90.00000000
_symmetry_Int_Tables_number   1
_chemical_formula_structural   SrH2(CO2)2
_chemical_formula_sum   'Sr4 H8 C8 O16'
_cell_volume   515.53591976
_cell_formula_units_Z   4
loop_
 _symmetry_equiv_pos_site_id
 _symmetry_equiv_pos_as_xyz
  1  'x, y, z'
loop_
 _atom_site_type_symbol
 _atom_site_label
 _atom_site_symmetry_multiplicity
 _atom_site_fract_x
 _atom_site_fract_y
 _atom_site_fract_z
 _atom_site_occupancy
  Sr  Sr0  1  0.78044395  0.21955605  0.25000000  1.0
  Sr  Sr1  1  0.21955605  0.78044395  0.75000000  1.0
  Sr  Sr2  1  0.71955605  0.71955605  0.00000000  1.0
  Sr  Sr3  1  0.28044395  0.28044395  0.50000000  1.0
  H  H4  1  0.80136388  0.36933031  0.66803647  1.0
  H  H5  1  0.19863612  0.63066969  0.16803647  1.0
  H  H6  1  0.86933031  0.69863612  0.41803647  1.0
  H  H7  1  0.13066969  0.30136388  0.91803647  1.0
  H  H8  1  0.63066969  0.19863612  0.83196353  1.0
  H  H9  1  0.36933031  0.80136388  0.33196353  1.0
  H  H10  1  0.69863612  0.86933031  0.58196353  1.0
  H  H11  1  0.30136388  0.13066969  0.08196353  1.0
  C  C12  1  0.78662824  0.30927932  0.56401059  1.0
  C  C13  1  0.21337176  0.69072068  0.06401059  1.0
  C  C14  1  0.80927932  0.71337176  0.31401059  1.0
  C  C15  1  0.19072068  0.28662824  0.81401059  1.0
  C  C16  1  0.69072068  0.21337176  0.93598941  1.0
  C  C17  1  0.30927932  0.78662824  0.43598941  1.0
  C  C18  1  0.71337176  0.80927932  0.68598941  1.0
  C  C19  1  0.28662824  0.19072068  0.18598941  1.0
  O  O20  1  0.93231521  0.27787257  0.49656106  1.0
  O  O21  1  0.06768479  0.72212743  0.99656106  1.0
  O  O22  1  0.77787257  0.56768479  0.24656106  1.0
  O  O23  1  0.22212743  0.43231521  0.74656106  1.0
  O  O24  1  0.72212743  0.06768479  0.00343894  1.0
  O  O25  1  0.27787257  0.93231521  0.50343894  1.0
  O  O26  1  0.56768479  0.77787257  0.75343894  1.0
  O  O27  1  0.43231521  0.22212743  0.25343894  1.0
  O  O28  1  0.62658394  0.27791185  0.51915516  1.0
  O  O29  1  0.37341606  0.72208815  0.01915516  1.0
  O  O30  1  0.77791185  0.87341606  0.26915516  1.0
  O  O31  1  0.22208815  0.12658394  0.76915516  1.0
  O  O32  1  0.72208815  0.37341606  0.98084484  1.0
  O  O33  1  0.27791185  0.62658394  0.48084484  1.0
  O  O34  1  0.87341606  0.77791185  0.73084484  1.0
  O  O35  1  0.12658394  0.22208815  0.23084484  1.0
