# generated using pymatgen
data_SiH3I
_symmetry_space_group_name_H-M   'P 1'
_cell_length_a   5.17703172
_cell_length_b   8.99702854
_cell_length_c   11.22598240
_cell_angle_alpha   90.00000000
_cell_angle_beta   105.66762121
_cell_angle_gamma   90.00000000
_symmetry_Int_Tables_number   1
_chemical_formula_structural   SiH3I
_chemical_formula_sum   'Si4 H12 I4'
_cell_volume   503.45474866
_cell_formula_units_Z   4
loop_
 _symmetry_equiv_pos_site_id
 _symmetry_equiv_pos_as_xyz
  1  'x, y, z'
loop_
 _atom_site_type_symbol
 _atom_site_label
 _atom_site_symmetry_multiplicity
 _atom_site_fract_x
 _atom_site_fract_y
 _atom_site_fract_z
 _atom_site_occupancy
  Si  Si0  1  0.56223880  0.43188632  0.28710630  1.0
  Si  Si1  1  0.56223880  0.06811368  0.78710630  1.0
  Si  Si2  1  0.43776120  0.93188632  0.21289370  1.0
  Si  Si3  1  0.43776120  0.56811368  0.71289370  1.0
  H  H4  1  0.54820746  0.02822581  0.13089968  1.0
  H  H5  1  0.54820746  0.47177419  0.63089968  1.0
  H  H6  1  0.45179254  0.52822581  0.36910032  1.0
  H  H7  1  0.45179254  0.97177419  0.86910032  1.0
  H  H8  1  0.34700236  0.35256049  0.19414129  1.0
  H  H9  1  0.34700236  0.14743951  0.69414129  1.0
  H  H10  1  0.65299764  0.85256049  0.30585871  1.0
  H  H11  1  0.65299764  0.64743951  0.80585871  1.0
  H  H12  1  0.25584351  0.01484021  0.27139171  1.0
  H  H13  1  0.25584351  0.48515979  0.77139171  1.0
  H  H14  1  0.74415649  0.51484021  0.22860829  1.0
  H  H15  1  0.74415649  0.98515979  0.72860829  1.0
  I  I16  1  0.83987379  0.23778708  0.42050578  1.0
  I  I17  1  0.83987379  0.26221292  0.92050578  1.0
  I  I18  1  0.16012621  0.73778708  0.07949422  1.0
  I  I19  1  0.16012621  0.76221292  0.57949422  1.0
