# generated using pymatgen
data_SnH10Br4O5
_symmetry_space_group_name_H-M   'P 1'
_cell_length_a   8.44353194
_cell_length_b   8.44353194
_cell_length_c   8.95687662
_cell_angle_alpha   78.33990222
_cell_angle_beta   101.66009778
_cell_angle_gamma   104.58038384
_symmetry_Int_Tables_number   1
_chemical_formula_structural   SnH10Br4O5
_chemical_formula_sum   'Sn2 H20 Br8 O10'
_cell_volume   597.49324527
_cell_formula_units_Z   2
loop_
 _symmetry_equiv_pos_site_id
 _symmetry_equiv_pos_as_xyz
  1  'x, y, z'
loop_
 _atom_site_type_symbol
 _atom_site_label
 _atom_site_symmetry_multiplicity
 _atom_site_fract_x
 _atom_site_fract_y
 _atom_site_fract_z
 _atom_site_occupancy
  Sn  Sn0  1  0.75510959  -0.24489041  0.25000000  1.0
  Sn  Sn1  1  1.24489041  0.24489041  0.75000000  1.0
  H  H2  1  1.81318548  0.02188624  -0.00178176  1.0
  H  H3  1  0.97811376  -0.81318548  0.49821824  1.0
  H  H4  1  1.02188624  0.81318548  0.50178176  1.0
  H  H5  1  0.18681452  -0.02188624  1.00178176  1.0
  H  H6  1  0.34531576  -0.06987019  0.23740064  1.0
  H  H7  1  1.06987019  0.65468424  0.73740064  1.0
  H  H8  1  0.93012981  -0.65468424  0.26259936  1.0
  H  H9  1  1.65468424  0.06987019  0.76259936  1.0
  H  H10  1  0.09492885  -0.12158459  0.33421137  1.0
  H  H11  1  1.12158459  0.90507115  0.83421137  1.0
  H  H12  1  0.87841541  -0.90507115  0.16578863  1.0
  H  H13  1  1.90507115  0.12158459  0.66578863  1.0
  H  H14  1  1.27291917  0.08768099  0.21920795  1.0
  H  H15  1  0.91231901  -0.27291917  0.71920795  1.0
  H  H16  1  1.08768099  0.27291917  0.28079205  1.0
  H  H17  1  0.72708083  -0.08768099  0.78079205  1.0
  H  H18  1  1.37717196  0.32331767  0.33818606  1.0
  H  H19  1  0.67668233  -0.37717196  0.83818606  1.0
  H  H20  1  1.32331767  0.37717196  0.16181394  1.0
  H  H21  1  0.62282804  -0.32331767  0.66181394  1.0
  Br  Br22  1  0.48243948  -0.29383830  0.05555612  1.0
  Br  Br23  1  1.29383830  0.51756052  0.55555612  1.0
  Br  Br24  1  0.70616170  -0.51756052  0.44444388  1.0
  Br  Br25  1  1.51756052  0.29383830  0.94444388  1.0
  Br  Br26  1  0.62817627  -0.08163600  0.39603296  1.0
  Br  Br27  1  1.08163600  0.37182373  0.89603296  1.0
  Br  Br28  1  0.91836400  -0.37182373  0.10396704  1.0
  Br  Br29  1  1.37182373  0.08163600  0.60396704  1.0
  O  O30  1  1.85146136  -0.00400694  0.11234422  1.0
  O  O31  1  1.00400694  -0.85146136  0.61234422  1.0
  O  O32  1  0.99599306  0.85146136  0.38765578  1.0
  O  O33  1  0.14853864  0.00400694  0.88765578  1.0
  O  O34  1  0.24191381  -0.03042535  0.20310453  1.0
  O  O35  1  1.03042535  0.75808619  0.70310453  1.0
  O  O36  1  0.96957465  -0.75808619  0.29689547  1.0
  O  O37  1  1.75808619  0.03042535  0.79689547  1.0
  O  O38  1  1.29288686  0.29288686  0.25000000  1.0
  O  O39  1  0.70711314  -0.29288686  0.75000000  1.0
