# generated using pymatgen
data_Zr5GaSn3
_symmetry_space_group_name_H-M   'P 1'
_cell_length_a   8.72045337
_cell_length_b   8.72045337
_cell_length_c   5.89444072
_cell_angle_alpha   90.00000000
_cell_angle_beta   90.00000000
_cell_angle_gamma   120.00000000
_symmetry_Int_Tables_number   1
_chemical_formula_structural   Zr5GaSn3
_chemical_formula_sum   'Zr10 Ga2 Sn6'
_cell_volume   388.19627549
_cell_formula_units_Z   2
loop_
 _symmetry_equiv_pos_site_id
 _symmetry_equiv_pos_as_xyz
  1  'x, y, z'
loop_
 _atom_site_type_symbol
 _atom_site_label
 _atom_site_symmetry_multiplicity
 _atom_site_fract_x
 _atom_site_fract_y
 _atom_site_fract_z
 _atom_site_occupancy
  Zr  Zr0  1  0.66666667  0.33333333  0.50000000  1.0
  Zr  Zr1  1  0.33333333  0.66666667  0.50000000  1.0
  Zr  Zr2  1  0.33333333  0.66666667  0.00000000  1.0
  Zr  Zr3  1  0.66666667  0.33333333  0.00000000  1.0
  Zr  Zr4  1  0.73360949  0.73360949  0.25000000  1.0
  Zr  Zr5  1  0.26639051  0.00000000  0.25000000  1.0
  Zr  Zr6  1  0.00000000  0.26639051  0.25000000  1.0
  Zr  Zr7  1  0.26639051  0.26639051  0.75000000  1.0
  Zr  Zr8  1  0.73360949  0.00000000  0.75000000  1.0
  Zr  Zr9  1  0.00000000  0.73360949  0.75000000  1.0
  Ga  Ga10  1  0.00000000  0.00000000  0.50000000  1.0
  Ga  Ga11  1  0.00000000  0.00000000  0.00000000  1.0
  Sn  Sn12  1  0.38795970  0.38795970  0.25000000  1.0
  Sn  Sn13  1  0.61204030  0.00000000  0.25000000  1.0
  Sn  Sn14  1  0.00000000  0.61204030  0.25000000  1.0
  Sn  Sn15  1  0.61204030  0.61204030  0.75000000  1.0
  Sn  Sn16  1  0.38795970  0.00000000  0.75000000  1.0
  Sn  Sn17  1  0.00000000  0.38795970  0.75000000  1.0
