# generated using pymatgen
data_MgS2O7
_symmetry_space_group_name_H-M   'P 1'
_cell_length_a   8.43882776
_cell_length_b   7.01959157
_cell_length_c   4.99098257
_cell_angle_alpha   105.13716535
_cell_angle_beta   94.69755940
_cell_angle_gamma   92.12095460
_symmetry_Int_Tables_number   1
_chemical_formula_structural   MgS2O7
_chemical_formula_sum   'Mg2 S4 O14'
_cell_volume   283.91025677
_cell_formula_units_Z   2
loop_
 _symmetry_equiv_pos_site_id
 _symmetry_equiv_pos_as_xyz
  1  'x, y, z'
loop_
 _atom_site_type_symbol
 _atom_site_label
 _atom_site_symmetry_multiplicity
 _atom_site_fract_x
 _atom_site_fract_y
 _atom_site_fract_z
 _atom_site_occupancy
  Mg  Mg0  1  -0.00000000  -0.50000000  0.00000000  1.0
  Mg  Mg1  1  -0.50000000  0.00000000  -0.50000000  1.0
  S  S2  1  -0.76650063  -0.64046868  -0.49048882  1.0
  S  S3  1  -0.23349937  -0.35953132  -0.50951118  1.0
  S  S4  1  -0.69136935  -0.24684503  -0.12433481  1.0
  S  S5  1  -0.30863065  -0.75315497  -0.87566519  1.0
  O  O6  1  -0.82337719  -0.55344031  -0.71303353  1.0
  O  O7  1  -0.17662281  -0.44655969  -0.28696647  1.0
  O  O8  1  -0.88960823  -0.68243847  -0.32018716  1.0
  O  O9  1  -0.11039177  -0.31756153  -0.67981284  1.0
  O  O10  1  -0.66337149  -0.80189026  -0.58114078  1.0
  O  O11  1  -0.33662851  -0.19810974  -0.41885922  1.0
  O  O12  1  -0.63853625  -0.47205266  -0.27746431  1.0
  O  O13  1  -0.36146375  -0.52794734  -0.72253569  1.0
  O  O14  1  -0.57125331  -0.19165428  -0.88645011  1.0
  O  O15  1  -0.42874669  -0.80834572  -0.11354989  1.0
  O  O16  1  -0.67782849  -0.13173362  -0.32706986  1.0
  O  O17  1  -0.32217151  -0.86826638  -0.67293014  1.0
  O  O18  1  -0.85517772  -0.26967288  -0.05621356  1.0
  O  O19  1  -0.14482228  -0.73032712  -0.94378644  1.0
