# generated using pymatgen
data_AlTl(SO4)2
_symmetry_space_group_name_H-M   'P 1'
_cell_length_a   5.03721923
_cell_length_b   5.03721923
_cell_length_c   8.35505286
_cell_angle_alpha   90.00000000
_cell_angle_beta   90.00000000
_cell_angle_gamma   120.00000000
_symmetry_Int_Tables_number   1
_chemical_formula_structural   AlTl(SO4)2
_chemical_formula_sum   'Al1 Tl1 S2 O8'
_cell_volume   183.59529126
_cell_formula_units_Z   1
loop_
 _symmetry_equiv_pos_site_id
 _symmetry_equiv_pos_as_xyz
  1  'x, y, z'
loop_
 _atom_site_type_symbol
 _atom_site_label
 _atom_site_symmetry_multiplicity
 _atom_site_fract_x
 _atom_site_fract_y
 _atom_site_fract_z
 _atom_site_occupancy
  Al  Al0  1  -0.00000000  0.00000000  0.00000000  1.0
  Tl  Tl1  1  -0.00000000  0.00000000  0.50000000  1.0
  S  S2  1  0.33333333  0.66666667  0.19669787  1.0
  S  S3  1  0.66666667  0.33333333  0.80330213  1.0
  O  O4  1  0.17241613  0.82757528  0.13684390  1.0
  O  O5  1  0.82757528  0.17241613  0.86315610  1.0
  O  O6  1  0.65515914  0.82758387  0.13684390  1.0
  O  O7  1  0.17242472  0.34484086  0.13684390  1.0
  O  O8  1  0.82758387  0.65515914  0.86315610  1.0
  O  O9  1  0.34484086  0.17242472  0.86315610  1.0
  O  O10  1  0.33333333  0.66666667  0.37216387  1.0
  O  O11  1  0.66666667  0.33333333  0.62783613  1.0
