# generated using pymatgen
data_Na3FeO3
_symmetry_space_group_name_H-M   'P 1'
_cell_length_a   8.60809670
_cell_length_b   8.60809670
_cell_length_c   6.18749755
_cell_angle_alpha   69.67963380
_cell_angle_beta   110.32036620
_cell_angle_gamma   102.24768168
_symmetry_Int_Tables_number   1
_chemical_formula_structural   Na3FeO3
_chemical_formula_sum   'Na12 Fe4 O12'
_cell_volume   401.00706851
_cell_formula_units_Z   4
loop_
 _symmetry_equiv_pos_site_id
 _symmetry_equiv_pos_as_xyz
  1  'x, y, z'
loop_
 _atom_site_type_symbol
 _atom_site_label
 _atom_site_symmetry_multiplicity
 _atom_site_fract_x
 _atom_site_fract_y
 _atom_site_fract_z
 _atom_site_occupancy
  Na  Na0  1  0.73065125  0.69957858  0.47052357  1.0
  Na  Na1  1  0.30042142  0.26934875  0.97052357  1.0
  Na  Na2  1  0.83556146  0.07245090  0.41827385  1.0
  Na  Na3  1  0.92754910  0.16443854  0.91827385  1.0
  Na  Na4  1  1.34231998  -0.39839483  0.19412364  1.0
  Na  Na5  1  1.39839483  -0.34231998  0.69412364  1.0
  Na  Na6  1  1.53537025  -0.00930332  0.98338146  1.0
  Na  Na7  1  1.00930332  -0.53537025  0.48338146  1.0
  Na  Na8  1  1.10656938  -0.15719972  0.34421417  1.0
  Na  Na9  1  1.15719972  -0.10656938  0.84421417  1.0
  Na  Na10  1  0.59122694  0.35953116  0.43884018  1.0
  Na  Na11  1  0.64046884  0.40877306  0.93884018  1.0
  Fe  Fe12  1  0.75959989  0.76205426  -0.00380063  1.0
  Fe  Fe13  1  0.23794574  0.24040011  0.49619937  1.0
  Fe  Fe14  1  1.48140641  -0.00706152  0.42232395  1.0
  Fe  Fe15  1  1.00706152  -0.48140641  0.92232395  1.0
  O  O16  1  1.58988170  -0.39102237  0.10154177  1.0
  O  O17  1  1.39102237  -0.58988170  0.60154177  1.0
  O  O18  1  1.82710932  -0.07841427  0.16499182  1.0
  O  O19  1  1.07841427  -0.82710932  0.66499182  1.0
  O  O20  1  1.34645812  -0.14081241  0.23401190  1.0
  O  O21  1  1.14081241  -0.34645812  0.73401190  1.0
  O  O22  1  0.57322705  0.17959819  0.22353426  1.0
  O  O23  1  0.82040181  0.42677295  0.72353426  1.0
  O  O24  1  0.95783054  0.64897611  0.08536976  1.0
  O  O25  1  0.35102389  0.04216946  0.58536976  1.0
  O  O26  1  1.13534809  -0.66762040  0.15327028  1.0
  O  O27  1  1.66762040  -0.13534809  0.65327028  1.0
