# generated using pymatgen
data_Na3SbO3
_symmetry_space_group_name_H-M   'P 1'
_cell_length_a   8.35549126
_cell_length_b   8.35549126
_cell_length_c   8.35549126
_cell_angle_alpha   109.47122063
_cell_angle_beta   109.47122063
_cell_angle_gamma   109.47122063
_symmetry_Int_Tables_number   1
_chemical_formula_structural   Na3SbO3
_chemical_formula_sum   'Na12 Sb4 O12'
_cell_volume   449.04935451
_cell_formula_units_Z   4
loop_
 _symmetry_equiv_pos_site_id
 _symmetry_equiv_pos_as_xyz
  1  'x, y, z'
loop_
 _atom_site_type_symbol
 _atom_site_label
 _atom_site_symmetry_multiplicity
 _atom_site_fract_x
 _atom_site_fract_y
 _atom_site_fract_z
 _atom_site_occupancy
  Na  Na0  1  0.24405695  0.51862721  0.51862721  1.0
  Na  Na1  1  0.51862721  0.24405695  0.51862721  1.0
  Na  Na2  1  1.00000000  0.72542974  1.48137279  1.0
  Na  Na3  1  0.72542974  1.00000000  1.48137279  1.0
  Na  Na4  1  0.51862721  0.51862721  0.24405695  1.0
  Na  Na5  1  1.27457026  1.27457026  0.75594305  1.0
  Na  Na6  1  1.00000000  1.48137279  0.72542974  1.0
  Na  Na7  1  1.27457026  0.75594305  1.27457026  1.0
  Na  Na8  1  0.75594305  1.27457026  1.27457026  1.0
  Na  Na9  1  1.48137279  1.00000000  0.72542974  1.0
  Na  Na10  1  0.72542974  1.48137279  1.00000000  1.0
  Na  Na11  1  1.48137279  0.72542974  1.00000000  1.0
  Sb  Sb12  1  0.70932850  0.70932850  0.70932850  1.0
  Sb  Sb13  1  1.00000000  1.00000000  0.29067150  1.0
  Sb  Sb14  1  1.00000000  0.29067150  1.00000000  1.0
  Sb  Sb15  1  0.29067150  1.00000000  1.00000000  1.0
  O  O16  1  0.74053788  0.51987241  0.51987241  1.0
  O  O17  1  0.51987241  0.74053788  0.51987241  1.0
  O  O18  1  1.00000000  1.22066547  0.48012759  1.0
  O  O19  1  1.22066547  1.00000000  0.48012759  1.0
  O  O20  1  0.51987241  0.51987241  0.74053788  1.0
  O  O21  1  0.77933453  0.77933453  0.25946212  1.0
  O  O22  1  1.00000000  0.48012759  1.22066547  1.0
  O  O23  1  0.77933453  0.25946212  0.77933453  1.0
  O  O24  1  0.25946212  0.77933453  0.77933453  1.0
  O  O25  1  0.48012759  1.00000000  1.22066547  1.0
  O  O26  1  1.22066547  0.48012759  1.00000000  1.0
  O  O27  1  0.48012759  1.22066547  1.00000000  1.0
