# generated using pymatgen
data_KLi(BH4)2
_symmetry_space_group_name_H-M   'P 1'
_cell_length_a   7.85999819
_cell_length_b   4.44794716
_cell_length_c   13.88318299
_cell_angle_alpha   90.00000000
_cell_angle_beta   90.00000000
_cell_angle_gamma   90.00000000
_symmetry_Int_Tables_number   1
_chemical_formula_structural   KLi(BH4)2
_chemical_formula_sum   'K4 Li4 B8 H32'
_cell_volume   485.36796970
_cell_formula_units_Z   4
loop_
 _symmetry_equiv_pos_site_id
 _symmetry_equiv_pos_as_xyz
  1  'x, y, z'
loop_
 _atom_site_type_symbol
 _atom_site_label
 _atom_site_symmetry_multiplicity
 _atom_site_fract_x
 _atom_site_fract_y
 _atom_site_fract_z
 _atom_site_occupancy
  K  K0  1  0.83043962  0.75000000  0.87360273  1.0
  K  K1  1  0.33043962  0.75000000  0.62639727  1.0
  K  K2  1  0.16956038  0.25000000  0.12639727  1.0
  K  K3  1  0.66956038  0.25000000  0.37360273  1.0
  Li  Li4  1  0.70287447  0.75000000  0.14153904  1.0
  Li  Li5  1  0.20287447  0.75000000  0.35846096  1.0
  Li  Li6  1  0.29712553  0.25000000  0.85846096  1.0
  Li  Li7  1  0.79712553  0.25000000  0.64153904  1.0
  B  B8  1  0.94262238  0.75000000  0.25998862  1.0
  B  B9  1  0.44262238  0.75000000  0.24001138  1.0
  B  B10  1  0.05737762  0.25000000  0.74001138  1.0
  B  B11  1  0.55737762  0.25000000  0.75998862  1.0
  B  B12  1  0.74358559  0.75000000  0.55051669  1.0
  B  B13  1  0.24358559  0.75000000  0.94948331  1.0
  B  B14  1  0.25641441  0.25000000  0.44948331  1.0
  B  B15  1  0.75641441  0.25000000  0.05051669  1.0
  H  H16  1  1.00561474  0.97784857  0.29431522  1.0
  H  H17  1  1.00561474  0.52215143  0.29431522  1.0
  H  H18  1  0.50561474  0.97784857  0.20568478  1.0
  H  H19  1  0.50561474  0.52215143  0.20568478  1.0
  H  H20  1  -0.00561474  0.47784857  0.70568478  1.0
  H  H21  1  -0.00561474  0.02215143  0.70568478  1.0
  H  H22  1  0.49438526  0.47784857  0.79431522  1.0
  H  H23  1  0.49438526  0.02215143  0.79431522  1.0
  H  H24  1  0.83068215  0.97059877  0.53032481  1.0
  H  H25  1  0.83068215  0.52940123  0.53032481  1.0
  H  H26  1  0.33068215  0.97059877  0.96967519  1.0
  H  H27  1  0.33068215  0.52940123  0.96967519  1.0
  H  H28  1  0.16931785  0.47059877  0.46967519  1.0
  H  H29  1  0.16931785  0.02940123  0.46967519  1.0
  H  H30  1  0.66931785  0.47059877  0.03032481  1.0
  H  H31  1  0.66931785  0.02940123  0.03032481  1.0
  H  H32  1  0.96331665  0.75000000  0.17235250  1.0
  H  H33  1  0.46331665  0.75000000  0.32764750  1.0
  H  H34  1  0.03668335  0.25000000  0.82764750  1.0
  H  H35  1  0.53668335  0.25000000  0.67235250  1.0
  H  H36  1  0.79024318  0.75000000  0.27888812  1.0
  H  H37  1  0.29024318  0.75000000  0.22111188  1.0
  H  H38  1  0.20975682  0.25000000  0.72111188  1.0
  H  H39  1  0.70975682  0.25000000  0.77888812  1.0
  H  H40  1  0.70818036  0.75000000  0.63660216  1.0
  H  H41  1  0.20818036  0.75000000  0.86339784  1.0
  H  H42  1  0.29181964  0.25000000  0.36339784  1.0
  H  H43  1  0.79181964  0.25000000  0.13660216  1.0
  H  H44  1  0.61246399  0.75000000  0.50250505  1.0
  H  H45  1  0.11246399  0.75000000  -0.00250505  1.0
  H  H46  1  0.38753601  0.25000000  0.49749495  1.0
  H  H47  1  0.88753601  0.25000000  1.00250505  1.0
