# generated using pymatgen
data_SiO2
_symmetry_space_group_name_H-M   'P 1'
_cell_length_a   5.02939094
_cell_length_b   5.02939094
_cell_length_c   5.51863014
_cell_angle_alpha   90.00000000
_cell_angle_beta   90.00000000
_cell_angle_gamma   120.00000000
_symmetry_Int_Tables_number   1
_chemical_formula_structural   SiO2
_chemical_formula_sum   'Si3 O6'
_cell_volume   120.89064951
_cell_formula_units_Z   3
loop_
 _symmetry_equiv_pos_site_id
 _symmetry_equiv_pos_as_xyz
  1  'x, y, z'
loop_
 _atom_site_type_symbol
 _atom_site_label
 _atom_site_symmetry_multiplicity
 _atom_site_fract_x
 _atom_site_fract_y
 _atom_site_fract_z
 _atom_site_occupancy
  Si  Si0  1  0.47712910  0.47712910  0.00000000  1.0
  Si  Si1  1  0.52287090  0.00000000  0.66666667  1.0
  Si  Si2  1  0.00000000  0.52287090  0.33333333  1.0
  O  O3  1  0.25459299  0.83989834  0.46225430  1.0
  O  O4  1  0.16010166  0.41469465  0.12892097  1.0
  O  O5  1  0.58530535  0.74540701  0.79558764  1.0
  O  O6  1  0.83989834  0.25459299  0.53774570  1.0
  O  O7  1  0.41469465  0.16010166  0.87107903  1.0
  O  O8  1  0.74540701  0.58530535  0.20441236  1.0
