# generated using pymatgen
data_K2AlF5
_symmetry_space_group_name_H-M   'P 1'
_cell_length_a   6.05415668
_cell_length_b   6.05415668
_cell_length_c   3.75482740
_cell_angle_alpha   90.00000000
_cell_angle_beta   90.00000000
_cell_angle_gamma   90.00000000
_symmetry_Int_Tables_number   1
_chemical_formula_structural   K2AlF5
_chemical_formula_sum   'K2 Al1 F5'
_cell_volume   137.62498668
_cell_formula_units_Z   1
loop_
 _symmetry_equiv_pos_site_id
 _symmetry_equiv_pos_as_xyz
  1  'x, y, z'
loop_
 _atom_site_type_symbol
 _atom_site_label
 _atom_site_symmetry_multiplicity
 _atom_site_fract_x
 _atom_site_fract_y
 _atom_site_fract_z
 _atom_site_occupancy
  K  K0  1  0.00000000  0.50000000  0.50000000  1.0
  K  K1  1  0.50000000  0.00000000  0.50000000  1.0
  Al  Al2  1  0.00000000  0.00000000  0.00000000  1.0
  F  F3  1  0.78820739  0.78820739  0.00000000  1.0
  F  F4  1  0.78820739  0.21179261  0.00000000  1.0
  F  F5  1  0.21179261  0.78820739  0.00000000  1.0
  F  F6  1  0.21179261  0.21179261  0.00000000  1.0
  F  F7  1  0.00000000  0.00000000  0.50000000  1.0
