# generated using pymatgen
data_KC2
_symmetry_space_group_name_H-M   'P 1'
_cell_length_a   4.39216549
_cell_length_b   4.39216549
_cell_length_c   7.40704082
_cell_angle_alpha   90.00000000
_cell_angle_beta   90.00000000
_cell_angle_gamma   90.00000000
_symmetry_Int_Tables_number   1
_chemical_formula_structural   KC2
_chemical_formula_sum   'K2 C4'
_cell_volume   142.89009596
_cell_formula_units_Z   2
loop_
 _symmetry_equiv_pos_site_id
 _symmetry_equiv_pos_as_xyz
  1  'x, y, z'
loop_
 _atom_site_type_symbol
 _atom_site_label
 _atom_site_symmetry_multiplicity
 _atom_site_fract_x
 _atom_site_fract_y
 _atom_site_fract_z
 _atom_site_occupancy
  K  K0  1  0.00000000  0.50000000  0.25002719  1.0
  K  K1  1  0.50000000  0.00000000  0.74997281  1.0
  C  C2  1  0.00000000  0.50000000  0.66485151  1.0
  C  C3  1  0.50000000  0.00000000  0.33514849  1.0
  C  C4  1  0.00000000  0.50000000  0.83546577  1.0
  C  C5  1  0.50000000  0.00000000  0.16453423  1.0
