# generated using pymatgen
data_K4Sn(TeSe)2
_symmetry_space_group_name_H-M   'P 1'
_cell_length_a   15.92888793
_cell_length_b   10.71185796
_cell_length_c   8.44542084
_cell_angle_alpha   90.00000000
_cell_angle_beta   90.00000000
_cell_angle_gamma   90.00000000
_symmetry_Int_Tables_number   1
_chemical_formula_structural   K4Sn(TeSe)2
_chemical_formula_sum   'K16 Sn4 Te8 Se8'
_cell_volume   1441.02513966
_cell_formula_units_Z   4
loop_
 _symmetry_equiv_pos_site_id
 _symmetry_equiv_pos_as_xyz
  1  'x, y, z'
loop_
 _atom_site_type_symbol
 _atom_site_label
 _atom_site_symmetry_multiplicity
 _atom_site_fract_x
 _atom_site_fract_y
 _atom_site_fract_z
 _atom_site_occupancy
  K  K0  1  0.23438726  0.53935886  0.63296616  1.0
  K  K1  1  0.73438726  0.96064114  0.86703384  1.0
  K  K2  1  0.76561274  0.03935886  0.36703384  1.0
  K  K3  1  0.26561274  0.46064114  0.13296616  1.0
  K  K4  1  0.76561274  0.46064114  0.36703384  1.0
  K  K5  1  0.26561274  0.03935886  0.13296616  1.0
  K  K6  1  0.23438726  0.96064114  0.63296616  1.0
  K  K7  1  0.73438726  0.53935886  0.86703384  1.0
  K  K8  1  0.50000000  0.50000000  0.50000000  1.0
  K  K9  1  0.00000000  0.00000000  0.00000000  1.0
  K  K10  1  0.50000000  0.00000000  0.50000000  1.0
  K  K11  1  0.00000000  0.50000000  0.00000000  1.0
  K  K12  1  0.95188785  0.75000000  0.51370691  1.0
  K  K13  1  0.45188785  0.75000000  0.98629309  1.0
  K  K14  1  0.04811215  0.25000000  0.48629309  1.0
  K  K15  1  0.54811215  0.25000000  0.01370691  1.0
  Sn  Sn16  1  0.16105890  0.75000000  0.24779350  1.0
  Sn  Sn17  1  0.66105890  0.75000000  0.25220650  1.0
  Sn  Sn18  1  0.83894110  0.25000000  0.75220650  1.0
  Sn  Sn19  1  0.33894110  0.25000000  0.74779350  1.0
  Te  Te20  1  0.32962702  0.75000000  0.34736835  1.0
  Te  Te21  1  0.82962702  0.75000000  0.15263165  1.0
  Te  Te22  1  0.67037298  0.25000000  0.65263165  1.0
  Te  Te23  1  0.17037298  0.25000000  0.84736835  1.0
  Te  Te24  1  0.14950447  0.75000000  0.91756889  1.0
  Te  Te25  1  0.64950447  0.75000000  0.58243111  1.0
  Te  Te26  1  0.85049553  0.25000000  0.08243111  1.0
  Te  Te27  1  0.35049553  0.25000000  0.41756889  1.0
  Se  Se28  1  0.09029258  0.55245729  0.35139967  1.0
  Se  Se29  1  0.59029258  0.94754271  0.14860033  1.0
  Se  Se30  1  0.90970742  0.05245729  0.64860033  1.0
  Se  Se31  1  0.40970742  0.44754271  0.85139967  1.0
  Se  Se32  1  0.90970742  0.44754271  0.64860033  1.0
  Se  Se33  1  0.40970742  0.05245729  0.85139967  1.0
  Se  Se34  1  0.09029258  0.94754271  0.35139967  1.0
  Se  Se35  1  0.59029258  0.55245729  0.14860033  1.0
