# generated using pymatgen
data_EuP4HO12
_symmetry_space_group_name_H-M   'P 1'
_cell_length_a   8.75242802
_cell_length_b   7.33945472
_cell_length_c   9.23962849
_cell_angle_alpha   64.72252401
_cell_angle_beta   67.74154386
_cell_angle_gamma   74.37206903
_symmetry_Int_Tables_number   1
_chemical_formula_structural   EuP4HO12
_chemical_formula_sum   'Eu2 P8 H2 O24'
_cell_volume   492.58577142
_cell_formula_units_Z   2
loop_
 _symmetry_equiv_pos_site_id
 _symmetry_equiv_pos_as_xyz
  1  'x, y, z'
loop_
 _atom_site_type_symbol
 _atom_site_label
 _atom_site_symmetry_multiplicity
 _atom_site_fract_x
 _atom_site_fract_y
 _atom_site_fract_z
 _atom_site_occupancy
  Eu  Eu0  1  -0.73201259  0.66446676  0.24137201  1.0
  Eu  Eu1  1  -0.26798741  -0.66446676  0.75862799  1.0
  P  P2  1  -0.62749958  0.09264512  0.84591893  1.0
  P  P3  1  -0.37250042  -0.09264512  0.15408107  1.0
  P  P4  1  -0.81922549  0.18520072  0.60857094  1.0
  P  P5  1  -0.18077451  -0.18520072  0.39142906  1.0
  P  P6  1  -0.86436034  -0.22811415  0.64949460  1.0
  P  P7  1  -0.13563966  0.22811415  0.35050540  1.0
  P  P8  1  -0.71077723  -0.53245801  0.92024809  1.0
  P  P9  1  -0.28922277  0.53245801  0.07975191  1.0
  H  H10  1  -0.87133641  0.26401533  0.23843067  1.0
  H  H11  1  -0.12866359  -0.26401533  0.76156933  1.0
  O  O12  1  -0.98604482  0.20053868  0.73729082  1.0
  O  O13  1  -0.01395518  -0.20053868  0.26270918  1.0
  O  O14  1  -0.44667641  0.10983001  0.80133143  1.0
  O  O15  1  -0.55332359  -0.10983001  0.19866857  1.0
  O  O16  1  -0.69220817  -0.10828105  0.95679699  1.0
  O  O17  1  -0.30779183  0.10828105  0.04320301  1.0
  O  O18  1  -0.66726081  0.17731092  0.66904094  1.0
  O  O19  1  -0.33273919  -0.17731092  0.33095906  1.0
  O  O20  1  -0.79112138  0.34091594  0.43379905  1.0
  O  O21  1  -0.20887862  -0.34091594  0.56620095  1.0
  O  O22  1  -0.77463498  -0.03658057  0.59082015  1.0
  O  O23  1  -0.22536502  0.03658057  0.40917985  1.0
  O  O24  1  -0.84518836  -0.36962695  0.83130789  1.0
  O  O25  1  -0.15481164  0.36962695  0.16869211  1.0
  O  O26  1  -0.22840702  -0.46022756  0.90088361  1.0
  O  O27  1  -0.77159298  0.46022756  0.09911639  1.0
  O  O28  1  -0.94515756  0.15122053  0.31003616  1.0
  O  O29  1  -0.05484244  -0.15122053  0.68996384  1.0
  O  O30  1  -0.53696774  -0.48680069  0.81253896  1.0
  O  O31  1  -0.46303226  0.48680069  0.18746104  1.0
  O  O32  1  -0.79104716  -0.32935025  0.52419270  1.0
  O  O33  1  -0.20895284  0.32935025  0.47580730  1.0
  O  O34  1  -0.74608830  -0.74276221  0.92988420  1.0
  O  O35  1  -0.25391170  0.74276221  0.07011580  1.0
