# generated using pymatgen
data_Cs3Lu2Cl9
_symmetry_space_group_name_H-M   'P 1'
_cell_length_a   9.90324866
_cell_length_b   9.90324866
_cell_length_c   9.90324866
_cell_angle_alpha   83.59073986
_cell_angle_beta   83.59073986
_cell_angle_gamma   83.59073987
_symmetry_Int_Tables_number   1
_chemical_formula_structural   Cs3Lu2Cl9
_chemical_formula_sum   'Cs6 Lu4 Cl18'
_cell_volume   954.30320929
_cell_formula_units_Z   2
loop_
 _symmetry_equiv_pos_site_id
 _symmetry_equiv_pos_as_xyz
  1  'x, y, z'
loop_
 _atom_site_type_symbol
 _atom_site_label
 _atom_site_symmetry_multiplicity
 _atom_site_fract_x
 _atom_site_fract_y
 _atom_site_fract_z
 _atom_site_occupancy
  Cs  Cs0  1  0.58942179  0.25000000  -0.08942179  1.0
  Cs  Cs1  1  1.08942179  -0.58942179  -0.25000000  1.0
  Cs  Cs2  1  0.75000000  0.08942179  -0.58942179  1.0
  Cs  Cs3  1  0.25000000  0.91057821  -0.41057821  1.0
  Cs  Cs4  1  0.41057821  -0.25000000  0.08942179  1.0
  Cs  Cs5  1  0.91057821  -0.41057821  0.25000000  1.0
  Lu  Lu6  1  0.34726770  0.34726770  -0.65273230  1.0
  Lu  Lu7  1  0.84726770  0.84726770  -0.15273230  1.0
  Lu  Lu8  1  1.15273230  1.15273230  0.15273230  1.0
  Lu  Lu9  1  0.65273230  0.65273230  -0.34726770  1.0
  Cl  Cl10  1  0.23710312  0.57537703  -0.58721138  1.0
  Cl  Cl11  1  0.73710312  -0.08721138  0.07537703  1.0
  Cl  Cl12  1  1.08721138  -0.07537703  -0.73710312  1.0
  Cl  Cl13  1  0.58721138  0.76289688  -0.57537703  1.0
  Cl  Cl14  1  0.42462297  0.58721138  -0.23710312  1.0
  Cl  Cl15  1  0.92462297  -0.73710312  0.08721138  1.0
  Cl  Cl16  1  0.76289688  0.42462297  -0.41278862  1.0
  Cl  Cl17  1  0.26289688  0.08721138  -0.07537703  1.0
  Cl  Cl18  1  0.41278862  0.23710312  -0.42462297  1.0
  Cl  Cl19  1  0.91278862  0.07537703  -0.26289688  1.0
  Cl  Cl20  1  1.07537703  -0.26289688  -0.08721138  1.0
  Cl  Cl21  1  0.57537703  0.41278862  -0.76289688  1.0
  Cl  Cl22  1  1.09956245  1.25000000  0.40043755  1.0
  Cl  Cl23  1  0.59956245  0.90043755  -0.25000000  1.0
  Cl  Cl24  1  0.75000000  0.59956245  -0.09956245  1.0
  Cl  Cl25  1  1.25000000  1.40043755  0.09956245  1.0
  Cl  Cl26  1  0.90043755  0.75000000  -0.40043755  1.0
  Cl  Cl27  1  1.40043755  1.09956245  0.25000000  1.0
