# generated using pymatgen
data_Pd16S7
_symmetry_space_group_name_H-M   'P 1'
_cell_length_a   7.82011923
_cell_length_b   7.82011923
_cell_length_c   7.82011923
_cell_angle_alpha   109.47122063
_cell_angle_beta   109.47122063
_cell_angle_gamma   109.47122063
_symmetry_Int_Tables_number   1
_chemical_formula_structural   Pd16S7
_chemical_formula_sum   'Pd16 S7'
_cell_volume   368.14442856
_cell_formula_units_Z   1
loop_
 _symmetry_equiv_pos_site_id
 _symmetry_equiv_pos_as_xyz
  1  'x, y, z'
loop_
 _atom_site_type_symbol
 _atom_site_label
 _atom_site_symmetry_multiplicity
 _atom_site_fract_x
 _atom_site_fract_y
 _atom_site_fract_z
 _atom_site_occupancy
  Pd  Pd0  1  0.66195179  0.41425953  0.41425953  1.0
  Pd  Pd1  1  0.41425953  0.66195179  0.41425953  1.0
  Pd  Pd2  1  1.00000000  1.24769226  0.58574047  1.0
  Pd  Pd3  1  1.24769226  1.00000000  0.58574047  1.0
  Pd  Pd4  1  0.41425953  0.41425953  0.66195179  1.0
  Pd  Pd5  1  0.75230774  0.75230774  0.33804821  1.0
  Pd  Pd6  1  1.00000000  0.58574047  1.24769226  1.0
  Pd  Pd7  1  0.75230774  0.33804821  0.75230774  1.0
  Pd  Pd8  1  0.33804821  0.75230774  0.75230774  1.0
  Pd  Pd9  1  0.58574047  1.00000000  1.24769226  1.0
  Pd  Pd10  1  1.24769226  0.58574047  1.00000000  1.0
  Pd  Pd11  1  0.58574047  1.24769226  1.00000000  1.0
  Pd  Pd12  1  0.77054504  0.77054504  0.77054504  1.0
  Pd  Pd13  1  1.00000000  1.00000000  0.22945496  1.0
  Pd  Pd14  1  1.00000000  0.22945496  1.00000000  1.0
  Pd  Pd15  1  0.22945496  1.00000000  1.00000000  1.0
  S  S16  1  0.31220767  0.31220767  0.31220767  1.0
  S  S17  1  1.00000000  1.00000000  0.68779233  1.0
  S  S18  1  1.00000000  0.68779233  1.00000000  1.0
  S  S19  1  0.68779233  1.00000000  1.00000000  1.0
  S  S20  1  0.50000000  0.50000000  -0.00000000  1.0
  S  S21  1  0.50000000  -0.00000000  0.50000000  1.0
  S  S22  1  0.00000000  0.50000000  0.50000000  1.0
