# generated using pymatgen
data_Cs2PO3F
_symmetry_space_group_name_H-M   'P 1'
_cell_length_a   8.51351298
_cell_length_b   6.47754362
_cell_length_c   11.21106776
_cell_angle_alpha   90.00000000
_cell_angle_beta   90.00000000
_cell_angle_gamma   90.00000000
_symmetry_Int_Tables_number   1
_chemical_formula_structural   Cs2PO3F
_chemical_formula_sum   'Cs8 P4 O12 F4'
_cell_volume   618.25284920
_cell_formula_units_Z   4
loop_
 _symmetry_equiv_pos_site_id
 _symmetry_equiv_pos_as_xyz
  1  'x, y, z'
loop_
 _atom_site_type_symbol
 _atom_site_label
 _atom_site_symmetry_multiplicity
 _atom_site_fract_x
 _atom_site_fract_y
 _atom_site_fract_z
 _atom_site_occupancy
  Cs  Cs0  1  0.82391478  0.75000000  0.08049810  1.0
  Cs  Cs1  1  0.32391478  0.75000000  0.41950190  1.0
  Cs  Cs2  1  0.17608522  0.25000000  0.91950190  1.0
  Cs  Cs3  1  0.67608522  0.25000000  0.58049810  1.0
  Cs  Cs4  1  -0.00365927  0.75000000  0.71497025  1.0
  Cs  Cs5  1  0.49634073  0.75000000  0.78502975  1.0
  Cs  Cs6  1  1.00365927  0.25000000  0.28502975  1.0
  Cs  Cs7  1  0.50365927  0.25000000  0.21497025  1.0
  P  P8  1  0.75389958  0.75000000  0.41527912  1.0
  P  P9  1  0.25389958  0.75000000  0.08472088  1.0
  P  P10  1  0.24610042  0.25000000  0.58472088  1.0
  P  P11  1  0.74610042  0.25000000  0.91527912  1.0
  O  O12  1  0.69704902  0.75000000  0.54491097  1.0
  O  O13  1  0.19704902  0.75000000  0.95508903  1.0
  O  O14  1  0.30295098  0.25000000  0.45508903  1.0
  O  O15  1  0.80295098  0.25000000  0.04491097  1.0
  O  O16  1  0.72264236  0.94968314  0.34651648  1.0
  O  O17  1  0.72264236  0.55031686  0.34651648  1.0
  O  O18  1  0.22264236  0.94968314  0.15348352  1.0
  O  O19  1  0.22264236  0.55031686  0.15348352  1.0
  O  O20  1  0.27735764  0.44968314  0.65348352  1.0
  O  O21  1  0.27735764  0.05031686  0.65348352  1.0
  O  O22  1  0.77735764  0.44968314  0.84651648  1.0
  O  O23  1  0.77735764  0.05031686  0.84651648  1.0
  F  F24  1  0.95139543  0.75000000  0.42932734  1.0
  F  F25  1  0.45139543  0.75000000  0.07067266  1.0
  F  F26  1  0.04860457  0.25000000  0.57067266  1.0
  F  F27  1  0.54860457  0.25000000  0.92932734  1.0
