# generated using pymatgen
data_KAlAs2O7
_symmetry_space_group_name_H-M   'P 1'
_cell_length_a   8.33268721
_cell_length_b   6.40567283
_cell_length_c   6.31872228
_cell_angle_alpha   102.49358145
_cell_angle_beta   104.63050885
_cell_angle_gamma   96.73742917
_symmetry_Int_Tables_number   1
_chemical_formula_structural   KAlAs2O7
_chemical_formula_sum   'K2 Al2 As4 O14'
_cell_volume   313.28422190
_cell_formula_units_Z   2
loop_
 _symmetry_equiv_pos_site_id
 _symmetry_equiv_pos_as_xyz
  1  'x, y, z'
loop_
 _atom_site_type_symbol
 _atom_site_label
 _atom_site_symmetry_multiplicity
 _atom_site_fract_x
 _atom_site_fract_y
 _atom_site_fract_z
 _atom_site_occupancy
  K  K0  1  -0.50000000  0.00000000  0.00000000  1.0
  K  K1  1  0.00000000  0.00000000  0.00000000  1.0
  Al  Al2  1  -0.72762756  -0.68899483  -0.37478033  1.0
  Al  Al3  1  -0.27237244  -0.31100517  -0.62521967  1.0
  As  As4  1  -0.68835878  -0.53019966  -0.82528185  1.0
  As  As5  1  -0.31164122  -0.46980034  -0.17471815  1.0
  As  As6  1  -0.83580232  -0.24349746  -0.48707601  1.0
  As  As7  1  -0.16419768  -0.75650254  -0.51292399  1.0
  O  O8  1  -0.50973689  -0.34865925  -0.78471365  1.0
  O  O9  1  -0.49026311  -0.65134075  -0.21528635  1.0
  O  O10  1  -0.84766612  -0.36417335  -0.77996257  1.0
  O  O11  1  -0.15233388  -0.63582665  -0.22003743  1.0
  O  O12  1  -0.28131798  -0.61779744  -0.68173693  1.0
  O  O13  1  -0.71868202  -0.38220256  -0.31826307  1.0
  O  O14  1  -0.68242224  -0.71283784  -0.66138970  1.0
  O  O15  1  -0.31757776  -0.28716216  -0.33861030  1.0
  O  O16  1  -0.96581500  -0.75401155  -0.54440528  1.0
  O  O17  1  -0.03418500  -0.24598845  -0.45559472  1.0
  O  O18  1  -0.71748148  -0.98915775  -0.41357422  1.0
  O  O19  1  -0.28251852  -0.01084225  -0.58642578  1.0
  O  O20  1  -0.77912201  -0.69050040  -0.09589178  1.0
  O  O21  1  -0.22087799  -0.30949960  -0.90410822  1.0
