# generated using pymatgen
data_BF2
_symmetry_space_group_name_H-M   'P 1'
_cell_length_a   5.15882933
_cell_length_b   6.77642618
_cell_length_c   6.75919132
_cell_angle_alpha   90.00000000
_cell_angle_beta   123.12365658
_cell_angle_gamma   90.00000000
_symmetry_Int_Tables_number   1
_chemical_formula_structural   BF2
_chemical_formula_sum   'B4 F8'
_cell_volume   197.89183886
_cell_formula_units_Z   4
loop_
 _symmetry_equiv_pos_site_id
 _symmetry_equiv_pos_as_xyz
  1  'x, y, z'
loop_
 _atom_site_type_symbol
 _atom_site_label
 _atom_site_symmetry_multiplicity
 _atom_site_fract_x
 _atom_site_fract_y
 _atom_site_fract_z
 _atom_site_occupancy
  B  B0  1  0.86703044  0.43767452  0.37325492  1.0
  B  B1  1  0.86703044  0.06232548  0.87325492  1.0
  B  B2  1  0.13296956  0.93767452  0.12674508  1.0
  B  B3  1  0.13296956  0.56232548  0.62674508  1.0
  F  F4  1  0.95614373  0.30314843  0.27707212  1.0
  F  F5  1  0.95614373  0.19685157  0.77707212  1.0
  F  F6  1  0.04385627  0.80314843  0.22292788  1.0
  F  F7  1  0.04385627  0.69685157  0.72292788  1.0
  F  F8  1  0.56432933  0.46979684  0.26259645  1.0
  F  F9  1  0.56432933  0.03020316  0.76259645  1.0
  F  F10  1  0.43567067  0.96979684  0.23740355  1.0
  F  F11  1  0.43567067  0.53020316  0.73740355  1.0
