# generated using pymatgen
data_As3Pb5ClO12
_symmetry_space_group_name_H-M   'P 1'
_cell_length_a   10.74936888
_cell_length_b   10.74936888
_cell_length_c   7.46801649
_cell_angle_alpha   90.00000000
_cell_angle_beta   90.00000000
_cell_angle_gamma   120.00000000
_symmetry_Int_Tables_number   1
_chemical_formula_structural   As3Pb5ClO12
_chemical_formula_sum   'As6 Pb10 Cl2 O24'
_cell_volume   747.31178764
_cell_formula_units_Z   2
loop_
 _symmetry_equiv_pos_site_id
 _symmetry_equiv_pos_as_xyz
  1  'x, y, z'
loop_
 _atom_site_type_symbol
 _atom_site_label
 _atom_site_symmetry_multiplicity
 _atom_site_fract_x
 _atom_site_fract_y
 _atom_site_fract_z
 _atom_site_occupancy
  As  As0  1  0.62815539  0.59091991  0.25000000  1.0
  As  As1  1  0.59091991  0.96276452  0.75000000  1.0
  As  As2  1  0.96276452  0.37184461  0.25000000  1.0
  As  As3  1  0.40908009  0.03723548  0.25000000  1.0
  As  As4  1  0.37184461  0.40908009  0.75000000  1.0
  As  As5  1  0.03723548  0.62815539  0.75000000  1.0
  Pb  Pb6  1  0.33333333  0.66666667  0.49501262  1.0
  Pb  Pb7  1  0.33333333  0.66666667  0.00498738  1.0
  Pb  Pb8  1  0.66666667  0.33333333  0.99501262  1.0
  Pb  Pb9  1  0.66666667  0.33333333  0.50498738  1.0
  Pb  Pb10  1  -0.01896092  0.72374418  0.25000000  1.0
  Pb  Pb11  1  0.72374418  0.74270510  0.75000000  1.0
  Pb  Pb12  1  0.74270510  1.01896092  0.25000000  1.0
  Pb  Pb13  1  0.27625582  0.25729490  0.25000000  1.0
  Pb  Pb14  1  1.01896092  0.27625582  0.75000000  1.0
  Pb  Pb15  1  0.25729490  -0.01896092  0.75000000  1.0
  Cl  Cl16  1  0.00000000  0.00000000  0.25000000  1.0
  Cl  Cl17  1  -0.00000000  -0.00000000  0.75000000  1.0
  O  O18  1  0.74216555  0.64445949  0.43539464  1.0
  O  O19  1  0.74216555  0.64445949  0.06460536  1.0
  O  O20  1  0.64445949  0.90229394  0.93539464  1.0
  O  O21  1  0.64445949  0.90229394  0.56460536  1.0
  O  O22  1  0.90229394  0.25783445  0.43539464  1.0
  O  O23  1  0.90229394  0.25783445  0.06460536  1.0
  O  O24  1  0.35554051  0.09770606  0.43539464  1.0
  O  O25  1  0.35554051  0.09770606  0.06460536  1.0
  O  O26  1  0.25783445  0.35554051  0.93539464  1.0
  O  O27  1  0.25783445  0.35554051  0.56460536  1.0
  O  O28  1  0.09770606  0.74216555  0.93539464  1.0
  O  O29  1  0.09770606  0.74216555  0.56460536  1.0
  O  O30  1  0.35505850  0.85662052  0.25000000  1.0
  O  O31  1  0.85662052  0.50156202  0.75000000  1.0
  O  O32  1  0.50156202  0.64494150  0.25000000  1.0
  O  O33  1  0.14337948  0.49843798  0.25000000  1.0
  O  O34  1  0.64494150  0.14337948  0.75000000  1.0
  O  O35  1  0.49843798  0.35505850  0.75000000  1.0
  O  O36  1  0.54167010  0.40076304  0.25000000  1.0
  O  O37  1  0.40076304  0.85909294  0.75000000  1.0
  O  O38  1  0.85909294  0.45832990  0.25000000  1.0
  O  O39  1  0.59923696  0.14090706  0.25000000  1.0
  O  O40  1  0.45832990  0.59923696  0.75000000  1.0
  O  O41  1  0.14090706  0.54167010  0.75000000  1.0
