# generated using pymatgen
data_Lu3In5
_symmetry_space_group_name_H-M   'P 1'
_cell_length_a   12.12491963
_cell_length_b   10.30468839
_cell_length_c   6.40408260
_cell_angle_alpha   90.00000000
_cell_angle_beta   90.00000000
_cell_angle_gamma   90.00000000
_symmetry_Int_Tables_number   1
_chemical_formula_structural   Lu3In5
_chemical_formula_sum   'Lu12 In20'
_cell_volume   800.14861251
_cell_formula_units_Z   4
loop_
 _symmetry_equiv_pos_site_id
 _symmetry_equiv_pos_as_xyz
  1  'x, y, z'
loop_
 _atom_site_type_symbol
 _atom_site_label
 _atom_site_symmetry_multiplicity
 _atom_site_fract_x
 _atom_site_fract_y
 _atom_site_fract_z
 _atom_site_occupancy
  Lu  Lu0  1  0.63772229  0.49212682  0.10660186  1.0
  Lu  Lu1  1  0.63772229  0.00787318  0.10660186  1.0
  Lu  Lu2  1  0.13772229  0.49212682  0.39339814  1.0
  Lu  Lu3  1  0.13772229  0.00787318  0.39339814  1.0
  Lu  Lu4  1  0.36227771  0.99212682  0.89339814  1.0
  Lu  Lu5  1  0.36227771  0.50787318  0.89339814  1.0
  Lu  Lu6  1  0.86227771  0.99212682  0.60660186  1.0
  Lu  Lu7  1  0.86227771  0.50787318  0.60660186  1.0
  Lu  Lu8  1  0.95465469  0.25000000  0.15185844  1.0
  Lu  Lu9  1  0.45465469  0.25000000  0.34814156  1.0
  Lu  Lu10  1  0.04534531  0.75000000  0.84814156  1.0
  Lu  Lu11  1  0.54534531  0.75000000  0.65185844  1.0
  In  In12  1  0.89595961  0.95985589  0.12004152  1.0
  In  In13  1  0.89595961  0.54014411  0.12004152  1.0
  In  In14  1  0.39595961  0.95985589  0.37995848  1.0
  In  In15  1  0.39595961  0.54014411  0.37995848  1.0
  In  In16  1  0.10404039  0.45985589  0.87995848  1.0
  In  In17  1  0.10404039  0.04014411  0.87995848  1.0
  In  In18  1  0.60404039  0.45985589  0.62004152  1.0
  In  In19  1  0.60404039  0.04014411  0.62004152  1.0
  In  In20  1  0.99637084  0.25000000  0.61874216  1.0
  In  In21  1  0.49637084  0.25000000  0.88125784  1.0
  In  In22  1  0.00362916  0.75000000  0.38125784  1.0
  In  In23  1  0.50362916  0.75000000  0.11874216  1.0
  In  In24  1  0.75992174  0.25000000  0.85237128  1.0
  In  In25  1  0.25992174  0.25000000  0.64762872  1.0
  In  In26  1  0.24007826  0.75000000  0.14762872  1.0
  In  In27  1  0.74007826  0.75000000  0.35237128  1.0
  In  In28  1  0.72354847  0.25000000  0.36631777  1.0
  In  In29  1  0.22354847  0.25000000  0.13368223  1.0
  In  In30  1  0.27645153  0.75000000  0.63368223  1.0
  In  In31  1  0.77645153  0.75000000  0.86631777  1.0
