# generated using pymatgen
data_NaLuP2O7
_symmetry_space_group_name_H-M   'P 1'
_cell_length_a   9.17738456
_cell_length_b   5.44066170
_cell_length_c   14.07667438
_cell_angle_alpha   90.00000000
_cell_angle_beta   116.31127585
_cell_angle_gamma   90.00000000
_symmetry_Int_Tables_number   1
_chemical_formula_structural   NaLuP2O7
_chemical_formula_sum   'Na4 Lu4 P8 O28'
_cell_volume   630.04589363
_cell_formula_units_Z   4
loop_
 _symmetry_equiv_pos_site_id
 _symmetry_equiv_pos_as_xyz
  1  'x, y, z'
loop_
 _atom_site_type_symbol
 _atom_site_label
 _atom_site_symmetry_multiplicity
 _atom_site_fract_x
 _atom_site_fract_y
 _atom_site_fract_z
 _atom_site_occupancy
  Na  Na0  1  0.94173519  0.72744392  0.30474720  1.0
  Na  Na1  1  0.94173519  0.77255608  0.80474720  1.0
  Na  Na2  1  0.05826481  0.22744392  0.19525280  1.0
  Na  Na3  1  0.05826481  0.27255608  0.69525280  1.0
  Lu  Lu4  1  0.24514059  0.26071943  0.47780464  1.0
  Lu  Lu5  1  0.24514059  0.23928057  0.97780464  1.0
  Lu  Lu6  1  0.75485941  0.76071943  0.02219536  1.0
  Lu  Lu7  1  0.75485941  0.73928057  0.52219536  1.0
  P  P8  1  0.81463301  0.22360783  0.38050270  1.0
  P  P9  1  0.81463301  0.27639217  0.88050270  1.0
  P  P10  1  0.18536699  0.72360783  0.11949730  1.0
  P  P11  1  0.18536699  0.77639217  0.61949730  1.0
  P  P12  1  0.68034450  0.24848933  0.15020740  1.0
  P  P13  1  0.68034450  0.25151067  0.65020740  1.0
  P  P14  1  0.31965550  0.74848933  0.34979260  1.0
  P  P15  1  0.31965550  0.75151067  0.84979260  1.0
  O  O16  1  0.97377615  0.29295918  0.37530771  1.0
  O  O17  1  0.97377615  0.20704082  0.87530771  1.0
  O  O18  1  0.02622385  0.79295918  0.12469229  1.0
  O  O19  1  0.02622385  0.70704082  0.62469229  1.0
  O  O20  1  0.80966998  0.94788603  0.40450124  1.0
  O  O21  1  0.80966998  0.55211397  0.90450124  1.0
  O  O22  1  0.19033002  0.44788603  0.09549876  1.0
  O  O23  1  0.19033002  0.05211397  0.59549876  1.0
  O  O24  1  0.77560626  0.38835460  0.45369822  1.0
  O  O25  1  0.77560626  0.11164540  0.95369822  1.0
  O  O26  1  0.22439374  0.88835460  0.04630178  1.0
  O  O27  1  0.22439374  0.61164540  0.54630178  1.0
  O  O28  1  0.78555018  0.46249445  0.14181682  1.0
  O  O29  1  0.78555018  0.03750555  0.64181682  1.0
  O  O30  1  0.21444982  0.96249445  0.35818318  1.0
  O  O31  1  0.21444982  0.53750555  0.85818318  1.0
  O  O32  1  0.76522579  0.00058162  0.15572630  1.0
  O  O33  1  0.76522579  0.49941838  0.65572630  1.0
  O  O34  1  0.23477421  0.50058162  0.34427370  1.0
  O  O35  1  0.23477421  0.99941838  0.84427370  1.0
  O  O36  1  0.67032599  0.27970567  0.26229750  1.0
  O  O37  1  0.67032599  0.22029433  0.76229750  1.0
  O  O38  1  0.32967401  0.77970567  0.23770250  1.0
  O  O39  1  0.32967401  0.72029433  0.73770250  1.0
  O  O40  1  0.50481648  0.26079186  0.06615994  1.0
  O  O41  1  0.50481648  0.23920814  0.56615994  1.0
  O  O42  1  0.49518352  0.76079186  0.43384006  1.0
  O  O43  1  0.49518352  0.73920814  0.93384006  1.0
