# generated using pymatgen
data_Mg(ZrH3)2
_symmetry_space_group_name_H-M   'P 1'
_cell_length_a   8.56174702
_cell_length_b   8.56174702
_cell_length_c   8.56174702
_cell_angle_alpha   22.59471581
_cell_angle_beta   22.59471581
_cell_angle_gamma   22.59471581
_symmetry_Int_Tables_number   1
_chemical_formula_structural   Mg(ZrH3)2
_chemical_formula_sum   'Mg1 Zr2 H6'
_cell_volume   81.27277211
_cell_formula_units_Z   1
loop_
 _symmetry_equiv_pos_site_id
 _symmetry_equiv_pos_as_xyz
  1  'x, y, z'
loop_
 _atom_site_type_symbol
 _atom_site_label
 _atom_site_symmetry_multiplicity
 _atom_site_fract_x
 _atom_site_fract_y
 _atom_site_fract_z
 _atom_site_occupancy
  Mg  Mg0  1  0.00000000  0.00000000  0.00000000  1.0
  Zr  Zr1  1  0.77476520  -0.22523480  -0.22523480  1.0
  Zr  Zr2  1  0.22523480  0.22523480  0.22523480  1.0
  H  H3  1  0.69521720  -0.30478280  -0.30478280  1.0
  H  H4  1  0.30478280  0.30478280  0.30478280  1.0
  H  H5  1  0.86075090  -0.13924910  -0.13924910  1.0
  H  H6  1  0.13924910  0.13924910  0.13924910  1.0
  H  H7  1  0.41453466  0.41453466  -0.58546534  1.0
  H  H8  1  0.58546534  0.58546534  -0.41453466  1.0
