# generated using pymatgen
data_Nb2N
_symmetry_space_group_name_H-M   'P 1'
_cell_length_a   4.91939856
_cell_length_b   5.42390145
_cell_length_c   3.04781057
_cell_angle_alpha   90.00000000
_cell_angle_beta   90.00000000
_cell_angle_gamma   90.00000000
_symmetry_Int_Tables_number   1
_chemical_formula_structural   Nb2N
_chemical_formula_sum   'Nb4 N2'
_cell_volume   81.32269650
_cell_formula_units_Z   2
loop_
 _symmetry_equiv_pos_site_id
 _symmetry_equiv_pos_as_xyz
  1  'x, y, z'
loop_
 _atom_site_type_symbol
 _atom_site_label
 _atom_site_symmetry_multiplicity
 _atom_site_fract_x
 _atom_site_fract_y
 _atom_site_fract_z
 _atom_site_occupancy
  Nb  Nb0  1  0.75694586  0.16155414  0.50000000  1.0
  Nb  Nb1  1  0.24305414  0.83844586  0.50000000  1.0
  Nb  Nb2  1  0.25694586  0.33844586  0.00000000  1.0
  Nb  Nb3  1  0.74305414  0.66155414  0.00000000  1.0
  N  N4  1  0.00000000  0.50000000  0.50000000  1.0
  N  N5  1  0.50000000  0.00000000  0.00000000  1.0
