# generated using pymatgen
data_N2O3
_symmetry_space_group_name_H-M   'P 1'
_cell_length_a   7.07359613
_cell_length_b   6.61253674
_cell_length_c   8.67679859
_cell_angle_alpha   90.00000000
_cell_angle_beta   90.00000000
_cell_angle_gamma   90.00000000
_symmetry_Int_Tables_number   1
_chemical_formula_structural   N2O3
_chemical_formula_sum   'N8 O12'
_cell_volume   405.85217206
_cell_formula_units_Z   4
loop_
 _symmetry_equiv_pos_site_id
 _symmetry_equiv_pos_as_xyz
  1  'x, y, z'
loop_
 _atom_site_type_symbol
 _atom_site_label
 _atom_site_symmetry_multiplicity
 _atom_site_fract_x
 _atom_site_fract_y
 _atom_site_fract_z
 _atom_site_occupancy
  O  O0  1  0.28788967  0.91303462  0.54728038  1.0
  O  O1  1  0.28788967  0.58696538  0.54728038  1.0
  O  O2  1  0.78788967  0.91303462  0.95271962  1.0
  O  O3  1  0.78788967  0.58696538  0.95271962  1.0
  O  O4  1  0.71211033  0.41303462  0.45271962  1.0
  O  O5  1  0.71211033  0.08696538  0.45271962  1.0
  O  O6  1  0.21211033  0.41303462  0.04728038  1.0
  O  O7  1  0.21211033  0.08696538  0.04728038  1.0
  O  O8  1  0.39901097  0.75000000  0.74248793  1.0
  O  O9  1  0.89901097  0.75000000  0.75751207  1.0
  O  O10  1  0.60098903  0.25000000  0.25751207  1.0
  O  O11  1  0.10098903  0.25000000  0.24248793  1.0
  N  N12  1  0.32496019  0.75000000  0.61213965  1.0
  N  N13  1  0.82496019  0.75000000  0.88786035  1.0
  N  N14  1  0.67503981  0.25000000  0.38786035  1.0
  N  N15  1  0.17503981  0.25000000  0.11213965  1.0
  N  N16  1  0.47115949  0.75000000  0.21456548  1.0
  N  N17  1  0.97115949  0.75000000  0.28543452  1.0
  N  N18  1  0.52884051  0.25000000  0.78543452  1.0
  N  N19  1  0.02884051  0.25000000  0.71456548  1.0
