# generated using pymatgen
data_NaCaSiHO4
_symmetry_space_group_name_H-M   'P 1'
_cell_length_a   5.45976545
_cell_length_b   7.11127503
_cell_length_c   5.52129936
_cell_angle_alpha   90.00000000
_cell_angle_beta   116.74950590
_cell_angle_gamma   90.00000000
_symmetry_Int_Tables_number   1
_chemical_formula_structural   NaCaSiHO4
_chemical_formula_sum   'Na2 Ca2 Si2 H2 O8'
_cell_volume   191.42817643
_cell_formula_units_Z   2
loop_
 _symmetry_equiv_pos_site_id
 _symmetry_equiv_pos_as_xyz
  1  'x, y, z'
loop_
 _atom_site_type_symbol
 _atom_site_label
 _atom_site_symmetry_multiplicity
 _atom_site_fract_x
 _atom_site_fract_y
 _atom_site_fract_z
 _atom_site_occupancy
  Na  Na0  1  0.63728001  0.73376005  0.75998994  1.0
  Na  Na1  1  0.36271999  0.23376005  0.24001006  1.0
  Ca  Ca2  1  1.00459628  -0.01451701  0.49262479  1.0
  Ca  Ca3  1  -0.00459628  0.48548299  0.50737521  1.0
  Si  Si4  1  0.65853386  0.24533195  0.87279994  1.0
  Si  Si5  1  0.34146614  0.74533195  0.12720006  1.0
  H  H6  1  0.96267621  1.00148232  0.96602108  1.0
  H  H7  1  0.03732379  0.50148232  0.03397892  1.0
  O  O8  1  0.79126482  0.04927859  0.79469504  1.0
  O  O9  1  0.20873518  0.54927859  0.20530496  1.0
  O  O10  1  0.79156377  0.42624332  0.78873285  1.0
  O  O11  1  0.20843623  0.92624332  0.21126715  1.0
  O  O12  1  0.76744053  0.23886530  0.20274969  1.0
  O  O13  1  0.23255947  0.73886530  0.79725031  1.0
  O  O14  1  0.32565186  0.23655548  0.69710030  1.0
  O  O15  1  0.67434814  0.73655548  0.30289970  1.0
