# generated using pymatgen
data_Eu2WO6
_symmetry_space_group_name_H-M   'P 1'
_cell_length_a   10.11620443
_cell_length_b   10.11620443
_cell_length_c   5.50848659
_cell_angle_alpha   75.35660783
_cell_angle_beta   104.64339217
_cell_angle_gamma   111.59585752
_symmetry_Int_Tables_number   1
_chemical_formula_structural   Eu2WO6
_chemical_formula_sum   'Eu8 W4 O24'
_cell_volume   499.06728748
_cell_formula_units_Z   4
loop_
 _symmetry_equiv_pos_site_id
 _symmetry_equiv_pos_as_xyz
  1  'x, y, z'
loop_
 _atom_site_type_symbol
 _atom_site_label
 _atom_site_symmetry_multiplicity
 _atom_site_fract_x
 _atom_site_fract_y
 _atom_site_fract_z
 _atom_site_occupancy
  W  W0  1  1.50657418  0.20059733  0.93847296  1.0
  W  W1  1  0.79940267  -0.50657418  0.43847296  1.0
  W  W2  1  1.20059733  0.50657418  0.56152704  1.0
  W  W3  1  0.49342582  -0.20059733  0.06152704  1.0
  O  O4  1  0.47734327  -0.06460874  0.76529062  1.0
  O  O5  1  1.06460874  0.52265673  0.26529062  1.0
  O  O6  1  0.93539126  -0.52265673  0.73470938  1.0
  O  O7  1  1.52265673  0.06460874  0.23470938  1.0
  O  O8  1  1.67836680  0.21383884  0.86608324  1.0
  O  O9  1  0.78616116  -0.67836680  0.36608324  1.0
  O  O10  1  1.21383884  0.67836680  0.63391676  1.0
  O  O11  1  0.32163320  -0.21383884  0.13391676  1.0
  O  O12  1  1.38254408  0.17251437  0.63317519  1.0
  O  O13  1  0.82748563  -0.38254408  0.13317519  1.0
  O  O14  1  1.17251437  0.38254408  0.86682481  1.0
  O  O15  1  0.61745592  -0.17251437  0.36682481  1.0
  O  O16  1  1.54435351  0.38243422  0.98695245  1.0
  O  O17  1  0.61756578  -0.54435351  0.48695245  1.0
  O  O18  1  1.38243422  0.54435351  0.51304755  1.0
  O  O19  1  0.45564649  -0.38243422  0.01304755  1.0
  O  O20  1  1.89599828  0.07696957  0.42956284  1.0
  O  O21  1  0.92303043  -0.89599828  0.92956284  1.0
  O  O22  1  1.07696957  0.89599828  0.07043716  1.0
  O  O23  1  0.10400172  -0.07696957  0.57043716  1.0
  O  O24  1  0.68759779  -0.15998465  0.92136512  1.0
  O  O25  1  1.15998465  0.31240221  0.42136512  1.0
  O  O26  1  0.84001535  -0.31240221  0.57863488  1.0
  O  O27  1  1.31240221  0.15998465  0.07863488  1.0
  Eu  Eu28  1  0.63337667  -0.36662333  0.75000000  1.0
  Eu  Eu29  1  1.36662333  0.36662333  0.25000000  1.0
  Eu  Eu30  1  1.71069879  0.05642662  0.61452590  1.0
  Eu  Eu31  1  0.94357338  -0.71069879  0.11452590  1.0
  Eu  Eu32  1  1.05642662  0.71069879  0.88547410  1.0
  Eu  Eu33  1  0.28930121  -0.05642662  0.38547410  1.0
  Eu  Eu34  1  1.11039757  0.11039757  0.75000000  1.0
  Eu  Eu35  1  0.88960243  -0.11039757  0.25000000  1.0
