# generated using pymatgen
data_K2WSe4
_symmetry_space_group_name_H-M   'P 1'
_cell_length_a   10.01053281
_cell_length_b   7.27655645
_cell_length_c   12.86059986
_cell_angle_alpha   90.00000000
_cell_angle_beta   90.00000000
_cell_angle_gamma   90.00000000
_symmetry_Int_Tables_number   1
_chemical_formula_structural   K2WSe4
_chemical_formula_sum   'K8 W4 Se16'
_cell_volume   936.79447774
_cell_formula_units_Z   4
loop_
 _symmetry_equiv_pos_site_id
 _symmetry_equiv_pos_as_xyz
  1  'x, y, z'
loop_
 _atom_site_type_symbol
 _atom_site_label
 _atom_site_symmetry_multiplicity
 _atom_site_fract_x
 _atom_site_fract_y
 _atom_site_fract_z
 _atom_site_occupancy
  K  K0  1  0.84646600  0.75000000  0.38548877  1.0
  K  K1  1  0.34646600  0.75000000  0.11451123  1.0
  K  K2  1  0.15353400  0.25000000  0.61451123  1.0
  K  K3  1  0.65353400  0.25000000  0.88548877  1.0
  K  K4  1  0.55158379  0.75000000  0.65415303  1.0
  K  K5  1  0.05158379  0.75000000  0.84584697  1.0
  K  K6  1  0.44841621  0.25000000  0.34584697  1.0
  K  K7  1  0.94841621  0.25000000  0.15415303  1.0
  W  W8  1  0.75174888  0.75000000  0.06485399  1.0
  W  W9  1  0.25174888  0.75000000  0.43514601  1.0
  W  W10  1  0.24825112  0.25000000  0.93514601  1.0
  W  W11  1  0.74825112  0.25000000  0.56485399  1.0
  Se  Se12  1  0.64642213  0.00792781  0.13385967  1.0
  Se  Se13  1  0.64642213  0.49207219  0.13385967  1.0
  Se  Se14  1  0.14642213  0.00792781  0.36614033  1.0
  Se  Se15  1  0.14642213  0.49207219  0.36614033  1.0
  Se  Se16  1  0.35357787  0.50792781  0.86614033  1.0
  Se  Se17  1  0.35357787  0.99207219  0.86614033  1.0
  Se  Se18  1  0.85357787  0.50792781  0.63385967  1.0
  Se  Se19  1  0.85357787  0.99207219  0.63385967  1.0
  Se  Se20  1  0.97865355  0.75000000  0.11222899  1.0
  Se  Se21  1  0.47865355  0.75000000  0.38777101  1.0
  Se  Se22  1  0.02134645  0.25000000  0.88777101  1.0
  Se  Se23  1  0.52134645  0.25000000  0.61222899  1.0
  Se  Se24  1  0.22494725  0.75000000  0.61595543  1.0
  Se  Se25  1  0.72494725  0.75000000  0.88404457  1.0
  Se  Se26  1  0.77505275  0.25000000  0.38404457  1.0
  Se  Se27  1  0.27505275  0.25000000  0.11595543  1.0
