# generated using pymatgen
data_YTe3
_symmetry_space_group_name_H-M   'P 1'
_cell_length_a   14.61266121
_cell_length_b   14.61266121
_cell_length_c   4.55610084
_cell_angle_alpha   90.00000000
_cell_angle_beta   90.00000000
_cell_angle_gamma   164.00963311
_symmetry_Int_Tables_number   1
_chemical_formula_structural   YTe3
_chemical_formula_sum   'Y2 Te6'
_cell_volume   268.00031844
_cell_formula_units_Z   2
loop_
 _symmetry_equiv_pos_site_id
 _symmetry_equiv_pos_as_xyz
  1  'x, y, z'
loop_
 _atom_site_type_symbol
 _atom_site_label
 _atom_site_symmetry_multiplicity
 _atom_site_fract_x
 _atom_site_fract_y
 _atom_site_fract_z
 _atom_site_occupancy
  Y  Y0  1  0.05117888  0.94882112  0.75000000  1.0
  Y  Y1  1  -0.05117888  0.05117888  0.25000000  1.0
  Te  Te2  1  0.16086602  0.83913398  0.75000000  1.0
  Te  Te3  1  -0.16086602  0.16086602  0.25000000  1.0
  Te  Te4  1  0.31756805  0.68243195  0.75000000  1.0
  Te  Te5  1  -0.31756805  0.31756805  0.25000000  1.0
  Te  Te6  1  0.44840200  0.55159800  0.75000000  1.0
  Te  Te7  1  -0.44840200  0.44840200  0.25000000  1.0
