# generated using pymatgen
data_NaMg3As3(HO6)2
_symmetry_space_group_name_H-M   'P 1'
_cell_length_a   8.71995633
_cell_length_b   8.71995633
_cell_length_c   6.86999009
_cell_angle_alpha   74.40577858
_cell_angle_beta   105.59422142
_cell_angle_gamma   88.47706267
_symmetry_Int_Tables_number   1
_chemical_formula_structural   NaMg3As3(HO6)2
_chemical_formula_sum   'Na2 Mg6 As6 H4 O24'
_cell_volume   481.86944949
_cell_formula_units_Z   2
loop_
 _symmetry_equiv_pos_site_id
 _symmetry_equiv_pos_as_xyz
  1  'x, y, z'
loop_
 _atom_site_type_symbol
 _atom_site_label
 _atom_site_symmetry_multiplicity
 _atom_site_fract_x
 _atom_site_fract_y
 _atom_site_fract_z
 _atom_site_occupancy
  Na  Na0  1  0.97857291  -0.02142709  0.75000000  1.0
  Na  Na1  1  1.02142709  0.02142709  0.25000000  1.0
  Mg  Mg2  1  0.36889531  -0.04726820  0.61854273  1.0
  Mg  Mg3  1  1.04726820  0.63110469  0.11854273  1.0
  Mg  Mg4  1  0.95273180  -0.63110469  0.88145727  1.0
  Mg  Mg5  1  1.63110469  0.04726820  0.38145727  1.0
  Mg  Mg6  1  1.27845402  0.27845402  0.75000000  1.0
  Mg  Mg7  1  0.72154598  -0.27845402  0.25000000  1.0
  As  As8  1  1.66652751  0.10295822  0.88855090  1.0
  As  As9  1  0.89704178  -0.66652751  0.38855090  1.0
  As  As10  1  1.10295822  0.66652751  0.61144910  1.0
  As  As11  1  0.33347249  -0.10295822  0.11144910  1.0
  As  As12  1  0.68605331  -0.31394669  0.75000000  1.0
  As  As13  1  1.31394669  0.31394669  0.25000000  1.0
  H  H14  1  1.60762751  0.38023592  0.80465720  1.0
  H  H15  1  0.61976408  -0.60762751  0.30465720  1.0
  H  H16  1  1.38023592  0.60762751  0.69534280  1.0
  H  H17  1  0.39237249  -0.38023592  0.19534280  1.0
  O  O18  1  0.72942551  -0.20019149  0.52349139  1.0
  O  O19  1  1.20019149  0.27057449  0.02349139  1.0
  O  O20  1  0.79980851  -0.27057449  0.97650861  1.0
  O  O21  1  1.27057449  0.20019149  0.47650861  1.0
  O  O22  1  0.48371428  -0.27926599  0.72810503  1.0
  O  O23  1  1.27926599  0.51628572  0.22810503  1.0
  O  O24  1  0.72073401  -0.51628572  0.77189497  1.0
  O  O25  1  1.51628572  0.27926599  0.27189497  1.0
  O  O26  1  1.84769436  0.14112643  0.40823180  1.0
  O  O27  1  0.85887357  -0.84769437  0.90823180  1.0
  O  O28  1  1.14112643  0.84769437  0.09176820  1.0
  O  O29  1  0.15230563  -0.14112643  0.59176820  1.0
  O  O30  1  1.60037194  0.02359708  0.68117082  1.0
  O  O31  1  0.97640292  -0.60037194  0.18117082  1.0
  O  O32  1  1.02359708  0.60037194  0.81882918  1.0
  O  O33  1  0.39962806  -0.02359708  0.31882918  1.0
  O  O34  1  1.33333789  0.02590505  0.87092484  1.0
  O  O35  1  0.97409495  -0.33333789  0.37092484  1.0
  O  O36  1  1.02590505  0.33333789  0.62907516  1.0
  O  O37  1  0.66666211  -0.02590505  0.12907516  1.0
  O  O38  1  1.53579521  0.27985464  0.83409272  1.0
  O  O39  1  0.72014536  -0.53579521  0.33409272  1.0
  O  O40  1  1.27985464  0.53579521  0.66590728  1.0
  O  O41  1  0.46420479  -0.27985464  0.16590728  1.0
