# generated using pymatgen
data_CeCoGe2
_symmetry_space_group_name_H-M   'P 1'
_cell_length_a   8.63559716
_cell_length_b   8.63559716
_cell_length_c   4.19293865
_cell_angle_alpha   90.00000000
_cell_angle_beta   90.00000000
_cell_angle_gamma   152.05830726
_symmetry_Int_Tables_number   1
_chemical_formula_structural   CeCoGe2
_chemical_formula_sum   'Ce2 Co2 Ge4'
_cell_volume   146.51440279
_cell_formula_units_Z   2
loop_
 _symmetry_equiv_pos_site_id
 _symmetry_equiv_pos_as_xyz
  1  'x, y, z'
loop_
 _atom_site_type_symbol
 _atom_site_label
 _atom_site_symmetry_multiplicity
 _atom_site_fract_x
 _atom_site_fract_y
 _atom_site_fract_z
 _atom_site_occupancy
  Ce  Ce0  1  0.38919063  0.61080937  0.75000000  1.0
  Ce  Ce1  1  -0.38919063  0.38919063  0.25000000  1.0
  Co  Co2  1  0.17989115  0.82010885  0.75000000  1.0
  Co  Co3  1  -0.17989115  0.17989115  0.25000000  1.0
  Ge  Ge4  1  0.04312924  0.95687076  0.75000000  1.0
  Ge  Ge5  1  -0.04312924  0.04312924  0.25000000  1.0
  Ge  Ge6  1  -0.24998164  0.24998164  0.75000000  1.0
  Ge  Ge7  1  0.24998164  0.75001836  0.25000000  1.0
