# generated using pymatgen
data_Cs5In(PSe3)4
_symmetry_space_group_name_H-M   'P 1'
_cell_length_a   14.29825771
_cell_length_b   14.29825771
_cell_length_c   7.75895546
_cell_angle_alpha   90.00000000
_cell_angle_beta   90.00000000
_cell_angle_gamma   90.00000000
_symmetry_Int_Tables_number   1
_chemical_formula_structural   Cs5In(PSe3)4
_chemical_formula_sum   'Cs10 In2 P8 Se24'
_cell_volume   1586.24220051
_cell_formula_units_Z   2
loop_
 _symmetry_equiv_pos_site_id
 _symmetry_equiv_pos_as_xyz
  1  'x, y, z'
loop_
 _atom_site_type_symbol
 _atom_site_label
 _atom_site_symmetry_multiplicity
 _atom_site_fract_x
 _atom_site_fract_y
 _atom_site_fract_z
 _atom_site_occupancy
  Cs  Cs0  1  0.68106024  0.96882115  0.00000000  1.0
  Cs  Cs1  1  0.96882115  0.31893976  0.50000000  1.0
  Cs  Cs2  1  0.31893976  0.03117885  0.00000000  1.0
  Cs  Cs3  1  0.03117885  0.68106024  0.50000000  1.0
  Cs  Cs4  1  0.68270860  0.33549152  0.00000000  1.0
  Cs  Cs5  1  0.33549152  0.31729140  0.50000000  1.0
  Cs  Cs6  1  0.31729140  0.66450848  0.00000000  1.0
  Cs  Cs7  1  0.66450848  0.68270860  0.50000000  1.0
  Cs  Cs8  1  0.00000000  0.00000000  0.00000000  1.0
  Cs  Cs9  1  0.00000000  0.00000000  0.50000000  1.0
  In  In10  1  0.00000000  0.50000000  0.00000000  1.0
  In  In11  1  0.50000000  -0.00000000  0.50000000  1.0
  P  P12  1  0.88710724  0.74330454  0.00000000  1.0
  P  P13  1  0.74330454  0.11289276  0.50000000  1.0
  P  P14  1  0.11289276  0.25669546  0.00000000  1.0
  P  P15  1  0.25669546  0.88710724  0.50000000  1.0
  P  P16  1  0.79825051  0.60759547  0.00000000  1.0
  P  P17  1  0.60759547  0.20174949  0.50000000  1.0
  P  P18  1  0.20174949  0.39240453  0.00000000  1.0
  P  P19  1  0.39240453  0.79825051  0.50000000  1.0
  Se  Se20  1  0.85251590  0.81941001  0.76366387  1.0
  Se  Se21  1  0.85251590  0.81941001  0.23633613  1.0
  Se  Se22  1  0.81941001  0.14748410  0.26366387  1.0
  Se  Se23  1  0.81941001  0.14748410  0.73633613  1.0
  Se  Se24  1  0.14748410  0.18058999  0.76366387  1.0
  Se  Se25  1  0.14748410  0.18058999  0.23633613  1.0
  Se  Se26  1  0.18058999  0.85251590  0.26366387  1.0
  Se  Se27  1  0.18058999  0.85251590  0.73633613  1.0
  Se  Se28  1  0.84812360  0.52798438  0.76909745  1.0
  Se  Se29  1  0.84812360  0.52798438  0.23090255  1.0
  Se  Se30  1  0.52798438  0.15187640  0.26909745  1.0
  Se  Se31  1  0.52798438  0.15187640  0.73090255  1.0
  Se  Se32  1  0.15187640  0.47201562  0.76909745  1.0
  Se  Se33  1  0.15187640  0.47201562  0.23090255  1.0
  Se  Se34  1  0.47201562  0.84812360  0.26909745  1.0
  Se  Se35  1  0.47201562  0.84812360  0.73090255  1.0
  Se  Se36  1  0.96524014  0.31141168  0.00000000  1.0
  Se  Se37  1  0.31141168  0.03475986  0.50000000  1.0
  Se  Se38  1  0.03475986  0.68858832  0.00000000  1.0
  Se  Se39  1  0.68858832  0.96524014  0.50000000  1.0
  Se  Se40  1  0.65226077  0.64240163  0.00000000  1.0
  Se  Se41  1  0.64240163  0.34773923  0.50000000  1.0
  Se  Se42  1  0.34773923  0.35759837  0.00000000  1.0
  Se  Se43  1  0.35759837  0.65226077  0.50000000  1.0
