# generated using pymatgen
data_Nb(PS4)2
_symmetry_space_group_name_H-M   'P 1'
_cell_length_a   12.23402066
_cell_length_b   12.23402066
_cell_length_c   7.83653656
_cell_angle_alpha   90.00000000
_cell_angle_beta   90.00000000
_cell_angle_gamma   90.00000000
_symmetry_Int_Tables_number   1
_chemical_formula_structural   Nb(PS4)2
_chemical_formula_sum   'Nb4 P8 S32'
_cell_volume   1172.90431315
_cell_formula_units_Z   4
loop_
 _symmetry_equiv_pos_site_id
 _symmetry_equiv_pos_as_xyz
  1  'x, y, z'
loop_
 _atom_site_type_symbol
 _atom_site_label
 _atom_site_symmetry_multiplicity
 _atom_site_fract_x
 _atom_site_fract_y
 _atom_site_fract_z
 _atom_site_occupancy
  Nb  Nb0  1  0.08357434  0.41642566  0.75000000  1.0
  Nb  Nb1  1  0.41642566  0.91642566  0.25000000  1.0
  Nb  Nb2  1  0.58357434  0.08357434  0.25000000  1.0
  Nb  Nb3  1  0.91642566  0.58357434  0.75000000  1.0
  P  P4  1  0.32578546  0.42483966  0.57617326  1.0
  P  P5  1  0.17421454  0.92483966  0.07617326  1.0
  P  P6  1  0.57516034  0.32578546  0.42382674  1.0
  P  P7  1  0.92483966  0.82578546  0.92382674  1.0
  P  P8  1  0.67421454  0.57516034  0.57617326  1.0
  P  P9  1  0.82578546  0.07516034  0.07617326  1.0
  P  P10  1  0.42483966  0.67421454  0.42382674  1.0
  P  P11  1  0.07516034  0.17421454  0.92382674  1.0
  S  S12  1  0.94159488  0.44115272  0.52155971  1.0
  S  S13  1  0.55840512  0.94115272  0.02155971  1.0
  S  S14  1  0.55884728  0.94159488  0.47844029  1.0
  S  S15  1  0.94115272  0.44159488  0.97844029  1.0
  S  S16  1  0.05840512  0.55884728  0.52155971  1.0
  S  S17  1  0.44159488  0.05884728  0.02155971  1.0
  S  S18  1  0.44115272  0.05840512  0.47844029  1.0
  S  S19  1  0.05884728  0.55840512  0.97844029  1.0
  S  S20  1  0.47871207  0.35185152  0.64803260  1.0
  S  S21  1  0.02128793  0.85185152  0.14803260  1.0
  S  S22  1  0.64814848  0.47871207  0.35196740  1.0
  S  S23  1  0.85185152  0.97871207  0.85196740  1.0
  S  S24  1  0.52128793  0.64814848  0.64803260  1.0
  S  S25  1  0.97871207  0.14814848  0.14803260  1.0
  S  S26  1  0.35185152  0.52128793  0.35196740  1.0
  S  S27  1  0.14814848  0.02128793  0.85196740  1.0
  S  S28  1  0.20998015  0.31651628  0.51489893  1.0
  S  S29  1  0.29001985  0.81651628  0.01489893  1.0
  S  S30  1  0.68348372  0.20998015  0.48510107  1.0
  S  S31  1  0.81651628  0.70998015  0.98510107  1.0
  S  S32  1  0.79001985  0.68348372  0.51489893  1.0
  S  S33  1  0.70998015  0.18348372  0.01489893  1.0
  S  S34  1  0.31651628  0.79001985  0.48510107  1.0
  S  S35  1  0.18348372  0.29001985  0.98510107  1.0
  S  S36  1  0.99233654  0.22380059  0.71500051  1.0
  S  S37  1  0.50766346  0.72380059  0.21500051  1.0
  S  S38  1  0.77619941  0.99233654  0.28499949  1.0
  S  S39  1  0.72380059  0.49233654  0.78499949  1.0
  S  S40  1  0.00766346  0.77619941  0.71500051  1.0
  S  S41  1  0.49233654  0.27619941  0.21500051  1.0
  S  S42  1  0.22380059  0.00766346  0.28499949  1.0
  S  S43  1  0.27619941  0.50766346  0.78499949  1.0
