# generated using pymatgen
data_LiInF4
_symmetry_space_group_name_H-M   'P 1'
_cell_length_a   4.82636918
_cell_length_b   11.97891677
_cell_length_c   5.08219493
_cell_angle_alpha   90.00000000
_cell_angle_beta   90.00000000
_cell_angle_gamma   90.00000000
_symmetry_Int_Tables_number   1
_chemical_formula_structural   LiInF4
_chemical_formula_sum   'Li4 In4 F16'
_cell_volume   293.82544636
_cell_formula_units_Z   4
loop_
 _symmetry_equiv_pos_site_id
 _symmetry_equiv_pos_as_xyz
  1  'x, y, z'
loop_
 _atom_site_type_symbol
 _atom_site_label
 _atom_site_symmetry_multiplicity
 _atom_site_fract_x
 _atom_site_fract_y
 _atom_site_fract_z
 _atom_site_occupancy
  Li  Li0  1  0.50000000  0.05372458  0.25000000  1.0
  Li  Li1  1  0.50000000  0.94627542  0.75000000  1.0
  Li  Li2  1  0.00000000  0.55372458  0.25000000  1.0
  Li  Li3  1  0.00000000  0.44627542  0.75000000  1.0
  In  In4  1  0.50000000  0.33043768  0.25000000  1.0
  In  In5  1  0.50000000  0.66956232  0.75000000  1.0
  In  In6  1  0.00000000  0.83043768  0.25000000  1.0
  In  In7  1  0.00000000  0.16956232  0.75000000  1.0
  F  F8  1  0.27391418  0.19165424  0.08182389  1.0
  F  F9  1  0.27391418  0.80834576  0.58182389  1.0
  F  F10  1  0.77391418  0.69165424  0.41817611  1.0
  F  F11  1  0.77391418  0.30834576  0.91817611  1.0
  F  F12  1  0.72608582  0.19165424  0.41817611  1.0
  F  F13  1  0.72608582  0.80834576  0.91817611  1.0
  F  F14  1  0.22608582  0.69165424  0.08182389  1.0
  F  F15  1  0.22608582  0.30834576  0.58182389  1.0
  F  F16  1  0.23636006  0.44186470  0.07150296  1.0
  F  F17  1  0.23636006  0.55813530  0.57150296  1.0
  F  F18  1  0.73636006  0.94186470  0.42849704  1.0
  F  F19  1  0.73636006  0.05813530  0.92849704  1.0
  F  F20  1  0.76363994  0.44186470  0.42849704  1.0
  F  F21  1  0.76363994  0.55813530  0.92849704  1.0
  F  F22  1  0.26363994  0.94186470  0.07150296  1.0
  F  F23  1  0.26363994  0.05813530  0.57150296  1.0
