# generated using pymatgen
data_KC4(N3O2)2
_symmetry_space_group_name_H-M   'P 1'
_cell_length_a   5.00269624
_cell_length_b   13.28217060
_cell_length_c   7.07728601
_cell_angle_alpha   95.51244902
_cell_angle_beta   109.73241704
_cell_angle_gamma   98.30649403
_symmetry_Int_Tables_number   1
_chemical_formula_structural   KC4(N3O2)2
_chemical_formula_sum   'K2 C8 N12 O8'
_cell_volume   432.67616508
_cell_formula_units_Z   2
loop_
 _symmetry_equiv_pos_site_id
 _symmetry_equiv_pos_as_xyz
  1  'x, y, z'
loop_
 _atom_site_type_symbol
 _atom_site_label
 _atom_site_symmetry_multiplicity
 _atom_site_fract_x
 _atom_site_fract_y
 _atom_site_fract_z
 _atom_site_occupancy
  K  K0  1  -0.21298434  -0.88562459  -0.70659254  1.0
  K  K1  1  -0.78701566  -0.11437541  -0.29340746  1.0
  C  C2  1  -0.74045551  -0.64351509  -0.31031455  1.0
  C  C3  1  -0.25954449  -0.35648491  -0.68968545  1.0
  C  C4  1  -0.58024792  -0.53928415  -0.46509371  1.0
  C  C5  1  -0.41975208  -0.46071585  -0.53490629  1.0
  C  C6  1  -0.99259592  -0.77846056  -0.14360463  1.0
  C  C7  1  -0.00740408  -0.22153944  -0.85639537  1.0
  C  C8  1  -0.76181602  -0.69968896  -0.14771199  1.0
  C  C9  1  -0.23818398  -0.30031104  -0.85228801  1.0
  N  N10  1  -0.94447329  -0.66086806  -0.49391033  1.0
  N  N11  1  -0.05552671  -0.33913194  -0.50608967  1.0
  N  N12  1  -0.50746525  -0.56788726  -0.28647794  1.0
  N  N13  1  -0.49253475  -0.43211274  -0.71352206  1.0
  N  N14  1  -0.91263327  -0.80524393  -0.95907987  1.0
  N  N15  1  -0.08736673  -0.19475607  -0.04092013  1.0
  N  N16  1  -0.54994898  -0.68164412  -0.97072774  1.0
  N  N17  1  -0.45005102  -0.31835588  -0.02927226  1.0
  N  N18  1  -0.23439403  -0.81352529  -0.31265931  1.0
  N  N19  1  -0.76560597  -0.18647471  -0.68734069  1.0
  N  N20  1  -0.44288086  -0.88317090  -0.29879336  1.0
  N  N21  1  -0.55711914  -0.11682910  -0.70120664  1.0
  O  O22  1  -0.83934470  -0.59086347  -0.59843925  1.0
  O  O23  1  -0.16065530  -0.40913653  -0.40156075  1.0
  O  O24  1  -0.63759221  -0.74505928  -0.85395955  1.0
  O  O25  1  -0.36240779  -0.25494072  -0.14604045  1.0
  O  O26  1  -0.43310454  -0.91751243  -0.13699627  1.0
  O  O27  1  -0.56689546  -0.08248757  -0.86300373  1.0
  O  O28  1  -0.65899133  -0.91513339  -0.46109925  1.0
  O  O29  1  -0.34100867  -0.08486661  -0.53890075  1.0
