# generated using pymatgen
data_ZrTiCuO5
_symmetry_space_group_name_H-M   'P 1'
_cell_length_a   3.62128701
_cell_length_b   6.77084459
_cell_length_c   14.89838123
_cell_angle_alpha   90.00000000
_cell_angle_beta   90.00000000
_cell_angle_gamma   90.00000000
_symmetry_Int_Tables_number   1
_chemical_formula_structural   ZrTiCuO5
_chemical_formula_sum   'Zr4 Ti4 Cu4 O20'
_cell_volume   365.29596587
_cell_formula_units_Z   4
loop_
 _symmetry_equiv_pos_site_id
 _symmetry_equiv_pos_as_xyz
  1  'x, y, z'
loop_
 _atom_site_type_symbol
 _atom_site_label
 _atom_site_symmetry_multiplicity
 _atom_site_fract_x
 _atom_site_fract_y
 _atom_site_fract_z
 _atom_site_occupancy
  Ti  Ti0  1  0.11532270  0.84328076  0.92517042  1.0
  Ti  Ti1  1  0.61532270  0.65671924  0.07482958  1.0
  Ti  Ti2  1  0.88467730  0.34328076  0.57482958  1.0
  Ti  Ti3  1  0.38467730  0.15671924  0.42517042  1.0
  O  O4  1  0.40047216  0.88116142  0.51701671  1.0
  O  O5  1  0.90047216  0.61883858  0.48298329  1.0
  O  O6  1  0.59952784  0.38116142  0.98298329  1.0
  O  O7  1  0.09952784  0.11883858  0.01701671  1.0
  O  O8  1  0.38491059  0.34668214  0.53807348  1.0
  O  O9  1  0.88491059  0.15331786  0.46192652  1.0
  O  O10  1  0.61508941  0.84668214  0.96192652  1.0
  O  O11  1  0.11508941  0.65331786  0.03807348  1.0
  O  O12  1  0.12706760  0.62408172  0.85238661  1.0
  O  O13  1  0.62706760  0.87591828  0.14761339  1.0
  O  O14  1  0.87293240  0.12408172  0.64761339  1.0
  O  O15  1  0.37293240  0.37591828  0.35238661  1.0
  O  O16  1  0.87626038  0.54960408  0.65791593  1.0
  O  O17  1  0.37626038  0.95039592  0.34208407  1.0
  O  O18  1  0.12373962  0.04960408  0.84208407  1.0
  O  O19  1  0.62373962  0.45039592  0.15791593  1.0
  O  O20  1  0.41300427  0.83213135  0.68852667  1.0
  O  O21  1  0.91300427  0.66786865  0.31147333  1.0
  O  O22  1  0.58699573  0.33213135  0.81147333  1.0
  O  O23  1  0.08699573  0.16786865  0.18852667  1.0
  Cu  Cu24  1  0.49866200  0.58671683  0.75417733  1.0
  Cu  Cu25  1  0.99866200  0.91328317  0.24582267  1.0
  Cu  Cu26  1  0.50133800  0.08671683  0.74582267  1.0
  Cu  Cu27  1  0.00133800  0.41328317  0.25417733  1.0
  Zr  Zr28  1  0.90337889  0.82567465  0.59524975  1.0
  Zr  Zr29  1  0.40337889  0.67432535  0.40475025  1.0
  Zr  Zr30  1  0.09662111  0.32567465  0.90475025  1.0
  Zr  Zr31  1  0.59662111  0.17432535  0.09524975  1.0
