# generated using pymatgen
data_H9PtN2ClO2
_symmetry_space_group_name_H-M   'P 1'
_cell_length_a   7.85621554
_cell_length_b   4.31330675
_cell_length_c   19.60050138
_cell_angle_alpha   90.00000000
_cell_angle_beta   110.75433607
_cell_angle_gamma   90.00000000
_symmetry_Int_Tables_number   1
_chemical_formula_structural   H9PtN2ClO2
_chemical_formula_sum   'H36 Pt4 N8 Cl4 O8'
_cell_volume   621.08761833
_cell_formula_units_Z   4
loop_
 _symmetry_equiv_pos_site_id
 _symmetry_equiv_pos_as_xyz
  1  'x, y, z'
loop_
 _atom_site_type_symbol
 _atom_site_label
 _atom_site_symmetry_multiplicity
 _atom_site_fract_x
 _atom_site_fract_y
 _atom_site_fract_z
 _atom_site_occupancy
  H  H0  1  0.00567796  0.76786239  0.73793010  1.0
  H  H1  1  0.00567796  0.73213761  0.23793010  1.0
  H  H2  1  0.99432204  0.23213761  0.26206990  1.0
  H  H3  1  0.99432204  0.26786239  0.76206990  1.0
  H  H4  1  0.73947037  0.25927183  0.76314671  1.0
  H  H5  1  0.73947037  0.24072817  0.26314671  1.0
  H  H6  1  0.26052963  0.74072817  0.23685329  1.0
  H  H7  1  0.26052963  0.75927183  0.73685329  1.0
  H  H8  1  0.52854629  0.30547980  0.74674964  1.0
  H  H9  1  0.52854629  0.19452020  0.24674964  1.0
  H  H10  1  0.47145371  0.69452020  0.25325036  1.0
  H  H11  1  0.47145371  0.80547981  0.75325036  1.0
  H  H12  1  0.07783321  0.50671327  0.58305011  1.0
  H  H13  1  0.07783321  -0.00671327  0.08305011  1.0
  H  H14  1  0.92216679  0.49328673  0.41694989  1.0
  H  H15  1  0.92216679  1.00671327  0.91694989  1.0
  H  H16  1  0.22071515  0.34772656  0.65752057  1.0
  H  H17  1  0.22071515  0.15227344  0.15752057  1.0
  H  H18  1  0.77928485  0.65227344  0.34247943  1.0
  H  H19  1  0.77928485  0.84772656  0.84247943  1.0
  H  H20  1  0.18297921  0.18122168  0.57618631  1.0
  H  H21  1  0.18297921  0.31877832  0.07618631  1.0
  H  H22  1  0.81702079  0.81877832  0.42381369  1.0
  H  H23  1  0.81702079  0.68122168  0.92381369  1.0
  H  H24  1  0.73444842  0.56268363  0.63567788  1.0
  H  H25  1  0.73444842  0.93731637  0.13567788  1.0
  H  H26  1  0.26555158  0.43731637  0.36432212  1.0
  H  H27  1  0.26555158  0.06268363  0.86432212  1.0
  H  H28  1  0.65442885  0.87890820  0.66437591  1.0
  H  H29  1  0.65442885  0.62109180  0.16437591  1.0
  H  H30  1  0.34557115  0.12109180  0.33562409  1.0
  H  H31  1  0.34557115  0.37890820  0.83562409  1.0
  H  H32  1  0.58642924  0.79481170  0.57573386  1.0
  H  H33  1  0.58642924  0.70518830  0.07573386  1.0
  H  H34  1  0.41357076  0.20518830  0.42426614  1.0
  H  H35  1  0.41357076  0.29481170  0.92426614  1.0
  Pt  Pt36  1  0.90953404  0.04373560  0.61583019  1.0
  Pt  Pt37  1  0.90953404  0.45626440  0.11583019  1.0
  Pt  Pt38  1  0.09046596  0.95626440  0.38416981  1.0
  Pt  Pt39  1  0.09046596  0.54373560  0.88416981  1.0
  N  N40  1  0.12284596  0.29713310  0.60788660  1.0
  N  N41  1  0.12284596  0.20286690  0.10788660  1.0
  N  N42  1  0.87715404  0.70286690  0.39211340  1.0
  N  N43  1  0.87715404  0.79713310  0.89211340  1.0
  N  N44  1  0.69609157  0.79057290  0.62398167  1.0
  N  N45  1  0.69609157  0.70942710  0.12398167  1.0
  N  N46  1  0.30390843  0.20942710  0.37601833  1.0
  N  N47  1  0.30390843  0.29057290  0.87601833  1.0
  Cl  Cl48  1  0.73748411  0.17987241  0.49674692  1.0
  Cl  Cl49  1  0.73748411  0.32012759  0.99674692  1.0
  Cl  Cl50  1  0.26251589  0.82012759  0.50325308  1.0
  Cl  Cl51  1  0.26251589  0.67987241  0.00325308  1.0
  O  O52  1  0.06593993  0.93778039  0.72055985  1.0
  O  O53  1  0.06593993  0.56221961  0.22055985  1.0
  O  O54  1  0.93406007  0.06221961  0.27944015  1.0
  O  O55  1  0.93406007  0.43778039  0.77944015  1.0
  O  O56  1  0.61874874  0.14343478  0.74911903  1.0
  O  O57  1  0.61874874  0.35656522  0.24911903  1.0
  O  O58  1  0.38125126  0.85656522  0.25088097  1.0
  O  O59  1  0.38125126  0.64343478  0.75088097  1.0
