# generated using pymatgen
data_CuGeO3
_symmetry_space_group_name_H-M   'P 1'
_cell_length_a   9.11217322
_cell_length_b   9.11217322
_cell_length_c   9.11217322
_cell_angle_alpha   111.64525842
_cell_angle_beta   111.64525842
_cell_angle_gamma   111.64525842
_symmetry_Int_Tables_number   1
_chemical_formula_structural   CuGeO3
_chemical_formula_sum   'Cu6 Ge6 O18'
_cell_volume   530.40673075
_cell_formula_units_Z   6
loop_
 _symmetry_equiv_pos_site_id
 _symmetry_equiv_pos_as_xyz
  1  'x, y, z'
loop_
 _atom_site_type_symbol
 _atom_site_label
 _atom_site_symmetry_multiplicity
 _atom_site_fract_x
 _atom_site_fract_y
 _atom_site_fract_z
 _atom_site_occupancy
  O  O0  1  0.98978432  0.02748765  0.28174352  1.0
  O  O1  1  0.71825648  0.01021568  -0.02748765  1.0
  O  O2  1  0.97251235  0.71825648  0.01021568  1.0
  O  O3  1  1.01021568  0.97251235  0.71825648  1.0
  O  O4  1  0.28174352  -0.01021568  0.02748765  1.0
  O  O5  1  1.02748765  1.28174352  -0.01021568  1.0
  O  O6  1  0.91832338  0.32934858  0.37688047  1.0
  O  O7  1  0.62311953  0.08167662  -0.32934858  1.0
  O  O8  1  0.67065142  0.62311953  0.08167662  1.0
  O  O9  1  1.08167662  0.67065142  0.62311953  1.0
  O  O10  1  0.37688047  0.91832338  -0.67065142  1.0
  O  O11  1  1.32934858  1.37688047  -0.08167662  1.0
  O  O12  1  1.06533763  0.78506716  0.38093870  1.0
  O  O13  1  0.61906130  -0.06533763  0.21493284  1.0
  O  O14  1  1.21493284  1.61906130  -0.06533763  1.0
  O  O15  1  0.93466237  1.21493284  -0.38093870  1.0
  O  O16  1  0.38093870  0.06533763  -0.21493284  1.0
  O  O17  1  0.78506716  0.38093870  0.06533763  1.0
  Cu  Cu18  1  0.95645095  0.53716636  0.34414607  1.0
  Cu  Cu19  1  0.65585393  1.04354905  -0.53716636  1.0
  Cu  Cu20  1  0.46283364  -0.34414607  0.04354905  1.0
  Cu  Cu21  1  1.04354905  0.46283364  0.65585393  1.0
  Cu  Cu22  1  1.34414607  0.95645095  0.53716636  1.0
  Cu  Cu23  1  0.53716636  0.34414607  -0.04354905  1.0
  Ge  Ge24  1  0.81575985  0.08001003  0.21507991  1.0
  Ge  Ge25  1  0.78492009  0.18424015  -0.08001003  1.0
  Ge  Ge26  1  0.91998997  0.78492009  0.18424015  1.0
  Ge  Ge27  1  1.18424015  0.91998997  0.78492009  1.0
  Ge  Ge28  1  0.21507991  0.81575985  -0.91998997  1.0
  Ge  Ge29  1  1.08001003  1.21507991  -0.18424015  1.0
