# generated using pymatgen
data_LaSI
_symmetry_space_group_name_H-M   'P 1'
_cell_length_a   7.15434985
_cell_length_b   14.83134389
_cell_length_c   7.38966931
_cell_angle_alpha   90.00000000
_cell_angle_beta   90.00000000
_cell_angle_gamma   90.00000000
_symmetry_Int_Tables_number   1
_chemical_formula_structural   LaSI
_chemical_formula_sum   'La8 S8 I8'
_cell_volume   784.10763425
_cell_formula_units_Z   8
loop_
 _symmetry_equiv_pos_site_id
 _symmetry_equiv_pos_as_xyz
  1  'x, y, z'
loop_
 _atom_site_type_symbol
 _atom_site_label
 _atom_site_symmetry_multiplicity
 _atom_site_fract_x
 _atom_site_fract_y
 _atom_site_fract_z
 _atom_site_occupancy
  La  La0  1  0.24387024  0.08452396  0.47252312  1.0
  La  La1  1  0.24387024  0.41547604  0.97252312  1.0
  La  La2  1  0.74387024  0.08452396  0.02747688  1.0
  La  La3  1  0.74387024  0.41547604  0.52747688  1.0
  La  La4  1  0.75612976  0.58452396  0.02747688  1.0
  La  La5  1  0.75612976  0.91547604  0.52747688  1.0
  La  La6  1  0.25612976  0.58452396  0.47252312  1.0
  La  La7  1  0.25612976  0.91547604  0.97252312  1.0
  S  S8  1  0.50044916  0.47950943  0.24324475  1.0
  S  S9  1  0.50044916  0.02049057  0.74324475  1.0
  S  S10  1  1.00044916  0.47950943  0.25675525  1.0
  S  S11  1  1.00044916  0.02049057  0.75675525  1.0
  S  S12  1  0.49955084  0.97950943  0.25675525  1.0
  S  S13  1  0.49955084  0.52049057  0.75675525  1.0
  S  S14  1  -0.00044916  0.97950943  0.24324475  1.0
  S  S15  1  -0.00044916  0.52049057  0.74324475  1.0
  I  I16  1  0.32766827  0.20051976  0.09496948  1.0
  I  I17  1  0.32766827  0.29948024  0.59496948  1.0
  I  I18  1  0.82766827  0.20051976  0.40503052  1.0
  I  I19  1  0.82766827  0.29948024  0.90503052  1.0
  I  I20  1  0.67233173  0.70051976  0.40503052  1.0
  I  I21  1  0.67233173  0.79948024  0.90503052  1.0
  I  I22  1  0.17233173  0.70051976  0.09496948  1.0
  I  I23  1  0.17233173  0.79948024  0.59496948  1.0
