# generated using pymatgen
data_CaC2(NO)2
_symmetry_space_group_name_H-M   'P 1'
_cell_length_a   7.84884404
_cell_length_b   7.84884404
_cell_length_c   7.84884404
_cell_angle_alpha   95.04179806
_cell_angle_beta   95.04179806
_cell_angle_gamma   95.04179806
_symmetry_Int_Tables_number   1
_chemical_formula_structural   CaC2(NO)2
_chemical_formula_sum   'Ca6 C12 N12 O12'
_cell_volume   477.55634553
_cell_formula_units_Z   6
loop_
 _symmetry_equiv_pos_site_id
 _symmetry_equiv_pos_as_xyz
  1  'x, y, z'
loop_
 _atom_site_type_symbol
 _atom_site_label
 _atom_site_symmetry_multiplicity
 _atom_site_fract_x
 _atom_site_fract_y
 _atom_site_fract_z
 _atom_site_occupancy
  Ca  Ca0  1  0.74217288  0.03473902  0.37827160  1.0
  Ca  Ca1  1  1.24217288  -0.12172840  0.53473902  1.0
  Ca  Ca2  1  1.53473902  0.24217288  -0.12172840  1.0
  Ca  Ca3  1  1.03473902  0.37827160  -0.25782712  1.0
  Ca  Ca4  1  0.87827160  0.53473902  0.24217288  1.0
  Ca  Ca5  1  1.37827160  -0.25782712  0.03473902  1.0
  C  C6  1  0.34833688  1.11980615  -0.74452391  1.0
  C  C7  1  0.84833688  0.75547609  0.61980615  1.0
  C  C8  1  1.61980615  0.84833688  -0.24452391  1.0
  C  C9  1  1.11980615  0.25547609  -0.65166312  1.0
  C  C10  1  0.75547609  1.61980615  -0.15166312  1.0
  C  C11  1  0.25547609  0.34833688  0.11980615  1.0
  C  C12  1  1.04518204  -0.12882156  0.08864041  1.0
  C  C13  1  0.54518204  0.58864041  0.37117844  1.0
  C  C14  1  1.37117844  0.54518204  -0.41135959  1.0
  C  C15  1  0.87117844  0.08864041  0.04518204  1.0
  C  C16  1  0.58864041  1.37117844  -0.45481796  1.0
  C  C17  1  1.08864041  0.04518204  -0.12882156  1.0
  N  N18  1  1.22721625  0.13153805  -0.63237556  1.0
  N  N19  1  1.72721625  -0.13237556  0.63153805  1.0
  N  N20  1  1.63153805  0.72721625  -0.13237556  1.0
  N  N21  1  1.13153805  -0.63237556  0.22721625  1.0
  N  N22  1  0.86762444  0.63153805  0.72721625  1.0
  N  N23  1  0.36762444  0.22721625  0.13153805  1.0
  N  N24  1  0.91128359  0.95540029  0.13587125  1.0
  N  N25  1  1.41128359  -0.36412875  0.45540029  1.0
  N  N26  1  1.45540029  0.41128359  -0.36412875  1.0
  N  N27  1  0.95540029  1.13587125  -0.08871641  1.0
  N  N28  1  0.63587125  0.45540029  0.41128359  1.0
  N  N29  1  1.13587125  0.91128359  -0.04459971  1.0
  O  O30  1  1.44517158  -0.00546311  0.26839929  1.0
  O  O31  1  0.94517158  0.76839929  0.49453689  1.0
  O  O32  1  1.49453689  0.94517158  -0.23160071  1.0
  O  O33  1  0.99453689  0.26839929  0.44517158  1.0
  O  O34  1  0.76839929  1.49453689  -0.05482842  1.0
  O  O35  1  1.26839929  0.44517158  -0.00546311  1.0
  O  O36  1  1.09587611  -0.25237144  0.17325020  1.0
  O  O37  1  0.59587611  0.67325020  0.24762856  1.0
  O  O38  1  1.24762856  0.59587611  -0.32674980  1.0
  O  O39  1  0.74762856  0.17325020  0.09587611  1.0
  O  O40  1  0.67325020  1.24762856  -0.40412389  1.0
  O  O41  1  1.17325020  0.09587611  -0.25237144  1.0
