# generated using pymatgen
data_Gd2Mn3Si5
_symmetry_space_group_name_H-M   'P 1'
_cell_length_a   10.62736607
_cell_length_b   10.62736607
_cell_length_c   5.46461986
_cell_angle_alpha   90.00000000
_cell_angle_beta   90.00000000
_cell_angle_gamma   90.00000000
_symmetry_Int_Tables_number   1
_chemical_formula_structural   Gd2Mn3Si5
_chemical_formula_sum   'Gd8 Mn12 Si20'
_cell_volume   617.17913745
_cell_formula_units_Z   4
loop_
 _symmetry_equiv_pos_site_id
 _symmetry_equiv_pos_as_xyz
  1  'x, y, z'
loop_
 _atom_site_type_symbol
 _atom_site_label
 _atom_site_symmetry_multiplicity
 _atom_site_fract_x
 _atom_site_fract_y
 _atom_site_fract_z
 _atom_site_occupancy
  Mn  Mn0  1  0.50000000  0.00000000  0.25000000  1.0
  Mn  Mn1  1  0.50000000  0.00000000  0.75000000  1.0
  Mn  Mn2  1  0.00000000  0.50000000  0.75000000  1.0
  Mn  Mn3  1  0.00000000  0.50000000  0.25000000  1.0
  Mn  Mn4  1  0.35448915  0.62051870  0.50000000  1.0
  Mn  Mn5  1  0.85448915  0.87948130  0.00000000  1.0
  Mn  Mn6  1  0.37948130  0.35448915  0.50000000  1.0
  Mn  Mn7  1  0.87948130  0.14551085  0.00000000  1.0
  Mn  Mn8  1  0.64551085  0.37948130  0.50000000  1.0
  Mn  Mn9  1  0.14551085  0.12051870  0.00000000  1.0
  Mn  Mn10  1  0.62051870  0.64551085  0.50000000  1.0
  Mn  Mn11  1  0.12051870  0.85448915  0.00000000  1.0
  Gd  Gd12  1  0.23595127  0.92376866  0.50000000  1.0
  Gd  Gd13  1  0.73595127  0.57623134  0.00000000  1.0
  Gd  Gd14  1  0.07623134  0.23595127  0.50000000  1.0
  Gd  Gd15  1  0.57623134  0.26404873  0.00000000  1.0
  Gd  Gd16  1  0.76404873  0.07623134  0.50000000  1.0
  Gd  Gd17  1  0.26404873  0.42376866  0.00000000  1.0
  Gd  Gd18  1  0.92376866  0.76404873  0.50000000  1.0
  Gd  Gd19  1  0.42376866  0.73595127  0.00000000  1.0
  Si  Si20  1  0.47639036  0.81501240  0.50000000  1.0
  Si  Si21  1  0.97639036  0.68498760  0.00000000  1.0
  Si  Si22  1  0.18498760  0.47639036  0.50000000  1.0
  Si  Si23  1  0.68498760  0.02360964  0.00000000  1.0
  Si  Si24  1  0.52360964  0.18498760  0.50000000  1.0
  Si  Si25  1  0.02360964  0.31501240  0.00000000  1.0
  Si  Si26  1  0.81501240  0.52360964  0.50000000  1.0
  Si  Si27  1  0.31501240  0.97639036  0.00000000  1.0
  Si  Si28  1  0.32602165  0.17397835  0.25000000  1.0
  Si  Si29  1  0.32602165  0.17397835  0.75000000  1.0
  Si  Si30  1  0.82602165  0.32602165  0.75000000  1.0
  Si  Si31  1  0.82602165  0.32602165  0.25000000  1.0
  Si  Si32  1  0.67397835  0.82602165  0.25000000  1.0
  Si  Si33  1  0.67397835  0.82602165  0.75000000  1.0
  Si  Si34  1  0.17397835  0.67397835  0.75000000  1.0
  Si  Si35  1  0.17397835  0.67397835  0.25000000  1.0
  Si  Si36  1  0.50000000  0.50000000  0.26212878  1.0
  Si  Si37  1  0.50000000  0.50000000  0.73787122  1.0
  Si  Si38  1  0.00000000  0.00000000  0.76212878  1.0
  Si  Si39  1  0.00000000  0.00000000  0.23787122  1.0
