# generated using pymatgen
data_HgPtF6
_symmetry_space_group_name_H-M   'P 1'
_cell_length_a   5.86044767
_cell_length_b   5.86044767
_cell_length_c   5.86044767
_cell_angle_alpha   54.18790388
_cell_angle_beta   54.18790388
_cell_angle_gamma   54.18790388
_symmetry_Int_Tables_number   1
_chemical_formula_structural   HgPtF6
_chemical_formula_sum   'Hg1 Pt1 F6'
_cell_volume   123.01589481
_cell_formula_units_Z   1
loop_
 _symmetry_equiv_pos_site_id
 _symmetry_equiv_pos_as_xyz
  1  'x, y, z'
loop_
 _atom_site_type_symbol
 _atom_site_label
 _atom_site_symmetry_multiplicity
 _atom_site_fract_x
 _atom_site_fract_y
 _atom_site_fract_z
 _atom_site_occupancy
  Hg  Hg0  1  0.50000000  0.50000000  -0.50000000  1.0
  Pt  Pt1  1  -0.00000000  0.00000000  0.00000000  1.0
  F  F2  1  0.06545733  0.78336017  -0.61873495  1.0
  F  F3  1  0.61873495  -0.06545733  0.21663983  1.0
  F  F4  1  1.21663983  -0.38126505  -0.06545733  1.0
  F  F5  1  0.93454267  0.21663983  -0.38126505  1.0
  F  F6  1  0.38126505  0.06545733  -0.21663983  1.0
  F  F7  1  0.78336017  0.38126505  -0.93454267  1.0
