# generated using pymatgen
data_NaAg2AsS3O
_symmetry_space_group_name_H-M   'P 1'
_cell_length_a   6.16147482
_cell_length_b   10.36210294
_cell_length_c   6.74022277
_cell_angle_alpha   68.73378558
_cell_angle_beta   60.23687234
_cell_angle_gamma   86.48130967
_symmetry_Int_Tables_number   1
_chemical_formula_structural   NaAg2AsS3O
_chemical_formula_sum   'Na2 Ag4 As2 S6 O2'
_cell_volume   344.36313618
_cell_formula_units_Z   2
loop_
 _symmetry_equiv_pos_site_id
 _symmetry_equiv_pos_as_xyz
  1  'x, y, z'
loop_
 _atom_site_type_symbol
 _atom_site_label
 _atom_site_symmetry_multiplicity
 _atom_site_fract_x
 _atom_site_fract_y
 _atom_site_fract_z
 _atom_site_occupancy
  Na  Na0  1  -0.58091940  -0.94668244  -0.71768945  1.0
  Na  Na1  1  -0.41908060  -0.05331756  -0.28231055  1.0
  Ag  Ag2  1  -0.84411169  -0.74758891  -0.30893874  1.0
  Ag  Ag3  1  -0.15588831  -0.25241109  -0.69106126  1.0
  Ag  Ag4  1  -0.58179321  -0.43537517  -0.73962207  1.0
  Ag  Ag5  1  -0.41820679  -0.56462483  -0.26037793  1.0
  As  As6  1  -0.90393301  -0.34225342  -0.25510039  1.0
  As  As7  1  -0.09606699  -0.65774658  -0.74489961  1.0
  S  S8  1  -0.96816504  -0.85004290  -0.86379100  1.0
  S  S9  1  -0.03183496  -0.14995710  -0.13620900  1.0
  S  S10  1  -0.75276159  -0.23005686  -0.67099368  1.0
  S  S11  1  -0.24723841  -0.76994314  -0.32900632  1.0
  S  S12  1  -0.47163989  -0.66205200  -0.74250288  1.0
  S  S13  1  -0.52836011  -0.33794800  -0.25749712  1.0
  O  O14  1  -0.20752854  -0.96620658  -0.71399068  1.0
  O  O15  1  -0.79247146  -0.03379342  -0.28600932  1.0
