# generated using pymatgen
data_Fe2Cu(P2O7)2
_symmetry_space_group_name_H-M   'P 1'
_cell_length_a   6.72168816
_cell_length_b   5.26560261
_cell_length_c   17.15713884
_cell_angle_alpha   90.00000000
_cell_angle_beta   111.10695000
_cell_angle_gamma   90.00000000
_symmetry_Int_Tables_number   1
_chemical_formula_structural   Fe2Cu(P2O7)2
_chemical_formula_sum   'Fe4 Cu2 P8 O28'
_cell_volume   566.51444727
_cell_formula_units_Z   2
loop_
 _symmetry_equiv_pos_site_id
 _symmetry_equiv_pos_as_xyz
  1  'x, y, z'
loop_
 _atom_site_type_symbol
 _atom_site_label
 _atom_site_symmetry_multiplicity
 _atom_site_fract_x
 _atom_site_fract_y
 _atom_site_fract_z
 _atom_site_occupancy
  Fe  Fe0  1  0.78120150  0.25007995  0.12280027  1.0
  Fe  Fe1  1  0.78120150  0.24992005  0.62280027  1.0
  Fe  Fe2  1  0.21879850  0.75007995  0.37719973  1.0
  Fe  Fe3  1  0.21879850  0.74992005  0.87719973  1.0
  O  O4  1  0.96895589  1.00088227  0.88286940  1.0
  O  O5  1  0.96895589  0.49911773  0.38286940  1.0
  O  O6  1  0.03104411  0.50088227  0.61713060  1.0
  O  O7  1  0.03104411  -0.00088227  0.11713060  1.0
  O  O8  1  0.74470177  0.29706092  0.48734727  1.0
  O  O9  1  0.74470177  0.20293908  0.98734727  1.0
  O  O10  1  0.25529823  0.79706092  0.01265273  1.0
  O  O11  1  0.25529823  0.70293908  0.51265273  1.0
  O  O12  1  0.64396855  0.21956654  0.33019017  1.0
  O  O13  1  0.64396855  0.28043346  0.83019017  1.0
  O  O14  1  0.35603145  0.71956654  0.16980983  1.0
  O  O15  1  0.35603145  0.78043346  0.66980983  1.0
  O  O16  1  0.52927193  0.46361151  0.08833942  1.0
  O  O17  1  0.52927193  0.03638849  0.58833942  1.0
  O  O18  1  0.47072807  0.96361151  0.41166058  1.0
  O  O19  1  0.47072807  0.53638849  0.91166058  1.0
  O  O20  1  0.98605885  0.98075292  0.62088553  1.0
  O  O21  1  0.98605885  0.51924708  0.12088553  1.0
  O  O22  1  0.01394115  0.48075292  0.87911447  1.0
  O  O23  1  0.01394115  0.01924708  0.37911447  1.0
  O  O24  1  0.86980134  0.28016325  0.24278987  1.0
  O  O25  1  0.86980134  0.21983675  0.74278987  1.0
  O  O26  1  0.13019866  0.78016325  0.25721013  1.0
  O  O27  1  0.13019866  0.71983675  0.75721013  1.0
  O  O28  1  0.38043720  0.43484506  0.38174230  1.0
  O  O29  1  0.38043720  0.06515494  0.88174230  1.0
  O  O30  1  0.61956280  0.93484506  0.11825770  1.0
  O  O31  1  0.61956280  0.56515494  0.61825770  1.0
  Cu  Cu32  1  0.00000000  0.50000000  0.50000000  1.0
  Cu  Cu33  1  0.00000000  0.00000000  0.00000000  1.0
  P  P34  1  0.88609094  0.24694452  0.33273122  1.0
  P  P35  1  0.88609094  0.25305548  0.83273122  1.0
  P  P36  1  0.11390906  0.74694452  0.16726878  1.0
  P  P37  1  0.11390906  0.75305548  0.66726878  1.0
  P  P38  1  0.55232217  0.23165736  0.40578085  1.0
  P  P39  1  0.55232217  0.26834264  0.90578085  1.0
  P  P40  1  0.44767783  0.73165736  0.09421915  1.0
  P  P41  1  0.44767783  0.76834264  0.59421915  1.0
