# generated using pymatgen
data_Y2SiO5
_symmetry_space_group_name_H-M   'P 1'
_cell_length_a   8.01562131
_cell_length_b   8.01562131
_cell_length_c   10.51641515
_cell_angle_alpha   61.26180567
_cell_angle_beta   118.73819433
_cell_angle_gamma   129.70100759
_symmetry_Int_Tables_number   1
_chemical_formula_structural   Y2SiO5
_chemical_formula_sum   'Y8 Si4 O20'
_cell_volume   440.46352608
_cell_formula_units_Z   4
loop_
 _symmetry_equiv_pos_site_id
 _symmetry_equiv_pos_as_xyz
  1  'x, y, z'
loop_
 _atom_site_type_symbol
 _atom_site_label
 _atom_site_symmetry_multiplicity
 _atom_site_fract_x
 _atom_site_fract_y
 _atom_site_fract_z
 _atom_site_occupancy
  Y  Y0  1  1.70707041  -0.21896726  0.03175586  1.0
  Y  Y1  1  1.21896726  -0.70707041  0.53175586  1.0
  Y  Y2  1  0.78103274  0.70707041  0.46824414  1.0
  Y  Y3  1  0.29292959  0.21896726  0.96824414  1.0
  Y  Y4  1  0.52482206  0.23977388  0.33795437  1.0
  Y  Y5  1  0.76022612  0.47517794  0.83795437  1.0
  Y  Y6  1  1.23977388  -0.47517794  0.16204563  1.0
  Y  Y7  1  1.47517794  -0.23977388  0.66204563  1.0
  Si  Si8  1  0.72770283  0.09152602  0.19434810  1.0
  Si  Si9  1  0.90847398  -0.72770283  0.69434810  1.0
  Si  Si10  1  1.09152602  0.72770283  0.30565190  1.0
  Si  Si11  1  1.27229717  -0.09152602  0.80565190  1.0
  O  O12  1  0.89925488  0.08008136  0.36321272  1.0
  O  O13  1  0.91991864  -0.89925488  0.86321272  1.0
  O  O14  1  1.08008136  0.89925488  0.13678728  1.0
  O  O15  1  1.10074512  -0.08008136  0.63678728  1.0
  O  O16  1  1.59500395  -0.16323882  0.17465070  1.0
  O  O17  1  1.16323882  -0.59500395  0.67465070  1.0
  O  O18  1  0.83676118  0.59500395  0.32534930  1.0
  O  O19  1  0.40499605  0.16323882  0.82534930  1.0
  O  O20  1  0.27548850  -0.12740046  0.43184342  1.0
  O  O21  1  1.12740046  0.72451150  0.93184342  1.0
  O  O22  1  0.87259954  -0.72451150  0.06815658  1.0
  O  O23  1  1.72451150  0.12740046  0.56815658  1.0
  O  O24  1  0.55413540  0.14913565  0.17660201  1.0
  O  O25  1  0.85086435  -0.55413540  0.67660201  1.0
  O  O26  1  1.14913565  0.55413540  0.32339799  1.0
  O  O27  1  1.44586460  -0.14913565  0.82339799  1.0
  O  O28  1  0.42257585  0.38974337  0.39545237  1.0
  O  O29  1  0.61025663  0.57742415  0.89545237  1.0
  O  O30  1  1.38974337  -0.57742415  0.10454763  1.0
  O  O31  1  1.57742415  -0.38974337  0.60454763  1.0
