# generated using pymatgen
data_CsMgAsO10
_symmetry_space_group_name_H-M   'P 1'
_cell_length_a   7.50584353
_cell_length_b   7.50584353
_cell_length_c   7.50584353
_cell_angle_alpha   60.00000000
_cell_angle_beta   60.00000000
_cell_angle_gamma   60.00000000
_symmetry_Int_Tables_number   1
_chemical_formula_structural   CsMgAsO10
_chemical_formula_sum   'Cs1 Mg1 As1 O10'
_cell_volume   299.00849109
_cell_formula_units_Z   1
loop_
 _symmetry_equiv_pos_site_id
 _symmetry_equiv_pos_as_xyz
  1  'x, y, z'
loop_
 _atom_site_type_symbol
 _atom_site_label
 _atom_site_symmetry_multiplicity
 _atom_site_fract_x
 _atom_site_fract_y
 _atom_site_fract_z
 _atom_site_occupancy
  Cs  Cs0  1  0.00000000  0.00000000  0.00000000  1.0
  Mg  Mg1  1  -0.50000000  0.50000000  0.50000000  1.0
  As  As2  1  0.75000000  0.75000000  -0.25000000  1.0
  O  O3  1  -0.69013241  0.69013241  0.69013241  1.0
  O  O4  1  -0.30986759  0.69013241  0.30986759  1.0
  O  O5  1  -0.30986759  0.30986759  0.69013241  1.0
  O  O6  1  0.30986759  1.30986759  -0.30986759  1.0
  O  O7  1  0.30986759  -0.30986759  0.30986759  1.0
  O  O8  1  -0.30986759  0.30986759  0.30986759  1.0
  O  O9  1  0.84441000  0.84441000  -0.15559000  1.0
  O  O10  1  0.46676999  0.84441000  -0.15559000  1.0
  O  O11  1  0.84441000  0.84441000  -0.53323001  1.0
  O  O12  1  0.84441000  0.46676999  -0.15559000  1.0
