# generated using pymatgen
data_Li2Co(SO4)2
_symmetry_space_group_name_H-M   'P 1'
_cell_length_a   5.03463075
_cell_length_b   8.16608533
_cell_length_c   8.91485524
_cell_angle_alpha   90.00000000
_cell_angle_beta   121.69083708
_cell_angle_gamma   90.00000000
_symmetry_Int_Tables_number   1
_chemical_formula_structural   Li2Co(SO4)2
_chemical_formula_sum   'Li4 Co2 S4 O16'
_cell_volume   311.86875915
_cell_formula_units_Z   2
loop_
 _symmetry_equiv_pos_site_id
 _symmetry_equiv_pos_as_xyz
  1  'x, y, z'
loop_
 _atom_site_type_symbol
 _atom_site_label
 _atom_site_symmetry_multiplicity
 _atom_site_fract_x
 _atom_site_fract_y
 _atom_site_fract_z
 _atom_site_occupancy
  Li  Li0  1  0.99186653  0.86317349  0.40001548  1.0
  Li  Li1  1  0.99186653  0.63682651  0.90001548  1.0
  Li  Li2  1  0.00813347  0.36317349  0.09998452  1.0
  Li  Li3  1  0.00813347  0.13682651  0.59998452  1.0
  Co  Co4  1  0.00000000  0.50000000  0.50000000  1.0
  Co  Co5  1  0.00000000  0.00000000  0.00000000  1.0
  S  S6  1  0.66569443  0.19446103  0.19841290  1.0
  S  S7  1  0.66569443  0.30553897  0.69841290  1.0
  S  S8  1  0.33430557  0.69446103  0.30158710  1.0
  S  S9  1  0.33430557  0.80553897  0.80158710  1.0
  O  O10  1  0.79628528  0.36457083  0.25476984  1.0
  O  O11  1  0.79628528  0.13542917  0.75476984  1.0
  O  O12  1  0.20371472  0.86457083  0.24523016  1.0
  O  O13  1  0.20371472  0.63542917  0.74523016  1.0
  O  O14  1  0.81759330  0.07907965  0.34804316  1.0
  O  O15  1  0.81759330  0.42092035  0.84804316  1.0
  O  O16  1  0.18240670  0.57907965  0.15195684  1.0
  O  O17  1  0.18240670  0.92092035  0.65195684  1.0
  O  O18  1  0.72106035  0.14822299  0.05432403  1.0
  O  O19  1  0.72106035  0.35177701  0.55432403  1.0
  O  O20  1  0.27893965  0.64822299  0.44567597  1.0
  O  O21  1  0.27893965  0.85177701  0.94567597  1.0
  O  O22  1  0.31910945  0.19599402  0.12349574  1.0
  O  O23  1  0.31910945  0.30400598  0.62349574  1.0
  O  O24  1  0.68089055  0.69599402  0.37650426  1.0
  O  O25  1  0.68089055  0.80400598  0.87650426  1.0
