# generated using pymatgen
data_TlFeCl3
_symmetry_space_group_name_H-M   'P 1'
_cell_length_a   7.15058461
_cell_length_b   7.15058461
_cell_length_c   5.77310084
_cell_angle_alpha   90.00000000
_cell_angle_beta   90.00000000
_cell_angle_gamma   120.00000000
_symmetry_Int_Tables_number   1
_chemical_formula_structural   TlFeCl3
_chemical_formula_sum   'Tl2 Fe2 Cl6'
_cell_volume   255.63650739
_cell_formula_units_Z   2
loop_
 _symmetry_equiv_pos_site_id
 _symmetry_equiv_pos_as_xyz
  1  'x, y, z'
loop_
 _atom_site_type_symbol
 _atom_site_label
 _atom_site_symmetry_multiplicity
 _atom_site_fract_x
 _atom_site_fract_y
 _atom_site_fract_z
 _atom_site_occupancy
  Tl  Tl0  1  0.33333333  0.66666667  0.75000000  1.0
  Tl  Tl1  1  0.66666667  0.33333333  0.25000000  1.0
  Fe  Fe2  1  0.00000000  0.00000000  0.50000000  1.0
  Fe  Fe3  1  0.00000000  0.00000000  -0.00000000  1.0
  Cl  Cl4  1  0.16198582  0.83801418  0.25000000  1.0
  Cl  Cl5  1  0.16198582  0.32397165  0.25000000  1.0
  Cl  Cl6  1  0.83801418  0.16198582  0.75000000  1.0
  Cl  Cl7  1  0.83801418  0.67602835  0.75000000  1.0
  Cl  Cl8  1  0.67602835  0.83801418  0.25000000  1.0
  Cl  Cl9  1  0.32397165  0.16198582  0.75000000  1.0
