# generated using pymatgen
data_LuNiGe
_symmetry_space_group_name_H-M   'P 1'
_cell_length_a   6.75177615
_cell_length_b   4.18042303
_cell_length_c   7.22525295
_cell_angle_alpha   90.00000000
_cell_angle_beta   90.00000000
_cell_angle_gamma   90.00000000
_symmetry_Int_Tables_number   1
_chemical_formula_structural   LuNiGe
_chemical_formula_sum   'Lu4 Ni4 Ge4'
_cell_volume   203.93479122
_cell_formula_units_Z   4
loop_
 _symmetry_equiv_pos_site_id
 _symmetry_equiv_pos_as_xyz
  1  'x, y, z'
loop_
 _atom_site_type_symbol
 _atom_site_label
 _atom_site_symmetry_multiplicity
 _atom_site_fract_x
 _atom_site_fract_y
 _atom_site_fract_z
 _atom_site_occupancy
  Lu  Lu0  1  0.00661819  0.75000000  0.70567524  1.0
  Lu  Lu1  1  0.50661819  0.75000000  0.79432476  1.0
  Lu  Lu2  1  0.99338181  0.25000000  0.29432476  1.0
  Lu  Lu3  1  0.49338181  0.25000000  0.20567524  1.0
  Ni  Ni4  1  0.80790744  0.75000000  0.08079340  1.0
  Ni  Ni5  1  0.30790744  0.75000000  0.41920660  1.0
  Ni  Ni6  1  0.19209256  0.25000000  0.91920660  1.0
  Ni  Ni7  1  0.69209256  0.25000000  0.58079340  1.0
  Ge  Ge8  1  0.69866509  0.75000000  0.40985360  1.0
  Ge  Ge9  1  0.19866509  0.75000000  0.09014640  1.0
  Ge  Ge10  1  0.30133491  0.25000000  0.59014640  1.0
  Ge  Ge11  1  0.80133491  0.25000000  0.90985360  1.0
