# generated using pymatgen
data_VIr
_symmetry_space_group_name_H-M   'P 1'
_cell_length_a   4.45374435
_cell_length_b   4.45374435
_cell_length_c   2.81069166
_cell_angle_alpha   90.00000000
_cell_angle_beta   90.00000000
_cell_angle_gamma   98.43146333
_symmetry_Int_Tables_number   1
_chemical_formula_structural   VIr
_chemical_formula_sum   'V2 Ir2'
_cell_volume   55.14985230
_cell_formula_units_Z   2
loop_
 _symmetry_equiv_pos_site_id
 _symmetry_equiv_pos_as_xyz
  1  'x, y, z'
loop_
 _atom_site_type_symbol
 _atom_site_label
 _atom_site_symmetry_multiplicity
 _atom_site_fract_x
 _atom_site_fract_y
 _atom_site_fract_z
 _atom_site_occupancy
  V  V0  1  0.79637581  0.79637581  0.00000000  1.0
  V  V1  1  0.20362419  0.20362419  0.00000000  1.0
  Ir  Ir2  1  0.28432957  0.71567043  0.50000000  1.0
  Ir  Ir3  1  -0.28432957  1.28432957  0.50000000  1.0
