# generated using pymatgen
data_ReP4
_symmetry_space_group_name_H-M   'P 1'
_cell_length_a   6.27009040
_cell_length_b   9.29664583
_cell_length_c   10.93378514
_cell_angle_alpha   90.00000000
_cell_angle_beta   90.00000000
_cell_angle_gamma   90.00000000
_symmetry_Int_Tables_number   1
_chemical_formula_structural   ReP4
_chemical_formula_sum   'Re8 P32'
_cell_volume   637.33918965
_cell_formula_units_Z   8
loop_
 _symmetry_equiv_pos_site_id
 _symmetry_equiv_pos_as_xyz
  1  'x, y, z'
loop_
 _atom_site_type_symbol
 _atom_site_label
 _atom_site_symmetry_multiplicity
 _atom_site_fract_x
 _atom_site_fract_y
 _atom_site_fract_z
 _atom_site_occupancy
  Re  Re0  1  0.37822220  0.89030915  0.57530979  1.0
  Re  Re1  1  0.37822220  0.60969085  0.07530979  1.0
  Re  Re2  1  0.87822220  0.89030915  0.92469021  1.0
  Re  Re3  1  0.87822220  0.60969085  0.42469021  1.0
  Re  Re4  1  0.62177780  0.39030915  0.92469021  1.0
  Re  Re5  1  0.62177780  0.10969085  0.42469021  1.0
  Re  Re6  1  0.12177780  0.39030915  0.57530979  1.0
  Re  Re7  1  0.12177780  0.10969085  0.07530979  1.0
  P  P8  1  0.43800355  0.71785215  0.73572027  1.0
  P  P9  1  0.43800355  0.78214785  0.23572027  1.0
  P  P10  1  0.93800355  0.71785215  0.76427973  1.0
  P  P11  1  0.93800355  0.78214785  0.26427973  1.0
  P  P12  1  0.56199645  0.21785215  0.76427973  1.0
  P  P13  1  0.56199645  0.28214785  0.26427973  1.0
  P  P14  1  0.06199645  0.21785215  0.73572027  1.0
  P  P15  1  0.06199645  0.28214785  0.23572027  1.0
  P  P16  1  0.24475094  0.95624252  0.91853619  1.0
  P  P17  1  0.24475094  0.54375748  0.41853619  1.0
  P  P18  1  0.74475094  0.95624252  0.58146381  1.0
  P  P19  1  0.74475094  0.54375748  0.08146381  1.0
  P  P20  1  0.75524906  0.45624252  0.58146381  1.0
  P  P21  1  0.75524906  0.04375748  0.08146381  1.0
  P  P22  1  0.25524906  0.45624252  0.91853619  1.0
  P  P23  1  0.25524906  0.04375748  0.41853619  1.0
  P  P24  1  0.18801062  0.55217454  0.73785874  1.0
  P  P25  1  0.18801062  0.94782546  0.23785874  1.0
  P  P26  1  0.68801062  0.55217454  0.76214126  1.0
  P  P27  1  0.68801062  0.94782546  0.26214126  1.0
  P  P28  1  0.81198938  0.05217454  0.76214126  1.0
  P  P29  1  0.81198938  0.44782546  0.26214126  1.0
  P  P30  1  0.31198938  0.05217454  0.73785874  1.0
  P  P31  1  0.31198938  0.44782546  0.23785874  1.0
  P  P32  1  0.00185118  0.79082746  0.56900559  1.0
  P  P33  1  0.00185118  0.70917254  0.06900559  1.0
  P  P34  1  0.50185118  0.79082746  0.93099441  1.0
  P  P35  1  0.50185118  0.70917254  0.43099441  1.0
  P  P36  1  0.99814882  0.29082746  0.93099441  1.0
  P  P37  1  0.99814882  0.20917254  0.43099441  1.0
  P  P38  1  0.49814882  0.29082746  0.56900559  1.0
  P  P39  1  0.49814882  0.20917254  0.06900559  1.0
