# generated using pymatgen
data_GeSe2
_symmetry_space_group_name_H-M   'P 1'
_cell_length_a   6.45254469
_cell_length_b   6.45254469
_cell_length_c   6.45254469
_cell_angle_alpha   123.97313408
_cell_angle_beta   123.97313408
_cell_angle_gamma   83.24591414
_symmetry_Int_Tables_number   1
_chemical_formula_structural   GeSe2
_chemical_formula_sum   'Ge2 Se4'
_cell_volume   177.20840380
_cell_formula_units_Z   2
loop_
 _symmetry_equiv_pos_site_id
 _symmetry_equiv_pos_as_xyz
  1  'x, y, z'
loop_
 _atom_site_type_symbol
 _atom_site_label
 _atom_site_symmetry_multiplicity
 _atom_site_fract_x
 _atom_site_fract_y
 _atom_site_fract_z
 _atom_site_occupancy
  Ge  Ge0  1  0.75000000  0.25000000  0.50000000  1.0
  Ge  Ge1  1  1.00000000  1.00000000  1.00000000  1.0
  Se  Se2  1  1.10928637  1.12500000  1.48428637  1.0
  Se  Se3  1  1.37500000  0.89071363  1.01571363  1.0
  Se  Se4  1  0.87500000  1.35928637  0.98428637  1.0
  Se  Se5  1  0.64071363  0.62500000  0.51571363  1.0
