# generated using pymatgen
data_BaLi2(MgGe)2
_symmetry_space_group_name_H-M   'P 1'
_cell_length_a   9.15804058
_cell_length_b   9.15804058
_cell_length_c   9.15804058
_cell_angle_alpha   29.18340774
_cell_angle_beta   29.18340774
_cell_angle_gamma   29.18340774
_symmetry_Int_Tables_number   1
_chemical_formula_structural   BaLi2(MgGe)2
_chemical_formula_sum   'Ba1 Li2 Mg2 Ge2'
_cell_volume   161.56791015
_cell_formula_units_Z   1
loop_
 _symmetry_equiv_pos_site_id
 _symmetry_equiv_pos_as_xyz
  1  'x, y, z'
loop_
 _atom_site_type_symbol
 _atom_site_label
 _atom_site_symmetry_multiplicity
 _atom_site_fract_x
 _atom_site_fract_y
 _atom_site_fract_z
 _atom_site_occupancy
  Ba  Ba0  1  0.00000000  0.00000000  0.00000000  1.0
  Li  Li1  1  1.56910363  0.56910363  0.56910363  1.0
  Li  Li2  1  1.43089637  0.43089637  0.43089637  1.0
  Mg  Mg3  1  0.86379209  0.86379209  0.86379209  1.0
  Mg  Mg4  1  1.13620791  1.13620791  0.13620791  1.0
  Ge  Ge5  1  0.75677484  0.75677484  0.75677484  1.0
  Ge  Ge6  1  1.24322516  1.24322516  0.24322516  1.0
