# generated using pymatgen
data_SrB12(H3O2)4
_symmetry_space_group_name_H-M   'P 1'
_cell_length_a   7.40093286
_cell_length_b   7.40093286
_cell_length_c   7.40093286
_cell_angle_alpha   103.05478264
_cell_angle_beta   103.05478264
_cell_angle_gamma   103.05478264
_symmetry_Int_Tables_number   1
_chemical_formula_structural   SrB12(H3O2)4
_chemical_formula_sum   'Sr1 B12 H12 O8'
_cell_volume   367.95234976
_cell_formula_units_Z   1
loop_
 _symmetry_equiv_pos_site_id
 _symmetry_equiv_pos_as_xyz
  1  'x, y, z'
loop_
 _atom_site_type_symbol
 _atom_site_label
 _atom_site_symmetry_multiplicity
 _atom_site_fract_x
 _atom_site_fract_y
 _atom_site_fract_z
 _atom_site_occupancy
  Sr  Sr0  1  0.00000000  0.00000000  0.00000000  1.0
  B  B1  1  0.57618110  0.77799778  -0.40829407  1.0
  B  B2  1  0.77799778  0.59170593  -0.42381890  1.0
  B  B3  1  0.59170593  0.57618110  -0.22200222  1.0
  B  B4  1  0.42381890  0.22200222  -0.59170593  1.0
  B  B5  1  0.22200222  0.40829407  -0.57618110  1.0
  B  B6  1  0.40829407  0.42381890  -0.77799778  1.0
  B  B7  1  0.37581993  0.63570173  -0.60334731  1.0
  B  B8  1  0.63570173  0.39665269  -0.62418007  1.0
  B  B9  1  0.39665269  0.37581993  -0.36429827  1.0
  B  B10  1  0.62418007  0.36429827  -0.39665269  1.0
  B  B11  1  0.36429827  0.60334731  -0.37581993  1.0
  B  B12  1  0.60334731  0.62418007  -0.63570173  1.0
  H  H13  1  0.59957602  0.94888679  -0.37497983  1.0
  H  H14  1  0.94888679  0.62502017  -0.40042398  1.0
  H  H15  1  0.62502017  0.59957602  -0.05111321  1.0
  H  H16  1  0.40042398  0.05111321  -0.62502017  1.0
  H  H17  1  0.05111321  0.37497983  -0.59957602  1.0
  H  H18  1  0.37497983  0.40042398  -0.94888679  1.0
  H  H19  1  0.30191402  0.74742491  -0.66203258  1.0
  H  H20  1  0.74742491  0.33796742  -0.69808598  1.0
  H  H21  1  0.33796742  0.30191402  -0.25257509  1.0
  H  H22  1  0.69808598  0.25257509  -0.33796742  1.0
  H  H23  1  0.25257509  0.66203258  -0.30191402  1.0
  H  H24  1  0.66203258  0.69808598  -0.74742491  1.0
  O  O25  1  0.73438225  0.73438225  -0.26561775  1.0
  O  O26  1  1.26561775  1.26561775  0.26561775  1.0
  O  O27  1  0.97407680  0.98559625  0.57138171  1.0
  O  O28  1  0.98559625  1.57138171  -0.02592320  1.0
  O  O29  1  1.57138171  0.97407680  -0.01440375  1.0
  O  O30  1  1.02592320  0.01440375  0.42861829  1.0
  O  O31  1  1.01440375  0.42861829  0.02592320  1.0
  O  O32  1  1.42861829  0.02592320  0.01440375  1.0
