# generated using pymatgen
data_Hf3As
_symmetry_space_group_name_H-M   'P 1'
_cell_length_a   8.19535081
_cell_length_b   8.19535081
_cell_length_c   15.40694684
_cell_angle_alpha   89.69540213
_cell_angle_beta   90.30459787
_cell_angle_gamma   141.43412257
_symmetry_Int_Tables_number   1
_chemical_formula_structural   Hf3As
_chemical_formula_sum   'Hf24 As8'
_cell_volume   645.09158911
_cell_formula_units_Z   8
loop_
 _symmetry_equiv_pos_site_id
 _symmetry_equiv_pos_as_xyz
  1  'x, y, z'
loop_
 _atom_site_type_symbol
 _atom_site_label
 _atom_site_symmetry_multiplicity
 _atom_site_fract_x
 _atom_site_fract_y
 _atom_site_fract_z
 _atom_site_occupancy
  Hf  Hf0  1  0.69824761  -0.20322908  0.98349440  1.0
  Hf  Hf1  1  1.20322908  0.30175239  0.48349440  1.0
  Hf  Hf2  1  0.79677092  0.69824761  0.51650560  1.0
  Hf  Hf3  1  0.30175239  0.20322908  0.01650560  1.0
  Hf  Hf4  1  0.62078072  -0.06916771  0.48943675  1.0
  Hf  Hf5  1  1.06916771  0.37921928  0.98943675  1.0
  Hf  Hf6  1  0.93083229  0.62078072  0.01056325  1.0
  Hf  Hf7  1  0.37921928  0.06916771  0.51056325  1.0
  Hf  Hf8  1  0.50095136  -0.03158065  0.69885160  1.0
  Hf  Hf9  1  1.03158065  0.49904864  0.19885160  1.0
  Hf  Hf10  1  0.96841935  0.50095136  0.80114840  1.0
  Hf  Hf11  1  0.49904864  0.03158065  0.30114840  1.0
  Hf  Hf12  1  0.44862705  -0.02993031  0.90514865  1.0
  Hf  Hf13  1  1.02993031  0.55137295  0.40514865  1.0
  Hf  Hf14  1  0.97006969  0.44862705  0.59485135  1.0
  Hf  Hf15  1  0.55137295  0.02993031  0.09485135  1.0
  Hf  Hf16  1  0.54374025  0.37784108  0.69157760  1.0
  Hf  Hf17  1  0.62215892  0.45625975  0.19157760  1.0
  Hf  Hf18  1  1.37784108  0.54374025  0.80842240  1.0
  Hf  Hf19  1  0.45625975  -0.37784108  0.30842240  1.0
  Hf  Hf20  1  0.07668494  -0.03958685  0.83327501  1.0
  Hf  Hf21  1  1.03958685  0.92331506  0.33327501  1.0
  Hf  Hf22  1  0.96041315  0.07668494  0.66672499  1.0
  Hf  Hf23  1  0.92331506  0.03958685  0.16672499  1.0
  As  As24  1  0.83418736  0.07826475  0.83275412  1.0
  As  As25  1  0.92173525  0.16581264  0.33275412  1.0
  As  As26  1  1.07826475  0.83418736  0.66724588  1.0
  As  As27  1  0.16581264  -0.07826475  0.16724588  1.0
  As  As28  1  0.60516076  0.43639411  0.87170416  1.0
  As  As29  1  0.56360589  0.39483924  0.37170416  1.0
  As  As30  1  1.43639411  0.60516076  0.62829584  1.0
  As  As31  1  0.39483924  -0.43639411  0.12829584  1.0
