# generated using pymatgen
data_Ge19(PCl)4
_symmetry_space_group_name_H-M   'P 1'
_cell_length_a   10.50882332
_cell_length_b   10.50882332
_cell_length_c   10.50882332
_cell_angle_alpha   90.00000000
_cell_angle_beta   90.00000000
_cell_angle_gamma   90.00000000
_symmetry_Int_Tables_number   1
_chemical_formula_structural   Ge19(PCl)4
_chemical_formula_sum   'Ge38 P8 Cl8'
_cell_volume   1160.54576557
_cell_formula_units_Z   2
loop_
 _symmetry_equiv_pos_site_id
 _symmetry_equiv_pos_as_xyz
  1  'x, y, z'
loop_
 _atom_site_type_symbol
 _atom_site_label
 _atom_site_symmetry_multiplicity
 _atom_site_fract_x
 _atom_site_fract_y
 _atom_site_fract_z
 _atom_site_occupancy
  Ge  Ge0  1  0.49781080  0.19273586  0.61811181  1.0
  Ge  Ge1  1  0.49781080  0.80726414  0.38188819  1.0
  Ge  Ge2  1  0.99781080  0.88188819  0.30726414  1.0
  Ge  Ge3  1  0.99781080  0.11811181  0.69273586  1.0
  Ge  Ge4  1  0.38188819  0.49781080  0.80726414  1.0
  Ge  Ge5  1  0.38188819  0.50218920  0.19273586  1.0
  Ge  Ge6  1  0.88188819  0.69273586  0.00218920  1.0
  Ge  Ge7  1  0.88188819  0.30726414  0.99781080  1.0
  Ge  Ge8  1  0.19273586  0.38188819  0.50218920  1.0
  Ge  Ge9  1  0.19273586  0.61811181  0.49781080  1.0
  Ge  Ge10  1  0.69273586  0.99781080  0.11811181  1.0
  Ge  Ge11  1  0.69273586  0.00218920  0.88188819  1.0
  Ge  Ge12  1  0.50218920  0.19273586  0.38188819  1.0
  Ge  Ge13  1  0.50218920  0.80726414  0.61811181  1.0
  Ge  Ge14  1  0.00218920  0.88188819  0.69273586  1.0
  Ge  Ge15  1  0.00218920  0.11811181  0.30726414  1.0
  Ge  Ge16  1  0.61811181  0.49781080  0.19273586  1.0
  Ge  Ge17  1  0.61811181  0.50218920  0.80726414  1.0
  Ge  Ge18  1  0.11811181  0.69273586  0.99781080  1.0
  Ge  Ge19  1  0.11811181  0.30726414  0.00218920  1.0
  Ge  Ge20  1  0.80726414  0.38188819  0.49781080  1.0
  Ge  Ge21  1  0.80726414  0.61811181  0.50218920  1.0
  Ge  Ge22  1  0.30726414  0.99781080  0.88188819  1.0
  Ge  Ge23  1  0.30726414  0.00218920  0.11811181  1.0
  Ge  Ge24  1  0.18473445  0.18473445  0.81526555  1.0
  Ge  Ge25  1  0.18473445  0.81526555  0.18473445  1.0
  Ge  Ge26  1  0.68473445  0.68473445  0.31526555  1.0
  Ge  Ge27  1  0.68473445  0.31526555  0.68473445  1.0
  Ge  Ge28  1  0.81526555  0.18473445  0.18473445  1.0
  Ge  Ge29  1  0.81526555  0.81526555  0.81526555  1.0
  Ge  Ge30  1  0.31526555  0.68473445  0.68473445  1.0
  Ge  Ge31  1  0.31526555  0.31526555  0.31526555  1.0
  Ge  Ge32  1  0.25000000  0.50000000  -0.00000000  1.0
  Ge  Ge33  1  0.75000000  0.50000000  -0.00000000  1.0
  Ge  Ge34  1  0.00000000  0.25000000  0.50000000  1.0
  Ge  Ge35  1  0.00000000  0.75000000  0.50000000  1.0
  Ge  Ge36  1  0.50000000  0.00000000  0.25000000  1.0
  Ge  Ge37  1  0.50000000  0.00000000  0.75000000  1.0
  P  P38  1  0.31580688  0.31580688  0.68419312  1.0
  P  P39  1  0.31580688  0.68419312  0.31580688  1.0
  P  P40  1  0.81580688  0.81580688  0.18419312  1.0
  P  P41  1  0.81580688  0.18419312  0.81580688  1.0
  P  P42  1  0.68419312  0.31580688  0.31580688  1.0
  P  P43  1  0.68419312  0.68419312  0.68419312  1.0
  P  P44  1  0.18419312  0.81580688  0.81580688  1.0
  P  P45  1  0.18419312  0.18419312  0.18419312  1.0
  Cl  Cl46  1  0.25000000  0.00000000  0.50000000  1.0
  Cl  Cl47  1  0.75000000  0.00000000  0.50000000  1.0
  Cl  Cl48  1  0.50000000  0.25000000  0.00000000  1.0
  Cl  Cl49  1  0.50000000  0.75000000  0.00000000  1.0
  Cl  Cl50  1  0.00000000  0.50000000  0.25000000  1.0
  Cl  Cl51  1  0.00000000  0.50000000  0.75000000  1.0
  Cl  Cl52  1  0.50000000  0.50000000  0.50000000  1.0
  Cl  Cl53  1  0.00000000  0.00000000  0.00000000  1.0
