# generated using pymatgen
data_CsSnPS4
_symmetry_space_group_name_H-M   'P 1'
_cell_length_a   6.68272744
_cell_length_b   6.80752758
_cell_length_c   18.19791804
_cell_angle_alpha   90.00000000
_cell_angle_beta   90.00086419
_cell_angle_gamma   90.00000000
_symmetry_Int_Tables_number   1
_chemical_formula_structural   CsSnPS4
_chemical_formula_sum   'Cs4 Sn4 P4 S16'
_cell_volume   827.87518010
_cell_formula_units_Z   4
loop_
 _symmetry_equiv_pos_site_id
 _symmetry_equiv_pos_as_xyz
  1  'x, y, z'
loop_
 _atom_site_type_symbol
 _atom_site_label
 _atom_site_symmetry_multiplicity
 _atom_site_fract_x
 _atom_site_fract_y
 _atom_site_fract_z
 _atom_site_occupancy
  Cs  Cs0  1  0.99798768  0.75000000  0.71420752  1.0
  Cs  Cs1  1  0.00201232  0.25000000  0.28579248  1.0
  Cs  Cs2  1  0.50203883  0.75000000  0.21419256  1.0
  Cs  Cs3  1  0.49796117  0.25000000  0.78580744  1.0
  Sn  Sn4  1  0.27162570  0.75000000  0.48685212  1.0
  Sn  Sn5  1  0.72837430  0.25000000  0.51314788  1.0
  Sn  Sn6  1  0.22835060  0.75000000  0.98688705  1.0
  Sn  Sn7  1  0.77164940  0.25000000  0.01311295  1.0
  P  P8  1  0.78993466  0.75000000  0.41239209  1.0
  P  P9  1  0.21006534  0.25000000  0.58760791  1.0
  P  P10  1  0.71004944  0.75000000  0.91242260  1.0
  P  P11  1  0.28995056  0.25000000  0.08757740  1.0
  S  S12  1  0.88358345  0.99381220  0.89147734  1.0
  S  S13  1  0.88358345  0.50618780  0.89147734  1.0
  S  S14  1  0.11641655  0.49381220  0.10852266  1.0
  S  S15  1  0.11641655  0.00618780  0.10852266  1.0
  S  S16  1  0.61639326  0.99381374  0.39146437  1.0
  S  S17  1  0.61639326  0.50618626  0.39146437  1.0
  S  S18  1  0.38360674  0.49381374  0.60853563  1.0
  S  S19  1  0.38360674  0.00618626  0.60853563  1.0
  S  S20  1  0.86919164  0.75000000  0.52281710  1.0
  S  S21  1  0.13080836  0.25000000  0.47718290  1.0
  S  S22  1  0.63085036  0.75000000  0.02284726  1.0
  S  S23  1  0.36914964  0.25000000  0.97715274  1.0
  S  S24  1  0.45880731  0.75000000  0.84784995  1.0
  S  S25  1  0.54119269  0.25000000  0.15215005  1.0
  S  S26  1  0.04121685  0.75000000  0.34782992  1.0
  S  S27  1  0.95878315  0.25000000  0.65217008  1.0
