# generated using pymatgen
data_KSnSO4F
_symmetry_space_group_name_H-M   'P 1'
_cell_length_a   6.38716618
_cell_length_b   7.34902965
_cell_length_c   7.20537615
_cell_angle_alpha   106.49494692
_cell_angle_beta   109.48815603
_cell_angle_gamma   103.82224762
_symmetry_Int_Tables_number   1
_chemical_formula_structural   KSnSO4F
_chemical_formula_sum   'K2 Sn2 S2 O8 F2'
_cell_volume   284.13162724
_cell_formula_units_Z   2
loop_
 _symmetry_equiv_pos_site_id
 _symmetry_equiv_pos_as_xyz
  1  'x, y, z'
loop_
 _atom_site_type_symbol
 _atom_site_label
 _atom_site_symmetry_multiplicity
 _atom_site_fract_x
 _atom_site_fract_y
 _atom_site_fract_z
 _atom_site_occupancy
  K  K0  1  -0.31006308  -0.87316220  -0.66226138  1.0
  K  K1  1  -0.68993692  -0.12683780  -0.33773862  1.0
  Sn  Sn2  1  -0.85340257  -0.70664520  -0.93585555  1.0
  Sn  Sn3  1  -0.14659743  -0.29335480  -0.06414445  1.0
  S  S4  1  -0.67750182  -0.66149131  -0.36890931  1.0
  S  S5  1  -0.32249818  -0.33850869  -0.63109069  1.0
  O  O6  1  -0.84012859  -0.76696236  -0.29082189  1.0
  O  O7  1  -0.15987141  -0.23303764  -0.70917811  1.0
  O  O8  1  -0.83134618  -0.67433782  -0.58547634  1.0
  O  O9  1  -0.16865382  -0.32566218  -0.41452366  1.0
  O  O10  1  -0.49631986  -0.75307735  -0.37552995  1.0
  O  O11  1  -0.50368014  -0.24692265  -0.62447005  1.0
  O  O12  1  -0.44698427  -0.56374216  -0.78195090  1.0
  O  O13  1  -0.55301573  -0.43625784  -0.21804910  1.0
  F  F14  1  -0.76509531  -0.96910905  -0.96938728  1.0
  F  F15  1  -0.23490469  -0.03089095  -0.03061272  1.0
