# generated using pymatgen
data_MgSiO3
_symmetry_space_group_name_H-M   'P 1'
_cell_length_a   4.79496335
_cell_length_b   4.79496335
_cell_length_c   6.72698107
_cell_angle_alpha   90.00000000
_cell_angle_beta   90.00000000
_cell_angle_gamma   147.11978711
_symmetry_Int_Tables_number   1
_chemical_formula_structural   MgSiO3
_chemical_formula_sum   'Mg2 Si2 O6'
_cell_volume   83.96498126
_cell_formula_units_Z   2
loop_
 _symmetry_equiv_pos_site_id
 _symmetry_equiv_pos_as_xyz
  1  'x, y, z'
loop_
 _atom_site_type_symbol
 _atom_site_label
 _atom_site_symmetry_multiplicity
 _atom_site_fract_x
 _atom_site_fract_y
 _atom_site_fract_z
 _atom_site_occupancy
  Mg  Mg0  1  -0.26075474  0.26075474  0.75000000  1.0
  Mg  Mg1  1  0.26075474  0.73924526  0.25000000  1.0
  Si  Si2  1  0.00000000  0.00000000  0.00000000  1.0
  Si  Si3  1  0.00000000  0.00000000  0.50000000  1.0
  O  O4  1  0.37380642  0.62619358  0.94445321  1.0
  O  O5  1  0.37380642  0.62619358  0.55554679  1.0
  O  O6  1  -0.37380642  0.37380642  0.44445321  1.0
  O  O7  1  -0.37380642  0.37380642  0.05554679  1.0
  O  O8  1  0.07316786  0.92683214  0.75000000  1.0
  O  O9  1  -0.07316786  0.07316786  0.25000000  1.0
