# generated using pymatgen
data_Rb4CdBr6
_symmetry_space_group_name_H-M   'P 1'
_cell_length_a   9.46929844
_cell_length_b   9.46929844
_cell_length_c   9.46929844
_cell_angle_alpha   89.48265422
_cell_angle_beta   89.48265422
_cell_angle_gamma   89.48265422
_symmetry_Int_Tables_number   1
_chemical_formula_structural   Rb4CdBr6
_chemical_formula_sum   'Rb8 Cd2 Br12'
_cell_volume   848.98617035
_cell_formula_units_Z   2
loop_
 _symmetry_equiv_pos_site_id
 _symmetry_equiv_pos_as_xyz
  1  'x, y, z'
loop_
 _atom_site_type_symbol
 _atom_site_label
 _atom_site_symmetry_multiplicity
 _atom_site_fract_x
 _atom_site_fract_y
 _atom_site_fract_z
 _atom_site_occupancy
  Rb  Rb0  1  0.87093973  0.25000000  -0.37093973  1.0
  Rb  Rb1  1  0.37093973  0.12906027  -0.25000000  1.0
  Rb  Rb2  1  0.75000000  0.37093973  -0.87093973  1.0
  Rb  Rb3  1  0.25000000  0.62906027  -0.12906027  1.0
  Rb  Rb4  1  0.12906027  0.75000000  -0.62906027  1.0
  Rb  Rb5  1  0.62906027  -0.12906027  0.25000000  1.0
  Rb  Rb6  1  1.25000000  1.25000000  0.25000000  1.0
  Rb  Rb7  1  0.75000000  0.75000000  -0.25000000  1.0
  Cd  Cd8  1  0.50000000  0.50000000  -0.50000000  1.0
  Cd  Cd9  1  0.00000000  0.00000000  0.00000000  1.0
  Br  Br10  1  0.21262831  0.43190561  -0.44228105  1.0
  Br  Br11  1  0.71262831  0.05771895  -0.06809439  1.0
  Br  Br12  1  0.94228105  0.06809439  -0.71262831  1.0
  Br  Br13  1  0.44228105  0.78737169  -0.43190561  1.0
  Br  Br14  1  0.56809439  0.44228105  -0.21262831  1.0
  Br  Br15  1  1.06809439  -0.71262831  -0.05771895  1.0
  Br  Br16  1  0.78737169  0.56809439  -0.55771895  1.0
  Br  Br17  1  0.28737169  -0.05771895  0.06809439  1.0
  Br  Br18  1  0.55771895  0.21262831  -0.56809439  1.0
  Br  Br19  1  1.05771895  -0.06809439  -0.28737169  1.0
  Br  Br20  1  0.93190561  -0.28737169  0.05771895  1.0
  Br  Br21  1  0.43190561  0.55771895  -0.78737169  1.0
