# generated using pymatgen
data_V2GaSn2
_symmetry_space_group_name_H-M   'P 1'
_cell_length_a   9.82734033
_cell_length_b   9.82734033
_cell_length_c   6.76192507
_cell_angle_alpha   90.00000000
_cell_angle_beta   90.00000000
_cell_angle_gamma   146.72027744
_symmetry_Int_Tables_number   1
_chemical_formula_structural   V2GaSn2
_chemical_formula_sum   'V8 Ga4 Sn8'
_cell_volume   358.34278473
_cell_formula_units_Z   4
loop_
 _symmetry_equiv_pos_site_id
 _symmetry_equiv_pos_as_xyz
  1  'x, y, z'
loop_
 _atom_site_type_symbol
 _atom_site_label
 _atom_site_symmetry_multiplicity
 _atom_site_fract_x
 _atom_site_fract_y
 _atom_site_fract_z
 _atom_site_occupancy
  V  V0  1  -0.42600416  0.42600416  0.47377315  1.0
  V  V1  1  0.07399584  0.92600416  0.02622685  1.0
  V  V2  1  0.42600416  0.57399584  0.52622685  1.0
  V  V3  1  -0.07399584  0.07399584  0.97377315  1.0
  V  V4  1  0.59198782  0.90801218  0.25000000  1.0
  V  V5  1  0.09198782  0.40801218  0.25000000  1.0
  V  V6  1  -0.09198782  0.59198782  0.75000000  1.0
  V  V7  1  0.40801218  1.09198782  0.75000000  1.0
  Ga  Ga8  1  0.73265161  0.76734839  0.25000000  1.0
  Ga  Ga9  1  0.23265161  0.26734839  0.25000000  1.0
  Ga  Ga10  1  -0.23265161  0.73265161  0.75000000  1.0
  Ga  Ga11  1  0.26734839  1.23265161  0.75000000  1.0
  Sn  Sn12  1  -0.38883646  0.38883646  0.07818986  1.0
  Sn  Sn13  1  0.11116354  0.88883646  0.42181014  1.0
  Sn  Sn14  1  0.38883646  0.61116354  0.92181014  1.0
  Sn  Sn15  1  -0.11116354  0.11116354  0.57818986  1.0
  Sn  Sn16  1  -0.27809712  0.27809712  0.42320328  1.0
  Sn  Sn17  1  0.22190288  0.77809712  0.07679672  1.0
  Sn  Sn18  1  0.27809712  0.72190288  0.57679672  1.0
  Sn  Sn19  1  -0.22190288  0.22190288  0.92320328  1.0
