# generated using pymatgen
data_TiSiO4
_symmetry_space_group_name_H-M   'P 1'
_cell_length_a   6.11515517
_cell_length_b   6.11515517
_cell_length_c   6.11515517
_cell_angle_alpha   135.87168553
_cell_angle_beta   135.87168553
_cell_angle_gamma   64.17877387
_symmetry_Int_Tables_number   1
_chemical_formula_structural   TiSiO4
_chemical_formula_sum   'Ti2 Si2 O8'
_cell_volume   109.35359313
_cell_formula_units_Z   2
loop_
 _symmetry_equiv_pos_site_id
 _symmetry_equiv_pos_as_xyz
  1  'x, y, z'
loop_
 _atom_site_type_symbol
 _atom_site_label
 _atom_site_symmetry_multiplicity
 _atom_site_fract_x
 _atom_site_fract_y
 _atom_site_fract_z
 _atom_site_occupancy
  Ti  Ti0  1  0.25000000  0.75000000  0.50000000  1.0
  Ti  Ti1  1  0.50000000  0.50000000  0.00000000  1.0
  Si  Si2  1  0.75000000  0.25000000  0.50000000  1.0
  Si  Si3  1  1.00000000  1.00000000  1.00000000  1.0
  O  O4  1  1.09162874  0.50546825  0.94553903  1.0
  O  O5  1  0.55992922  1.14608971  1.05446097  1.0
  O  O6  1  0.89608971  1.34162874  1.08616049  1.0
  O  O7  1  1.25546825  0.80992922  0.91383951  1.0
  O  O8  1  0.65837126  0.74453175  0.55446097  1.0
  O  O9  1  1.19007078  1.10391029  1.44553903  1.0
  O  O10  1  0.85391029  0.90837126  1.41383951  1.0
  O  O11  1  0.49453175  0.44007078  0.58616049  1.0
