# generated using pymatgen
data_InBr3
_symmetry_space_group_name_H-M   'P 1'
_cell_length_a   6.93350103
_cell_length_b   6.93350103
_cell_length_c   7.49801149
_cell_angle_alpha   81.40763219
_cell_angle_beta   98.59236781
_cell_angle_gamma   60.01830610
_symmetry_Int_Tables_number   1
_chemical_formula_structural   InBr3
_chemical_formula_sum   'In2 Br6'
_cell_volume   297.96470137
_cell_formula_units_Z   2
loop_
 _symmetry_equiv_pos_site_id
 _symmetry_equiv_pos_as_xyz
  1  'x, y, z'
loop_
 _atom_site_type_symbol
 _atom_site_label
 _atom_site_symmetry_multiplicity
 _atom_site_fract_x
 _atom_site_fract_y
 _atom_site_fract_z
 _atom_site_occupancy
  In  In0  1  0.83334198  -0.16665802  0.00000000  1.0
  In  In1  1  0.16665802  0.16665802  0.00000000  1.0
  Br  Br2  1  0.42916621  -0.07141742  0.78053177  1.0
  Br  Br3  1  1.07141742  -0.42916621  0.78053177  1.0
  Br  Br4  1  0.92858258  -0.57083379  0.21946823  1.0
  Br  Br5  1  0.57083379  0.07141742  0.21946823  1.0
  Br  Br6  1  0.78757081  -0.78757081  0.77963133  1.0
  Br  Br7  1  0.21242919  -0.21242919  0.22036867  1.0
