# generated using pymatgen
data_RbFeSe2
_symmetry_space_group_name_H-M   'P 1'
_cell_length_a   7.14083514
_cell_length_b   7.14083514
_cell_length_c   5.64355360
_cell_angle_alpha   78.77474706
_cell_angle_beta   101.22525294
_cell_angle_gamma   64.08405685
_symmetry_Int_Tables_number   1
_chemical_formula_structural   RbFeSe2
_chemical_formula_sum   'Rb2 Fe2 Se4'
_cell_volume   240.78071415
_cell_formula_units_Z   2
loop_
 _symmetry_equiv_pos_site_id
 _symmetry_equiv_pos_as_xyz
  1  'x, y, z'
loop_
 _atom_site_type_symbol
 _atom_site_label
 _atom_site_symmetry_multiplicity
 _atom_site_fract_x
 _atom_site_fract_y
 _atom_site_fract_z
 _atom_site_occupancy
  Rb  Rb0  1  0.85947103  -0.14052897  0.75000000  1.0
  Rb  Rb1  1  1.14052897  0.14052897  0.25000000  1.0
  Fe  Fe2  1  1.49801123  0.49801123  0.75000000  1.0
  Fe  Fe3  1  0.50198877  -0.49801123  0.25000000  1.0
  Se  Se4  1  0.41898579  -0.20251152  0.90474310  1.0
  Se  Se5  1  1.20251152  0.58101421  0.40474310  1.0
  Se  Se6  1  0.79748848  -0.58101421  0.59525690  1.0
  Se  Se7  1  1.58101421  0.20251152  0.09525690  1.0
