# generated using pymatgen
data_CrAgSe2
_symmetry_space_group_name_H-M   'P 1'
_cell_length_a   7.86708985
_cell_length_b   7.86708985
_cell_length_c   7.86708985
_cell_angle_alpha   26.33846708
_cell_angle_beta   26.33846708
_cell_angle_gamma   26.33846708
_symmetry_Int_Tables_number   1
_chemical_formula_structural   CrAgSe2
_chemical_formula_sum   'Cr1 Ag1 Se2'
_cell_volume   84.46441411
_cell_formula_units_Z   1
loop_
 _symmetry_equiv_pos_site_id
 _symmetry_equiv_pos_as_xyz
  1  'x, y, z'
loop_
 _atom_site_type_symbol
 _atom_site_label
 _atom_site_symmetry_multiplicity
 _atom_site_fract_x
 _atom_site_fract_y
 _atom_site_fract_z
 _atom_site_occupancy
  Cr  Cr0  1  0.47255732  0.47255732  -0.52744268  1.0
  Ag  Ag1  1  -0.01758433  -0.01758433  -0.01758433  1.0
  Se  Se2  1  0.86963894  -0.13036106  -0.13036106  1.0
  Se  Se3  1  0.73538807  -0.26461193  -0.26461193  1.0
