# generated using pymatgen
data_SrZn
_symmetry_space_group_name_H-M   'P 1'
_cell_length_a   8.66834269
_cell_length_b   4.64221437
_cell_length_c   6.35160356
_cell_angle_alpha   90.00000000
_cell_angle_beta   90.00000000
_cell_angle_gamma   90.00000000
_symmetry_Int_Tables_number   1
_chemical_formula_structural   SrZn
_chemical_formula_sum   'Sr4 Zn4'
_cell_volume   255.59046417
_cell_formula_units_Z   4
loop_
 _symmetry_equiv_pos_site_id
 _symmetry_equiv_pos_as_xyz
  1  'x, y, z'
loop_
 _atom_site_type_symbol
 _atom_site_label
 _atom_site_symmetry_multiplicity
 _atom_site_fract_x
 _atom_site_fract_y
 _atom_site_fract_z
 _atom_site_occupancy
  Sr  Sr0  1  0.32101474  0.75000000  0.11709204  1.0
  Sr  Sr1  1  0.82101474  0.75000000  0.38290796  1.0
  Sr  Sr2  1  0.67898526  0.25000000  0.88290796  1.0
  Sr  Sr3  1  0.17898526  0.25000000  0.61709204  1.0
  Zn  Zn4  1  0.47352876  0.75000000  0.59751143  1.0
  Zn  Zn5  1  0.97352876  0.75000000  0.90248857  1.0
  Zn  Zn6  1  0.52647124  0.25000000  0.40248857  1.0
  Zn  Zn7  1  0.02647124  0.25000000  0.09751143  1.0
