# generated using pymatgen
data_CrSiNi
_symmetry_space_group_name_H-M   'P 1'
_cell_length_a   5.75438497
_cell_length_b   3.62233243
_cell_length_c   6.89487615
_cell_angle_alpha   90.00000000
_cell_angle_beta   90.00000000
_cell_angle_gamma   90.00000000
_symmetry_Int_Tables_number   1
_chemical_formula_structural   CrSiNi
_chemical_formula_sum   'Cr4 Si4 Ni4'
_cell_volume   143.71883446
_cell_formula_units_Z   4
loop_
 _symmetry_equiv_pos_site_id
 _symmetry_equiv_pos_as_xyz
  1  'x, y, z'
loop_
 _atom_site_type_symbol
 _atom_site_label
 _atom_site_symmetry_multiplicity
 _atom_site_fract_x
 _atom_site_fract_y
 _atom_site_fract_z
 _atom_site_occupancy
  Cr  Cr0  1  0.97212932  0.75000000  0.68092799  1.0
  Cr  Cr1  1  0.47212932  0.75000000  0.81907201  1.0
  Cr  Cr2  1  0.02787068  0.25000000  0.31907201  1.0
  Cr  Cr3  1  0.52787068  0.25000000  0.18092799  1.0
  Si  Si4  1  0.74457909  0.75000000  0.37491896  1.0
  Si  Si5  1  0.24457909  0.75000000  0.12508104  1.0
  Si  Si6  1  0.25542091  0.25000000  0.62508104  1.0
  Si  Si7  1  0.75542091  0.25000000  0.87491896  1.0
  Ni  Ni8  1  0.85324995  0.75000000  0.05899038  1.0
  Ni  Ni9  1  0.35324995  0.75000000  0.44100962  1.0
  Ni  Ni10  1  0.14675005  0.25000000  0.94100962  1.0
  Ni  Ni11  1  0.64675005  0.25000000  0.55899038  1.0
