# generated using pymatgen
data_LiB3O5
_symmetry_space_group_name_H-M   'P 1'
_cell_length_a   8.50726788
_cell_length_b   7.40332946
_cell_length_c   5.25289170
_cell_angle_alpha   90.00000000
_cell_angle_beta   90.00000000
_cell_angle_gamma   90.00000000
_symmetry_Int_Tables_number   1
_chemical_formula_structural   LiB3O5
_chemical_formula_sum   'Li4 B12 O20'
_cell_volume   330.83818657
_cell_formula_units_Z   4
loop_
 _symmetry_equiv_pos_site_id
 _symmetry_equiv_pos_as_xyz
  1  'x, y, z'
loop_
 _atom_site_type_symbol
 _atom_site_label
 _atom_site_symmetry_multiplicity
 _atom_site_fract_x
 _atom_site_fract_y
 _atom_site_fract_z
 _atom_site_occupancy
  Li  Li0  1  0.41796813  0.93123690  0.35881603  1.0
  Li  Li1  1  0.91796813  0.56876310  0.35881603  1.0
  Li  Li2  1  0.58203187  0.06876310  0.85881603  1.0
  Li  Li3  1  0.08203187  0.43123690  0.85881603  1.0
  B  B4  1  0.49063972  0.33512981  0.48819238  1.0
  B  B5  1  0.99063972  0.16487019  0.48819238  1.0
  B  B6  1  0.50936028  0.66487019  0.98819238  1.0
  B  B7  1  0.00936028  0.83512981  0.98819238  1.0
  B  B8  1  0.34093479  0.25289314  0.11389165  1.0
  B  B9  1  0.84093479  0.24710686  0.11389165  1.0
  B  B10  1  0.65906521  0.74710686  0.61389165  1.0
  B  B11  1  0.15906521  0.75289314  0.61389165  1.0
  B  B12  1  0.19218021  0.05917803  0.79503419  1.0
  B  B13  1  0.69218021  0.44082197  0.79503419  1.0
  B  B14  1  0.80781979  0.94082197  0.29503419  1.0
  B  B15  1  0.30781979  0.55917803  0.29503419  1.0
  O  O16  1  0.44107795  0.20192060  0.31397863  1.0
  O  O17  1  0.94107795  0.29807940  0.31397863  1.0
  O  O18  1  0.55892205  0.79807940  0.81397863  1.0
  O  O19  1  0.05892205  0.70192060  0.81397863  1.0
  O  O20  1  0.41691972  0.49693185  0.49151706  1.0
  O  O21  1  0.91691972  0.00306815  0.49151706  1.0
  O  O22  1  0.58308028  0.50306815  -0.00848294  1.0
  O  O23  1  0.08308028  0.99693185  -0.00848294  1.0
  O  O24  1  0.38642679  0.70697258  0.14725098  1.0
  O  O25  1  0.88642679  0.79302742  0.14725098  1.0
  O  O26  1  0.61357321  0.29302742  0.64725098  1.0
  O  O27  1  0.11357321  0.20697258  0.64725098  1.0
  O  O28  1  0.33496087  0.12831243  0.92040179  1.0
  O  O29  1  0.83496087  0.37168757  0.92040179  1.0
  O  O30  1  0.66503913  0.87168757  0.42040179  1.0
  O  O31  1  0.16503913  0.62831243  0.42040179  1.0
  O  O32  1  0.26008132  0.41215516  0.11561729  1.0
  O  O33  1  0.76008132  0.08784484  0.11561729  1.0
  O  O34  1  0.73991868  0.58784484  0.61561729  1.0
  O  O35  1  0.23991868  0.91215516  0.61561729  1.0
