# generated using pymatgen
data_MoP4
_symmetry_space_group_name_H-M   'P 1'
_cell_length_a   6.20997956
_cell_length_b   6.20997956
_cell_length_c   5.85830445
_cell_angle_alpha   81.25656144
_cell_angle_beta   98.74343856
_cell_angle_gamma   50.95636023
_symmetry_Int_Tables_number   1
_chemical_formula_structural   MoP4
_chemical_formula_sum   'Mo2 P8'
_cell_volume   164.14293569
_cell_formula_units_Z   2
loop_
 _symmetry_equiv_pos_site_id
 _symmetry_equiv_pos_as_xyz
  1  'x, y, z'
loop_
 _atom_site_type_symbol
 _atom_site_label
 _atom_site_symmetry_multiplicity
 _atom_site_fract_x
 _atom_site_fract_y
 _atom_site_fract_z
 _atom_site_occupancy
  Mo  Mo0  1  0.94108545  0.94108545  0.25000000  1.0
  Mo  Mo1  1  1.05891455  0.05891455  0.75000000  1.0
  P  P2  1  1.37295758  -0.18426348  0.18279725  1.0
  P  P3  1  1.18426348  0.62704242  0.68279725  1.0
  P  P4  1  0.81573652  0.37295758  0.31720275  1.0
  P  P5  1  1.62704242  0.18426348  0.81720275  1.0
  P  P6  1  1.50077481  0.05532526  0.31052616  1.0
  P  P7  1  0.94467474  0.49922519  0.81052616  1.0
  P  P8  1  1.05532526  0.50077481  0.18947384  1.0
  P  P9  1  1.49922519  -0.05532526  0.68947384  1.0
