# generated using pymatgen
data_Ba3(Ge4Rh)4
_symmetry_space_group_name_H-M   'P 1'
_cell_length_a   12.12868388
_cell_length_b   12.12868388
_cell_length_c   12.12868388
_cell_angle_alpha   148.30369987
_cell_angle_beta   148.30369987
_cell_angle_gamma   45.43724289
_symmetry_Int_Tables_number   1
_chemical_formula_structural   Ba3(Ge4Rh)4
_chemical_formula_sum   'Ba3 Ge16 Rh4'
_cell_volume   490.94626630
_cell_formula_units_Z   1
loop_
 _symmetry_equiv_pos_site_id
 _symmetry_equiv_pos_as_xyz
  1  'x, y, z'
loop_
 _atom_site_type_symbol
 _atom_site_label
 _atom_site_symmetry_multiplicity
 _atom_site_fract_x
 _atom_site_fract_y
 _atom_site_fract_z
 _atom_site_occupancy
  Ba  Ba0  1  0.25000000  0.75000000  0.50000000  1.0
  Ba  Ba1  1  0.75000000  0.25000000  0.50000000  1.0
  Ba  Ba2  1  0.00000000  0.00000000  0.00000000  1.0
  Ge  Ge3  1  0.62721524  0.62721524  0.51303157  1.0
  Ge  Ge4  1  0.88581633  0.88581633  1.51303157  1.0
  Ge  Ge5  1  1.11418367  0.62721524  1.00000000  1.0
  Ge  Ge6  1  0.37278476  0.88581633  1.00000000  1.0
  Ge  Ge7  1  0.62721524  1.11418367  1.00000000  1.0
  Ge  Ge8  1  0.88581633  0.37278476  1.00000000  1.0
  Ge  Ge9  1  1.11418367  1.11418367  1.48696843  1.0
  Ge  Ge10  1  0.37278476  0.37278476  0.48696843  1.0
  Ge  Ge11  1  0.50000000  0.77337173  1.27337173  1.0
  Ge  Ge12  1  0.77337173  0.50000000  1.27337173  1.0
  Ge  Ge13  1  0.22662827  0.50000000  0.72662827  1.0
  Ge  Ge14  1  0.50000000  0.22662827  0.72662827  1.0
  Ge  Ge15  1  0.80377429  0.80377429  1.00000000  1.0
  Ge  Ge16  1  0.19622571  0.19622571  -0.00000000  1.0
  Ge  Ge17  1  0.68974596  0.68974596  1.00000000  1.0
  Ge  Ge18  1  0.31025404  0.31025404  -0.00000000  1.0
  Rh  Rh19  1  0.41122870  0.91122870  0.50000000  1.0
  Rh  Rh20  1  0.58877130  0.08877130  0.50000000  1.0
  Rh  Rh21  1  0.91122870  0.41122870  0.50000000  1.0
  Rh  Rh22  1  0.08877130  0.58877130  0.50000000  1.0
