# generated using pymatgen
data_C
_symmetry_space_group_name_H-M   'P 1'
_cell_length_a   5.72600000
_cell_length_b   8.22700000
_cell_length_c   7.91000000
_cell_angle_alpha   90.40000000
_cell_angle_beta   93.08000000
_cell_angle_gamma   90.15000000
_symmetry_Int_Tables_number   1
_chemical_formula_structural   C
_chemical_formula_sum   C1
_cell_volume   372.07371631
_cell_formula_units_Z   1
loop_
 _symmetry_equiv_pos_site_id
 _symmetry_equiv_pos_as_xyz
  1  'x, y, z'
loop_
 _atom_site_type_symbol
 _atom_site_label
 _atom_site_symmetry_multiplicity
 _atom_site_fract_x
 _atom_site_fract_y
 _atom_site_fract_z
 _atom_site_occupancy
  C  C0  1  -0.50000000  0.00000000  -0.50000000  1.0
