# generated using pymatgen
data_NaGaSiO4
_symmetry_space_group_name_H-M   'P 1'
_cell_length_a   8.85329440
_cell_length_b   8.85329440
_cell_length_c   8.37229088
_cell_angle_alpha   90.00000000
_cell_angle_beta   90.00000000
_cell_angle_gamma   120.00000000
_symmetry_Int_Tables_number   1
_chemical_formula_structural   NaGaSiO4
_chemical_formula_sum   'Na6 Ga6 Si6 O24'
_cell_volume   568.30928592
_cell_formula_units_Z   6
loop_
 _symmetry_equiv_pos_site_id
 _symmetry_equiv_pos_as_xyz
  1  'x, y, z'
loop_
 _atom_site_type_symbol
 _atom_site_label
 _atom_site_symmetry_multiplicity
 _atom_site_fract_x
 _atom_site_fract_y
 _atom_site_fract_z
 _atom_site_occupancy
  Na  Na0  1  0.33333333  0.66666667  0.06226426  1.0
  Na  Na1  1  0.66666667  0.33333333  0.56226426  1.0
  Na  Na2  1  0.33333333  0.66666667  0.48881715  1.0
  Na  Na3  1  0.66666667  0.33333333  -0.01118285  1.0
  Na  Na4  1  -0.00000000  0.00000000  0.07775143  1.0
  Na  Na5  1  -0.00000000  0.00000000  0.57775143  1.0
  Ga  Ga6  1  0.34336848  0.02753944  0.24998572  1.0
  Ga  Ga7  1  0.02753944  0.68417095  0.74998572  1.0
  Ga  Ga8  1  0.68417095  0.65663152  0.24998572  1.0
  Ga  Ga9  1  0.97246056  0.31582905  0.24998572  1.0
  Ga  Ga10  1  0.65663152  0.97246056  0.74998572  1.0
  Ga  Ga11  1  0.31582905  0.34336848  0.74998572  1.0
  Si  Si12  1  0.02469454  0.68327234  0.36501199  1.0
  Si  Si13  1  0.68327234  0.65857780  0.86501199  1.0
  Si  Si14  1  0.65857780  0.97530546  0.36501199  1.0
  Si  Si15  1  0.31672766  0.34142220  0.36501199  1.0
  Si  Si16  1  0.97530546  0.31672766  0.86501199  1.0
  Si  Si17  1  0.34142220  0.02469454  0.86501199  1.0
  O  O18  1  0.38090936  0.11375351  0.04374268  1.0
  O  O19  1  0.11375351  0.73284415  0.54374268  1.0
  O  O20  1  0.73284415  0.61909064  0.04374268  1.0
  O  O21  1  0.88624649  0.26715585  0.04374268  1.0
  O  O22  1  0.61909064  0.88624649  0.54374268  1.0
  O  O23  1  0.26715585  0.38090936  0.54374268  1.0
  O  O24  1  0.46677180  0.91239771  0.28231147  1.0
  O  O25  1  0.91239771  0.44562591  0.78231147  1.0
  O  O26  1  0.44562591  0.53322820  0.28231147  1.0
  O  O27  1  0.08760229  0.55437409  0.28231147  1.0
  O  O28  1  0.53322820  0.08760229  0.78231147  1.0
  O  O29  1  0.55437409  0.46677180  0.78231147  1.0
  O  O30  1  0.10569567  0.86675391  0.26386252  1.0
  O  O31  1  0.86675391  0.76105824  0.76386252  1.0
  O  O32  1  0.76105824  0.89430433  0.26386252  1.0
  O  O33  1  0.13324609  0.23894176  0.26386252  1.0
  O  O34  1  0.89430433  0.13324609  0.76386252  1.0
  O  O35  1  0.23894176  0.10569567  0.76386252  1.0
  O  O36  1  0.81137643  0.59046560  0.37917467  1.0
  O  O37  1  0.59046560  0.77908917  0.87917467  1.0
  O  O38  1  0.77908917  0.18862357  0.37917467  1.0
  O  O39  1  0.40953440  0.22091083  0.37917467  1.0
  O  O40  1  0.18862357  0.40953440  0.87917467  1.0
  O  O41  1  0.22091083  0.81137643  0.87917467  1.0
