# generated using pymatgen
data_BaYbF6
_symmetry_space_group_name_H-M   'P 1'
_cell_length_a   5.07464765
_cell_length_b   5.07464765
_cell_length_c   5.07464764
_cell_angle_alpha   96.53571810
_cell_angle_beta   96.53571810
_cell_angle_gamma   96.53571810
_symmetry_Int_Tables_number   1
_chemical_formula_structural   BaYbF6
_chemical_formula_sum   'Ba1 Yb1 F6'
_cell_volume   127.92108419
_cell_formula_units_Z   1
loop_
 _symmetry_equiv_pos_site_id
 _symmetry_equiv_pos_as_xyz
  1  'x, y, z'
loop_
 _atom_site_type_symbol
 _atom_site_label
 _atom_site_symmetry_multiplicity
 _atom_site_fract_x
 _atom_site_fract_y
 _atom_site_fract_z
 _atom_site_occupancy
  Ba  Ba0  1  0.50000000  0.50000000  0.50000000  1.0
  Yb  Yb1  1  0.00000000  0.00000000  0.00000000  1.0
  F  F2  1  0.75299948  0.65067461  0.05584402  1.0
  F  F3  1  1.34932539  -0.05584402  0.24700052  1.0
  F  F4  1  0.94415598  0.24700052  0.34932539  1.0
  F  F5  1  1.24700052  0.34932539  -0.05584402  1.0
  F  F6  1  0.65067461  1.05584402  -0.24700052  1.0
  F  F7  1  1.05584402  0.75299948  -0.34932539  1.0
