# generated using pymatgen
data_K2Si3SnO9
_symmetry_space_group_name_H-M   'P 1'
_cell_length_a   6.96364151
_cell_length_b   6.96364151
_cell_length_c   10.16261592
_cell_angle_alpha   90.00000000
_cell_angle_beta   90.00000000
_cell_angle_gamma   120.00000000
_symmetry_Int_Tables_number   1
_chemical_formula_structural   K2Si3SnO9
_chemical_formula_sum   'K4 Si6 Sn2 O18'
_cell_volume   426.78481186
_cell_formula_units_Z   2
loop_
 _symmetry_equiv_pos_site_id
 _symmetry_equiv_pos_as_xyz
  1  'x, y, z'
loop_
 _atom_site_type_symbol
 _atom_site_label
 _atom_site_symmetry_multiplicity
 _atom_site_fract_x
 _atom_site_fract_y
 _atom_site_fract_z
 _atom_site_occupancy
  K  K0  1  0.33333333  0.66666667  0.44279228  1.0
  K  K1  1  0.33333333  0.66666667  0.05720772  1.0
  K  K2  1  0.66666667  0.33333333  0.94279228  1.0
  K  K3  1  0.66666667  0.33333333  0.55720772  1.0
  Si  Si4  1  0.74566680  0.61721001  0.25000000  1.0
  Si  Si5  1  0.61721001  0.87154321  0.75000000  1.0
  Si  Si6  1  0.87154321  0.25433320  0.25000000  1.0
  Si  Si7  1  0.38278999  0.12845679  0.25000000  1.0
  Si  Si8  1  0.25433320  0.38278999  0.75000000  1.0
  Si  Si9  1  0.12845679  0.74566680  0.75000000  1.0
  Sn  Sn10  1  0.00000000  0.00000000  0.50000000  1.0
  Sn  Sn11  1  0.00000000  0.00000000  0.00000000  1.0
  O  O12  1  0.76258199  0.74449121  0.38655612  1.0
  O  O13  1  0.76258199  0.74449121  0.11344388  1.0
  O  O14  1  0.74449121  0.98190923  0.88655612  1.0
  O  O15  1  0.74449121  0.98190923  0.61344388  1.0
  O  O16  1  0.98190923  0.23741801  0.38655612  1.0
  O  O17  1  0.98190923  0.23741801  0.11344388  1.0
  O  O18  1  0.25550879  0.01809077  0.38655612  1.0
  O  O19  1  0.25550879  0.01809077  0.11344388  1.0
  O  O20  1  0.23741801  0.25550879  0.88655612  1.0
  O  O21  1  0.23741801  0.25550879  0.61344388  1.0
  O  O22  1  0.01809077  0.76258199  0.88655612  1.0
  O  O23  1  0.01809077  0.76258199  0.61344388  1.0
  O  O24  1  0.48693404  0.40117143  0.25000000  1.0
  O  O25  1  0.40117143  0.91423739  0.75000000  1.0
  O  O26  1  0.91423739  0.51306596  0.25000000  1.0
  O  O27  1  0.59882857  0.08576261  0.25000000  1.0
  O  O28  1  0.51306596  0.59882857  0.75000000  1.0
  O  O29  1  0.08576261  0.48693404  0.75000000  1.0
