# generated using pymatgen
data_Sr2MgAl3
_symmetry_space_group_name_H-M   'P 1'
_cell_length_a   6.03134542
_cell_length_b   6.03134542
_cell_length_c   9.62139738
_cell_angle_alpha   90.00000000
_cell_angle_beta   90.00000000
_cell_angle_gamma   120.00000000
_symmetry_Int_Tables_number   1
_chemical_formula_structural   Sr2MgAl3
_chemical_formula_sum   'Sr4 Mg2 Al6'
_cell_volume   303.10785231
_cell_formula_units_Z   2
loop_
 _symmetry_equiv_pos_site_id
 _symmetry_equiv_pos_as_xyz
  1  'x, y, z'
loop_
 _atom_site_type_symbol
 _atom_site_label
 _atom_site_symmetry_multiplicity
 _atom_site_fract_x
 _atom_site_fract_y
 _atom_site_fract_z
 _atom_site_occupancy
  Sr  Sr0  1  0.33333333  0.66666667  0.06873104  1.0
  Sr  Sr1  1  0.66666667  0.33333333  0.56873104  1.0
  Sr  Sr2  1  0.66666667  0.33333333  0.93126896  1.0
  Sr  Sr3  1  0.33333333  0.66666667  0.43126896  1.0
  Mg  Mg4  1  0.00000000  0.00000000  0.00000000  1.0
  Mg  Mg5  1  0.00000000  0.00000000  0.50000000  1.0
  Al  Al6  1  0.82734500  0.65469001  0.25000000  1.0
  Al  Al7  1  0.34530999  0.17265500  0.25000000  1.0
  Al  Al8  1  0.82734500  0.17265500  0.25000000  1.0
  Al  Al9  1  0.17265500  0.34530999  0.75000000  1.0
  Al  Al10  1  0.65469001  0.82734500  0.75000000  1.0
  Al  Al11  1  0.17265500  0.82734500  0.75000000  1.0
