# generated using pymatgen
data_SrLiSi3N5
_symmetry_space_group_name_H-M   'P 1'
_cell_length_a   5.49964263
_cell_length_b   17.16349388
_cell_length_c   4.91967249
_cell_angle_alpha   90.00000000
_cell_angle_beta   90.00000000
_cell_angle_gamma   90.00000000
_symmetry_Int_Tables_number   1
_chemical_formula_structural   SrLiSi3N5
_chemical_formula_sum   'Sr4 Li4 Si12 N20'
_cell_volume   464.38305174
_cell_formula_units_Z   4
loop_
 _symmetry_equiv_pos_site_id
 _symmetry_equiv_pos_as_xyz
  1  'x, y, z'
loop_
 _atom_site_type_symbol
 _atom_site_label
 _atom_site_symmetry_multiplicity
 _atom_site_fract_x
 _atom_site_fract_y
 _atom_site_fract_z
 _atom_site_occupancy
  Sr  Sr0  1  0.16595735  0.18478667  0.98947994  1.0
  Sr  Sr1  1  0.83404265  0.81521333  0.48947994  1.0
  Sr  Sr2  1  0.33404265  0.68478667  0.48947994  1.0
  Sr  Sr3  1  0.66595735  0.31521333  0.98947994  1.0
  Li  Li4  1  0.10964572  0.56204136  0.01207725  1.0
  Li  Li5  1  0.89035428  0.43795864  0.51207725  1.0
  Li  Li6  1  0.39035428  0.06204136  0.51207725  1.0
  Li  Li7  1  0.60964572  0.93795864  0.01207725  1.0
  Si  Si8  1  0.16259685  0.98831387  0.99979334  1.0
  Si  Si9  1  0.83740315  0.01168613  0.49979334  1.0
  Si  Si10  1  0.33740315  0.48831387  0.49979334  1.0
  Si  Si11  1  0.66259685  0.51168613  0.99979334  1.0
  Si  Si12  1  0.17283342  0.40935771  0.00229198  1.0
  Si  Si13  1  0.82716658  0.59064229  0.50229198  1.0
  Si  Si14  1  0.32716658  0.90935771  0.50229198  1.0
  Si  Si15  1  0.67283342  0.09064229  0.00229198  1.0
  Si  Si16  1  0.20414210  0.30108408  0.49151730  1.0
  Si  Si17  1  0.79585790  0.69891592  0.99151730  1.0
  Si  Si18  1  0.29585790  0.80108408  0.99151730  1.0
  Si  Si19  1  0.70414210  0.19891592  0.49151730  1.0
  N  N20  1  0.08197500  0.73163377  0.08664016  1.0
  N  N21  1  0.91802500  0.26836623  0.58664016  1.0
  N  N22  1  0.41802500  0.23163377  0.58664016  1.0
  N  N23  1  0.58197500  0.76836623  0.08664016  1.0
  N  N24  1  0.11032485  0.55320797  0.56373316  1.0
  N  N25  1  0.88967515  0.44679203  0.06373316  1.0
  N  N26  1  0.38967515  0.05320797  0.06373316  1.0
  N  N27  1  0.61032485  0.94679203  0.56373316  1.0
  N  N28  1  0.11469674  0.97959654  0.64276290  1.0
  N  N29  1  0.88530326  0.02040346  0.14276290  1.0
  N  N30  1  0.38530326  0.47959654  0.14276290  1.0
  N  N31  1  0.61469674  0.52040346  0.64276290  1.0
  N  N32  1  0.21602102  0.32163785  0.14917476  1.0
  N  N33  1  0.78397898  0.67836215  0.64917476  1.0
  N  N34  1  0.28397898  0.82163785  0.64917476  1.0
  N  N35  1  0.71602102  0.17836215  0.14917476  1.0
  N  N36  1  0.24739173  0.89819311  0.15252821  1.0
  N  N37  1  0.75260827  0.10180689  0.65252821  1.0
  N  N38  1  0.25260827  0.39819311  0.65252821  1.0
  N  N39  1  0.74739173  0.60180689  0.15252821  1.0
