# generated using pymatgen
data_Ti3Cu3O
_symmetry_space_group_name_H-M   'P 1'
_cell_length_a   7.95096277
_cell_length_b   7.95096277
_cell_length_c   7.95096277
_cell_angle_alpha   60.00000000
_cell_angle_beta   60.00000000
_cell_angle_gamma   60.00000000
_symmetry_Int_Tables_number   1
_chemical_formula_structural   Ti3Cu3O
_chemical_formula_sum   'Ti12 Cu12 O4'
_cell_volume   355.42188223
_cell_formula_units_Z   4
loop_
 _symmetry_equiv_pos_site_id
 _symmetry_equiv_pos_as_xyz
  1  'x, y, z'
loop_
 _atom_site_type_symbol
 _atom_site_label
 _atom_site_symmetry_multiplicity
 _atom_site_fract_x
 _atom_site_fract_y
 _atom_site_fract_z
 _atom_site_occupancy
  Ti  Ti0  1  0.56408183  0.56408183  0.93591817  1.0
  Ti  Ti1  1  0.93591817  0.56408183  0.93591817  1.0
  Ti  Ti2  1  0.56408183  0.93591817  0.93591817  1.0
  Ti  Ti3  1  0.93591817  0.93591817  0.56408183  1.0
  Ti  Ti4  1  0.56408183  0.93591817  0.56408183  1.0
  Ti  Ti5  1  0.93591817  0.56408183  0.56408183  1.0
  Ti  Ti6  1  0.68591817  0.68591817  -0.68591817  1.0
  Ti  Ti7  1  1.31408183  -0.31408183  0.31408183  1.0
  Ti  Ti8  1  -0.31408183  0.31408183  0.31408183  1.0
  Ti  Ti9  1  0.31408183  0.31408183  -0.31408183  1.0
  Ti  Ti10  1  0.68591817  -0.68591817  0.68591817  1.0
  Ti  Ti11  1  -0.68591817  0.68591817  0.68591817  1.0
  Cu  Cu12  1  0.12500000  0.12500000  1.62500000  1.0
  Cu  Cu13  1  0.12500000  0.62500000  1.12500000  1.0
  Cu  Cu14  1  1.62500000  0.12500000  0.12500000  1.0
  Cu  Cu15  1  1.12500000  0.12500000  0.12500000  1.0
  Cu  Cu16  1  0.91513309  -0.08486691  0.25460074  1.0
  Cu  Cu17  1  0.91513309  -0.74539926  0.91513309  1.0
  Cu  Cu18  1  0.25460074  0.91513309  0.91513309  1.0
  Cu  Cu19  1  0.91513309  0.91513309  0.91513309  1.0
  Cu  Cu20  1  1.33486691  0.33486691  -0.00460074  1.0
  Cu  Cu21  1  1.33486691  -0.00460074  0.33486691  1.0
  Cu  Cu22  1  0.99539926  0.33486691  0.33486691  1.0
  Cu  Cu23  1  1.33486691  0.33486691  0.33486691  1.0
  O  O24  1  0.62500000  0.62500000  1.12500000  1.0
  O  O25  1  0.62500000  1.12500000  0.62500000  1.0
  O  O26  1  1.12500000  0.62500000  0.62500000  1.0
  O  O27  1  0.62500000  0.62500000  0.62500000  1.0
