# generated using pymatgen
data_TiCr2
_symmetry_space_group_name_H-M   'P 1'
_cell_length_a   4.88247464
_cell_length_b   4.88247464
_cell_length_c   7.82342769
_cell_angle_alpha   90.00000000
_cell_angle_beta   90.00000000
_cell_angle_gamma   120.00000000
_symmetry_Int_Tables_number   1
_chemical_formula_structural   TiCr2
_chemical_formula_sum   'Ti4 Cr8'
_cell_volume   161.51307918
_cell_formula_units_Z   4
loop_
 _symmetry_equiv_pos_site_id
 _symmetry_equiv_pos_as_xyz
  1  'x, y, z'
loop_
 _atom_site_type_symbol
 _atom_site_label
 _atom_site_symmetry_multiplicity
 _atom_site_fract_x
 _atom_site_fract_y
 _atom_site_fract_z
 _atom_site_occupancy
  Ti  Ti0  1  0.33333333  0.66666667  0.93943932  1.0
  Ti  Ti1  1  0.33333333  0.66666667  0.56056068  1.0
  Ti  Ti2  1  0.66666667  0.33333333  0.43943932  1.0
  Ti  Ti3  1  0.66666667  0.33333333  0.06056068  1.0
  Cr  Cr4  1  0.00000000  0.00000000  0.50000000  1.0
  Cr  Cr5  1  0.00000000  0.00000000  0.00000000  1.0
  Cr  Cr6  1  0.16990990  0.83009010  0.25000000  1.0
  Cr  Cr7  1  0.16990990  0.33981980  0.25000000  1.0
  Cr  Cr8  1  0.83009010  0.16990990  0.75000000  1.0
  Cr  Cr9  1  0.83009010  0.66018020  0.75000000  1.0
  Cr  Cr10  1  0.66018020  0.83009010  0.25000000  1.0
  Cr  Cr11  1  0.33981980  0.16990990  0.75000000  1.0
