# generated using pymatgen
data_Cr2CoSe4
_symmetry_space_group_name_H-M   'P 1'
_cell_length_a   6.54525225
_cell_length_b   6.54525225
_cell_length_c   6.27658282
_cell_angle_alpha   62.67648748
_cell_angle_beta   117.32351252
_cell_angle_gamma   147.85694386
_symmetry_Int_Tables_number   1
_chemical_formula_structural   Cr2CoSe4
_chemical_formula_sum   'Cr2 Co1 Se4'
_cell_volume   125.68221545
_cell_formula_units_Z   1
loop_
 _symmetry_equiv_pos_site_id
 _symmetry_equiv_pos_as_xyz
  1  'x, y, z'
loop_
 _atom_site_type_symbol
 _atom_site_label
 _atom_site_symmetry_multiplicity
 _atom_site_fract_x
 _atom_site_fract_y
 _atom_site_fract_z
 _atom_site_occupancy
  Cr  Cr0  1  0.73935354  -0.73935354  0.71931917  1.0
  Cr  Cr1  1  1.26064646  -0.26064646  0.28068083  1.0
  Co  Co2  1  0.00000000  0.00000000  0.00000000  1.0
  Se  Se3  1  0.62905282  -0.62905282  0.97341196  1.0
  Se  Se4  1  1.37094718  -0.37094718  0.02658804  1.0
  Se  Se5  1  0.88556909  -0.88556909  0.55810082  1.0
  Se  Se6  1  1.11443091  -0.11443091  0.44189918  1.0
