# generated using pymatgen
data_Sr2OsO5
_symmetry_space_group_name_H-M   'P 1'
_cell_length_a   7.29461265
_cell_length_b   5.48510865
_cell_length_c   11.15743350
_cell_angle_alpha   90.00000000
_cell_angle_beta   90.00000000
_cell_angle_gamma   90.00000000
_symmetry_Int_Tables_number   1
_chemical_formula_structural   Sr2OsO5
_chemical_formula_sum   'Sr8 Os4 O20'
_cell_volume   446.42836064
_cell_formula_units_Z   4
loop_
 _symmetry_equiv_pos_site_id
 _symmetry_equiv_pos_as_xyz
  1  'x, y, z'
loop_
 _atom_site_type_symbol
 _atom_site_label
 _atom_site_symmetry_multiplicity
 _atom_site_fract_x
 _atom_site_fract_y
 _atom_site_fract_z
 _atom_site_occupancy
  O  O0  1  0.33517106  -0.00419894  0.89155756  1.0
  O  O1  1  0.83517106  0.50419894  0.60844244  1.0
  O  O2  1  0.66482894  0.49580106  0.10844244  1.0
  O  O3  1  0.16482894  1.00419894  0.39155756  1.0
  O  O4  1  0.66482894  1.00419894  0.10844244  1.0
  O  O5  1  0.16482894  0.49580106  0.39155756  1.0
  O  O6  1  0.33517106  0.50419894  0.89155756  1.0
  O  O7  1  0.83517106  -0.00419894  0.60844244  1.0
  O  O8  1  0.00000000  0.00000000  0.00000000  1.0
  O  O9  1  0.50000000  0.50000000  0.50000000  1.0
  O  O10  1  0.00000000  0.50000000  0.00000000  1.0
  O  O11  1  0.50000000  0.00000000  0.50000000  1.0
  O  O12  1  0.21883376  0.25000000  0.60497934  1.0
  O  O13  1  0.71883376  0.25000000  0.89502067  1.0
  O  O14  1  0.78116624  0.75000000  0.39502067  1.0
  O  O15  1  0.28116624  0.75000000  0.10497934  1.0
  O  O16  1  0.45382236  0.25000000  0.29390304  1.0
  O  O17  1  0.95382236  0.25000000  0.20609696  1.0
  O  O18  1  0.54617764  0.75000000  0.70609696  1.0
  O  O19  1  0.04617764  0.75000000  0.79390304  1.0
  Os  Os20  1  0.32697895  0.25000000  0.44119962  1.0
  Os  Os21  1  0.82697895  0.25000000  0.05880038  1.0
  Os  Os22  1  0.67302105  0.75000000  0.55880038  1.0
  Os  Os23  1  0.17302105  0.75000000  0.94119962  1.0
  Sr  Sr24  1  0.01178687  0.25000000  0.77944554  1.0
  Sr  Sr25  1  0.51178687  0.25000000  0.72055446  1.0
  Sr  Sr26  1  0.98821313  0.75000000  0.22055446  1.0
  Sr  Sr27  1  0.48821313  0.75000000  0.27944554  1.0
  Sr  Sr28  1  0.34786855  0.25000000  0.08030808  1.0
  Sr  Sr29  1  0.84786855  0.25000000  0.41969192  1.0
  Sr  Sr30  1  0.65213145  0.75000000  0.91969192  1.0
  Sr  Sr31  1  0.15213145  0.75000000  0.58030808  1.0
