# generated using pymatgen
data_NbCuO3
_symmetry_space_group_name_H-M   'P 1'
_cell_length_a   6.50316668
_cell_length_b   6.50316668
_cell_length_c   6.86221225
_cell_angle_alpha   90.85142229
_cell_angle_beta   89.14857771
_cell_angle_gamma   96.20628627
_symmetry_Int_Tables_number   1
_chemical_formula_structural   NbCuO3
_chemical_formula_sum   'Nb4 Cu4 O12'
_cell_volume   288.45264119
_cell_formula_units_Z   4
loop_
 _symmetry_equiv_pos_site_id
 _symmetry_equiv_pos_as_xyz
  1  'x, y, z'
loop_
 _atom_site_type_symbol
 _atom_site_label
 _atom_site_symmetry_multiplicity
 _atom_site_fract_x
 _atom_site_fract_y
 _atom_site_fract_z
 _atom_site_occupancy
  Nb  Nb0  1  0.74830786  -0.74830786  0.71836371  1.0
  Nb  Nb1  1  0.25169214  -0.25169214  0.28163629  1.0
  Nb  Nb2  1  0.70160924  -0.29839076  0.50000000  1.0
  Nb  Nb3  1  1.29839076  0.29839076  0.50000000  1.0
  Cu  Cu4  1  0.65310309  -0.34689691  0.00000000  1.0
  Cu  Cu5  1  1.34689691  0.34689691  0.00000000  1.0
  Cu  Cu6  1  0.28601269  -0.28601269  0.80015805  1.0
  Cu  Cu7  1  0.71398731  -0.71398731  0.19984195  1.0
  O  O8  1  0.62930180  -0.62930180  0.44225392  1.0
  O  O9  1  0.37069820  -0.37069820  0.55774608  1.0
  O  O10  1  0.80392771  -0.80392771  0.96783309  1.0
  O  O11  1  0.19607229  -0.19607229  0.03216691  1.0
  O  O12  1  1.42881210  0.24643902  0.75576954  1.0
  O  O13  1  0.75356098  -0.42881210  0.75576954  1.0
  O  O14  1  1.24643902  0.42881210  0.24423046  1.0
  O  O15  1  0.57118790  -0.24643902  0.24423046  1.0
  O  O16  1  0.70637835  -0.02970322  0.60528929  1.0
  O  O17  1  1.02970322  0.29362165  0.60528929  1.0
  O  O18  1  0.97029678  -0.29362165  0.39471071  1.0
  O  O19  1  1.29362165  0.02970322  0.39471071  1.0
