# generated using pymatgen
data_Li2CrCl4
_symmetry_space_group_name_H-M   'P 1'
_cell_length_a   6.28815525
_cell_length_b   6.28815525
_cell_length_c   3.80016458
_cell_angle_alpha   87.02886024
_cell_angle_beta   92.97113976
_cell_angle_gamma   73.89429515
_symmetry_Int_Tables_number   1
_chemical_formula_structural   Li2CrCl4
_chemical_formula_sum   'Li2 Cr1 Cl4'
_cell_volume   143.82660388
_cell_formula_units_Z   1
loop_
 _symmetry_equiv_pos_site_id
 _symmetry_equiv_pos_as_xyz
  1  'x, y, z'
loop_
 _atom_site_type_symbol
 _atom_site_label
 _atom_site_symmetry_multiplicity
 _atom_site_fract_x
 _atom_site_fract_y
 _atom_site_fract_z
 _atom_site_occupancy
  Li  Li0  1  1.50000000  0.00000000  0.50000000  1.0
  Li  Li1  1  1.00000000  -0.50000000  0.50000000  1.0
  Cr  Cr2  1  0.00000000  0.00000000  0.00000000  1.0
  Cl  Cl3  1  0.76154789  -0.76154789  0.54570834  1.0
  Cl  Cl4  1  0.23845211  -0.23845211  0.45429166  1.0
  Cl  Cl5  1  0.76171937  -0.23828063  -0.00000000  1.0
  Cl  Cl6  1  1.23828063  0.23828063  -0.00000000  1.0
