# generated using pymatgen
data_NbSeI3
_symmetry_space_group_name_H-M   'P 1'
_cell_length_a   8.49769328
_cell_length_b   8.49769328
_cell_length_c   13.78483680
_cell_angle_alpha   86.50565131
_cell_angle_beta   93.49434869
_cell_angle_gamma   51.72651379
_symmetry_Int_Tables_number   1
_chemical_formula_structural   NbSeI3
_chemical_formula_sum   'Nb4 Se4 I12'
_cell_volume   773.79725006
_cell_formula_units_Z   4
loop_
 _symmetry_equiv_pos_site_id
 _symmetry_equiv_pos_as_xyz
  1  'x, y, z'
loop_
 _atom_site_type_symbol
 _atom_site_label
 _atom_site_symmetry_multiplicity
 _atom_site_fract_x
 _atom_site_fract_y
 _atom_site_fract_z
 _atom_site_occupancy
  Nb  Nb0  1  0.87348984  0.00849589  0.84463580  1.0
  Nb  Nb1  1  0.99150411  -0.87348984  0.34463580  1.0
  Nb  Nb2  1  1.00849589  -0.12651016  0.65536420  1.0
  Nb  Nb3  1  0.12651016  -0.00849589  0.15536420  1.0
  Se  Se4  1  0.67297244  -0.03182382  0.70638123  1.0
  Se  Se5  1  1.03182382  -0.67297244  0.20638123  1.0
  Se  Se6  1  0.96817618  -0.32702756  0.79361877  1.0
  Se  Se7  1  0.32702756  0.03182382  0.29361877  1.0
  I  I8  1  0.75967047  0.05300948  0.46709857  1.0
  I  I9  1  0.94699052  -0.75967047  0.96709857  1.0
  I  I10  1  1.05300948  -0.24032953  0.03290143  1.0
  I  I11  1  0.24032953  -0.05300948  0.53290143  1.0
  I  I12  1  0.29231223  -0.19766103  0.80451887  1.0
  I  I13  1  1.19766103  -0.29231223  0.30451887  1.0
  I  I14  1  0.80233897  -0.70768777  0.69548112  1.0
  I  I15  1  0.70768777  0.19766103  0.19548113  1.0
  I  I16  1  0.49899676  0.22999899  0.91249009  1.0
  I  I17  1  0.77000101  -0.49899676  0.41249009  1.0
  I  I18  1  1.22999899  -0.50100324  0.58750991  1.0
  I  I19  1  0.50100324  -0.22999899  0.08750991  1.0
