# generated using pymatgen
data_Zr2Si
_symmetry_space_group_name_H-M   'P 1'
_cell_length_a   5.38523202
_cell_length_b   5.38523202
_cell_length_c   5.38523202
_cell_angle_alpha   104.03999627
_cell_angle_beta   104.03999627
_cell_angle_gamma   120.98419891
_symmetry_Int_Tables_number   1
_chemical_formula_structural   Zr2Si
_chemical_formula_sum   'Zr4 Si2'
_cell_volume   116.52354435
_cell_formula_units_Z   2
loop_
 _symmetry_equiv_pos_site_id
 _symmetry_equiv_pos_as_xyz
  1  'x, y, z'
loop_
 _atom_site_type_symbol
 _atom_site_label
 _atom_site_symmetry_multiplicity
 _atom_site_fract_x
 _atom_site_fract_y
 _atom_site_fract_z
 _atom_site_occupancy
  Zr  Zr0  1  0.84207304  0.34207304  1.18414608  1.0
  Zr  Zr1  1  0.65792696  0.84207304  0.50000000  1.0
  Zr  Zr2  1  1.34207304  1.15792696  1.50000000  1.0
  Zr  Zr3  1  0.15792696  0.65792696  0.81585392  1.0
  Si  Si4  1  0.25000000  0.25000000  0.00000000  1.0
  Si  Si5  1  0.75000000  0.75000000  0.00000000  1.0
