# generated using pymatgen
data_CoBi6(SO8)2
_symmetry_space_group_name_H-M   'P 1'
_cell_length_a   8.32447025
_cell_length_b   8.32447025
_cell_length_c   11.36429194
_cell_angle_alpha   51.67469884
_cell_angle_beta   128.32530116
_cell_angle_gamma   139.69818447
_symmetry_Int_Tables_number   1
_chemical_formula_structural   CoBi6(SO8)2
_chemical_formula_sum   'Co1 Bi6 S2 O16'
_cell_volume   382.42309206
_cell_formula_units_Z   1
loop_
 _symmetry_equiv_pos_site_id
 _symmetry_equiv_pos_as_xyz
  1  'x, y, z'
loop_
 _atom_site_type_symbol
 _atom_site_label
 _atom_site_symmetry_multiplicity
 _atom_site_fract_x
 _atom_site_fract_y
 _atom_site_fract_z
 _atom_site_occupancy
  Co  Co0  1  1.28750816  0.28750816  0.50000000  1.0
  Bi  Bi1  1  0.99398015  -0.32436693  0.49405892  1.0
  Bi  Bi2  1  0.67563307  -0.00601985  0.50594108  1.0
  Bi  Bi3  1  1.27535147  0.23145725  0.19302030  1.0
  Bi  Bi4  1  1.23145725  0.27535147  0.80697970  1.0
  Bi  Bi5  1  1.60338634  -0.09085115  0.85112268  1.0
  Bi  Bi6  1  0.90914885  0.60338634  0.14887732  1.0
  S  S7  1  0.52780811  -0.15751373  0.20882519  1.0
  S  S8  1  0.84248627  -0.47219189  0.79117481  1.0
  O  O9  1  0.62731236  -0.23138837  0.19067131  1.0
  O  O10  1  0.76861163  -0.37268764  0.80932869  1.0
  O  O11  1  1.14823212  0.82304819  0.31506176  1.0
  O  O12  1  1.82304819  0.14823212  0.68493824  1.0
  O  O13  1  0.75148153  0.05067232  0.29037160  1.0
  O  O14  1  1.05067232  -0.24851847  0.70962840  1.0
  O  O15  1  0.52166722  0.52166722  -0.00000000  1.0
  O  O16  1  0.00183726  0.00183726  -0.00000000  1.0
  O  O17  1  0.66417756  0.31954698  0.32145031  1.0
  O  O18  1  1.31954698  -0.33582244  0.67854969  1.0
  O  O19  1  1.09220104  0.25084098  0.56198272  1.0
  O  O20  1  1.25084098  0.09220104  0.43801728  1.0
  O  O21  1  1.60618756  0.34651778  0.68766179  1.0
  O  O22  1  1.34651778  0.60618756  0.31233821  1.0
  O  O23  1  0.37670644  -0.07460066  0.05748625  1.0
  O  O24  1  0.92539934  -0.62329356  0.94251375  1.0
