# generated using pymatgen
data_Ag2SO4
_symmetry_space_group_name_H-M   'P 1'
_cell_length_a   8.07149068
_cell_length_b   5.66400899
_cell_length_c   9.17426583
_cell_angle_alpha   90.00000000
_cell_angle_beta   90.00000000
_cell_angle_gamma   90.00000000
_symmetry_Int_Tables_number   1
_chemical_formula_structural   Ag2SO4
_chemical_formula_sum   'Ag8 S4 O16'
_cell_volume   419.41987246
_cell_formula_units_Z   4
loop_
 _symmetry_equiv_pos_site_id
 _symmetry_equiv_pos_as_xyz
  1  'x, y, z'
loop_
 _atom_site_type_symbol
 _atom_site_label
 _atom_site_symmetry_multiplicity
 _atom_site_fract_x
 _atom_site_fract_y
 _atom_site_fract_z
 _atom_site_occupancy
  Ag  Ag0  1  0.91086812  0.75000000  0.35918091  1.0
  Ag  Ag1  1  0.41086812  0.75000000  0.14081909  1.0
  Ag  Ag2  1  0.08913188  0.25000000  0.64081909  1.0
  Ag  Ag3  1  0.58913188  0.25000000  0.85918091  1.0
  Ag  Ag4  1  0.63001995  0.75000000  0.69074544  1.0
  Ag  Ag5  1  0.13001995  0.75000000  0.80925456  1.0
  Ag  Ag6  1  0.36998005  0.25000000  0.30925456  1.0
  Ag  Ag7  1  0.86998005  0.25000000  0.19074544  1.0
  S  S8  1  0.79093718  0.75000000  0.01189652  1.0
  S  S9  1  0.29093718  0.75000000  0.48810348  1.0
  S  S10  1  0.20906282  0.25000000  0.98810348  1.0
  S  S11  1  0.70906282  0.25000000  0.51189652  1.0
  O  O12  1  0.68683452  0.96602435  0.03963186  1.0
  O  O13  1  0.68683452  0.53397565  0.03963186  1.0
  O  O14  1  0.18683452  0.96602435  0.46036814  1.0
  O  O15  1  0.18683452  0.53397565  0.46036814  1.0
  O  O16  1  0.31316548  0.46602435  0.96036814  1.0
  O  O17  1  0.31316548  0.03397565  0.96036814  1.0
  O  O18  1  0.81316548  0.46602435  0.53963186  1.0
  O  O19  1  0.81316548  0.03397565  0.53963186  1.0
  O  O20  1  0.93984881  0.75000000  0.10939789  1.0
  O  O21  1  0.43984881  0.75000000  0.39060211  1.0
  O  O22  1  0.06015119  0.25000000  0.89060211  1.0
  O  O23  1  0.56015119  0.25000000  0.60939789  1.0
  O  O24  1  0.35012806  0.75000000  0.64492048  1.0
  O  O25  1  0.85012806  0.75000000  0.85507952  1.0
  O  O26  1  0.64987194  0.25000000  0.35507952  1.0
  O  O27  1  0.14987194  0.25000000  0.14492048  1.0
