# generated using pymatgen
data_Sr3(GaP2)2
_symmetry_space_group_name_H-M   'P 1'
_cell_length_a   8.37599740
_cell_length_b   8.37599740
_cell_length_c   6.69303699
_cell_angle_alpha   89.79411474
_cell_angle_beta   90.20588526
_cell_angle_gamma   104.45136770
_symmetry_Int_Tables_number   1
_chemical_formula_structural   Sr3(GaP2)2
_chemical_formula_sum   'Sr6 Ga4 P8'
_cell_volume   454.70377805
_cell_formula_units_Z   2
loop_
 _symmetry_equiv_pos_site_id
 _symmetry_equiv_pos_as_xyz
  1  'x, y, z'
loop_
 _atom_site_type_symbol
 _atom_site_label
 _atom_site_symmetry_multiplicity
 _atom_site_fract_x
 _atom_site_fract_y
 _atom_site_fract_z
 _atom_site_occupancy
  Sr  Sr0  1  0.74799153  -0.00461838  0.96042188  1.0
  Sr  Sr1  1  1.00461838  0.25200847  0.46042188  1.0
  Sr  Sr2  1  0.99538162  -0.25200847  0.53957812  1.0
  Sr  Sr3  1  1.25200847  0.00461838  0.03957812  1.0
  Sr  Sr4  1  1.40017896  0.40017896  0.75000000  1.0
  Sr  Sr5  1  0.59982104  -0.40017896  0.25000000  1.0
  Ga  Ga6  1  0.41729518  -0.17539117  0.58367757  1.0
  Ga  Ga7  1  1.17539117  0.58270482  0.08367757  1.0
  Ga  Ga8  1  0.82460883  -0.58270482  0.91632243  1.0
  Ga  Ga9  1  1.58270482  0.17539117  0.41632243  1.0
  P  P10  1  1.29463474  0.05792023  0.52296980  1.0
  P  P11  1  0.94207977  -0.29463474  0.02296980  1.0
  P  P12  1  1.05792023  0.29463474  0.97703020  1.0
  P  P13  1  0.70536526  -0.05792023  0.47703020  1.0
  P  P14  1  0.42517228  -0.25970700  0.92643772  1.0
  P  P15  1  1.25970700  0.57482772  0.42643772  1.0
  P  P16  1  0.74029300  -0.57482772  0.57356228  1.0
  P  P17  1  1.57482772  0.25970700  0.07356228  1.0
