# generated using pymatgen
data_Pb2OF2
_symmetry_space_group_name_H-M   'P 1'
_cell_length_a   8.40536159
_cell_length_b   8.40536159
_cell_length_c   5.86089784
_cell_angle_alpha   90.00000000
_cell_angle_beta   90.00000000
_cell_angle_gamma   90.00000000
_symmetry_Int_Tables_number   1
_chemical_formula_structural   Pb2OF2
_chemical_formula_sum   'Pb8 O4 F8'
_cell_volume   414.07303890
_cell_formula_units_Z   4
loop_
 _symmetry_equiv_pos_site_id
 _symmetry_equiv_pos_as_xyz
  1  'x, y, z'
loop_
 _atom_site_type_symbol
 _atom_site_label
 _atom_site_symmetry_multiplicity
 _atom_site_fract_x
 _atom_site_fract_y
 _atom_site_fract_z
 _atom_site_occupancy
  Pb  Pb0  1  0.78030897  0.50000000  0.20550705  1.0
  Pb  Pb1  1  0.21969103  0.50000000  0.20550705  1.0
  Pb  Pb2  1  0.00000000  0.28030897  0.70550705  1.0
  Pb  Pb3  1  0.00000000  0.71969103  0.70550705  1.0
  Pb  Pb4  1  0.71969103  0.00000000  0.29449295  1.0
  Pb  Pb5  1  0.28030897  0.00000000  0.29449295  1.0
  Pb  Pb6  1  0.50000000  0.21969103  0.79449295  1.0
  Pb  Pb7  1  0.50000000  0.78030897  0.79449295  1.0
  O  O8  1  0.00000000  0.50000000  0.93126667  1.0
  O  O9  1  0.00000000  0.50000000  0.43126667  1.0
  O  O10  1  0.50000000  0.00000000  0.56873333  1.0
  O  O11  1  0.50000000  0.00000000  0.06873333  1.0
  F  F12  1  0.78227596  0.21772404  0.00000000  1.0
  F  F13  1  0.21772404  0.21772404  -0.00000000  1.0
  F  F14  1  0.78227596  0.78227596  0.00000000  1.0
  F  F15  1  0.21772404  0.78227596  -0.00000000  1.0
  F  F16  1  0.71772404  0.28227596  0.50000000  1.0
  F  F17  1  0.28227596  0.28227596  0.50000000  1.0
  F  F18  1  0.71772404  0.71772404  0.50000000  1.0
  F  F19  1  0.28227596  0.71772404  0.50000000  1.0
