# generated using pymatgen
data_CuH
_symmetry_space_group_name_H-M   'P 1'
_cell_length_a   2.86456566
_cell_length_b   2.86456566
_cell_length_c   4.57498712
_cell_angle_alpha   90.00000000
_cell_angle_beta   90.00000000
_cell_angle_gamma   120.00000000
_symmetry_Int_Tables_number   1
_chemical_formula_structural   CuH
_chemical_formula_sum   'Cu2 H2'
_cell_volume   32.51157961
_cell_formula_units_Z   2
loop_
 _symmetry_equiv_pos_site_id
 _symmetry_equiv_pos_as_xyz
  1  'x, y, z'
loop_
 _atom_site_type_symbol
 _atom_site_label
 _atom_site_symmetry_multiplicity
 _atom_site_fract_x
 _atom_site_fract_y
 _atom_site_fract_z
 _atom_site_occupancy
  Cu  Cu0  1  0.33333333  0.66666667  0.38099585  1.0
  Cu  Cu1  1  0.66666667  0.33333333  0.88099585  1.0
  H  H2  1  0.33333333  0.66666667  0.00000415  1.0
  H  H3  1  0.66666667  0.33333333  0.50000415  1.0
