# generated using pymatgen
data_Gd2Fe17N3
_symmetry_space_group_name_H-M   'P 1'
_cell_length_a   6.51244554
_cell_length_b   6.51244554
_cell_length_c   6.51244554
_cell_angle_alpha   83.26123981
_cell_angle_beta   83.26123981
_cell_angle_gamma   83.26123981
_symmetry_Int_Tables_number   1
_chemical_formula_structural   Gd2Fe17N3
_chemical_formula_sum   'Gd2 Fe17 N3'
_cell_volume   270.89600695
_cell_formula_units_Z   1
loop_
 _symmetry_equiv_pos_site_id
 _symmetry_equiv_pos_as_xyz
  1  'x, y, z'
loop_
 _atom_site_type_symbol
 _atom_site_label
 _atom_site_symmetry_multiplicity
 _atom_site_fract_x
 _atom_site_fract_y
 _atom_site_fract_z
 _atom_site_occupancy
  Gd  Gd0  1  0.65714184  0.65714184  -0.34285816  1.0
  Gd  Gd1  1  0.34285816  0.34285816  -0.65714184  1.0
  Fe  Fe2  1  0.90560114  0.90560114  -0.09439886  1.0
  Fe  Fe3  1  1.09439886  1.09439886  0.09439886  1.0
  Fe  Fe4  1  0.34250260  0.34250260  -0.14269003  1.0
  Fe  Fe5  1  0.34250260  0.85730997  -0.65749740  1.0
  Fe  Fe6  1  1.14269003  -0.34250260  -0.34250260  1.0
  Fe  Fe7  1  0.65749740  0.14269003  -0.34250260  1.0
  Fe  Fe8  1  0.65749740  -0.34250260  0.14269003  1.0
  Fe  Fe9  1  0.85730997  0.34250260  -0.65749740  1.0
  Fe  Fe10  1  0.71749482  -0.00000000  0.28250518  1.0
  Fe  Fe11  1  0.71749482  -0.71749482  0.00000000  1.0
  Fe  Fe12  1  0.00000000  0.71749482  -0.71749482  1.0
  Fe  Fe13  1  0.00000000  0.28250518  -0.28250518  1.0
  Fe  Fe14  1  1.28250518  0.00000000  -0.28250518  1.0
  Fe  Fe15  1  0.28250518  -0.28250518  0.00000000  1.0
  Fe  Fe16  1  1.00000000  1.50000000  -0.00000000  1.0
  Fe  Fe17  1  1.00000000  0.00000000  -0.50000000  1.0
  Fe  Fe18  1  0.50000000  0.00000000  -0.00000000  1.0
  N  N19  1  0.50000000  1.00000000  -0.50000000  1.0
  N  N20  1  0.50000000  -0.50000000  0.00000000  1.0
  N  N21  1  0.00000000  0.50000000  -0.50000000  1.0
