# generated using pymatgen
data_SrBi2(B2O5)2
_symmetry_space_group_name_H-M   'P 1'
_cell_length_a   7.03367076
_cell_length_b   6.85924017
_cell_length_c   10.05529026
_cell_angle_alpha   68.70895270
_cell_angle_beta   76.15827689
_cell_angle_gamma   78.34858423
_symmetry_Int_Tables_number   1
_chemical_formula_structural   SrBi2(B2O5)2
_chemical_formula_sum   'Sr2 Bi4 B8 O20'
_cell_volume   435.32117566
_cell_formula_units_Z   2
loop_
 _symmetry_equiv_pos_site_id
 _symmetry_equiv_pos_as_xyz
  1  'x, y, z'
loop_
 _atom_site_type_symbol
 _atom_site_label
 _atom_site_symmetry_multiplicity
 _atom_site_fract_x
 _atom_site_fract_y
 _atom_site_fract_z
 _atom_site_occupancy
  Sr  Sr0  1  -0.85077077  0.36738867  0.16546809  1.0
  Sr  Sr1  1  -0.14922923  -0.36738867  0.83453191  1.0
  Bi  Bi2  1  -0.98312959  0.20375211  0.60101373  1.0
  Bi  Bi3  1  -0.01687041  -0.20375211  0.39898627  1.0
  Bi  Bi4  1  -0.64192332  -0.42931856  0.66318768  1.0
  Bi  Bi5  1  -0.35807668  0.42931856  0.33681232  1.0
  B  B6  1  -0.74937946  0.81740690  0.09265578  1.0
  B  B7  1  -0.25062054  -0.81740690  0.90734422  1.0
  B  B8  1  -0.69664113  -0.12262168  0.82270194  1.0
  B  B9  1  -0.30335887  0.12262168  0.17729806  1.0
  B  B10  1  -0.39075327  0.02158735  0.63298311  1.0
  B  B11  1  -0.60924673  -0.02158735  0.36701689  1.0
  B  B12  1  -0.79583105  -0.82428937  0.92534229  1.0
  B  B13  1  -0.20416895  0.82428937  0.07465771  1.0
  O  O14  1  -0.77645995  0.68405858  0.23257111  1.0
  O  O15  1  -0.22354005  -0.68405858  0.76742889  1.0
  O  O16  1  -0.77504341  0.09700970  0.81491823  1.0
  O  O17  1  -0.22495659  -0.09700970  0.18508177  1.0
  O  O18  1  -0.22399381  -0.03594010  0.93476130  1.0
  O  O19  1  -0.77600619  0.03594010  0.06523870  1.0
  O  O20  1  -0.48877798  0.20366105  0.55347374  1.0
  O  O21  1  -0.51122202  -0.20366105  0.44652626  1.0
  O  O22  1  -0.70516106  -0.26114506  0.97923373  1.0
  O  O23  1  -0.29483894  0.26114506  0.02076627  1.0
  O  O24  1  -0.48453505  -0.13619809  0.75024238  1.0
  O  O25  1  -0.51546495  0.13619809  0.24975762  1.0
  O  O26  1  -0.81492794  -0.18645753  0.74795536  1.0
  O  O27  1  -0.18507206  0.18645753  0.25204464  1.0
  O  O28  1  -0.81420233  0.02744095  0.39314912  1.0
  O  O29  1  -0.18579767  -0.02744095  0.60685088  1.0
  O  O30  1  -0.83406536  -0.61646360  0.90508997  1.0
  O  O31  1  -0.16593464  0.61646360  0.09491003  1.0
  O  O32  1  -0.89485097  -0.44348116  0.58585427  1.0
  O  O33  1  -0.10514903  0.44348116  0.41414573  1.0
