# generated using pymatgen
data_Y4Al23Ni6
_symmetry_space_group_name_H-M   'P 1'
_cell_length_a   8.17302580
_cell_length_b   8.17302580
_cell_length_c   18.35184349
_cell_angle_alpha   67.87594944
_cell_angle_beta   112.12405056
_cell_angle_gamma   151.13466197
_symmetry_Int_Tables_number   1
_chemical_formula_structural   Y4Al23Ni6
_chemical_formula_sum   'Y4 Al23 Ni6'
_cell_volume   545.21092824
_cell_formula_units_Z   1
loop_
 _symmetry_equiv_pos_site_id
 _symmetry_equiv_pos_as_xyz
  1  'x, y, z'
loop_
 _atom_site_type_symbol
 _atom_site_label
 _atom_site_symmetry_multiplicity
 _atom_site_fract_x
 _atom_site_fract_y
 _atom_site_fract_z
 _atom_site_occupancy
  Y  Y0  1  0.73486093  0.26513907  0.78121367  1.0
  Y  Y1  1  1.26513907  -0.26513907  0.21878633  1.0
  Y  Y2  1  1.42774544  -0.42774544  0.59336639  1.0
  Y  Y3  1  0.57225456  0.42774544  0.40663361  1.0
  Al  Al4  1  0.91901788  -0.91901788  0.31403682  1.0
  Al  Al5  1  0.08098212  -0.08098212  0.68596318  1.0
  Al  Al6  1  0.91022809  0.08977191  0.94769398  1.0
  Al  Al7  1  1.08977191  -0.08977191  0.05230602  1.0
  Al  Al8  1  0.90945808  -0.90945808  0.71818734  1.0
  Al  Al9  1  0.09054192  -0.09054192  0.28181266  1.0
  Al  Al10  1  0.79949520  -0.79949520  0.47963997  1.0
  Al  Al11  1  0.20050480  -0.20050480  0.52036003  1.0
  Al  Al12  1  0.74390523  0.25609477  0.95341611  1.0
  Al  Al13  1  1.25609477  -0.25609477  0.04658389  1.0
  Al  Al14  1  0.72607002  -0.72607002  0.32487204  1.0
  Al  Al15  1  0.27392998  -0.27392998  0.67512796  1.0
  Al  Al16  1  0.62190343  0.37809657  0.59494639  1.0
  Al  Al17  1  1.37809657  -0.37809657  0.40505361  1.0
  Al  Al18  1  0.56576414  0.43423586  0.94058857  1.0
  Al  Al19  1  1.43423586  -0.43423586  0.05941143  1.0
  Al  Al20  1  0.53256824  0.46743176  0.78140704  1.0
  Al  Al21  1  1.46743176  -0.46743176  0.21859296  1.0
  Al  Al22  1  0.38941924  -0.38941924  0.83578685  1.0
  Al  Al23  1  0.61058076  -0.61058076  0.16421315  1.0
  Al  Al24  1  0.14477512  -0.14477512  0.85697171  1.0
  Al  Al25  1  0.85522488  -0.85522488  0.14302829  1.0
  Al  Al26  1  0.00000000  -0.00000000  0.50000000  1.0
  Ni  Ni27  1  0.99150964  -0.99150964  0.86095879  1.0
  Ni  Ni28  1  0.00849036  -0.00849036  0.13904121  1.0
  Ni  Ni29  1  0.77262651  0.22737349  0.60071511  1.0
  Ni  Ni30  1  1.22737349  -0.22737349  0.39928489  1.0
  Ni  Ni31  1  0.31097510  -0.31097510  0.93175256  1.0
  Ni  Ni32  1  0.68902490  -0.68902490  0.06824744  1.0
