# generated using pymatgen
data_Na2ZrF6
_symmetry_space_group_name_H-M   'P 1'
_cell_length_a   5.66007393
_cell_length_b   5.51274391
_cell_length_c   16.37346711
_cell_angle_alpha   90.00000000
_cell_angle_beta   96.12827348
_cell_angle_gamma   90.00000000
_symmetry_Int_Tables_number   1
_chemical_formula_structural   Na2ZrF6
_chemical_formula_sum   'Na8 Zr4 F24'
_cell_volume   507.97417033
_cell_formula_units_Z   4
loop_
 _symmetry_equiv_pos_site_id
 _symmetry_equiv_pos_as_xyz
  1  'x, y, z'
loop_
 _atom_site_type_symbol
 _atom_site_label
 _atom_site_symmetry_multiplicity
 _atom_site_fract_x
 _atom_site_fract_y
 _atom_site_fract_z
 _atom_site_occupancy
  Na  Na0  1  0.82810169  0.49578408  0.40860846  1.0
  Na  Na1  1  0.82810169  0.00421592  0.90860846  1.0
  Na  Na2  1  0.17189831  0.99578408  0.09139154  1.0
  Na  Na3  1  0.17189831  0.50421592  0.59139154  1.0
  Na  Na4  1  0.74312485  0.96270112  0.24686261  1.0
  Na  Na5  1  0.74312485  0.53729888  0.74686261  1.0
  Na  Na6  1  0.25687515  0.46270112  0.25313739  1.0
  Na  Na7  1  0.25687515  0.03729888  0.75313739  1.0
  Zr  Zr8  1  0.67286257  0.44881081  0.09898196  1.0
  Zr  Zr9  1  0.67286257  0.05118919  0.59898196  1.0
  Zr  Zr10  1  0.32713743  0.94881081  0.40101804  1.0
  Zr  Zr11  1  0.32713743  0.55118919  0.90101804  1.0
  F  F12  1  0.55857886  0.18029339  0.35095887  1.0
  F  F13  1  0.55857886  0.31970661  0.85095887  1.0
  F  F14  1  0.44142114  0.68029339  0.14904113  1.0
  F  F15  1  0.44142114  0.81970661  0.64904113  1.0
  F  F16  1  0.63297204  0.83344751  0.48826225  1.0
  F  F17  1  0.63297204  0.66655249  0.98826225  1.0
  F  F18  1  0.36702796  0.33344751  0.01173775  1.0
  F  F19  1  0.36702796  0.16655249  0.51173775  1.0
  F  F20  1  0.47776887  0.21332377  0.16419332  1.0
  F  F21  1  0.47776887  0.28667623  0.66419332  1.0
  F  F22  1  0.52223113  0.71332377  0.33580668  1.0
  F  F23  1  0.52223113  0.78667623  0.83580668  1.0
  F  F24  1  0.92407934  0.28670625  0.18376766  1.0
  F  F25  1  0.92407934  0.21329375  0.68376766  1.0
  F  F26  1  0.07592066  0.78670625  0.31623234  1.0
  F  F27  1  0.07592066  0.71329375  0.81623234  1.0
  F  F28  1  0.89337950  0.72753375  0.13436746  1.0
  F  F29  1  0.89337950  0.77246625  0.63436746  1.0
  F  F30  1  0.10662050  0.22753375  0.36563254  1.0
  F  F31  1  0.10662050  0.27246625  0.86563254  1.0
  F  F32  1  0.83926721  0.22241358  0.02660341  1.0
  F  F33  1  0.83926721  0.27758642  0.52660341  1.0
  F  F34  1  0.16073279  0.72241358  0.47339659  1.0
  F  F35  1  0.16073279  0.77758642  0.97339659  1.0
