# generated using pymatgen
data_Hg3SbAsS3
_symmetry_space_group_name_H-M   'P 1'
_cell_length_a   12.02417943
_cell_length_b   4.58751090
_cell_length_c   19.88326669
_cell_angle_alpha   90.00000000
_cell_angle_beta   125.53030362
_cell_angle_gamma   90.00000000
_symmetry_Int_Tables_number   1
_chemical_formula_structural   Hg3SbAsS3
_chemical_formula_sum   'Hg12 Sb4 As4 S12'
_cell_volume   892.57022478
_cell_formula_units_Z   4
loop_
 _symmetry_equiv_pos_site_id
 _symmetry_equiv_pos_as_xyz
  1  'x, y, z'
loop_
 _atom_site_type_symbol
 _atom_site_label
 _atom_site_symmetry_multiplicity
 _atom_site_fract_x
 _atom_site_fract_y
 _atom_site_fract_z
 _atom_site_occupancy
  Hg  Hg0  1  0.79780104  0.40700716  0.17608745  1.0
  Hg  Hg1  1  0.79780104  0.09299284  0.67608745  1.0
  Hg  Hg2  1  0.20219896  0.90700716  0.32391255  1.0
  Hg  Hg3  1  0.20219896  0.59299284  0.82391255  1.0
  Hg  Hg4  1  0.55481727  0.23375007  0.42012139  1.0
  Hg  Hg5  1  0.55481727  0.26624993  0.92012139  1.0
  Hg  Hg6  1  0.44518273  0.73375007  0.07987861  1.0
  Hg  Hg7  1  0.44518273  0.76624993  0.57987861  1.0
  Hg  Hg8  1  0.28764397  0.22863171  0.18784732  1.0
  Hg  Hg9  1  0.28764397  0.27136829  0.68784732  1.0
  Hg  Hg10  1  0.71235603  0.72863171  0.31215268  1.0
  Hg  Hg11  1  0.71235603  0.77136829  0.81215268  1.0
  Sb  Sb12  1  0.89910024  0.81597577  0.04551701  1.0
  Sb  Sb13  1  0.89910024  0.68402423  0.54551701  1.0
  Sb  Sb14  1  0.10089976  0.31597577  0.45448299  1.0
  Sb  Sb15  1  0.10089976  0.18402423  0.95448299  1.0
  As  As16  1  0.60515869  0.37139123  0.19341289  1.0
  As  As17  1  0.60515869  0.12860877  0.69341289  1.0
  As  As18  1  0.39484131  0.87139123  0.30658711  1.0
  As  As19  1  0.39484131  0.62860877  0.80658711  1.0
  S  S20  1  0.98483457  0.47194321  0.16191614  1.0
  S  S21  1  0.98483457  0.02805679  0.66191614  1.0
  S  S22  1  0.01516543  0.97194321  0.33808386  1.0
  S  S23  1  0.01516543  0.52805679  0.83808386  1.0
  S  S24  1  0.80948710  0.05631039  0.42939568  1.0
  S  S25  1  0.80948710  0.44368961  0.92939568  1.0
  S  S26  1  0.19051290  0.55631039  0.07060432  1.0
  S  S27  1  0.19051290  0.94368961  0.57060432  1.0
  S  S28  1  0.32035074  0.40211679  0.47058645  1.0
  S  S29  1  0.32035074  0.09788321  0.97058645  1.0
  S  S30  1  0.67964926  0.90211679  0.02941355  1.0
  S  S31  1  0.67964926  0.59788321  0.52941355  1.0
