# generated using pymatgen
data_MnSi
_symmetry_space_group_name_H-M   'P 1'
_cell_length_a   4.51877290
_cell_length_b   4.51877290
_cell_length_c   4.51877290
_cell_angle_alpha   90.00000000
_cell_angle_beta   90.00000000
_cell_angle_gamma   90.00000000
_symmetry_Int_Tables_number   1
_chemical_formula_structural   MnSi
_chemical_formula_sum   'Mn4 Si4'
_cell_volume   92.27021804
_cell_formula_units_Z   4
loop_
 _symmetry_equiv_pos_site_id
 _symmetry_equiv_pos_as_xyz
  1  'x, y, z'
loop_
 _atom_site_type_symbol
 _atom_site_label
 _atom_site_symmetry_multiplicity
 _atom_site_fract_x
 _atom_site_fract_y
 _atom_site_fract_z
 _atom_site_occupancy
  Mn  Mn0  1  0.11351664  0.61351664  0.88648336  1.0
  Mn  Mn1  1  0.61351664  0.88648336  0.11351664  1.0
  Mn  Mn2  1  0.88648336  0.11351664  0.61351664  1.0
  Mn  Mn3  1  0.38648336  0.38648336  0.38648336  1.0
  Si  Si4  1  0.40477968  0.90477968  0.59522032  1.0
  Si  Si5  1  0.90477968  0.59522032  0.40477968  1.0
  Si  Si6  1  0.59522032  0.40477968  0.90477968  1.0
  Si  Si7  1  0.09522032  0.09522032  0.09522032  1.0
