# generated using pymatgen
data_Lu2(NiB2)3
_symmetry_space_group_name_H-M   'P 1'
_cell_length_a   5.74624860
_cell_length_b   5.74624860
_cell_length_c   3.42616435
_cell_angle_alpha   90.00000000
_cell_angle_beta   90.00000000
_cell_angle_gamma   96.80479675
_symmetry_Int_Tables_number   1
_chemical_formula_structural   Lu2(NiB2)3
_chemical_formula_sum   'Lu2 Ni3 B6'
_cell_volume   112.33286621
_cell_formula_units_Z   1
loop_
 _symmetry_equiv_pos_site_id
 _symmetry_equiv_pos_as_xyz
  1  'x, y, z'
loop_
 _atom_site_type_symbol
 _atom_site_label
 _atom_site_symmetry_multiplicity
 _atom_site_fract_x
 _atom_site_fract_y
 _atom_site_fract_z
 _atom_site_occupancy
  Lu  Lu0  1  0.27626292  0.72373708  0.50000000  1.0
  Lu  Lu1  1  -0.27626292  1.27626292  0.50000000  1.0
  Ni  Ni2  1  0.77274303  0.77274303  0.50000000  1.0
  Ni  Ni3  1  0.22725697  0.22725697  0.50000000  1.0
  Ni  Ni4  1  0.00000000  0.00000000  0.00000000  1.0
  B  B5  1  -0.08318810  1.61486398  0.00000000  1.0
  B  B6  1  0.61486398  0.91681190  0.00000000  1.0
  B  B7  1  -0.61486398  1.08318810  0.00000000  1.0
  B  B8  1  0.08318810  0.38513602  0.00000000  1.0
  B  B9  1  0.61240539  0.61240539  0.00000000  1.0
  B  B10  1  0.38759461  0.38759461  0.00000000  1.0
