# generated using pymatgen
data_MgCd3(SeO3)4
_symmetry_space_group_name_H-M   'P 1'
_cell_length_a   9.70666641
_cell_length_b   8.53215534
_cell_length_c   8.46181933
_cell_angle_alpha   101.18275562
_cell_angle_beta   115.47513686
_cell_angle_gamma   86.48201822
_symmetry_Int_Tables_number   1
_chemical_formula_structural   MgCd3(SeO3)4
_chemical_formula_sum   'Mg2 Cd6 Se8 O24'
_cell_volume   620.45601483
_cell_formula_units_Z   2
loop_
 _symmetry_equiv_pos_site_id
 _symmetry_equiv_pos_as_xyz
  1  'x, y, z'
loop_
 _atom_site_type_symbol
 _atom_site_label
 _atom_site_symmetry_multiplicity
 _atom_site_fract_x
 _atom_site_fract_y
 _atom_site_fract_z
 _atom_site_occupancy
  Mg  Mg0  1  -0.00000000  0.50000000  -0.50000000  1.0
  Mg  Mg1  1  0.50000000  0.00000000  -0.50000000  1.0
  Cd  Cd2  1  0.35810699  0.40542184  -0.24207434  1.0
  Cd  Cd3  1  0.64189301  0.59457816  -0.75792566  1.0
  Cd  Cd4  1  0.18335175  0.96684857  -0.33039289  1.0
  Cd  Cd5  1  0.81664825  0.03315143  -0.66960711  1.0
  Cd  Cd6  1  0.40158504  0.21315200  -0.86445743  1.0
  Cd  Cd7  1  0.59841496  0.78684800  -0.13554257  1.0
  Se  Se8  1  0.30920873  0.67059343  -0.51292773  1.0
  Se  Se9  1  0.69079127  0.32940657  -0.48707227  1.0
  Se  Se10  1  0.12830182  0.17844639  -0.69960226  1.0
  Se  Se11  1  0.87169818  0.82155361  -0.30039774  1.0
  Se  Se12  1  0.66330011  0.21602658  -0.06833131  1.0
  Se  Se13  1  0.33669989  0.78397342  -0.93166869  1.0
  Se  Se14  1  0.09027468  0.34781473  -0.13463167  1.0
  Se  Se15  1  0.90972532  0.65218527  -0.86536833  1.0
  O  O16  1  0.06896998  0.03506809  -0.61922344  1.0
  O  O17  1  0.93103002  0.96493191  -0.38077656  1.0
  O  O18  1  0.12050556  0.49959820  -0.22520756  1.0
  O  O19  1  0.87949444  0.50040180  -0.77479244  1.0
  O  O20  1  0.30696572  0.11645694  -0.67345383  1.0
  O  O21  1  0.69303428  0.88354306  -0.32654617  1.0
  O  O22  1  0.61952897  0.13351531  -0.59091044  1.0
  O  O23  1  0.38047103  0.86648469  -0.40908956  1.0
  O  O24  1  0.52484187  0.18142209  -0.28528690  1.0
  O  O25  1  0.47515813  0.81857791  -0.71471310  1.0
  O  O26  1  0.15534467  0.68783555  -0.45857689  1.0
  O  O27  1  0.84465533  0.31216445  -0.54142311  1.0
  O  O28  1  0.22721170  0.21760485  -0.17395006  1.0
  O  O29  1  0.77278830  0.78239515  -0.82604994  1.0
  O  O30  1  0.44694956  0.57656675  -0.35507359  1.0
  O  O31  1  0.55305044  0.42343325  -0.64492641  1.0
  O  O32  1  0.16480713  0.34419739  -0.53295615  1.0
  O  O33  1  0.83519287  0.65580261  -0.46704385  1.0
  O  O34  1  0.19559804  0.40065119  -0.91174374  1.0
  O  O35  1  0.80440196  0.59934881  -0.08825626  1.0
  O  O36  1  0.66027362  0.04992250  -0.98036176  1.0
  O  O37  1  0.33972638  0.95007750  -0.01963824  1.0
  O  O38  1  0.55535351  0.34400179  -0.98273300  1.0
  O  O39  1  0.44464649  0.65599821  -0.01726700  1.0
