# generated using pymatgen
data_Na2AlH4ClO4
_symmetry_space_group_name_H-M   'P 1'
_cell_length_a   7.67433248
_cell_length_b   7.67433248
_cell_length_c   5.04221445
_cell_angle_alpha   90.00000000
_cell_angle_beta   90.00000000
_cell_angle_gamma   90.00000000
_symmetry_Int_Tables_number   1
_chemical_formula_structural   Na2AlH4ClO4
_chemical_formula_sum   'Na4 Al2 H8 Cl2 O8'
_cell_volume   296.96313134
_cell_formula_units_Z   2
loop_
 _symmetry_equiv_pos_site_id
 _symmetry_equiv_pos_as_xyz
  1  'x, y, z'
loop_
 _atom_site_type_symbol
 _atom_site_label
 _atom_site_symmetry_multiplicity
 _atom_site_fract_x
 _atom_site_fract_y
 _atom_site_fract_z
 _atom_site_occupancy
  Na  Na0  1  0.25000000  0.25000000  0.50000000  1.0
  Na  Na1  1  0.75000000  0.75000000  0.50000000  1.0
  Na  Na2  1  0.75000000  0.25000000  0.50000000  1.0
  Na  Na3  1  0.25000000  0.75000000  0.50000000  1.0
  Al  Al4  1  0.50000000  0.50000000  0.00000000  1.0
  Al  Al5  1  0.00000000  0.00000000  0.00000000  1.0
  H  H6  1  0.50000000  0.21058154  0.10391321  1.0
  H  H7  1  0.50000000  0.78941846  0.10391321  1.0
  H  H8  1  0.00000000  0.71058154  0.89608679  1.0
  H  H9  1  0.00000000  0.28941846  0.89608679  1.0
  H  H10  1  0.78941846  0.50000000  0.89608679  1.0
  H  H11  1  0.21058154  0.50000000  0.89608679  1.0
  H  H12  1  0.28941846  0.00000000  0.10391321  1.0
  H  H13  1  0.71058154  0.00000000  0.10391321  1.0
  Cl  Cl14  1  0.50000000  0.00000000  0.77967972  1.0
  Cl  Cl15  1  0.00000000  0.50000000  0.22032028  1.0
  O  O16  1  0.50000000  0.31515371  0.21533272  1.0
  O  O17  1  0.50000000  0.68484629  0.21533272  1.0
  O  O18  1  0.00000000  0.81515371  0.78466728  1.0
  O  O19  1  0.00000000  0.18484629  0.78466728  1.0
  O  O20  1  0.68484629  0.50000000  0.78466728  1.0
  O  O21  1  0.31515371  0.50000000  0.78466728  1.0
  O  O22  1  0.18484629  0.00000000  0.21533272  1.0
  O  O23  1  0.81515371  0.00000000  0.21533272  1.0
