# generated using pymatgen
data_SiC
_symmetry_space_group_name_H-M   'P 1'
_cell_length_a   3.09628726
_cell_length_b   3.09628726
_cell_length_c   20.24944356
_cell_angle_alpha   90.00000000
_cell_angle_beta   90.00000000
_cell_angle_gamma   120.00000000
_symmetry_Int_Tables_number   1
_chemical_formula_structural   SiC
_chemical_formula_sum   'Si8 C8'
_cell_volume   168.12264658
_cell_formula_units_Z   8
loop_
 _symmetry_equiv_pos_site_id
 _symmetry_equiv_pos_as_xyz
  1  'x, y, z'
loop_
 _atom_site_type_symbol
 _atom_site_label
 _atom_site_symmetry_multiplicity
 _atom_site_fract_x
 _atom_site_fract_y
 _atom_site_fract_z
 _atom_site_occupancy
  Si  Si0  1  0.33333333  0.66666667  0.12489775  1.0
  Si  Si1  1  0.66666667  0.33333333  0.62489775  1.0
  Si  Si2  1  0.00000000  0.00000000  -0.00000521  1.0
  Si  Si3  1  0.00000000  0.00000000  0.49999479  1.0
  Si  Si4  1  0.33333333  0.66666667  0.75000540  1.0
  Si  Si5  1  0.66666667  0.33333333  0.25000540  1.0
  Si  Si6  1  0.33333333  0.66666667  0.37508421  1.0
  Si  Si7  1  0.66666667  0.33333333  0.87508421  1.0
  C  C8  1  0.33333333  0.66666667  0.21863091  1.0
  C  C9  1  0.66666667  0.33333333  0.71863091  1.0
  C  C10  1  0.33333333  0.66666667  0.84401318  1.0
  C  C11  1  0.66666667  0.33333333  0.34401318  1.0
  C  C12  1  0.00000000  0.00000000  0.09375869  1.0
  C  C13  1  0.00000000  0.00000000  0.59375869  1.0
  C  C14  1  0.33333333  0.66666667  0.46881506  1.0
  C  C15  1  0.66666667  0.33333333  0.96881506  1.0
