# generated using pymatgen
data_Ba5Re3IO15
_symmetry_space_group_name_H-M   'P 1'
_cell_length_a   11.23734129
_cell_length_b   11.23734129
_cell_length_c   7.96349843
_cell_angle_alpha   90.00000000
_cell_angle_beta   90.00000000
_cell_angle_gamma   120.00000000
_symmetry_Int_Tables_number   1
_chemical_formula_structural   Ba5Re3IO15
_chemical_formula_sum   'Ba10 Re6 I2 O30'
_cell_volume   870.88672791
_cell_formula_units_Z   2
loop_
 _symmetry_equiv_pos_site_id
 _symmetry_equiv_pos_as_xyz
  1  'x, y, z'
loop_
 _atom_site_type_symbol
 _atom_site_label
 _atom_site_symmetry_multiplicity
 _atom_site_fract_x
 _atom_site_fract_y
 _atom_site_fract_z
 _atom_site_occupancy
  Ba  Ba0  1  0.33333333  0.66666667  0.46923673  1.0
  Ba  Ba1  1  0.33333333  0.66666667  0.96923673  1.0
  Ba  Ba2  1  0.66666667  0.33333333  0.46923673  1.0
  Ba  Ba3  1  0.66666667  0.33333333  0.96923673  1.0
  Ba  Ba4  1  0.27544342  0.27544342  0.22740974  1.0
  Ba  Ba5  1  0.27544342  0.00000000  0.72740974  1.0
  Ba  Ba6  1  0.00000000  0.27544342  0.72740974  1.0
  Ba  Ba7  1  0.00000000  0.72455658  0.22740974  1.0
  Ba  Ba8  1  0.72455658  0.72455658  0.72740974  1.0
  Ba  Ba9  1  0.72455658  0.00000000  0.22740974  1.0
  Re  Re10  1  0.60667378  0.60667378  0.17114247  1.0
  Re  Re11  1  0.60667378  0.00000000  0.67114247  1.0
  Re  Re12  1  -0.00000000  0.60667378  0.67114247  1.0
  Re  Re13  1  0.00000000  0.39332622  0.17114247  1.0
  Re  Re14  1  0.39332622  0.39332622  0.67114247  1.0
  Re  Re15  1  0.39332622  0.00000000  0.17114247  1.0
  I  I16  1  0.00000000  0.00000000  -0.01001668  1.0
  I  I17  1  0.00000000  0.00000000  0.48998332  1.0
  O  O18  1  0.69661917  0.69661917  0.35044373  1.0
  O  O19  1  0.69661917  0.00000000  0.85044373  1.0
  O  O20  1  0.00000000  0.69661917  0.85044373  1.0
  O  O21  1  0.00000000  0.30338083  0.35044373  1.0
  O  O22  1  0.30338083  0.30338083  0.85044373  1.0
  O  O23  1  0.30338083  0.00000000  0.35044373  1.0
  O  O24  1  0.26180720  0.86994960  0.03239139  1.0
  O  O25  1  0.26180720  0.39185760  0.53239139  1.0
  O  O26  1  0.86994960  0.26180720  0.03239139  1.0
  O  O27  1  0.86994960  0.60814240  0.53239139  1.0
  O  O28  1  0.60814240  0.86994960  0.53239139  1.0
  O  O29  1  0.60814240  0.73819280  0.03239139  1.0
  O  O30  1  0.13005040  0.73819280  0.53239139  1.0
  O  O31  1  0.13005040  0.39185760  0.03239139  1.0
  O  O32  1  0.73819280  0.60814240  0.03239139  1.0
  O  O33  1  0.73819280  0.13005040  0.53239139  1.0
  O  O34  1  0.39185760  0.26180720  0.53239139  1.0
  O  O35  1  0.39185760  0.13005040  0.03239139  1.0
  O  O36  1  0.44752749  0.87042949  0.21028451  1.0
  O  O37  1  0.44752749  0.57709800  0.71028451  1.0
  O  O38  1  0.87042949  0.44752749  0.21028451  1.0
  O  O39  1  0.87042949  0.42290200  0.71028451  1.0
  O  O40  1  0.42290200  0.87042949  0.71028451  1.0
  O  O41  1  0.42290200  0.55247251  0.21028451  1.0
  O  O42  1  0.12957051  0.55247251  0.71028451  1.0
  O  O43  1  0.12957051  0.57709800  0.21028451  1.0
  O  O44  1  0.55247251  0.42290200  0.21028451  1.0
  O  O45  1  0.55247251  0.12957051  0.71028451  1.0
  O  O46  1  0.57709800  0.44752749  0.71028451  1.0
  O  O47  1  0.57709800  0.12957051  0.21028451  1.0
