# generated using pymatgen
data_Li2BF5
_symmetry_space_group_name_H-M   'P 1'
_cell_length_a   7.08252299
_cell_length_b   7.08252299
_cell_length_c   7.08252299
_cell_angle_alpha   136.14426043
_cell_angle_beta   136.14426043
_cell_angle_gamma   63.75738505
_symmetry_Int_Tables_number   1
_chemical_formula_structural   Li2BF5
_chemical_formula_sum   'Li4 B2 F10'
_cell_volume   168.28954616
_cell_formula_units_Z   2
loop_
 _symmetry_equiv_pos_site_id
 _symmetry_equiv_pos_as_xyz
  1  'x, y, z'
loop_
 _atom_site_type_symbol
 _atom_site_label
 _atom_site_symmetry_multiplicity
 _atom_site_fract_x
 _atom_site_fract_y
 _atom_site_fract_z
 _atom_site_occupancy
  Li  Li0  1  1.37500000  1.12500000  0.75000000  1.0
  Li  Li1  1  0.87500000  0.62500000  0.25000000  1.0
  Li  Li2  1  1.37500000  0.62500000  0.75000000  1.0
  Li  Li3  1  1.37500000  1.62500000  1.25000000  1.0
  B  B4  1  0.00000000  0.00000000  0.00000000  1.0
  B  B5  1  0.75000000  1.25000000  0.50000000  1.0
  F  F6  1  1.25000000  0.75000000  0.50000000  1.0
  F  F7  1  0.50000000  0.50000000  1.00000000  1.0
  F  F8  1  0.06663518  0.84652676  0.77989158  1.0
  F  F9  1  1.59652676  1.31663518  1.27989158  1.0
  F  F10  1  1.03674359  1.31663518  0.72010842  1.0
  F  F11  1  0.06663518  0.28674359  0.22010842  1.0
  F  F12  1  0.68336482  1.40347324  0.72010842  1.0
  F  F13  1  1.15347324  0.93336482  0.22010842  1.0
  F  F14  1  1.71325641  0.93336482  0.77989158  1.0
  F  F15  1  0.68336482  0.96325641  0.27989158  1.0
