# generated using pymatgen
data_Y3Pd4
_symmetry_space_group_name_H-M   'P 1'
_cell_length_a   7.88847427
_cell_length_b   7.88847427
_cell_length_c   7.88847427
_cell_angle_alpha   114.28378643
_cell_angle_beta   114.28378643
_cell_angle_gamma   114.28378643
_symmetry_Int_Tables_number   1
_chemical_formula_structural   Y3Pd4
_chemical_formula_sum   'Y6 Pd8'
_cell_volume   291.85585630
_cell_formula_units_Z   2
loop_
 _symmetry_equiv_pos_site_id
 _symmetry_equiv_pos_as_xyz
  1  'x, y, z'
loop_
 _atom_site_type_symbol
 _atom_site_label
 _atom_site_symmetry_multiplicity
 _atom_site_fract_x
 _atom_site_fract_y
 _atom_site_fract_z
 _atom_site_occupancy
  Y  Y0  1  1.09499526  0.22380493  0.47527000  1.0
  Y  Y1  1  0.52473000  -0.09499526  -0.22380493  1.0
  Y  Y2  1  0.77619507  0.52473000  -0.09499526  1.0
  Y  Y3  1  0.90500474  0.77619507  0.52473000  1.0
  Y  Y4  1  0.47527000  0.09499526  0.22380493  1.0
  Y  Y5  1  1.22380493  1.47527000  0.09499526  1.0
  Pd  Pd6  1  0.95069137  0.43801161  0.27266871  1.0
  Pd  Pd7  1  0.72733129  1.04930863  -0.43801161  1.0
  Pd  Pd8  1  0.56198839  -0.27266871  0.04930863  1.0
  Pd  Pd9  1  1.04930863  0.56198839  0.72733129  1.0
  Pd  Pd10  1  1.27266871  0.95069137  0.43801161  1.0
  Pd  Pd11  1  0.43801161  0.27266871  -0.04930863  1.0
  Pd  Pd12  1  0.50000000  0.50000000  0.50000000  1.0
  Pd  Pd13  1  -0.00000000  -0.00000000  -0.00000000  1.0
