# generated using pymatgen
data_Sc7P3
_symmetry_space_group_name_H-M   'P 1'
_cell_length_a   8.97075251
_cell_length_b   8.97075251
_cell_length_c   5.68173710
_cell_angle_alpha   90.00000000
_cell_angle_beta   90.00000000
_cell_angle_gamma   120.00000000
_symmetry_Int_Tables_number   1
_chemical_formula_structural   Sc7P3
_chemical_formula_sum   'Sc14 P6'
_cell_volume   395.97659485
_cell_formula_units_Z   2
loop_
 _symmetry_equiv_pos_site_id
 _symmetry_equiv_pos_as_xyz
  1  'x, y, z'
loop_
 _atom_site_type_symbol
 _atom_site_label
 _atom_site_symmetry_multiplicity
 _atom_site_fract_x
 _atom_site_fract_y
 _atom_site_fract_z
 _atom_site_occupancy
  Sc  Sc0  1  0.92942695  0.46471348  0.04069617  1.0
  Sc  Sc1  1  0.46471348  0.92942695  0.54069617  1.0
  Sc  Sc2  1  0.46471348  0.53528652  0.54069617  1.0
  Sc  Sc3  1  0.53528652  0.46471348  0.04069617  1.0
  Sc  Sc4  1  0.53528652  0.07057305  0.04069617  1.0
  Sc  Sc5  1  0.07057305  0.53528652  0.54069617  1.0
  Sc  Sc6  1  0.24647572  0.12323786  0.30707519  1.0
  Sc  Sc7  1  0.12323786  0.24647572  0.80707519  1.0
  Sc  Sc8  1  0.12323786  0.87676214  0.80707519  1.0
  Sc  Sc9  1  0.87676214  0.12323786  0.30707519  1.0
  Sc  Sc10  1  0.87676214  0.75352428  0.30707519  1.0
  Sc  Sc11  1  0.75352428  0.87676214  0.80707519  1.0
  Sc  Sc12  1  0.33333333  0.66666667  -0.01536859  1.0
  Sc  Sc13  1  0.66666667  0.33333333  0.48463141  1.0
  P  P14  1  0.61684484  0.80842242  0.24735149  1.0
  P  P15  1  0.80842242  0.61684484  0.74735149  1.0
  P  P16  1  0.80842242  0.19157758  0.74735149  1.0
  P  P17  1  0.19157758  0.80842242  0.24735149  1.0
  P  P18  1  0.19157758  0.38315516  0.24735149  1.0
  P  P19  1  0.38315516  0.19157758  0.74735149  1.0
