# generated using pymatgen
data_RePbClO4
_symmetry_space_group_name_H-M   'P 1'
_cell_length_a   5.89228302
_cell_length_b   9.47437391
_cell_length_c   4.92009159
_cell_angle_alpha   90.00000000
_cell_angle_beta   90.00000000
_cell_angle_gamma   90.00000000
_symmetry_Int_Tables_number   1
_chemical_formula_structural   RePbClO4
_chemical_formula_sum   'Re2 Pb2 Cl2 O8'
_cell_volume   274.66752033
_cell_formula_units_Z   2
loop_
 _symmetry_equiv_pos_site_id
 _symmetry_equiv_pos_as_xyz
  1  'x, y, z'
loop_
 _atom_site_type_symbol
 _atom_site_label
 _atom_site_symmetry_multiplicity
 _atom_site_fract_x
 _atom_site_fract_y
 _atom_site_fract_z
 _atom_site_occupancy
  Re  Re0  1  0.50000000  0.62387348  0.93323656  1.0
  Re  Re1  1  0.00000000  0.37612652  0.43323656  1.0
  Pb  Pb2  1  0.50000000  0.17086561  0.86939519  1.0
  Pb  Pb3  1  0.00000000  0.82913439  0.36939519  1.0
  Cl  Cl4  1  0.50000000  0.97279346  0.45051144  1.0
  Cl  Cl5  1  0.00000000  0.02720654  -0.04948856  1.0
  O  O6  1  0.25540861  0.71090002  0.04833896  1.0
  O  O7  1  0.75540861  0.28909998  0.54833896  1.0
  O  O8  1  0.74459139  0.71090002  0.04833896  1.0
  O  O9  1  0.24459139  0.28909998  0.54833896  1.0
  O  O10  1  0.50000000  0.62908693  0.58288292  1.0
  O  O11  1  0.00000000  0.37091307  0.08288292  1.0
  O  O12  1  0.50000000  0.44788905  0.03549596  1.0
  O  O13  1  0.00000000  0.55211095  0.53549596  1.0
