# generated using pymatgen
data_Ba2P3Pd
_symmetry_space_group_name_H-M   'P 1'
_cell_length_a   6.52566203
_cell_length_b   7.24785128
_cell_length_c   12.95460630
_cell_angle_alpha   90.00000000
_cell_angle_beta   91.52150542
_cell_angle_gamma   90.00000000
_symmetry_Int_Tables_number   1
_chemical_formula_structural   Ba2P3Pd
_chemical_formula_sum   'Ba8 P12 Pd4'
_cell_volume   612.49835081
_cell_formula_units_Z   4
loop_
 _symmetry_equiv_pos_site_id
 _symmetry_equiv_pos_as_xyz
  1  'x, y, z'
loop_
 _atom_site_type_symbol
 _atom_site_label
 _atom_site_symmetry_multiplicity
 _atom_site_fract_x
 _atom_site_fract_y
 _atom_site_fract_z
 _atom_site_occupancy
  Ba  Ba0  1  0.83748643  0.75041889  0.56050864  1.0
  Ba  Ba1  1  0.83748643  0.74958111  0.06050864  1.0
  Ba  Ba2  1  0.16251357  0.25041889  0.93949136  1.0
  Ba  Ba3  1  0.16251357  0.24958111  0.43949136  1.0
  Ba  Ba4  1  0.37857280  0.74427943  0.83486739  1.0
  Ba  Ba5  1  0.37857280  0.75572057  0.33486739  1.0
  Ba  Ba6  1  0.62142720  0.24427943  0.66513261  1.0
  Ba  Ba7  1  0.62142720  0.25572057  0.16513261  1.0
  P  P8  1  0.90400122  0.92646620  0.80760214  1.0
  P  P9  1  0.90400122  0.57353380  0.30760214  1.0
  P  P10  1  0.09599878  0.42646620  0.69239786  1.0
  P  P11  1  0.09599878  0.07353380  0.19239786  1.0
  P  P12  1  0.68479876  0.41007121  0.40509954  1.0
  P  P13  1  0.68479876  0.08992879  0.90509954  1.0
  P  P14  1  0.31520124  0.91007121  0.09490046  1.0
  P  P15  1  0.31520124  0.58992879  0.59490046  1.0
  P  P16  1  0.68207178  0.39123372  0.90562844  1.0
  P  P17  1  0.68207178  0.10876628  0.40562844  1.0
  P  P18  1  0.31792822  0.89123372  0.59437156  1.0
  P  P19  1  0.31792822  0.60876628  0.09437156  1.0
  Pd  Pd20  1  0.88320455  0.59889482  0.80706303  1.0
  Pd  Pd21  1  0.88320455  0.90110518  0.30706303  1.0
  Pd  Pd22  1  0.11679545  0.09889482  0.69293697  1.0
  Pd  Pd23  1  0.11679545  0.40110518  0.19293697  1.0
