# generated using pymatgen
data_B4Os
_symmetry_space_group_name_H-M   'P 1'
_cell_length_a   5.36948705
_cell_length_b   5.36948705
_cell_length_c   6.36621551
_cell_angle_alpha   90.00000000
_cell_angle_beta   90.00000000
_cell_angle_gamma   120.00000000
_symmetry_Int_Tables_number   1
_chemical_formula_structural   B4Os
_chemical_formula_sum   'B16 Os4'
_cell_volume   158.95623469
_cell_formula_units_Z   4
loop_
 _symmetry_equiv_pos_site_id
 _symmetry_equiv_pos_as_xyz
  1  'x, y, z'
loop_
 _atom_site_type_symbol
 _atom_site_label
 _atom_site_symmetry_multiplicity
 _atom_site_fract_x
 _atom_site_fract_y
 _atom_site_fract_z
 _atom_site_occupancy
  B  B0  1  0.33538775  0.33538775  0.50000000  1.0
  B  B1  1  0.66461225  0.00000000  0.50000000  1.0
  B  B2  1  -0.00000000  0.66461225  0.50000000  1.0
  B  B3  1  0.66461225  0.66461225  0.50000000  1.0
  B  B4  1  0.00000000  0.33538775  0.50000000  1.0
  B  B5  1  0.33538775  0.00000000  0.50000000  1.0
  B  B6  1  0.66461225  0.66461225  0.00000000  1.0
  B  B7  1  0.33538775  0.00000000  0.00000000  1.0
  B  B8  1  0.00000000  0.33538775  0.00000000  1.0
  B  B9  1  0.33538775  0.33538775  0.00000000  1.0
  B  B10  1  -0.00000000  0.66461225  0.00000000  1.0
  B  B11  1  0.66461225  0.00000000  0.00000000  1.0
  B  B12  1  0.33333333  0.66666667  0.88460981  1.0
  B  B13  1  0.66666667  0.33333333  0.11539019  1.0
  B  B14  1  0.66666667  0.33333333  0.38460981  1.0
  B  B15  1  0.33333333  0.66666667  0.61539019  1.0
  Os  Os16  1  0.33333333  0.66666667  0.25000000  1.0
  Os  Os17  1  0.66666667  0.33333333  0.75000000  1.0
  Os  Os18  1  0.00000000  0.00000000  0.25000000  1.0
  Os  Os19  1  0.00000000  0.00000000  0.75000000  1.0
