# generated using pymatgen
data_Ca3(SiP2)2
_symmetry_space_group_name_H-M   'P 1'
_cell_length_a   7.10262318
_cell_length_b   17.28717179
_cell_length_c   6.94523115
_cell_angle_alpha   90.00000000
_cell_angle_beta   111.78538926
_cell_angle_gamma   90.00000000
_symmetry_Int_Tables_number   1
_chemical_formula_structural   Ca3(SiP2)2
_chemical_formula_sum   'Ca12 Si8 P16'
_cell_volume   791.86105673
_cell_formula_units_Z   4
loop_
 _symmetry_equiv_pos_site_id
 _symmetry_equiv_pos_as_xyz
  1  'x, y, z'
loop_
 _atom_site_type_symbol
 _atom_site_label
 _atom_site_symmetry_multiplicity
 _atom_site_fract_x
 _atom_site_fract_y
 _atom_site_fract_z
 _atom_site_occupancy
  Ca  Ca0  1  0.21648660  0.68375437  0.51221962  1.0
  Ca  Ca1  1  0.78351340  0.18375437  0.98778038  1.0
  Ca  Ca2  1  0.78351340  0.31624563  0.48778038  1.0
  Ca  Ca3  1  0.21648660  0.81624563  0.01221962  1.0
  Ca  Ca4  1  0.25584513  0.93833326  0.51195152  1.0
  Ca  Ca5  1  0.74415487  0.43833326  0.98804848  1.0
  Ca  Ca6  1  0.74415487  0.06166674  0.48804848  1.0
  Ca  Ca7  1  0.25584513  0.56166674  0.01195152  1.0
  Ca  Ca8  1  0.26132520  0.44138879  0.50423051  1.0
  Ca  Ca9  1  0.73867480  0.94138879  0.99576949  1.0
  Ca  Ca10  1  0.73867480  0.55861121  0.49576949  1.0
  Ca  Ca11  1  0.26132520  0.05861121  0.00423051  1.0
  Si  Si12  1  0.31649082  0.25809687  0.91453359  1.0
  Si  Si13  1  0.68350918  0.75809687  0.58546641  1.0
  Si  Si14  1  0.68350918  0.74190313  0.08546641  1.0
  Si  Si15  1  0.31649082  0.24190313  0.41453359  1.0
  Si  Si16  1  0.21203155  0.12828320  0.52875072  1.0
  Si  Si17  1  0.78796845  0.62828320  0.97124928  1.0
  Si  Si18  1  0.78796845  0.87171680  0.47124928  1.0
  Si  Si19  1  0.21203155  0.37171680  0.02875072  1.0
  P  P20  1  0.50099200  0.30104065  0.72406310  1.0
  P  P21  1  0.49900800  0.80104065  0.77593690  1.0
  P  P22  1  0.49900800  0.69895935  0.27593690  1.0
  P  P23  1  0.50099200  0.19895935  0.22406310  1.0
  P  P24  1  0.04363740  0.18598735  0.72090908  1.0
  P  P25  1  0.95636260  0.68598735  0.77909092  1.0
  P  P26  1  0.95636260  0.81401265  0.27909092  1.0
  P  P27  1  0.04363740  0.31401265  0.22090908  1.0
  P  P28  1  0.49417091  0.06818128  0.74007775  1.0
  P  P29  1  0.50582909  0.56818128  0.75992225  1.0
  P  P30  1  0.50582909  0.93181872  0.25992225  1.0
  P  P31  1  0.49417091  0.43181872  0.24007775  1.0
  P  P32  1  0.00951195  0.43877246  0.75500739  1.0
  P  P33  1  0.99048805  0.93877246  0.74499261  1.0
  P  P34  1  0.99048805  0.56122754  0.24499261  1.0
  P  P35  1  0.00951195  0.06122754  0.25500739  1.0
