# generated using pymatgen
data_KPO4
_symmetry_space_group_name_H-M   'P 1'
_cell_length_a   8.03087904
_cell_length_b   7.93364198
_cell_length_c   7.28179436
_cell_angle_alpha   89.95623169
_cell_angle_beta   89.93322815
_cell_angle_gamma   89.20029797
_symmetry_Int_Tables_number   1
_chemical_formula_structural   KPO4
_chemical_formula_sum   'K4 P4 O16'
_cell_volume   463.90747770
_cell_formula_units_Z   4
loop_
 _symmetry_equiv_pos_site_id
 _symmetry_equiv_pos_as_xyz
  1  'x, y, z'
loop_
 _atom_site_type_symbol
 _atom_site_label
 _atom_site_symmetry_multiplicity
 _atom_site_fract_x
 _atom_site_fract_y
 _atom_site_fract_z
 _atom_site_occupancy
  K  K0  1  -0.75035954  -0.74866838  -0.08839795  1.0
  K  K1  1  -0.24964046  -0.25133162  -0.91160205  1.0
  K  K2  1  -0.74919452  -0.24947349  -0.58818800  1.0
  K  K3  1  -0.25080548  -0.75052651  -0.41181200  1.0
  P  P4  1  -0.25069915  -0.75102181  -0.91358260  1.0
  P  P5  1  -0.74930085  -0.24897819  -0.08641740  1.0
  P  P6  1  -0.75089541  -0.74934779  -0.58666753  1.0
  P  P7  1  -0.24910459  -0.25065221  -0.41333247  1.0
  O  O8  1  -0.59112026  -0.74212675  -0.46883429  1.0
  O  O9  1  -0.40887974  -0.25787325  -0.53116571  1.0
  O  O10  1  -0.91040076  -0.75635100  -0.46797309  1.0
  O  O11  1  -0.08959924  -0.24364900  -0.53202691  1.0
  O  O12  1  -0.90936539  -0.25614348  -0.96863519  1.0
  O  O13  1  -0.09063461  -0.74385652  -0.03136481  1.0
  O  O14  1  -0.23549607  -0.58981341  -0.79556389  1.0
  O  O15  1  -0.76450393  -0.41018659  -0.20443611  1.0
  O  O16  1  -0.26647458  -0.91287063  -0.79644140  1.0
  O  O17  1  -0.73352542  -0.08712937  -0.20355860  1.0
  O  O18  1  -0.73579933  -0.58784943  -0.70452295  1.0
  O  O19  1  -0.26420067  -0.41215057  -0.29547705  1.0
  O  O20  1  -0.76620135  -0.91101494  -0.70390338  1.0
  O  O21  1  -0.23379865  -0.08898506  -0.29609662  1.0
  O  O22  1  -0.58998327  -0.24261632  -0.96778834  1.0
  O  O23  1  -0.41001673  -0.75738368  -0.03221166  1.0
