# generated using pymatgen
data_Ta4PbO11
_symmetry_space_group_name_H-M   'P 1'
_cell_length_a   12.94256928
_cell_length_b   12.94256928
_cell_length_c   12.94256928
_cell_angle_alpha   28.14715059
_cell_angle_beta   28.14715059
_cell_angle_gamma   28.14715059
_symmetry_Int_Tables_number   1
_chemical_formula_structural   Ta4PbO11
_chemical_formula_sum   'Ta8 Pb2 O22'
_cell_volume   426.21742649
_cell_formula_units_Z   2
loop_
 _symmetry_equiv_pos_site_id
 _symmetry_equiv_pos_as_xyz
  1  'x, y, z'
loop_
 _atom_site_type_symbol
 _atom_site_label
 _atom_site_symmetry_multiplicity
 _atom_site_fract_x
 _atom_site_fract_y
 _atom_site_fract_z
 _atom_site_occupancy
  Ta  Ta0  1  0.79863867  0.51171554  -0.84481287  1.0
  Ta  Ta1  1  0.15518713  0.79863867  -0.48828446  1.0
  Ta  Ta2  1  0.51171554  0.15518713  -0.20136133  1.0
  Ta  Ta3  1  1.28744858  -0.34481428  0.02292564  1.0
  Ta  Ta4  1  1.02292564  0.28744858  -0.34481428  1.0
  Ta  Ta5  1  0.65518572  0.02292564  0.28744858  1.0
  Ta  Ta6  1  0.90568779  -0.09431221  -0.09431221  1.0
  Ta  Ta7  1  0.40467642  0.40467642  -0.59532358  1.0
  Pb  Pb8  1  0.73726778  -0.26273222  -0.26273222  1.0
  Pb  Pb9  1  0.57309078  0.57309078  -0.42690922  1.0
  O  O10  1  0.35074705  0.64117238  -0.86996193  1.0
  O  O11  1  0.13003807  0.35074705  -0.35882762  1.0
  O  O12  1  0.64117238  0.13003807  -0.64925295  1.0
  O  O13  1  0.82404042  -0.35574505  0.15212757  1.0
  O  O14  1  1.15212757  -0.17595958  -0.35574505  1.0
  O  O15  1  0.64425495  0.15212757  -0.17595958  1.0
  O  O16  1  0.65520999  0.40638910  -0.09600631  1.0
  O  O17  1  0.90399369  0.65520999  -0.59361090  1.0
  O  O18  1  0.40638910  0.90399369  -0.34479001  1.0
  O  O19  1  1.18044225  -0.33072104  -0.04055761  1.0
  O  O20  1  0.95944239  0.18044225  -0.33072104  1.0
  O  O21  1  0.66927896  -0.04055761  0.18044225  1.0
  O  O22  1  0.66612285  0.48632873  -0.84177888  1.0
  O  O23  1  0.15822112  0.66612285  -0.51367127  1.0
  O  O24  1  0.48632873  0.15822112  -0.33387715  1.0
  O  O25  1  1.15517738  -0.60165368  -0.08798069  1.0
  O  O26  1  0.91201931  0.15517738  -0.60165368  1.0
  O  O27  1  0.39834632  -0.08798069  0.15517738  1.0
  O  O28  1  -0.00126875  -0.00126875  -0.00126875  1.0
  O  O29  1  0.81135149  -0.18864851  -0.18864851  1.0
  O  O30  1  0.49901356  0.49901356  -0.50098644  1.0
  O  O31  1  0.31162712  0.31162712  0.31162712  1.0
