# generated using pymatgen
data_Mg2B24C
_symmetry_space_group_name_H-M   'P 1'
_cell_length_a   8.95999547
_cell_length_b   8.95999547
_cell_length_c   5.08355904
_cell_angle_alpha   90.00000000
_cell_angle_beta   90.00000000
_cell_angle_gamma   90.00000000
_symmetry_Int_Tables_number   1
_chemical_formula_structural   Mg2B24C
_chemical_formula_sum   'Mg4 B48 C2'
_cell_volume   408.11584073
_cell_formula_units_Z   2
loop_
 _symmetry_equiv_pos_site_id
 _symmetry_equiv_pos_as_xyz
  1  'x, y, z'
loop_
 _atom_site_type_symbol
 _atom_site_label
 _atom_site_symmetry_multiplicity
 _atom_site_fract_x
 _atom_site_fract_y
 _atom_site_fract_z
 _atom_site_occupancy
  Mg  Mg0  1  0.00000000  0.50000000  0.75000000  1.0
  Mg  Mg1  1  0.50000000  0.00000000  0.25000000  1.0
  Mg  Mg2  1  0.50000000  0.50000000  0.50000000  1.0
  Mg  Mg3  1  0.00000000  0.00000000  0.00000000  1.0
  B  B4  1  0.26910374  0.40717949  0.58744093  1.0
  B  B5  1  0.23089626  0.90717949  0.08744093  1.0
  B  B6  1  0.59282051  0.26910374  0.41255907  1.0
  B  B7  1  0.90717949  0.76910374  0.91255907  1.0
  B  B8  1  0.73089626  0.59282051  0.58744093  1.0
  B  B9  1  0.76910374  0.09282051  0.08744093  1.0
  B  B10  1  0.40717949  0.73089626  0.41255907  1.0
  B  B11  1  0.09282051  0.23089626  0.91255907  1.0
  B  B12  1  0.38417528  0.37164108  0.87565775  1.0
  B  B13  1  0.11582472  0.87164108  0.37565775  1.0
  B  B14  1  0.62835892  0.38417528  0.12434225  1.0
  B  B15  1  0.87164108  0.88417528  0.62434225  1.0
  B  B16  1  0.61582472  0.62835892  0.87565775  1.0
  B  B17  1  0.88417528  0.12835892  0.37565775  1.0
  B  B18  1  0.37164108  0.61582472  0.12434225  1.0
  B  B19  1  0.12835892  0.11582472  0.62434225  1.0
  B  B20  1  0.09838999  0.30580177  0.58294660  1.0
  B  B21  1  0.40161001  0.80580177  0.08294660  1.0
  B  B22  1  0.69419823  0.09838999  0.41705340  1.0
  B  B23  1  0.80580177  0.59838999  0.91705340  1.0
  B  B24  1  0.90161001  0.69419823  0.58294660  1.0
  B  B25  1  0.59838999  0.19419823  0.08294660  1.0
  B  B26  1  0.30580177  0.90161001  0.41705340  1.0
  B  B27  1  0.19419823  0.40161001  0.91705340  1.0
  B  B28  1  0.42225059  0.25908252  0.58457203  1.0
  B  B29  1  0.07774941  0.75908252  0.08457203  1.0
  B  B30  1  0.74091748  0.42225059  0.41542797  1.0
  B  B31  1  0.75908252  0.92225059  0.91542797  1.0
  B  B32  1  0.57774941  0.74091748  0.58457203  1.0
  B  B33  1  0.92225059  0.24091748  0.08457203  1.0
  B  B34  1  0.25908252  0.57774941  0.41542797  1.0
  B  B35  1  0.24091748  0.07774941  0.91542797  1.0
  B  B36  1  0.26471081  0.24854455  0.08505762  1.0
  B  B37  1  0.23528919  0.74854455  0.58505762  1.0
  B  B38  1  0.75145545  0.26471081  0.91494238  1.0
  B  B39  1  0.74854455  0.76471081  0.41494238  1.0
  B  B40  1  0.73528919  0.75145545  0.08505762  1.0
  B  B41  1  0.76471081  0.25145545  0.58505762  1.0
  B  B42  1  0.24854455  0.73528919  0.91494238  1.0
  B  B43  1  0.25145545  0.23528919  0.41494238  1.0
  B  B44  1  0.32518078  0.07963888  0.59855394  1.0
  B  B45  1  0.17481922  0.57963888  0.09855394  1.0
  B  B46  1  0.92036112  0.32518078  0.40144606  1.0
  B  B47  1  0.57963888  0.82518078  0.90144606  1.0
  B  B48  1  0.67481922  0.92036112  0.59855394  1.0
  B  B49  1  0.82518078  0.42036112  0.09855394  1.0
  B  B50  1  0.07963888  0.67481922  0.40144606  1.0
  B  B51  1  0.42036112  0.17481922  0.90144606  1.0
  C  C52  1  0.50000000  0.50000000  0.00000000  1.0
  C  C53  1  0.00000000  0.00000000  0.50000000  1.0
