# generated using pymatgen
data_V2AsO6
_symmetry_space_group_name_H-M   'P 1'
_cell_length_a   4.83348934
_cell_length_b   8.83218384
_cell_length_c   9.59962856
_cell_angle_alpha   90.00000000
_cell_angle_beta   90.00000000
_cell_angle_gamma   90.00000000
_symmetry_Int_Tables_number   1
_chemical_formula_structural   V2AsO6
_chemical_formula_sum   'V8 As4 O24'
_cell_volume   409.81070124
_cell_formula_units_Z   4
loop_
 _symmetry_equiv_pos_site_id
 _symmetry_equiv_pos_as_xyz
  1  'x, y, z'
loop_
 _atom_site_type_symbol
 _atom_site_label
 _atom_site_symmetry_multiplicity
 _atom_site_fract_x
 _atom_site_fract_y
 _atom_site_fract_z
 _atom_site_occupancy
  O  O0  1  0.40061857  0.66488167  0.98103977  1.0
  O  O1  1  0.90061857  0.83511833  0.01896023  1.0
  O  O2  1  0.59938143  0.16488167  0.51896023  1.0
  O  O3  1  0.09938143  0.33511833  0.48103977  1.0
  O  O4  1  0.28325648  0.82763080  0.73511409  1.0
  O  O5  1  0.78325648  0.67236920  0.26488591  1.0
  O  O6  1  0.71674352  0.32763080  0.76488591  1.0
  O  O7  1  0.21674352  0.17236920  0.23511409  1.0
  O  O8  1  0.27807136  0.83456465  0.22767191  1.0
  O  O9  1  0.77807136  0.66543535  0.77232809  1.0
  O  O10  1  0.72192864  0.33456465  0.27232809  1.0
  O  O11  1  0.22192864  0.16543535  0.72767191  1.0
  O  O12  1  0.28092669  0.49549423  0.74656525  1.0
  O  O13  1  0.78092669  1.00450577  0.25343475  1.0
  O  O14  1  0.71907331  -0.00450577  0.75343475  1.0
  O  O15  1  0.21907331  0.50450577  0.24656525  1.0
  O  O16  1  0.07867175  0.65489439  0.51210324  1.0
  O  O17  1  0.57867175  0.84510561  0.48789676  1.0
  O  O18  1  0.92132825  0.15489439  0.98789676  1.0
  O  O19  1  0.42132825  0.34510561  0.01210324  1.0
  O  O20  1  0.38780586  0.97207307  0.99101671  1.0
  O  O21  1  0.88780586  0.52792693  0.00898329  1.0
  O  O22  1  0.61219414  0.47207307  0.50898329  1.0
  O  O23  1  0.11219414  0.02792693  0.49101671  1.0
  V  V24  1  0.41193921  0.33606517  0.60233124  1.0
  V  V25  1  0.91193921  0.16393483  0.39766876  1.0
  V  V26  1  0.58806079  0.83606517  0.89766876  1.0
  V  V27  1  0.08806079  0.66393483  0.10233124  1.0
  V  V28  1  0.39562997  0.99712114  0.59942897  1.0
  V  V29  1  0.89562997  0.50287886  0.40057103  1.0
  V  V30  1  0.60437003  0.49712114  0.90057103  1.0
  V  V31  1  0.10437003  0.00287886  0.09942897  1.0
  As  As32  1  0.10390232  0.66020146  0.69063092  1.0
  As  As33  1  0.60390232  0.83979854  0.30936908  1.0
  As  As34  1  0.89609768  0.16020146  0.80936908  1.0
  As  As35  1  0.39609768  0.33979854  0.19063092  1.0
