# generated using pymatgen
data_Yb2B6Ru
_symmetry_space_group_name_H-M   'P 1'
_cell_length_a   9.07902780
_cell_length_b   11.42610958
_cell_length_c   3.59150868
_cell_angle_alpha   90.00000000
_cell_angle_beta   90.00000000
_cell_angle_gamma   90.00000000
_symmetry_Int_Tables_number   1
_chemical_formula_structural   Yb2B6Ru
_chemical_formula_sum   'Yb8 B24 Ru4'
_cell_volume   372.57580763
_cell_formula_units_Z   4
loop_
 _symmetry_equiv_pos_site_id
 _symmetry_equiv_pos_as_xyz
  1  'x, y, z'
loop_
 _atom_site_type_symbol
 _atom_site_label
 _atom_site_symmetry_multiplicity
 _atom_site_fract_x
 _atom_site_fract_y
 _atom_site_fract_z
 _atom_site_occupancy
  Yb  Yb0  1  0.17730623  0.91405033  0.50000000  1.0
  Yb  Yb1  1  0.67730623  0.58594967  0.50000000  1.0
  Yb  Yb2  1  0.82269377  0.08594967  0.50000000  1.0
  Yb  Yb3  1  0.32269377  0.41405033  0.50000000  1.0
  Yb  Yb4  1  0.05701888  0.62975699  0.50000000  1.0
  Yb  Yb5  1  0.55701888  0.87024301  0.50000000  1.0
  Yb  Yb6  1  0.94298112  0.37024301  0.50000000  1.0
  Yb  Yb7  1  0.44298112  0.12975699  0.50000000  1.0
  B  B8  1  0.44670796  0.56658144  0.00000000  1.0
  B  B9  1  0.94670796  0.93341856  0.00000000  1.0
  B  B10  1  0.55329204  0.43341856  0.00000000  1.0
  B  B11  1  0.05329204  0.06658144  0.00000000  1.0
  B  B12  1  0.39886439  0.97200067  0.00000000  1.0
  B  B13  1  0.89886439  0.52799933  0.00000000  1.0
  B  B14  1  0.60113561  0.02799933  0.00000000  1.0
  B  B15  1  0.10113561  0.47200067  0.00000000  1.0
  B  B16  1  0.36894538  0.81558252  0.00000000  1.0
  B  B17  1  0.86894538  0.68441748  0.00000000  1.0
  B  B18  1  0.63105462  0.18441748  0.00000000  1.0
  B  B19  1  0.13105462  0.31558252  0.00000000  1.0
  B  B20  1  0.25031417  0.58050773  0.00000000  1.0
  B  B21  1  0.75031417  0.91949227  0.00000000  1.0
  B  B22  1  0.74968583  0.41949227  0.00000000  1.0
  B  B23  1  0.24968583  0.08050773  0.00000000  1.0
  B  B24  1  0.20756183  0.73535553  0.00000000  1.0
  B  B25  1  0.70756183  0.76464447  0.00000000  1.0
  B  B26  1  0.79243817  0.26464447  0.00000000  1.0
  B  B27  1  0.29243817  0.23535553  0.00000000  1.0
  B  B28  1  0.01875044  0.78819933  0.00000000  1.0
  B  B29  1  0.51875044  0.71180067  0.00000000  1.0
  B  B30  1  0.98124956  0.21180067  0.00000000  1.0
  B  B31  1  0.48124956  0.28819933  0.00000000  1.0
  Ru  Ru32  1  0.36102829  0.67953582  0.50000000  1.0
  Ru  Ru33  1  0.86102829  0.82046418  0.50000000  1.0
  Ru  Ru34  1  0.63897171  0.32046418  0.50000000  1.0
  Ru  Ru35  1  0.13897171  0.17953582  0.50000000  1.0
