# generated using pymatgen
data_LiBiF4
_symmetry_space_group_name_H-M   'P 1'
_cell_length_a   6.81806100
_cell_length_b   6.81806100
_cell_length_c   6.81806100
_cell_angle_alpha   133.82391746
_cell_angle_beta   133.82391746
_cell_angle_gamma   67.36316249
_symmetry_Int_Tables_number   1
_chemical_formula_structural   LiBiF4
_chemical_formula_sum   'Li2 Bi2 F8'
_cell_volume   162.22908999
_cell_formula_units_Z   2
loop_
 _symmetry_equiv_pos_site_id
 _symmetry_equiv_pos_as_xyz
  1  'x, y, z'
loop_
 _atom_site_type_symbol
 _atom_site_label
 _atom_site_symmetry_multiplicity
 _atom_site_fract_x
 _atom_site_fract_y
 _atom_site_fract_z
 _atom_site_occupancy
  Li  Li0  1  0.25000000  0.75000000  0.50000000  1.0
  Li  Li1  1  0.50000000  0.50000000  1.00000000  1.0
  Bi  Bi2  1  0.75000000  0.25000000  0.50000000  1.0
  Bi  Bi3  1  0.00000000  0.00000000  0.00000000  1.0
  F  F4  1  0.69596378  0.58052607  0.43570511  1.0
  F  F5  1  1.14482096  1.26025867  1.56429489  1.0
  F  F6  1  0.60517904  0.98974133  0.93570511  1.0
  F  F7  1  1.05403622  0.66947393  1.06429489  1.0
  F  F8  1  0.41947393  0.85517904  1.11543771  1.0
  F  F9  1  0.73974133  0.30403622  0.88456229  1.0
  F  F10  1  1.01025867  0.94596378  1.61543771  1.0
  F  F11  1  0.33052607  0.39482096  0.38456229  1.0
