# generated using pymatgen
data_Eu(ClO4)3
_symmetry_space_group_name_H-M   'P 1'
_cell_length_a   9.68939686
_cell_length_b   9.68939686
_cell_length_c   5.83154769
_cell_angle_alpha   90.00000000
_cell_angle_beta   90.00000000
_cell_angle_gamma   120.00000000
_symmetry_Int_Tables_number   1
_chemical_formula_structural   Eu(ClO4)3
_chemical_formula_sum   'Eu2 Cl6 O24'
_cell_volume   474.14148141
_cell_formula_units_Z   2
loop_
 _symmetry_equiv_pos_site_id
 _symmetry_equiv_pos_as_xyz
  1  'x, y, z'
loop_
 _atom_site_type_symbol
 _atom_site_label
 _atom_site_symmetry_multiplicity
 _atom_site_fract_x
 _atom_site_fract_y
 _atom_site_fract_z
 _atom_site_occupancy
  Eu  Eu0  1  0.66666667  0.33333333  0.25000000  1.0
  Eu  Eu1  1  0.33333333  0.66666667  0.75000000  1.0
  Cl  Cl2  1  0.29636678  0.90498433  0.25000000  1.0
  Cl  Cl3  1  0.90498433  0.60861755  0.75000000  1.0
  Cl  Cl4  1  0.60861755  0.70363322  0.25000000  1.0
  Cl  Cl5  1  0.09501567  0.39138245  0.25000000  1.0
  Cl  Cl6  1  0.70363322  0.09501567  0.75000000  1.0
  Cl  Cl7  1  0.39138245  0.29636678  0.75000000  1.0
  O  O8  1  0.26059234  0.80152776  0.45397514  1.0
  O  O9  1  0.26059234  0.80152776  0.04602486  1.0
  O  O10  1  0.80152776  0.54093543  0.95397514  1.0
  O  O11  1  0.80152776  0.54093543  0.54602486  1.0
  O  O12  1  0.54093543  0.73940766  0.45397514  1.0
  O  O13  1  0.54093543  0.73940766  0.04602486  1.0
  O  O14  1  0.19847224  0.45906457  0.45397514  1.0
  O  O15  1  0.19847224  0.45906457  0.04602486  1.0
  O  O16  1  0.73940766  0.19847224  0.95397514  1.0
  O  O17  1  0.73940766  0.19847224  0.54602486  1.0
  O  O18  1  0.45906457  0.26059234  0.95397514  1.0
  O  O19  1  0.45906457  0.26059234  0.54602486  1.0
  O  O20  1  0.19683614  0.97514887  0.25000000  1.0
  O  O21  1  0.97514887  0.77831273  0.75000000  1.0
  O  O22  1  0.77831273  0.80316386  0.25000000  1.0
  O  O23  1  0.02485113  0.22168727  0.25000000  1.0
  O  O24  1  0.80316386  0.02485113  0.75000000  1.0
  O  O25  1  0.22168727  0.19683614  0.75000000  1.0
  O  O26  1  0.55743855  0.53342180  0.25000000  1.0
  O  O27  1  0.53342180  0.97598325  0.75000000  1.0
  O  O28  1  0.97598325  0.44256145  0.25000000  1.0
  O  O29  1  0.46657820  0.02401675  0.25000000  1.0
  O  O30  1  0.44256145  0.46657820  0.75000000  1.0
  O  O31  1  0.02401675  0.55743855  0.75000000  1.0
