# generated using pymatgen
data_Ca6Cr2HN6
_symmetry_space_group_name_H-M   'P 1'
_cell_length_a   6.02259251
_cell_length_b   6.02259251
_cell_length_c   6.02259251
_cell_angle_alpha   96.37866796
_cell_angle_beta   96.37866796
_cell_angle_gamma   96.37866796
_symmetry_Int_Tables_number   1
_chemical_formula_structural   Ca6Cr2HN6
_chemical_formula_sum   'Ca6 Cr2 H1 N6'
_cell_volume   214.06109122
_cell_formula_units_Z   1
loop_
 _symmetry_equiv_pos_site_id
 _symmetry_equiv_pos_as_xyz
  1  'x, y, z'
loop_
 _atom_site_type_symbol
 _atom_site_label
 _atom_site_symmetry_multiplicity
 _atom_site_fract_x
 _atom_site_fract_y
 _atom_site_fract_z
 _atom_site_occupancy
  Ca  Ca0  1  0.78772127  0.62736530  0.11009772  1.0
  Ca  Ca1  1  1.37263470  -0.11009772  0.21227873  1.0
  Ca  Ca2  1  0.88990228  0.21227873  0.37263470  1.0
  Ca  Ca3  1  1.21227873  0.37263470  -0.11009772  1.0
  Ca  Ca4  1  0.62736530  1.11009772  -0.21227873  1.0
  Ca  Ca5  1  1.11009772  0.78772127  -0.37263470  1.0
  Cr  Cr6  1  0.62191023  0.62191023  0.62191023  1.0
  Cr  Cr7  1  0.37808977  0.37808977  0.37808977  1.0
  H  H8  1  0.00000000  0.00000000  0.00000000  1.0
  N  N9  1  1.47205111  0.72563752  -0.15308042  1.0
  N  N10  1  1.27436248  0.15308042  -0.47205111  1.0
  N  N11  1  1.15308042  -0.47205111  0.27436248  1.0
  N  N12  1  0.52794889  0.27436248  0.15308042  1.0
  N  N13  1  0.72563752  0.84691958  0.47205111  1.0
  N  N14  1  0.84691958  1.47205111  -0.27436248  1.0
