# generated using pymatgen
data_Hf2Si4Ni3
_symmetry_space_group_name_H-M   'P 1'
_cell_length_a   7.32307117
_cell_length_b   7.32307117
_cell_length_c   6.87962797
_cell_angle_alpha   90.00000000
_cell_angle_beta   90.00000000
_cell_angle_gamma   138.45967508
_symmetry_Int_Tables_number   1
_chemical_formula_structural   Hf2Si4Ni3
_chemical_formula_sum   'Hf4 Si8 Ni6'
_cell_volume   244.65904342
_cell_formula_units_Z   2
loop_
 _symmetry_equiv_pos_site_id
 _symmetry_equiv_pos_as_xyz
  1  'x, y, z'
loop_
 _atom_site_type_symbol
 _atom_site_label
 _atom_site_symmetry_multiplicity
 _atom_site_fract_x
 _atom_site_fract_y
 _atom_site_fract_z
 _atom_site_occupancy
  Hf  Hf0  1  -0.39605341  0.39605341  0.09768192  1.0
  Hf  Hf1  1  0.10394659  0.89605341  0.40231808  1.0
  Hf  Hf2  1  0.39605341  0.60394659  0.90231808  1.0
  Hf  Hf3  1  -0.10394659  0.10394659  0.59768192  1.0
  Si  Si4  1  -0.31846809  0.31846809  0.47683216  1.0
  Si  Si5  1  0.18153191  0.81846809  0.02316784  1.0
  Si  Si6  1  0.31846809  0.68153191  0.52316784  1.0
  Si  Si7  1  -0.18153191  0.18153191  0.97683216  1.0
  Si  Si8  1  0.68871836  0.81128164  0.25000000  1.0
  Si  Si9  1  0.18871836  0.31128164  0.25000000  1.0
  Si  Si10  1  -0.18871836  0.68871836  0.75000000  1.0
  Si  Si11  1  0.31128164  1.18871836  0.75000000  1.0
  Ni  Ni12  1  0.52130703  0.97869297  0.25000000  1.0
  Ni  Ni13  1  0.02130703  0.47869297  0.25000000  1.0
  Ni  Ni14  1  -0.02130703  0.52130703  0.75000000  1.0
  Ni  Ni15  1  0.47869297  1.02130703  0.75000000  1.0
  Ni  Ni16  1  -0.50000000  0.50000000  0.50000000  1.0
  Ni  Ni17  1  -0.00000000  1.00000000  0.00000000  1.0
