# generated using pymatgen
data_CePRu2C
_symmetry_space_group_name_H-M   'P 1'
_cell_length_a   5.85641536
_cell_length_b   5.85641536
_cell_length_c   7.08332557
_cell_angle_alpha   90.00000000
_cell_angle_beta   90.00000000
_cell_angle_gamma   141.38289262
_symmetry_Int_Tables_number   1
_chemical_formula_structural   CePRu2C
_chemical_formula_sum   'Ce2 P2 Ru4 C2'
_cell_volume   151.62266114
_cell_formula_units_Z   2
loop_
 _symmetry_equiv_pos_site_id
 _symmetry_equiv_pos_as_xyz
  1  'x, y, z'
loop_
 _atom_site_type_symbol
 _atom_site_label
 _atom_site_symmetry_multiplicity
 _atom_site_fract_x
 _atom_site_fract_y
 _atom_site_fract_z
 _atom_site_occupancy
  Ce  Ce0  1  0.45089850  0.54910150  0.75000000  1.0
  Ce  Ce1  1  -0.45089850  0.45089850  0.25000000  1.0
  P  P2  1  -0.27250230  0.27250230  0.75000000  1.0
  P  P3  1  0.27250230  0.72749770  0.25000000  1.0
  Ru  Ru4  1  0.16654244  0.83345756  0.94614473  1.0
  Ru  Ru5  1  0.16654244  0.83345756  0.55385527  1.0
  Ru  Ru6  1  -0.16654244  0.16654244  0.44614473  1.0
  Ru  Ru7  1  -0.16654244  0.16654244  0.05385527  1.0
  C  C8  1  0.00000000  0.00000000  0.00000000  1.0
  C  C9  1  0.00000000  0.00000000  0.50000000  1.0
