# generated using pymatgen
data_SrAl4O7
_symmetry_space_group_name_H-M   'P 1'
_cell_length_a   8.02843746
_cell_length_b   8.02843746
_cell_length_c   5.60174743
_cell_angle_alpha   76.70663823
_cell_angle_beta   103.29336177
_cell_angle_gamma   110.79777006
_symmetry_Int_Tables_number   1
_chemical_formula_structural   SrAl4O7
_chemical_formula_sum   'Sr2 Al8 O14'
_cell_volume   324.10072784
_cell_formula_units_Z   2
loop_
 _symmetry_equiv_pos_site_id
 _symmetry_equiv_pos_as_xyz
  1  'x, y, z'
loop_
 _atom_site_type_symbol
 _atom_site_label
 _atom_site_symmetry_multiplicity
 _atom_site_fract_x
 _atom_site_fract_y
 _atom_site_fract_z
 _atom_site_occupancy
  Sr  Sr0  1  0.68892372  -0.31107628  0.75000000  1.0
  Sr  Sr1  1  1.31107628  0.31107628  0.25000000  1.0
  Al  Al2  1  1.58225127  0.24490773  0.79604046  1.0
  Al  Al3  1  0.75509227  -0.58225127  0.29604046  1.0
  Al  Al4  1  1.24490773  0.58225127  0.70395954  1.0
  Al  Al5  1  0.41774873  -0.24490773  0.20395954  1.0
  Al  Al6  1  0.18132967  -0.06081998  0.76269715  1.0
  Al  Al7  1  1.06081998  0.81867033  0.26269715  1.0
  Al  Al8  1  0.93918002  -0.81867033  0.73730285  1.0
  Al  Al9  1  1.81867033  0.06081998  0.23730285  1.0
  O  O10  1  0.97455466  -0.02544534  0.75000000  1.0
  O  O11  1  1.02544534  0.02544534  0.25000000  1.0
  O  O12  1  0.42001147  -0.34197825  0.95216280  1.0
  O  O13  1  1.34197825  0.57998853  0.45216280  1.0
  O  O14  1  0.65802175  -0.57998853  0.54783720  1.0
  O  O15  1  1.57998853  0.34197825  0.04783720  1.0
  O  O16  1  1.75536789  0.13588462  0.90532220  1.0
  O  O17  1  0.86411538  -0.75536789  0.40532220  1.0
  O  O18  1  1.13588462  0.75536789  0.59467780  1.0
  O  O19  1  0.24463211  -0.13588462  0.09467780  1.0
  O  O20  1  1.36620051  0.11774659  0.66900777  1.0
  O  O21  1  0.88225341  -0.36620051  0.16900777  1.0
  O  O22  1  1.11774659  0.36620051  0.83099223  1.0
  O  O23  1  0.63379949  -0.11774659  0.33099223  1.0
