# generated using pymatgen
data_Sr3Tl5
_symmetry_space_group_name_H-M   'P 1'
_cell_length_a   6.94568085
_cell_length_b   6.94568085
_cell_length_c   11.34261827
_cell_angle_alpha   90.00000000
_cell_angle_beta   90.00000000
_cell_angle_gamma   77.68853836
_symmetry_Int_Tables_number   1
_chemical_formula_structural   Sr3Tl5
_chemical_formula_sum   'Sr6 Tl10'
_cell_volume   534.61216230
_cell_formula_units_Z   2
loop_
 _symmetry_equiv_pos_site_id
 _symmetry_equiv_pos_as_xyz
  1  'x, y, z'
loop_
 _atom_site_type_symbol
 _atom_site_label
 _atom_site_symmetry_multiplicity
 _atom_site_fract_x
 _atom_site_fract_y
 _atom_site_fract_z
 _atom_site_occupancy
  Sr  Sr0  1  0.79063646  0.79063646  0.50000000  1.0
  Sr  Sr1  1  0.79063646  0.79063646  0.00000000  1.0
  Sr  Sr2  1  0.20936354  0.20936354  0.50000000  1.0
  Sr  Sr3  1  0.20936354  0.20936354  0.00000000  1.0
  Sr  Sr4  1  -0.39771740  1.39771740  0.25000000  1.0
  Sr  Sr5  1  0.39771740  0.60228260  0.75000000  1.0
  Tl  Tl6  1  0.06675167  0.52085417  0.25000000  1.0
  Tl  Tl7  1  -0.47914583  1.06675167  0.75000000  1.0
  Tl  Tl8  1  0.47914583  0.93324833  0.25000000  1.0
  Tl  Tl9  1  -0.06675167  1.47914583  0.75000000  1.0
  Tl  Tl10  1  0.30300806  0.69699194  0.45991768  1.0
  Tl  Tl11  1  0.30300806  0.69699194  0.04008232  1.0
  Tl  Tl12  1  -0.30300806  1.30300806  0.95991768  1.0
  Tl  Tl13  1  -0.30300806  1.30300806  0.54008232  1.0
  Tl  Tl14  1  -0.00502101  1.00502101  0.25000000  1.0
  Tl  Tl15  1  0.00502101  0.99497899  0.75000000  1.0
