# generated using pymatgen
data_Ba2ZnN2
_symmetry_space_group_name_H-M   'P 1'
_cell_length_a   7.14446305
_cell_length_b   7.14446305
_cell_length_c   7.14446305
_cell_angle_alpha   145.77159824
_cell_angle_beta   145.77159824
_cell_angle_gamma   49.18614098
_symmetry_Int_Tables_number   1
_chemical_formula_structural   Ba2ZnN2
_chemical_formula_sum   'Ba2 Zn1 N2'
_cell_volume   114.86368842
_cell_formula_units_Z   1
loop_
 _symmetry_equiv_pos_site_id
 _symmetry_equiv_pos_as_xyz
  1  'x, y, z'
loop_
 _atom_site_type_symbol
 _atom_site_label
 _atom_site_symmetry_multiplicity
 _atom_site_fract_x
 _atom_site_fract_y
 _atom_site_fract_z
 _atom_site_occupancy
  Ba  Ba0  1  0.65573665  0.65573665  1.00000000  1.0
  Ba  Ba1  1  0.34426335  0.34426335  0.00000000  1.0
  Zn  Zn2  1  0.00000000  0.00000000  0.00000000  1.0
  N  N3  1  0.85834022  0.85834022  1.00000000  1.0
  N  N4  1  0.14165978  0.14165978  0.00000000  1.0
