# generated using pymatgen
data_Ba2Cd2Sb3
_symmetry_space_group_name_H-M   'P 1'
_cell_length_a   9.47492484
_cell_length_b   9.47492484
_cell_length_c   13.61041250
_cell_angle_alpha   54.61822092
_cell_angle_beta   125.38177908
_cell_angle_gamma   149.99486388
_symmetry_Int_Tables_number   1
_chemical_formula_structural   Ba2Cd2Sb3
_chemical_formula_sum   'Ba4 Cd4 Sb6'
_cell_volume   489.07111534
_cell_formula_units_Z   2
loop_
 _symmetry_equiv_pos_site_id
 _symmetry_equiv_pos_as_xyz
  1  'x, y, z'
loop_
 _atom_site_type_symbol
 _atom_site_label
 _atom_site_symmetry_multiplicity
 _atom_site_fract_x
 _atom_site_fract_y
 _atom_site_fract_z
 _atom_site_occupancy
  Ba  Ba0  1  0.73613873  -0.73613873  0.33762449  1.0
  Ba  Ba1  1  0.26386127  -0.26386127  0.66237551  1.0
  Ba  Ba2  1  0.60067202  0.39932798  0.94292954  1.0
  Ba  Ba3  1  1.39932798  -0.39932798  0.05707046  1.0
  Cd  Cd4  1  0.95792518  -0.95792518  0.69007078  1.0
  Cd  Cd5  1  0.04207482  -0.04207482  0.30992922  1.0
  Cd  Cd6  1  0.59165709  0.40834291  0.65460513  1.0
  Cd  Cd7  1  1.40834291  -0.40834291  0.34539487  1.0
  Sb  Sb8  1  0.91846830  0.08153170  0.87516562  1.0
  Sb  Sb9  1  1.08153170  -0.08153170  0.12483438  1.0
  Sb  Sb10  1  0.84433696  -0.84433696  0.19539114  1.0
  Sb  Sb11  1  0.15566304  -0.15566304  0.80460886  1.0
  Sb  Sb12  1  0.61294292  0.38705708  0.45772088  1.0
  Sb  Sb13  1  1.38705708  -0.38705708  0.54227912  1.0
