# generated using pymatgen
data_La4Cu2O7
_symmetry_space_group_name_H-M   'P 1'
_cell_length_a   6.85790199
_cell_length_b   6.85790199
_cell_length_c   8.62184095
_cell_angle_alpha   71.74241576
_cell_angle_beta   108.25758424
_cell_angle_gamma   147.26150369
_symmetry_Int_Tables_number   1
_chemical_formula_structural   La4Cu2O7
_chemical_formula_sum   'La4 Cu2 O7'
_cell_volume   207.27273611
_cell_formula_units_Z   1
loop_
 _symmetry_equiv_pos_site_id
 _symmetry_equiv_pos_as_xyz
  1  'x, y, z'
loop_
 _atom_site_type_symbol
 _atom_site_label
 _atom_site_symmetry_multiplicity
 _atom_site_fract_x
 _atom_site_fract_y
 _atom_site_fract_z
 _atom_site_occupancy
  La  La0  1  0.64355246  0.35644754  0.83258309  1.0
  La  La1  1  0.35644754  -0.35644754  0.16741691  1.0
  La  La2  1  0.34304768  -0.34304768  0.68042725  1.0
  La  La3  1  0.65695232  0.34304768  0.31957275  1.0
  Cu  Cu4  1  -0.00000000  0.00000000  0.50000000  1.0
  Cu  Cu5  1  0.00000000  0.00000000  0.00000000  1.0
  O  O6  1  0.72910302  0.27089698  0.61712483  1.0
  O  O7  1  0.27089698  -0.27089698  0.38287517  1.0
  O  O8  1  0.25263518  -0.25263518  0.87971920  1.0
  O  O9  1  0.74736482  0.25263518  0.12028080  1.0
  O  O10  1  -0.00794259  0.00794259  0.70735263  1.0
  O  O11  1  1.00794259  -0.00794259  0.29264737  1.0
  O  O12  1  0.50000000  0.50000000  0.00000000  1.0
