# generated using pymatgen
data_Rb2TcF6
_symmetry_space_group_name_H-M   'P 1'
_cell_length_a   6.12157993
_cell_length_b   6.12157993
_cell_length_c   4.94633969
_cell_angle_alpha   90.00000000
_cell_angle_beta   90.00000000
_cell_angle_gamma   120.00000000
_symmetry_Int_Tables_number   1
_chemical_formula_structural   Rb2TcF6
_chemical_formula_sum   'Rb2 Tc1 F6'
_cell_volume   160.52460851
_cell_formula_units_Z   1
loop_
 _symmetry_equiv_pos_site_id
 _symmetry_equiv_pos_as_xyz
  1  'x, y, z'
loop_
 _atom_site_type_symbol
 _atom_site_label
 _atom_site_symmetry_multiplicity
 _atom_site_fract_x
 _atom_site_fract_y
 _atom_site_fract_z
 _atom_site_occupancy
  Rb  Rb0  1  0.33333333  0.66666667  0.29696614  1.0
  Rb  Rb1  1  0.66666667  0.33333333  0.70303386  1.0
  Tc  Tc2  1  -0.00000000  -0.00000000  0.00000000  1.0
  F  F3  1  0.30932581  0.15466291  0.21859423  1.0
  F  F4  1  0.15466291  0.30932581  0.78140577  1.0
  F  F5  1  0.15466291  0.84533709  0.78140577  1.0
  F  F6  1  0.84533709  0.15466291  0.21859423  1.0
  F  F7  1  0.84533709  0.69067419  0.21859423  1.0
  F  F8  1  0.69067419  0.84533709  0.78140577  1.0
