# generated using pymatgen
data_Na3B20
_symmetry_space_group_name_H-M   'P 1'
_cell_length_a   9.75860826
_cell_length_b   9.75860826
_cell_length_c   4.13958690
_cell_angle_alpha   90.00000000
_cell_angle_beta   90.00000000
_cell_angle_gamma   146.06130220
_symmetry_Int_Tables_number   1
_chemical_formula_structural   Na3B20
_chemical_formula_sum   'Na3 B20'
_cell_volume   220.09224347
_cell_formula_units_Z   1
loop_
 _symmetry_equiv_pos_site_id
 _symmetry_equiv_pos_as_xyz
  1  'x, y, z'
loop_
 _atom_site_type_symbol
 _atom_site_label
 _atom_site_symmetry_multiplicity
 _atom_site_fract_x
 _atom_site_fract_y
 _atom_site_fract_z
 _atom_site_occupancy
  Na  Na0  1  0.13637523  0.86362477  0.50000000  1.0
  Na  Na1  1  -0.13637523  0.13637523  0.50000000  1.0
  Na  Na2  1  0.50000000  0.50000000  0.50000000  1.0
  B  B3  1  -0.10882463  0.79725074  0.00000000  1.0
  B  B4  1  0.79725074  0.89117537  0.00000000  1.0
  B  B5  1  0.20274926  1.10882463  0.00000000  1.0
  B  B6  1  0.10882463  0.20274926  0.00000000  1.0
  B  B7  1  -0.06883054  0.52638283  0.00000000  1.0
  B  B8  1  0.52638283  0.93116946  0.00000000  1.0
  B  B9  1  0.47361717  1.06883054  0.00000000  1.0
  B  B10  1  0.06883054  0.47361717  0.00000000  1.0
  B  B11  1  -0.23486283  0.53445953  0.00000000  1.0
  B  B12  1  0.53445953  0.76513717  0.00000000  1.0
  B  B13  1  0.46554047  1.23486283  0.00000000  1.0
  B  B14  1  0.23486283  0.46554047  0.00000000  1.0
  B  B15  1  0.32592604  0.67407396  0.70794884  1.0
  B  B16  1  0.32592604  0.67407396  0.29205116  1.0
  B  B17  1  -0.32592604  0.32592604  0.70794884  1.0
  B  B18  1  -0.32592604  0.32592604  0.29205116  1.0
  B  B19  1  0.00000000  0.00000000  0.70099037  1.0
  B  B20  1  0.00000000  0.00000000  0.29900963  1.0
  B  B21  1  0.24400372  0.75599628  0.00000000  1.0
  B  B22  1  -0.24400372  0.24400372  0.00000000  1.0
