# generated using pymatgen
data_CdH2SO5
_symmetry_space_group_name_H-M   'P 1'
_cell_length_a   7.92570956
_cell_length_b   7.50745979
_cell_length_c   8.40335125
_cell_angle_alpha   90.00000000
_cell_angle_beta   123.86210143
_cell_angle_gamma   90.00000000
_symmetry_Int_Tables_number   1
_chemical_formula_structural   CdH2SO5
_chemical_formula_sum   'Cd4 H8 S4 O20'
_cell_volume   415.20359260
_cell_formula_units_Z   4
loop_
 _symmetry_equiv_pos_site_id
 _symmetry_equiv_pos_as_xyz
  1  'x, y, z'
loop_
 _atom_site_type_symbol
 _atom_site_label
 _atom_site_symmetry_multiplicity
 _atom_site_fract_x
 _atom_site_fract_y
 _atom_site_fract_z
 _atom_site_occupancy
  Cd  Cd0  1  0.77643535  0.74075791  0.24413801  1.0
  Cd  Cd1  1  0.77643535  0.75924209  0.74413801  1.0
  Cd  Cd2  1  0.22356465  0.24075791  0.25586199  1.0
  Cd  Cd3  1  0.22356465  0.25924209  0.75586199  1.0
  H  H4  1  0.79375845  0.02186756  0.49493432  1.0
  H  H5  1  0.79375845  0.47813244  0.99493432  1.0
  H  H6  1  0.20624155  0.52186756  0.00506568  1.0
  H  H7  1  0.20624155  0.97813244  0.50506568  1.0
  H  H8  1  0.57562868  0.93333742  0.37647589  1.0
  H  H9  1  0.57562868  0.56666258  0.87647589  1.0
  H  H10  1  0.42437132  0.43333742  0.12352411  1.0
  H  H11  1  0.42437132  0.06666258  0.62352411  1.0
  S  S12  1  0.74235117  0.38343967  0.48802622  1.0
  S  S13  1  0.74235117  0.11656033  0.98802622  1.0
  S  S14  1  0.25764883  0.88343967  0.01197378  1.0
  S  S15  1  0.25764883  0.61656033  0.51197378  1.0
  O  O16  1  0.88778420  0.23926607  0.51172298  1.0
  O  O17  1  0.88778420  0.26073393  0.01172298  1.0
  O  O18  1  0.11221580  0.73926607  0.98827702  1.0
  O  O19  1  0.11221580  0.76073393  0.48827702  1.0
  O  O20  1  0.85999166  -0.00560877  0.15520230  1.0
  O  O21  1  0.85999166  0.50560877  0.65520230  1.0
  O  O22  1  0.14000834  0.49439123  0.34479770  1.0
  O  O23  1  0.14000834  1.00560877  0.84479770  1.0
  O  O24  1  0.72361512  0.90409918  0.46520667  1.0
  O  O25  1  0.72361512  0.59590082  0.96520667  1.0
  O  O26  1  0.27638488  0.40409918  0.03479333  1.0
  O  O27  1  0.27638488  0.09590082  0.53479333  1.0
  O  O28  1  0.66663873  0.48432634  0.30412045  1.0
  O  O29  1  0.66663873  0.01567366  0.80412045  1.0
  O  O30  1  0.33336127  0.98432634  0.19587955  1.0
  O  O31  1  0.33336127  0.51567366  0.69587955  1.0
  O  O32  1  0.56683262  0.30080094  0.47724237  1.0
  O  O33  1  0.56683262  0.19919906  0.97724237  1.0
  O  O34  1  0.43316738  0.80080094  0.02275763  1.0
  O  O35  1  0.43316738  0.69919906  0.52275763  1.0
