# generated using pymatgen
data_Sc4Ge19Ir6
_symmetry_space_group_name_H-M   'P 1'
_cell_length_a   8.87627489
_cell_length_b   8.87627489
_cell_length_c   8.87627489
_cell_angle_alpha   109.47122063
_cell_angle_beta   109.47122063
_cell_angle_gamma   109.47122063
_symmetry_Int_Tables_number   1
_chemical_formula_structural   Sc4Ge19Ir6
_chemical_formula_sum   'Sc4 Ge19 Ir6'
_cell_volume   538.35696859
_cell_formula_units_Z   1
loop_
 _symmetry_equiv_pos_site_id
 _symmetry_equiv_pos_as_xyz
  1  'x, y, z'
loop_
 _atom_site_type_symbol
 _atom_site_label
 _atom_site_symmetry_multiplicity
 _atom_site_fract_x
 _atom_site_fract_y
 _atom_site_fract_z
 _atom_site_occupancy
  Sc  Sc0  1  0.65307812  0.65307812  0.65307812  1.0
  Sc  Sc1  1  1.00000000  1.00000000  0.34692188  1.0
  Sc  Sc2  1  1.00000000  0.34692188  1.00000000  1.0
  Sc  Sc3  1  0.34692188  1.00000000  1.00000000  1.0
  Ge  Ge4  1  0.34163340  0.56198813  0.33414006  1.0
  Ge  Ge5  1  1.22784807  1.00749335  0.66585994  1.0
  Ge  Ge6  1  0.33414006  0.34163340  0.56198813  1.0
  Ge  Ge7  1  0.77964528  0.77215193  0.43801187  1.0
  Ge  Ge8  1  0.56198813  0.33414006  0.34163340  1.0
  Ge  Ge9  1  0.99250665  1.22035472  1.65836660  1.0
  Ge  Ge10  1  0.77215193  0.43801187  0.77964528  1.0
  Ge  Ge11  1  1.65836660  0.99250665  1.22035472  1.0
  Ge  Ge12  1  1.22035472  1.65836660  0.99250665  1.0
  Ge  Ge13  1  0.66585994  1.22784807  1.00749335  1.0
  Ge  Ge14  1  1.00749335  0.66585994  1.22784807  1.0
  Ge  Ge15  1  0.43801187  0.77964528  0.77215193  1.0
  Ge  Ge16  1  0.70474152  0.70474152  0.00000000  1.0
  Ge  Ge17  1  -0.00000000  0.70474152  0.70474152  1.0
  Ge  Ge18  1  0.00000000  0.29525848  0.29525848  1.0
  Ge  Ge19  1  0.70474152  -0.00000000  0.70474152  1.0
  Ge  Ge20  1  0.29525848  -0.00000000  0.29525848  1.0
  Ge  Ge21  1  0.29525848  0.29525848  0.00000000  1.0
  Ge  Ge22  1  0.00000000  -0.00000000  0.00000000  1.0
  Ir  Ir23  1  0.36435191  0.86435191  0.50000000  1.0
  Ir  Ir24  1  0.50000000  0.36435191  0.86435191  1.0
  Ir  Ir25  1  0.50000000  0.63564809  0.13564809  1.0
  Ir  Ir26  1  0.86435191  0.50000000  0.36435191  1.0
  Ir  Ir27  1  0.13564809  0.50000000  0.63564809  1.0
  Ir  Ir28  1  0.63564809  0.13564809  0.50000000  1.0
