# generated using pymatgen
data_Zr14P9
_symmetry_space_group_name_H-M   'P 1'
_cell_length_a   16.75651630
_cell_length_b   27.69655281
_cell_length_c   3.69459526
_cell_angle_alpha   90.00000000
_cell_angle_beta   90.00000000
_cell_angle_gamma   90.00000000
_symmetry_Int_Tables_number   1
_chemical_formula_structural   Zr14P9
_chemical_formula_sum   'Zr56 P36'
_cell_volume   1714.65330483
_cell_formula_units_Z   4
loop_
 _symmetry_equiv_pos_site_id
 _symmetry_equiv_pos_as_xyz
  1  'x, y, z'
loop_
 _atom_site_type_symbol
 _atom_site_label
 _atom_site_symmetry_multiplicity
 _atom_site_fract_x
 _atom_site_fract_y
 _atom_site_fract_z
 _atom_site_occupancy
  Zr  Zr0  1  0.44905321  0.91990212  0.50000000  1.0
  Zr  Zr1  1  0.94905321  0.58009788  0.00000000  1.0
  Zr  Zr2  1  0.55094679  0.08009788  0.50000000  1.0
  Zr  Zr3  1  0.05094679  0.41990212  0.00000000  1.0
  Zr  Zr4  1  0.40074274  0.39487166  0.50000000  1.0
  Zr  Zr5  1  0.90074274  0.10512834  0.00000000  1.0
  Zr  Zr6  1  0.59925726  0.60512834  0.50000000  1.0
  Zr  Zr7  1  0.09925726  0.89487166  0.00000000  1.0
  Zr  Zr8  1  0.38152282  0.74389174  0.50000000  1.0
  Zr  Zr9  1  0.88152282  0.75610826  0.00000000  1.0
  Zr  Zr10  1  0.61847718  0.25610826  0.50000000  1.0
  Zr  Zr11  1  0.11847718  0.24389174  0.00000000  1.0
  Zr  Zr12  1  0.36331453  0.03110467  0.50000000  1.0
  Zr  Zr13  1  0.86331453  0.46889533  0.00000000  1.0
  Zr  Zr14  1  0.63668547  0.96889533  0.50000000  1.0
  Zr  Zr15  1  0.13668547  0.53110467  0.00000000  1.0
  Zr  Zr16  1  0.36253354  0.14654909  0.50000000  1.0
  Zr  Zr17  1  0.86253354  0.35345091  0.00000000  1.0
  Zr  Zr18  1  0.63746646  0.85345091  0.50000000  1.0
  Zr  Zr19  1  0.13746646  0.64654909  0.00000000  1.0
  Zr  Zr20  1  0.30136990  0.50906780  0.50000000  1.0
  Zr  Zr21  1  0.80136990  0.99093220  0.00000000  1.0
  Zr  Zr22  1  0.69863010  0.49093220  0.50000000  1.0
  Zr  Zr23  1  0.19863010  0.00906780  0.00000000  1.0
  Zr  Zr24  1  0.29847301  0.64170477  0.50000000  1.0
  Zr  Zr25  1  0.79847301  0.85829523  0.00000000  1.0
  Zr  Zr26  1  0.70152699  0.35829523  0.50000000  1.0
  Zr  Zr27  1  0.20152699  0.14170477  0.00000000  1.0
  Zr  Zr28  1  0.25463753  0.91624597  0.50000000  1.0
  Zr  Zr29  1  0.75463753  0.58375403  0.00000000  1.0
  Zr  Zr30  1  0.74536247  0.08375403  0.50000000  1.0
  Zr  Zr31  1  0.24536247  0.41624597  0.00000000  1.0
  Zr  Zr32  1  0.16670783  0.73752722  0.50000000  1.0
  Zr  Zr33  1  0.66670783  0.76247278  0.00000000  1.0
  Zr  Zr34  1  0.83329217  0.26247278  0.50000000  1.0
  Zr  Zr35  1  0.33329217  0.23752722  0.00000000  1.0
  Zr  Zr36  1  0.01386737  0.80406261  0.50000000  1.0
  Zr  Zr37  1  0.51386737  0.69593739  0.00000000  1.0
  Zr  Zr38  1  0.98613263  0.19593739  0.50000000  1.0
  Zr  Zr39  1  0.48613263  0.30406261  0.00000000  1.0
  Zr  Zr40  1  0.98055274  0.67746953  0.50000000  1.0
  Zr  Zr41  1  0.48055274  0.82253047  0.00000000  1.0
  Zr  Zr42  1  0.01944726  0.32253047  0.50000000  1.0
  Zr  Zr43  1  0.51944726  0.17746953  0.00000000  1.0
  Zr  Zr44  1  0.93214296  0.92398094  0.50000000  1.0
  Zr  Zr45  1  0.43214296  0.57601906  0.00000000  1.0
  Zr  Zr46  1  0.06785704  0.07601906  0.50000000  1.0
  Zr  Zr47  1  0.56785704  0.42398094  0.00000000  1.0
  Zr  Zr48  1  0.76772722  0.68770275  0.50000000  1.0
  Zr  Zr49  1  0.26772722  0.81229725  0.00000000  1.0
  Zr  Zr50  1  0.23227278  0.31229725  0.50000000  1.0
  Zr  Zr51  1  0.73227278  0.18770275  0.00000000  1.0
  Zr  Zr52  1  0.50000000  0.00000000  0.00000000  1.0
  Zr  Zr53  1  0.00000000  0.50000000  0.50000000  1.0
  Zr  Zr54  1  0.50000000  0.50000000  0.50000000  1.0
  Zr  Zr55  1  0.00000000  0.00000000  0.00000000  1.0
  P  P56  1  0.10348297  0.96638898  0.50000000  1.0
  P  P57  1  0.60348297  0.53361102  0.00000000  1.0
  P  P58  1  0.89651703  0.03361102  0.50000000  1.0
  P  P59  1  0.39651703  0.46638898  0.00000000  1.0
  P  P60  1  0.45259027  0.23323197  0.50000000  1.0
  P  P61  1  0.95259027  0.26676803  0.00000000  1.0
  P  P62  1  0.54740973  0.76676803  0.50000000  1.0
  P  P63  1  0.04740973  0.73323197  0.00000000  1.0
  P  P64  1  0.45157416  0.64281988  0.50000000  1.0
  P  P65  1  0.95157416  0.85718012  0.00000000  1.0
  P  P66  1  0.54842584  0.35718012  0.50000000  1.0
  P  P67  1  0.04842584  0.14281988  0.00000000  1.0
  P  P68  1  0.36743190  0.84180356  0.50000000  1.0
  P  P69  1  0.86743190  0.65819644  0.00000000  1.0
  P  P70  1  0.63256810  0.15819644  0.50000000  1.0
  P  P71  1  0.13256810  0.34180356  0.00000000  1.0
  P  P72  1  0.22988061  0.07742664  0.50000000  1.0
  P  P73  1  0.72988061  0.42257336  0.00000000  1.0
  P  P74  1  0.77011939  0.92257336  0.50000000  1.0
  P  P75  1  0.27011939  0.57742664  0.00000000  1.0
  P  P76  1  0.22610844  0.21398293  0.50000000  1.0
  P  P77  1  0.72610844  0.28601707  0.00000000  1.0
  P  P78  1  0.77389156  0.78601707  0.50000000  1.0
  P  P79  1  0.27389156  0.71398293  0.00000000  1.0
  P  P80  1  0.15928044  0.83462840  0.50000000  1.0
  P  P81  1  0.65928044  0.66537160  0.00000000  1.0
  P  P82  1  0.84071956  0.16537160  0.50000000  1.0
  P  P83  1  0.34071956  0.33462840  0.00000000  1.0
  P  P84  1  0.06281393  0.59205886  0.50000000  1.0
  P  P85  1  0.56281393  0.90794114  0.00000000  1.0
  P  P86  1  0.93718607  0.40794114  0.50000000  1.0
  P  P87  1  0.43718607  0.09205886  0.00000000  1.0
  P  P88  1  0.84451672  0.53762361  0.50000000  1.0
  P  P89  1  0.34451672  0.96237639  0.00000000  1.0
  P  P90  1  0.15548328  0.46237639  0.50000000  1.0
  P  P91  1  0.65548328  0.03762361  0.00000000  1.0
