# generated using pymatgen
data_SiO2
_symmetry_space_group_name_H-M   'P 1'
_cell_length_a   11.74874810
_cell_length_b   11.74874810
_cell_length_c   4.44020167
_cell_angle_alpha   90.00000000
_cell_angle_beta   90.00000000
_cell_angle_gamma   120.00000000
_symmetry_Int_Tables_number   1
_chemical_formula_structural   SiO2
_chemical_formula_sum   'Si12 O24'
_cell_volume   530.78239856
_cell_formula_units_Z   12
loop_
 _symmetry_equiv_pos_site_id
 _symmetry_equiv_pos_as_xyz
  1  'x, y, z'
loop_
 _atom_site_type_symbol
 _atom_site_label
 _atom_site_symmetry_multiplicity
 _atom_site_fract_x
 _atom_site_fract_y
 _atom_site_fract_z
 _atom_site_occupancy
  Si  Si0  1  0.46084827  0.31145021  0.78260913  1.0
  Si  Si1  1  0.85060194  0.53915173  0.78260913  1.0
  Si  Si2  1  0.68854979  0.14939806  0.78260913  1.0
  Si  Si3  1  0.53915173  0.85060194  0.78260913  1.0
  Si  Si4  1  0.31145021  0.46084827  0.78260913  1.0
  Si  Si5  1  0.14939806  0.68854979  0.78260913  1.0
  Si  Si6  1  0.53915173  0.68854979  0.21739087  1.0
  Si  Si7  1  0.14939806  0.46084827  0.21739087  1.0
  Si  Si8  1  0.31145021  0.85060194  0.21739087  1.0
  Si  Si9  1  0.46084827  0.14939806  0.21739087  1.0
  Si  Si10  1  0.68854979  0.53915173  0.21739087  1.0
  Si  Si11  1  0.85060194  0.31145021  0.21739087  1.0
  O  O12  1  0.81489644  0.62979287  -0.00000000  1.0
  O  O13  1  0.81489644  0.18510356  0.00000000  1.0
  O  O14  1  0.37020713  0.18510356  0.00000000  1.0
  O  O15  1  0.18510356  0.81489644  -0.00000000  1.0
  O  O16  1  0.62979287  0.81489644  -0.00000000  1.0
  O  O17  1  0.18510356  0.37020713  0.00000000  1.0
  O  O18  1  0.62279629  0.62279629  0.34822478  1.0
  O  O19  1  0.00000000  0.37720371  0.34822478  1.0
  O  O20  1  0.37720371  -0.00000000  0.34822478  1.0
  O  O21  1  0.37720371  0.37720371  0.65177522  1.0
  O  O22  1  -0.00000000  0.62279629  0.65177522  1.0
  O  O23  1  0.62279629  0.00000000  0.65177522  1.0
  O  O24  1  0.58065860  0.41934140  0.00000000  1.0
  O  O25  1  0.83868280  0.41934140  0.00000000  1.0
  O  O26  1  0.58065860  0.16131720  -0.00000000  1.0
  O  O27  1  0.41934140  0.83868280  0.00000000  1.0
  O  O28  1  0.41934140  0.58065860  -0.00000000  1.0
  O  O29  1  0.16131720  0.58065860  -0.00000000  1.0
  O  O30  1  0.74702706  0.49405411  0.50000000  1.0
  O  O31  1  0.74702706  0.25297294  0.50000000  1.0
  O  O32  1  0.50594589  0.25297294  0.50000000  1.0
  O  O33  1  0.25297294  0.74702706  0.50000000  1.0
  O  O34  1  0.49405411  0.74702706  0.50000000  1.0
  O  O35  1  0.25297294  0.50594589  0.50000000  1.0
