# generated using pymatgen
data_Ca3Pd
_symmetry_space_group_name_H-M   'P 1'
_cell_length_a   7.74877041
_cell_length_b   9.77937866
_cell_length_c   6.64042567
_cell_angle_alpha   90.00000000
_cell_angle_beta   90.00000000
_cell_angle_gamma   90.00000000
_symmetry_Int_Tables_number   1
_chemical_formula_structural   Ca3Pd
_chemical_formula_sum   'Ca12 Pd4'
_cell_volume   503.19923859
_cell_formula_units_Z   4
loop_
 _symmetry_equiv_pos_site_id
 _symmetry_equiv_pos_as_xyz
  1  'x, y, z'
loop_
 _atom_site_type_symbol
 _atom_site_label
 _atom_site_symmetry_multiplicity
 _atom_site_fract_x
 _atom_site_fract_y
 _atom_site_fract_z
 _atom_site_occupancy
  Ca  Ca0  1  0.32848716  0.93418330  0.66299568  1.0
  Ca  Ca1  1  0.32848716  0.56581670  0.66299568  1.0
  Ca  Ca2  1  0.82848716  0.93418330  0.83700432  1.0
  Ca  Ca3  1  0.82848716  0.56581670  0.83700432  1.0
  Ca  Ca4  1  0.67151284  0.43418330  0.33700432  1.0
  Ca  Ca5  1  0.67151284  0.06581670  0.33700432  1.0
  Ca  Ca6  1  0.17151284  0.43418330  0.16299568  1.0
  Ca  Ca7  1  0.17151284  0.06581670  0.16299568  1.0
  Ca  Ca8  1  0.45991798  0.75000000  0.14186956  1.0
  Ca  Ca9  1  0.95991798  0.75000000  0.35813044  1.0
  Ca  Ca10  1  0.54008202  0.25000000  0.85813044  1.0
  Ca  Ca11  1  0.04008202  0.25000000  0.64186956  1.0
  Pd  Pd12  1  0.12216246  0.75000000  0.95100439  1.0
  Pd  Pd13  1  0.62216246  0.75000000  0.54899561  1.0
  Pd  Pd14  1  0.87783754  0.25000000  0.04899561  1.0
  Pd  Pd15  1  0.37783754  0.25000000  0.45100439  1.0
