# generated using pymatgen
data_Na2TiSi4H4O13
_symmetry_space_group_name_H-M   'P 1'
_cell_length_a   9.01408837
_cell_length_b   8.86365014
_cell_length_c   7.45964127
_cell_angle_alpha   90.00000000
_cell_angle_beta   112.61840104
_cell_angle_gamma   90.00000000
_symmetry_Int_Tables_number   1
_chemical_formula_structural   Na2TiSi4H4O13
_chemical_formula_sum   'Na4 Ti2 Si8 H8 O26'
_cell_volume   550.16743041
_cell_formula_units_Z   2
loop_
 _symmetry_equiv_pos_site_id
 _symmetry_equiv_pos_as_xyz
  1  'x, y, z'
loop_
 _atom_site_type_symbol
 _atom_site_label
 _atom_site_symmetry_multiplicity
 _atom_site_fract_x
 _atom_site_fract_y
 _atom_site_fract_z
 _atom_site_occupancy
  Na  Na0  1  0.80364952  0.68914831  0.28711882  1.0
  Na  Na1  1  0.80364952  0.81085169  0.78711882  1.0
  Na  Na2  1  0.19635048  0.18914831  0.21288118  1.0
  Na  Na3  1  0.19635048  0.31085169  0.71288118  1.0
  Ti  Ti4  1  0.00000000  0.50000000  0.00000000  1.0
  Ti  Ti5  1  -0.00000000  0.00000000  0.50000000  1.0
  Si  Si6  1  0.84007379  0.33828932  0.30188430  1.0
  Si  Si7  1  0.84007379  0.16171068  0.80188430  1.0
  Si  Si8  1  0.15992621  0.83828932  0.19811570  1.0
  Si  Si9  1  0.15992621  0.66171068  0.69811570  1.0
  Si  Si10  1  0.68575683  0.05901041  0.09367389  1.0
  Si  Si11  1  0.68575683  0.44098959  0.59367389  1.0
  Si  Si12  1  0.31424317  0.55901041  0.40632611  1.0
  Si  Si13  1  0.31424317  0.94098959  0.90632611  1.0
  H  H14  1  0.66501451  0.88691263  0.39872665  1.0
  H  H15  1  0.66501451  0.61308737  0.89872665  1.0
  H  H16  1  0.33498549  0.38691263  0.10127335  1.0
  H  H17  1  0.33498549  0.11308737  0.60127335  1.0
  H  H18  1  0.48181983  0.29413224  0.08829412  1.0
  H  H19  1  0.48181983  0.20586776  0.58829412  1.0
  H  H20  1  0.51818017  0.79413224  0.41170588  1.0
  H  H21  1  0.51818017  0.70586776  0.91170588  1.0
  O  O22  1  0.97836190  0.21965607  0.42999498  1.0
  O  O23  1  0.97836190  0.28034393  0.92999498  1.0
  O  O24  1  0.02163810  0.71965607  0.07000502  1.0
  O  O25  1  0.02163810  0.78034393  0.57000502  1.0
  O  O26  1  0.89722770  0.46086935  0.18052485  1.0
  O  O27  1  0.89722770  0.03913065  0.68052485  1.0
  O  O28  1  0.10277230  0.96086935  0.31947515  1.0
  O  O29  1  0.10277230  0.53913065  0.81947515  1.0
  O  O30  1  0.78854448  0.96236736  0.28553783  1.0
  O  O31  1  0.78854448  0.53763264  0.78553783  1.0
  O  O32  1  0.21145552  0.46236736  0.21446217  1.0
  O  O33  1  0.21145552  0.03763264  0.71446217  1.0
  O  O34  1  0.76610319  0.44694664  0.42983314  1.0
  O  O35  1  0.76610319  0.05305336  0.92983314  1.0
  O  O36  1  0.23389681  0.94694664  0.07016686  1.0
  O  O37  1  0.23389681  0.55305336  0.57016686  1.0
  O  O38  1  0.68345063  0.23870677  0.15389932  1.0
  O  O39  1  0.68345063  0.26129323  0.65389932  1.0
  O  O40  1  0.31654937  0.73870677  0.34610068  1.0
  O  O41  1  0.31654937  0.76129323  0.84610068  1.0
  O  O42  1  0.63600871  0.80124610  0.46316411  1.0
  O  O43  1  0.63600871  0.69875390  0.96316411  1.0
  O  O44  1  0.36399129  0.30124610  0.03683589  1.0
  O  O45  1  0.36399129  0.19875390  0.53683589  1.0
  O  O46  1  0.50000000  0.50000000  0.50000000  1.0
  O  O47  1  0.50000000  0.00000000  -0.00000000  1.0
