# generated using pymatgen
data_Sr2Mn(HO)6
_symmetry_space_group_name_H-M   'P 1'
_cell_length_a   5.83948359
_cell_length_b   6.28734353
_cell_length_c   10.07783069
_cell_angle_alpha   90.00000000
_cell_angle_beta   124.68771710
_cell_angle_gamma   90.00000000
_symmetry_Int_Tables_number   1
_chemical_formula_structural   Sr2Mn(HO)6
_chemical_formula_sum   'Sr4 Mn2 H12 O12'
_cell_volume   304.24332335
_cell_formula_units_Z   2
loop_
 _symmetry_equiv_pos_site_id
 _symmetry_equiv_pos_as_xyz
  1  'x, y, z'
loop_
 _atom_site_type_symbol
 _atom_site_label
 _atom_site_symmetry_multiplicity
 _atom_site_fract_x
 _atom_site_fract_y
 _atom_site_fract_z
 _atom_site_occupancy
  Sr  Sr0  1  0.71889674  0.07117281  0.25462938  1.0
  Sr  Sr1  1  0.71889674  0.42882719  0.75462938  1.0
  Sr  Sr2  1  0.28110326  0.57117281  0.24537062  1.0
  Sr  Sr3  1  0.28110326  0.92882719  0.74537062  1.0
  Mn  Mn4  1  0.00000000  0.50000000  0.50000000  1.0
  Mn  Mn5  1  0.00000000  0.00000000  0.00000000  1.0
  H  H6  1  0.70872837  0.31401116  0.03001389  1.0
  H  H7  1  0.70872837  0.18598884  0.53001389  1.0
  H  H8  1  0.29127163  0.81401116  0.46998611  1.0
  H  H9  1  0.29127163  0.68598884  0.96998611  1.0
  H  H10  1  0.30846011  0.20720957  0.49193458  1.0
  H  H11  1  0.30846011  0.29279043  0.99193458  1.0
  H  H12  1  0.69153989  0.70720957  0.00806542  1.0
  H  H13  1  0.69153989  0.79279043  0.50806542  1.0
  H  H14  1  0.28815716  0.06409679  0.31331128  1.0
  H  H15  1  0.28815716  0.43590321  0.81331128  1.0
  H  H16  1  0.71184284  0.56409679  0.18668872  1.0
  H  H17  1  0.71184284  0.93590321  0.68668872  1.0
  O  O18  1  0.86213389  0.45957628  0.24653946  1.0
  O  O19  1  0.86213389  0.04042372  0.74653946  1.0
  O  O20  1  0.13786611  0.95957628  0.25346054  1.0
  O  O21  1  0.13786611  0.54042372  0.75346054  1.0
  O  O22  1  0.77137512  0.78218843  0.44542151  1.0
  O  O23  1  0.77137512  0.71781157  0.94542151  1.0
  O  O24  1  0.22862488  0.28218843  0.05457849  1.0
  O  O25  1  0.22862488  0.21781157  0.55457849  1.0
  O  O26  1  0.61026286  0.28582180  0.43911925  1.0
  O  O27  1  0.61026286  0.21417820  0.93911925  1.0
  O  O28  1  0.38973714  0.78582180  0.06088075  1.0
  O  O29  1  0.38973714  0.71417820  0.56088075  1.0
