# generated using pymatgen
data_Hf6Zn16Cu7
_symmetry_space_group_name_H-M   'P 1'
_cell_length_a   8.52479307
_cell_length_b   8.52479307
_cell_length_c   8.52479307
_cell_angle_alpha   60.00000000
_cell_angle_beta   60.00000000
_cell_angle_gamma   60.00000000
_symmetry_Int_Tables_number   1
_chemical_formula_structural   Hf6Zn16Cu7
_chemical_formula_sum   'Hf6 Zn16 Cu7'
_cell_volume   438.06296668
_cell_formula_units_Z   1
loop_
 _symmetry_equiv_pos_site_id
 _symmetry_equiv_pos_as_xyz
  1  'x, y, z'
loop_
 _atom_site_type_symbol
 _atom_site_label
 _atom_site_symmetry_multiplicity
 _atom_site_fract_x
 _atom_site_fract_y
 _atom_site_fract_z
 _atom_site_occupancy
  Hf  Hf0  1  -0.69199857  0.69199857  0.69199857  1.0
  Hf  Hf1  1  -0.30800143  0.30800143  0.69199857  1.0
  Hf  Hf2  1  0.69199857  0.69199857  -0.69199857  1.0
  Hf  Hf3  1  0.30800143  1.30800143  -0.30800143  1.0
  Hf  Hf4  1  0.30800143  -0.30800143  1.30800143  1.0
  Hf  Hf5  1  -0.30800143  0.30800143  0.30800143  1.0
  Zn  Zn6  1  0.88033650  0.88033650  -0.11966350  1.0
  Zn  Zn7  1  1.11966350  0.11966350  0.64100949  1.0
  Zn  Zn8  1  1.11966350  0.64100949  0.11966350  1.0
  Zn  Zn9  1  0.35899051  0.88033650  -0.11966350  1.0
  Zn  Zn10  1  1.64100949  0.11966350  0.11966350  1.0
  Zn  Zn11  1  0.88033650  0.35899051  -0.11966350  1.0
  Zn  Zn12  1  0.88033650  0.88033650  -0.64100949  1.0
  Zn  Zn13  1  1.11966350  0.11966350  0.11966350  1.0
  Zn  Zn14  1  0.66628337  0.66628337  -0.33371663  1.0
  Zn  Zn15  1  1.33371663  0.33371663  -0.00114988  1.0
  Zn  Zn16  1  1.33371663  -0.00114988  0.33371663  1.0
  Zn  Zn17  1  1.00114988  0.66628337  -0.33371663  1.0
  Zn  Zn18  1  0.99885012  0.33371663  0.33371663  1.0
  Zn  Zn19  1  0.66628337  1.00114988  -0.33371663  1.0
  Zn  Zn20  1  0.66628337  0.66628337  0.00114988  1.0
  Zn  Zn21  1  1.33371663  0.33371663  0.33371663  1.0
  Cu  Cu22  1  1.50000000  -0.00000000  0.00000000  1.0
  Cu  Cu23  1  1.00000000  0.50000000  -0.50000000  1.0
  Cu  Cu24  1  -0.00000000  1.50000000  0.00000000  1.0
  Cu  Cu25  1  0.50000000  1.00000000  -0.50000000  1.0
  Cu  Cu26  1  0.00000000  0.00000000  0.50000000  1.0
  Cu  Cu27  1  0.50000000  -0.50000000  1.00000000  1.0
  Cu  Cu28  1  0.00000000  0.00000000  0.00000000  1.0
