# generated using pymatgen
data_FeP3(H2O3)3
_symmetry_space_group_name_H-M   'P 1'
_cell_length_a   7.64259290
_cell_length_b   7.64259290
_cell_length_c   9.97353119
_cell_angle_alpha   76.72815549
_cell_angle_beta   103.27184451
_cell_angle_gamma   129.65593733
_symmetry_Int_Tables_number   1
_chemical_formula_structural   FeP3(H2O3)3
_chemical_formula_sum   'Fe2 P6 H12 O18'
_cell_volume   433.82801876
_cell_formula_units_Z   2
loop_
 _symmetry_equiv_pos_site_id
 _symmetry_equiv_pos_as_xyz
  1  'x, y, z'
loop_
 _atom_site_type_symbol
 _atom_site_label
 _atom_site_symmetry_multiplicity
 _atom_site_fract_x
 _atom_site_fract_y
 _atom_site_fract_z
 _atom_site_occupancy
  P  P0  1  0.90436460  0.89920876  0.50818111  1.0
  P  P1  1  0.10079124  0.09563540  0.00818111  1.0
  P  P2  1  0.56492739  0.25198583  0.75111677  1.0
  P  P3  1  0.74801417  0.43507261  0.25111677  1.0
  P  P4  1  1.28551714  0.66127643  0.62406523  1.0
  P  P5  1  0.33872357  -0.28551714  0.12406523  1.0
  O  O6  1  0.97109890  0.85947985  0.95926474  1.0
  O  O7  1  0.14052015  0.02890110  0.45926474  1.0
  O  O8  1  0.95948020  0.18652859  0.93935607  1.0
  O  O9  1  0.81347141  0.04051980  0.43935607  1.0
  O  O10  1  1.29541197  0.51662123  0.24317336  1.0
  O  O11  1  0.48337877  -0.29541197  0.74317336  1.0
  O  O12  1  0.48095496  0.34787946  0.61611731  1.0
  O  O13  1  0.65212054  0.51904504  0.11611731  1.0
  O  O14  1  0.74022254  0.44900658  0.83991516  1.0
  O  O15  1  0.55099343  0.25977746  0.33991516  1.0
  O  O16  1  1.11161886  0.64432038  0.68869740  1.0
  O  O17  1  0.35567962  -0.11161886  0.18869740  1.0
  O  O18  1  0.36275662  0.04393047  0.82850334  1.0
  O  O19  1  0.95606953  0.63724338  0.32850334  1.0
  O  O20  1  0.90568702  0.86623581  0.66696269  1.0
  O  O21  1  0.13376419  0.09431298  0.16696269  1.0
  O  O22  1  1.15472008  0.60918454  -0.00094789  1.0
  O  O23  1  0.39081546  -0.15472008  0.49905211  1.0
  Fe  Fe24  1  1.05033943  0.75021901  0.82540175  1.0
  Fe  Fe25  1  0.24978099  -0.05033943  0.32540175  1.0
  H  H26  1  0.67154959  0.18100038  0.70783794  1.0
  H  H27  1  0.81899962  0.32845041  0.20783794  1.0
  H  H28  1  1.02856775  0.34162497  0.96291413  1.0
  H  H29  1  0.65837503  -0.02856775  0.46291413  1.0
  H  H30  1  1.17365616  0.44627523  0.58100191  1.0
  H  H31  1  0.55372477  -0.17365616  0.08100191  1.0
  H  H32  1  1.24728797  0.37305379  0.21574151  1.0
  H  H33  1  0.62694621  -0.24728797  0.71574151  1.0
  H  H34  1  0.31465351  0.24813691  0.95726608  1.0
  H  H35  1  0.75186309  0.68534649  0.45726608  1.0
  H  H36  1  0.35661495  0.22966141  0.55173138  1.0
  H  H37  1  0.77033859  0.64338505  0.05173138  1.0
