# generated using pymatgen
data_KNaSO4
_symmetry_space_group_name_H-M   'P 1'
_cell_length_a   5.68929405
_cell_length_b   5.68929405
_cell_length_c   7.32271124
_cell_angle_alpha   90.00000000
_cell_angle_beta   90.00000000
_cell_angle_gamma   120.00000000
_symmetry_Int_Tables_number   1
_chemical_formula_structural   KNaSO4
_chemical_formula_sum   'K2 Na2 S2 O8'
_cell_volume   205.26707849
_cell_formula_units_Z   2
loop_
 _symmetry_equiv_pos_site_id
 _symmetry_equiv_pos_as_xyz
  1  'x, y, z'
loop_
 _atom_site_type_symbol
 _atom_site_label
 _atom_site_symmetry_multiplicity
 _atom_site_fract_x
 _atom_site_fract_y
 _atom_site_fract_z
 _atom_site_occupancy
  K  K0  1  0.00000000  0.00000000  0.64086529  1.0
  K  K1  1  0.66666667  0.33333333  0.31404278  1.0
  Na  Na2  1  0.66666667  0.33333333  0.81259739  1.0
  Na  Na3  1  0.33333333  0.66666667  0.02242357  1.0
  S  S4  1  0.00000000  0.00000000  0.08385006  1.0
  S  S5  1  0.33333333  0.66666667  0.54059531  1.0
  O  O6  1  0.04720498  0.52360249  0.61175234  1.0
  O  O7  1  0.47639751  0.52360249  0.61175234  1.0
  O  O8  1  0.47639751  0.95279502  0.61175234  1.0
  O  O9  1  0.28642541  0.14321271  0.01143937  1.0
  O  O10  1  0.85678729  0.14321271  0.01143937  1.0
  O  O11  1  0.85678729  0.71357459  0.01143937  1.0
  O  O12  1  0.00000000  0.00000000  0.28524852  1.0
  O  O13  1  0.33333333  0.66666667  0.33780192  1.0
