# generated using pymatgen
data_AgAuO2
_symmetry_space_group_name_H-M   'P 1'
_cell_length_a   5.61135876
_cell_length_b   4.05523852
_cell_length_c   5.50162720
_cell_angle_alpha   90.00000000
_cell_angle_beta   104.04537649
_cell_angle_gamma   90.00000000
_symmetry_Int_Tables_number   1
_chemical_formula_structural   AgAuO2
_chemical_formula_sum   'Ag2 Au2 O4'
_cell_volume   121.44896435
_cell_formula_units_Z   2
loop_
 _symmetry_equiv_pos_site_id
 _symmetry_equiv_pos_as_xyz
  1  'x, y, z'
loop_
 _atom_site_type_symbol
 _atom_site_label
 _atom_site_symmetry_multiplicity
 _atom_site_fract_x
 _atom_site_fract_y
 _atom_site_fract_z
 _atom_site_occupancy
  Ag  Ag0  1  0.50000000  0.50000000  0.50000000  1.0
  Ag  Ag1  1  0.50000000  0.00000000  0.00000000  1.0
  Au  Au2  1  0.00000000  0.50000000  0.00000000  1.0
  Au  Au3  1  -0.00000000  0.00000000  0.50000000  1.0
  O  O4  1  0.19687793  0.71426484  0.77900000  1.0
  O  O5  1  0.19687793  0.78573516  0.27900000  1.0
  O  O6  1  0.80312207  0.28573516  0.22100000  1.0
  O  O7  1  0.80312207  0.21426484  0.72100000  1.0
