# generated using pymatgen
data_Lu3(CuGe)4
_symmetry_space_group_name_H-M   'P 1'
_cell_length_a   7.89410106
_cell_length_b   7.89410106
_cell_length_c   7.89410106
_cell_angle_alpha   149.62972581
_cell_angle_beta   130.39792703
_cell_angle_gamma   59.27830670
_symmetry_Int_Tables_number   1
_chemical_formula_structural   Lu3(CuGe)4
_chemical_formula_sum   'Lu3 Cu4 Ge4'
_cell_volume   187.91680452
_cell_formula_units_Z   1
loop_
 _symmetry_equiv_pos_site_id
 _symmetry_equiv_pos_as_xyz
  1  'x, y, z'
loop_
 _atom_site_type_symbol
 _atom_site_label
 _atom_site_symmetry_multiplicity
 _atom_site_fract_x
 _atom_site_fract_y
 _atom_site_fract_z
 _atom_site_occupancy
  Lu  Lu0  1  0.62834120  0.12834120  0.50000000  1.0
  Lu  Lu1  1  0.37165880  0.87165880  0.50000000  1.0
  Lu  Lu2  1  0.00000000  0.00000000  0.00000000  1.0
  Cu  Cu3  1  0.36185625  0.67034883  0.69150742  1.0
  Cu  Cu4  1  1.02115859  0.32965117  0.69150742  1.0
  Cu  Cu5  1  0.97884141  0.67034883  1.30849258  1.0
  Cu  Cu6  1  0.63814375  0.32965117  0.30849258  1.0
  Ge  Ge7  1  0.78294271  0.78294271  1.00000000  1.0
  Ge  Ge8  1  0.21705729  0.21705729  -0.00000000  1.0
  Ge  Ge9  1  0.30629237  0.50000000  0.80629237  1.0
  Ge  Ge10  1  0.69370763  0.50000000  1.19370763  1.0
