# generated using pymatgen
data_CaNb2O6
_symmetry_space_group_name_H-M   'P 1'
_cell_length_a   15.09215939
_cell_length_b   5.91681155
_cell_length_c   5.24196166
_cell_angle_alpha   90.00000000
_cell_angle_beta   90.00000000
_cell_angle_gamma   90.00000000
_symmetry_Int_Tables_number   1
_chemical_formula_structural   CaNb2O6
_chemical_formula_sum   'Ca4 Nb8 O24'
_cell_volume   468.09387775
_cell_formula_units_Z   4
loop_
 _symmetry_equiv_pos_site_id
 _symmetry_equiv_pos_as_xyz
  1  'x, y, z'
loop_
 _atom_site_type_symbol
 _atom_site_label
 _atom_site_symmetry_multiplicity
 _atom_site_fract_x
 _atom_site_fract_y
 _atom_site_fract_z
 _atom_site_occupancy
  Ca  Ca0  1  0.00000000  0.71347601  0.75000000  1.0
  Ca  Ca1  1  0.00000000  0.28652399  0.25000000  1.0
  Ca  Ca2  1  0.50000000  0.21347601  0.75000000  1.0
  Ca  Ca3  1  0.50000000  0.78652399  0.25000000  1.0
  Nb  Nb4  1  0.66543685  0.68396966  0.71067993  1.0
  Nb  Nb5  1  0.66543685  0.31603034  0.21067993  1.0
  Nb  Nb6  1  0.16543685  0.18396966  0.78932007  1.0
  Nb  Nb7  1  0.16543685  0.81603034  0.28932007  1.0
  Nb  Nb8  1  0.33456315  0.68396966  0.78932007  1.0
  Nb  Nb9  1  0.33456315  0.31603034  0.28932007  1.0
  Nb  Nb10  1  0.83456315  0.18396966  0.71067993  1.0
  Nb  Nb11  1  0.83456315  0.81603034  0.21067993  1.0
  O  O12  1  0.75608258  0.85750713  0.88722059  1.0
  O  O13  1  0.75608258  0.14249287  0.38722059  1.0
  O  O14  1  0.25608258  0.35750713  0.61277941  1.0
  O  O15  1  0.25608258  0.64249287  0.11277941  1.0
  O  O16  1  0.24391742  0.85750713  0.61277941  1.0
  O  O17  1  0.24391742  0.14249287  0.11277941  1.0
  O  O18  1  0.74391742  0.35750713  0.88722059  1.0
  O  O19  1  0.74391742  0.64249287  0.38722059  1.0
  O  O20  1  0.58749360  0.89275440  0.60233726  1.0
  O  O21  1  0.58749360  0.10724560  0.10233726  1.0
  O  O22  1  0.08749360  0.39275440  0.89766274  1.0
  O  O23  1  0.08749360  0.60724560  0.39766274  1.0
  O  O24  1  0.41250640  0.89275440  0.89766274  1.0
  O  O25  1  0.41250640  0.10724560  0.39766274  1.0
  O  O26  1  0.91250640  0.39275440  0.60233726  1.0
  O  O27  1  0.91250640  0.60724560  0.10233726  1.0
  O  O28  1  0.89793278  0.92525249  0.50775997  1.0
  O  O29  1  0.89793278  0.07474751  0.00775997  1.0
  O  O30  1  0.39793278  0.42525249  0.99224003  1.0
  O  O31  1  0.39793278  0.57474751  0.49224003  1.0
  O  O32  1  0.10206722  0.92525249  0.99224003  1.0
  O  O33  1  0.10206722  0.07474751  0.49224003  1.0
  O  O34  1  0.60206722  0.42525249  0.50775997  1.0
  O  O35  1  0.60206722  0.57474751  0.00775997  1.0
