# generated using pymatgen
data_CoSb(CO)3
_symmetry_space_group_name_H-M   'P 1'
_cell_length_a   12.09370877
_cell_length_b   12.09370877
_cell_length_c   12.09370877
_cell_angle_alpha   102.19382778
_cell_angle_beta   102.19382778
_cell_angle_gamma   125.27917822
_symmetry_Int_Tables_number   1
_chemical_formula_structural   CoSb(CO)3
_chemical_formula_sum   'Co8 Sb8 C24 O24'
_cell_volume   1282.42414379
_cell_formula_units_Z   8
loop_
 _symmetry_equiv_pos_site_id
 _symmetry_equiv_pos_as_xyz
  1  'x, y, z'
loop_
 _atom_site_type_symbol
 _atom_site_label
 _atom_site_symmetry_multiplicity
 _atom_site_fract_x
 _atom_site_fract_y
 _atom_site_fract_z
 _atom_site_occupancy
  Co  Co0  1  1.00193372  0.86354429  1.13838943  1.0
  Co  Co1  1  0.72515486  0.86354429  0.86161057  1.0
  Co  Co2  1  0.61354429  1.25193372  0.63838943  1.0
  Co  Co3  1  0.61354429  0.97515486  0.36161057  1.0
  Co  Co4  1  1.74806628  1.38645571  1.36161057  1.0
  Co  Co5  1  1.02484514  1.38645571  0.63838943  1.0
  Co  Co6  1  1.13645571  0.99806628  0.86161057  1.0
  Co  Co7  1  1.13645571  1.27484514  1.13838943  1.0
  Sb  Sb8  1  0.89802567  1.00446659  1.10644091  1.0
  Sb  Sb9  1  0.75446659  1.14802567  0.60644091  1.0
  Sb  Sb10  1  1.54158476  1.14802567  1.39355909  1.0
  Sb  Sb11  1  0.89802567  0.79158476  0.89355909  1.0
  Sb  Sb12  1  0.85197433  1.24553341  0.39355909  1.0
  Sb  Sb13  1  0.99553341  1.10197433  0.89355909  1.0
  Sb  Sb14  1  1.20841524  1.10197433  1.10644091  1.0
  Sb  Sb15  1  0.85197433  1.45841524  0.60644091  1.0
  C  C16  1  0.82599101  0.70492510  1.12106591  1.0
  C  C17  1  0.58385919  0.70492510  0.87893409  1.0
  C  C18  1  0.45492510  1.07599101  0.62106591  1.0
  C  C19  1  0.45492510  0.83385919  0.37893409  1.0
  C  C20  1  0.92400899  0.54507490  1.37893409  1.0
  C  C21  1  0.16614081  0.54507490  0.62106591  1.0
  C  C22  1  1.29507490  1.17400899  0.87893409  1.0
  C  C23  1  1.29507490  1.41614081  1.12106591  1.0
  C  C24  1  1.09506475  0.97242350  1.30167959  1.0
  C  C25  1  1.67074390  0.97242350  0.87735875  1.0
  C  C26  1  0.72242350  0.34506475  0.80167959  1.0
  C  C27  1  1.54338515  1.34506475  1.62264125  1.0
  C  C28  1  1.09506475  0.79338515  1.12264125  1.0
  C  C29  1  1.67074390  1.79338515  1.69832041  1.0
  C  C30  1  0.72242350  0.92074390  1.37735875  1.0
  C  C31  1  1.54338515  0.92074390  1.19832041  1.0
  C  C32  1  1.65493525  1.27757650  1.19832041  1.0
  C  C33  1  1.07925610  1.27757650  1.62264125  1.0
  C  C34  1  1.02757650  0.90493525  1.69832041  1.0
  C  C35  1  1.20661485  0.90493525  0.87735875  1.0
  C  C36  1  1.65493525  1.45661485  1.37735875  1.0
  C  C37  1  1.07925610  0.45661485  0.80167959  1.0
  C  C38  1  1.02757650  0.32925610  1.12264125  1.0
  C  C39  1  1.20661485  1.32925610  1.30167959  1.0
  O  O40  1  0.71863888  0.60108871  1.11755017  1.0
  O  O41  1  0.48353854  0.60108871  0.88244983  1.0
  O  O42  1  0.35108871  0.96863888  0.61755017  1.0
  O  O43  1  0.35108871  0.73353854  0.38244983  1.0
  O  O44  1  1.03136112  0.64891129  1.38244983  1.0
  O  O45  1  0.26646146  0.64891129  0.61755017  1.0
  O  O46  1  1.39891129  1.28136112  0.88244983  1.0
  O  O47  1  1.39891129  1.51646146  1.11755017  1.0
  O  O48  1  1.15664003  1.03686305  1.40890215  1.0
  O  O49  1  1.62796090  1.03686305  0.88022303  1.0
  O  O50  1  0.78686305  0.40664003  0.90890215  1.0
  O  O51  1  1.49773787  1.40664003  1.61977697  1.0
  O  O52  1  1.15664003  0.74773787  1.11977697  1.0
  O  O53  1  1.62796090  1.74773787  1.59109785  1.0
  O  O54  1  0.78686305  0.87796090  1.38022303  1.0
  O  O55  1  1.49773787  0.87796090  1.09109785  1.0
  O  O56  1  1.59335997  1.21313695  1.09109785  1.0
  O  O57  1  1.12203910  1.21313695  1.61977697  1.0
  O  O58  1  0.96313695  0.84335997  1.59109785  1.0
  O  O59  1  1.25226213  0.84335997  0.88022303  1.0
  O  O60  1  1.59335997  1.50226213  1.38022303  1.0
  O  O61  1  1.12203910  0.50226213  0.90890215  1.0
  O  O62  1  0.96313695  0.37203910  1.11977697  1.0
  O  O63  1  1.25226213  1.37203910  1.40890215  1.0
