# generated using pymatgen
data_AlHO2
_symmetry_space_group_name_H-M   'P 1'
_cell_length_a   9.50812989
_cell_length_b   2.87299640
_cell_length_c   4.43371612
_cell_angle_alpha   90.00000000
_cell_angle_beta   90.00000000
_cell_angle_gamma   90.00000000
_symmetry_Int_Tables_number   1
_chemical_formula_structural   AlHO2
_chemical_formula_sum   'Al4 H4 O8'
_cell_volume   121.11503826
_cell_formula_units_Z   4
loop_
 _symmetry_equiv_pos_site_id
 _symmetry_equiv_pos_as_xyz
  1  'x, y, z'
loop_
 _atom_site_type_symbol
 _atom_site_label
 _atom_site_symmetry_multiplicity
 _atom_site_fract_x
 _atom_site_fract_y
 _atom_site_fract_z
 _atom_site_occupancy
  Al  Al0  1  0.14359579  0.75000000  0.55079935  1.0
  Al  Al1  1  0.64359579  0.75000000  0.94920065  1.0
  Al  Al2  1  0.85640421  0.25000000  0.44920065  1.0
  Al  Al3  1  0.35640421  0.25000000  0.05079935  1.0
  H  H4  1  0.40809429  0.75000000  0.59160424  1.0
  H  H5  1  0.90809429  0.75000000  0.90839576  1.0
  H  H6  1  0.59190571  0.25000000  0.40839576  1.0
  H  H7  1  0.09190571  0.25000000  0.09160424  1.0
  O  O8  1  0.30312398  0.75000000  0.29772964  1.0
  O  O9  1  0.80312398  0.75000000  0.20227036  1.0
  O  O10  1  0.69687602  0.25000000  0.70227036  1.0
  O  O11  1  0.19687602  0.25000000  0.79772964  1.0
  O  O12  1  0.44450860  0.75000000  0.80602169  1.0
  O  O13  1  0.94450860  0.75000000  0.69397831  1.0
  O  O14  1  0.55549140  0.25000000  0.19397831  1.0
  O  O15  1  0.05549140  0.25000000  0.30602169  1.0
