# generated using pymatgen
data_Ba2BiSb2
_symmetry_space_group_name_H-M   'P 1'
_cell_length_a   6.79340947
_cell_length_b   6.79340947
_cell_length_c   6.79340947
_cell_angle_alpha   138.31567073
_cell_angle_beta   111.40191041
_cell_angle_gamma   83.58506741
_symmetry_Int_Tables_number   1
_chemical_formula_structural   Ba2BiSb2
_chemical_formula_sum   'Ba2 Bi1 Sb2'
_cell_volume   187.46086865
_cell_formula_units_Z   1
loop_
 _symmetry_equiv_pos_site_id
 _symmetry_equiv_pos_as_xyz
  1  'x, y, z'
loop_
 _atom_site_type_symbol
 _atom_site_label
 _atom_site_symmetry_multiplicity
 _atom_site_fract_x
 _atom_site_fract_y
 _atom_site_fract_z
 _atom_site_occupancy
  Ba  Ba0  1  0.71904800  0.21904800  0.50000000  1.0
  Ba  Ba1  1  1.28095200  0.78095200  0.50000000  1.0
  Bi  Bi2  1  0.00000000  0.00000000  0.00000000  1.0
  Sb  Sb3  1  0.29691015  0.50000000  0.79691015  1.0
  Sb  Sb4  1  0.70308985  0.50000000  1.20308985  1.0
