# generated using pymatgen
data_NbO2
_symmetry_space_group_name_H-M   'P 1'
_cell_length_a   10.21097516
_cell_length_b   10.21097516
_cell_length_c   10.21097516
_cell_angle_alpha   95.02118363
_cell_angle_beta   95.02118363
_cell_angle_gamma   145.58361425
_symmetry_Int_Tables_number   1
_chemical_formula_structural   NbO2
_chemical_formula_sum   'Nb16 O32'
_cell_volume   574.80004261
_cell_formula_units_Z   16
loop_
 _symmetry_equiv_pos_site_id
 _symmetry_equiv_pos_as_xyz
  1  'x, y, z'
loop_
 _atom_site_type_symbol
 _atom_site_label
 _atom_site_symmetry_multiplicity
 _atom_site_fract_x
 _atom_site_fract_y
 _atom_site_fract_z
 _atom_site_occupancy
  Nb  Nb0  1  0.53782700  0.52944778  1.25844660  1.0
  Nb  Nb1  1  0.72061960  1.46217300  0.99162078  1.0
  Nb  Nb2  1  1.02938040  0.78782700  0.50837922  1.0
  Nb  Nb3  1  1.47899882  0.97061960  0.75844660  1.0
  Nb  Nb4  1  0.27100118  0.27938040  0.74155340  1.0
  Nb  Nb5  1  1.47055222  0.72899882  1.00837922  1.0
  Nb  Nb6  1  1.27944778  1.52100118  1.49162078  1.0
  Nb  Nb7  1  1.21217300  1.72055222  1.24155340  1.0
  Nb  Nb8  1  0.96272537  0.97570593  0.23976636  1.0
  Nb  Nb9  1  1.27704098  1.03727463  1.01298056  1.0
  Nb  Nb10  1  0.47295902  0.21272537  0.48701944  1.0
  Nb  Nb11  1  1.01406043  0.52704098  0.73976636  1.0
  Nb  Nb12  1  1.73593957  1.72295902  1.76023364  1.0
  Nb  Nb13  1  1.02429407  1.26406043  0.98701944  1.0
  Nb  Nb14  1  0.72570593  0.98593957  1.51298056  1.0
  Nb  Nb15  1  0.78727463  1.27429407  1.26023364  1.0
  O  O16  1  0.85453004  1.00699764  1.09998777  1.0
  O  O17  1  0.24545772  0.14546996  0.15246760  1.0
  O  O18  1  0.50454228  1.10453004  1.34753240  1.0
  O  O19  1  0.84299012  0.49545772  0.59998777  1.0
  O  O20  1  0.90700988  0.75454228  0.90001223  1.0
  O  O21  1  0.99300236  1.09299012  1.84753240  1.0
  O  O22  1  0.75699764  0.15700988  0.65246760  1.0
  O  O23  1  0.89546996  1.24300236  1.40001223  1.0
  O  O24  1  0.34709699  0.48431966  1.11038096  1.0
  O  O25  1  0.76328397  0.65290301  0.13722267  1.0
  O  O26  1  0.98671603  1.59709699  1.36277733  1.0
  O  O27  1  1.37606130  1.01328397  0.61038096  1.0
  O  O28  1  0.37393870  0.23671603  0.88961904  1.0
  O  O29  1  1.51568034  1.62606130  1.86277733  1.0
  O  O30  1  1.23431966  0.62393870  0.63722267  1.0
  O  O31  1  1.40290301  1.76568034  1.38961904  1.0
  O  O32  1  0.14550075  0.00773833  0.38879656  1.0
  O  O33  1  1.24329581  0.85449925  0.86223758  1.0
  O  O34  1  0.50670419  0.39550075  0.63776242  1.0
  O  O35  1  1.13105823  0.49329581  0.88879656  1.0
  O  O36  1  0.61894177  0.75670419  1.61120344  1.0
  O  O37  1  0.99226167  1.38105823  1.13776242  1.0
  O  O38  1  0.75773833  0.86894177  1.36223758  1.0
  O  O39  1  0.60449925  1.24226167  1.11120344  1.0
  O  O40  1  0.64563596  0.49769117  0.39755977  1.0
  O  O41  1  0.75192381  0.35436404  0.85205522  1.0
  O  O42  1  0.99807619  0.89563596  0.64794478  1.0
  O  O43  1  1.64986859  1.00192381  0.89755977  1.0
  O  O44  1  1.10013141  1.24807619  1.60244023  1.0
  O  O45  1  0.50230883  0.89986859  1.14794478  1.0
  O  O46  1  1.24769117  1.35013141  1.35205522  1.0
  O  O47  1  1.10436404  1.75230883  1.10244023  1.0
