# generated using pymatgen
data_Sr5Ti7O19
_symmetry_space_group_name_H-M   'P 1'
_cell_length_a   3.81881357
_cell_length_b   5.60237352
_cell_length_c   32.23612199
_cell_angle_alpha   90.00000000
_cell_angle_beta   90.00000000
_cell_angle_gamma   90.00000000
_symmetry_Int_Tables_number   1
_chemical_formula_structural   Sr5Ti7O19
_chemical_formula_sum   'Sr5 Ti7 O19'
_cell_volume   689.67313314
_cell_formula_units_Z   1
loop_
 _symmetry_equiv_pos_site_id
 _symmetry_equiv_pos_as_xyz
  1  'x, y, z'
loop_
 _atom_site_type_symbol
 _atom_site_label
 _atom_site_symmetry_multiplicity
 _atom_site_fract_x
 _atom_site_fract_y
 _atom_site_fract_z
 _atom_site_occupancy
  Sr  Sr0  1  0.00000000  0.00000000  0.17127773  1.0
  Sr  Sr1  1  0.00000000  0.00000000  0.82872227  1.0
  Sr  Sr2  1  0.00000000  0.50000000  0.08775376  1.0
  Sr  Sr3  1  0.00000000  0.50000000  0.91224624  1.0
  Sr  Sr4  1  0.00000000  0.00000000  0.00000000  1.0
  Ti  Ti5  1  0.50000000  0.00000000  0.25376722  1.0
  Ti  Ti6  1  0.50000000  0.00000000  0.74623278  1.0
  Ti  Ti7  1  0.50000000  0.50000000  0.17501580  1.0
  Ti  Ti8  1  0.50000000  0.50000000  0.82498420  1.0
  Ti  Ti9  1  0.50000000  0.00000000  0.08675733  1.0
  Ti  Ti10  1  0.50000000  0.00000000  0.91324267  1.0
  Ti  Ti11  1  0.50000000  0.50000000  0.00000000  1.0
  O  O12  1  0.00000000  0.00000000  0.26931793  1.0
  O  O13  1  0.00000000  0.00000000  0.73068207  1.0
  O  O14  1  0.50000000  0.23647314  0.21629380  1.0
  O  O15  1  0.50000000  0.76352686  0.21629380  1.0
  O  O16  1  0.50000000  0.76352686  0.78370620  1.0
  O  O17  1  0.50000000  0.23647314  0.78370620  1.0
  O  O18  1  0.00000000  0.50000000  0.17134770  1.0
  O  O19  1  0.00000000  0.50000000  0.82865230  1.0
  O  O20  1  0.50000000  0.75080891  0.13056715  1.0
  O  O21  1  0.50000000  0.24919109  0.13056715  1.0
  O  O22  1  0.50000000  0.24919109  0.86943285  1.0
  O  O23  1  0.50000000  0.75080891  0.86943285  1.0
  O  O24  1  0.00000000  0.00000000  0.08679854  1.0
  O  O25  1  0.00000000  0.00000000  0.91320146  1.0
  O  O26  1  0.50000000  0.75018999  0.04346272  1.0
  O  O27  1  0.50000000  0.24981001  0.04346272  1.0
  O  O28  1  0.50000000  0.24981001  0.95653728  1.0
  O  O29  1  0.50000000  0.75018999  0.95653728  1.0
  O  O30  1  0.00000000  0.50000000  0.00000000  1.0
