# generated using pymatgen
data_GaC6N4O3
_symmetry_space_group_name_H-M   'P 1'
_cell_length_a   10.29734343
_cell_length_b   10.29734343
_cell_length_c   10.29734343
_cell_angle_alpha   143.99363567
_cell_angle_beta   85.11937826
_cell_angle_gamma   106.02926123
_symmetry_Int_Tables_number   1
_chemical_formula_structural   GaC6N4O3
_chemical_formula_sum   'Ga2 C12 N8 O6'
_cell_volume   598.16894648
_cell_formula_units_Z   2
loop_
 _symmetry_equiv_pos_site_id
 _symmetry_equiv_pos_as_xyz
  1  'x, y, z'
loop_
 _atom_site_type_symbol
 _atom_site_label
 _atom_site_symmetry_multiplicity
 _atom_site_fract_x
 _atom_site_fract_y
 _atom_site_fract_z
 _atom_site_occupancy
  O  O0  1  0.48429827  0.23429827  0.25000000  1.0
  O  O1  1  0.51570173  0.76570173  0.75000000  1.0
  O  O2  1  0.38572163  0.13572163  0.25000000  1.0
  O  O3  1  0.61427837  0.86427837  0.75000000  1.0
  O  O4  1  1.07391996  1.32391996  0.75000000  1.0
  O  O5  1  0.92608004  0.67608004  0.25000000  1.0
  Ga  Ga6  1  1.00000000  1.00000000  0.50000000  1.0
  Ga  Ga7  1  1.00000000  1.50000000  1.00000000  1.0
  C  C8  1  1.33461361  1.09142698  0.58751965  1.0
  C  C9  1  1.00390732  1.74709396  0.91248035  1.0
  C  C10  1  0.66538639  1.25290604  0.75681337  1.0
  C  C11  1  0.99609268  0.90857302  0.74318663  1.0
  C  C12  1  0.66538639  0.90857302  0.41248035  1.0
  C  C13  1  0.99609268  1.25290604  1.08751965  1.0
  C  C14  1  1.33461361  1.74709396  1.24318663  1.0
  C  C15  1  1.00390732  1.09142698  0.25681337  1.0
  C  C16  1  1.42901082  0.96523686  1.46377396  1.0
  C  C17  1  1.00146290  0.96523686  1.03622604  1.0
  C  C18  1  0.57098918  0.03476314  0.53622604  1.0
  C  C19  1  0.99853710  0.03476314  0.96377396  1.0
  N  N20  1  1.20948300  0.97367106  1.46569936  1.0
  N  N21  1  1.00797170  0.74378364  1.03430064  1.0
  N  N22  1  0.79051700  0.25621636  0.76418806  1.0
  N  N23  1  0.99202830  1.02632894  1.73581194  1.0
  N  N24  1  0.79051700  1.02632894  1.53430064  1.0
  N  N25  1  0.99202830  0.25621636  0.96569936  1.0
  N  N26  1  1.20948300  0.74378364  1.23581194  1.0
  N  N27  1  1.00797170  0.97367106  1.26418806  1.0
