# generated using pymatgen
data_CrB
_symmetry_space_group_name_H-M   'P 1'
_cell_length_a   8.10216243
_cell_length_b   8.10216243
_cell_length_c   8.10216243
_cell_angle_alpha   159.25638635
_cell_angle_beta   159.25638635
_cell_angle_gamma   29.50073391
_symmetry_Int_Tables_number   1
_chemical_formula_structural   CrB
_chemical_formula_sum   'Cr4 B4'
_cell_volume   66.68432820
_cell_formula_units_Z   4
loop_
 _symmetry_equiv_pos_site_id
 _symmetry_equiv_pos_as_xyz
  1  'x, y, z'
loop_
 _atom_site_type_symbol
 _atom_site_label
 _atom_site_symmetry_multiplicity
 _atom_site_fract_x
 _atom_site_fract_y
 _atom_site_fract_z
 _atom_site_occupancy
  Cr  Cr0  1  1.19751294  1.19751294  1.00000000  1.0
  Cr  Cr1  1  0.94751294  1.44751294  0.50000000  1.0
  Cr  Cr2  1  0.55248706  0.05248706  0.50000000  1.0
  Cr  Cr3  1  0.80248706  0.80248706  0.00000000  1.0
  B  B4  1  1.34263148  1.34263148  1.00000000  1.0
  B  B5  1  0.09263148  0.59263148  0.50000000  1.0
  B  B6  1  1.40736852  0.90736852  0.50000000  1.0
  B  B7  1  0.65736852  0.65736852  0.00000000  1.0
