# generated using pymatgen
data_CsCdInSe3
_symmetry_space_group_name_H-M   'P 1'
_cell_length_a   8.49054779
_cell_length_b   8.49054779
_cell_length_c   23.37323724
_cell_angle_alpha   84.78783978
_cell_angle_beta   95.21216022
_cell_angle_gamma   90.00059938
_symmetry_Int_Tables_number   1
_chemical_formula_structural   CsCdInSe3
_chemical_formula_sum   'Cs8 Cd8 In8 Se24'
_cell_volume   1670.99962117
_cell_formula_units_Z   8
loop_
 _symmetry_equiv_pos_site_id
 _symmetry_equiv_pos_as_xyz
  1  'x, y, z'
loop_
 _atom_site_type_symbol
 _atom_site_label
 _atom_site_symmetry_multiplicity
 _atom_site_fract_x
 _atom_site_fract_y
 _atom_site_fract_z
 _atom_site_occupancy
  Cs  Cs0  1  0.23085946  -0.10467525  0.42314489  1.0
  Cs  Cs1  1  1.10467525  0.76914054  0.92314489  1.0
  Cs  Cs2  1  0.89532475  -0.76914054  0.07685511  1.0
  Cs  Cs3  1  1.76914054  0.10467525  0.57685511  1.0
  Cs  Cs4  1  1.39310931  0.23075676  0.07675463  1.0
  Cs  Cs5  1  0.76924324  -0.39310931  0.57675463  1.0
  Cs  Cs6  1  1.23075676  0.39310931  0.42324537  1.0
  Cs  Cs7  1  0.60689069  -0.23075676  0.92324537  1.0
  Cd  Cd8  1  0.44040356  -0.06522097  0.25003170  1.0
  Cd  Cd9  1  1.06522097  0.55959644  0.75003170  1.0
  Cd  Cd10  1  0.93477903  -0.55959644  0.24996830  1.0
  Cd  Cd11  1  1.55959644  0.06522097  0.74996830  1.0
  Cd  Cd12  1  0.93471422  -0.06528578  0.25000000  1.0
  Cd  Cd13  1  1.06528578  0.06528578  0.75000000  1.0
  Cd  Cd14  1  1.44032711  0.44032711  0.25000000  1.0
  Cd  Cd15  1  0.55967289  -0.44032711  0.75000000  1.0
  In  In16  1  0.65531763  -0.28034075  0.12161247  1.0
  In  In17  1  1.28034075  0.34468237  0.62161247  1.0
  In  In18  1  0.71965925  -0.34468237  0.37838753  1.0
  In  In19  1  1.34468237  0.28034075  0.87838753  1.0
  In  In20  1  1.71946905  0.15578560  0.37744470  1.0
  In  In21  1  0.84421440  -0.71946905  0.87744470  1.0
  In  In22  1  1.15578560  0.71946905  0.12255530  1.0
  In  In23  1  0.28053095  -0.15578560  0.62255530  1.0
  Se  Se24  1  0.73668649  -0.11102566  0.44632282  1.0
  Se  Se25  1  1.11102566  0.26331351  0.94632282  1.0
  Se  Se26  1  0.88897434  -0.26331351  0.05367718  1.0
  Se  Se27  1  1.26331351  0.11102566  0.55367718  1.0
  Se  Se28  1  0.43902353  -0.33024717  0.32101073  1.0
  Se  Se29  1  1.33024717  0.56097647  0.82101073  1.0
  Se  Se30  1  0.66975283  -0.56097647  0.17898927  1.0
  Se  Se31  1  1.56097647  0.33024717  0.67898927  1.0
  Se  Se32  1  0.66976158  -0.02842652  0.17900679  1.0
  Se  Se33  1  1.02842652  0.33023842  0.67900679  1.0
  Se  Se34  1  0.97157348  -0.33023842  0.32099321  1.0
  Se  Se35  1  1.33023842  0.02842652  0.82099321  1.0
  Se  Se36  1  1.61211885  0.26321264  0.94644527  1.0
  Se  Se37  1  0.73678736  -0.61211885  0.44644527  1.0
  Se  Se38  1  1.26321264  0.61211885  0.55355473  1.0
  Se  Se39  1  0.38788115  -0.26321264  0.05355473  1.0
  Se  Se40  1  1.43945845  0.17009612  0.31996388  1.0
  Se  Se41  1  0.82990388  -0.43945845  0.81996388  1.0
  Se  Se42  1  1.17009612  0.43945845  0.18003612  1.0
  Se  Se43  1  0.56054155  -0.17009612  0.68003612  1.0
  Se  Se44  1  0.17010585  -0.02933825  0.18007409  1.0
  Se  Se45  1  1.02933825  0.82989415  0.68007409  1.0
  Se  Se46  1  0.97066175  -0.82989415  0.31992591  1.0
  Se  Se47  1  1.82989415  0.02933825  0.81992591  1.0
