# generated using pymatgen
data_Ni2SnP
_symmetry_space_group_name_H-M   'P 1'
_cell_length_a   13.12044360
_cell_length_b   3.58319151
_cell_length_c   5.09282682
_cell_angle_alpha   90.00000000
_cell_angle_beta   90.00000000
_cell_angle_gamma   90.00000000
_symmetry_Int_Tables_number   1
_chemical_formula_structural   Ni2SnP
_chemical_formula_sum   'Ni8 Sn4 P4'
_cell_volume   239.42938374
_cell_formula_units_Z   4
loop_
 _symmetry_equiv_pos_site_id
 _symmetry_equiv_pos_as_xyz
  1  'x, y, z'
loop_
 _atom_site_type_symbol
 _atom_site_label
 _atom_site_symmetry_multiplicity
 _atom_site_fract_x
 _atom_site_fract_y
 _atom_site_fract_z
 _atom_site_occupancy
  Ni  Ni0  1  0.42327465  0.75000000  0.51525959  1.0
  Ni  Ni1  1  0.92327465  0.75000000  0.98474041  1.0
  Ni  Ni2  1  0.57672535  0.25000000  0.48474041  1.0
  Ni  Ni3  1  0.07672535  0.25000000  0.01525959  1.0
  Ni  Ni4  1  0.38654108  0.75000000  0.00146135  1.0
  Ni  Ni5  1  0.88654108  0.75000000  0.49853865  1.0
  Ni  Ni6  1  0.61345892  0.25000000  0.99853865  1.0
  Ni  Ni7  1  0.11345892  0.25000000  0.50146135  1.0
  Sn  Sn8  1  0.20479774  0.75000000  0.79766170  1.0
  Sn  Sn9  1  0.70479774  0.75000000  0.70233830  1.0
  Sn  Sn10  1  0.79520226  0.25000000  0.20233830  1.0
  Sn  Sn11  1  0.29520226  0.25000000  0.29766170  1.0
  P  P12  1  0.04275175  0.75000000  0.28937523  1.0
  P  P13  1  0.54275175  0.75000000  0.21062477  1.0
  P  P14  1  0.95724825  0.25000000  0.71062477  1.0
  P  P15  1  0.45724825  0.25000000  0.78937523  1.0
