# generated using pymatgen
data_Sr4Sb2O
_symmetry_space_group_name_H-M   'P 1'
_cell_length_a   10.32565619
_cell_length_b   10.32565619
_cell_length_c   10.32565619
_cell_angle_alpha   152.51361629
_cell_angle_beta   152.51361629
_cell_angle_gamma   39.26372273
_symmetry_Int_Tables_number   1
_chemical_formula_structural   Sr4Sb2O
_chemical_formula_sum   'Sr4 Sb2 O1'
_cell_volume   234.09342115
_cell_formula_units_Z   1
loop_
 _symmetry_equiv_pos_site_id
 _symmetry_equiv_pos_as_xyz
  1  'x, y, z'
loop_
 _atom_site_type_symbol
 _atom_site_label
 _atom_site_symmetry_multiplicity
 _atom_site_fract_x
 _atom_site_fract_y
 _atom_site_fract_z
 _atom_site_occupancy
  Sr  Sr0  1  0.67907536  0.67907536  1.00000000  1.0
  Sr  Sr1  1  0.32092464  0.32092464  0.00000000  1.0
  Sr  Sr2  1  0.50000000  0.00000000  0.50000000  1.0
  Sr  Sr3  1  -0.00000000  0.50000000  0.50000000  1.0
  Sb  Sb4  1  0.85656022  0.85656022  1.00000000  1.0
  Sb  Sb5  1  0.14343978  0.14343978  0.00000000  1.0
  O  O6  1  0.00000000  0.00000000  0.00000000  1.0
