# generated using pymatgen
data_Li6B5
_symmetry_space_group_name_H-M   'P 1'
_cell_length_a   3.97931995
_cell_length_b   3.97931995
_cell_length_c   7.93812853
_cell_angle_alpha   90.00000000
_cell_angle_beta   90.00000000
_cell_angle_gamma   120.00000000
_symmetry_Int_Tables_number   1
_chemical_formula_structural   Li6B5
_chemical_formula_sum   'Li6 B5'
_cell_volume   108.85953519
_cell_formula_units_Z   1
loop_
 _symmetry_equiv_pos_site_id
 _symmetry_equiv_pos_as_xyz
  1  'x, y, z'
loop_
 _atom_site_type_symbol
 _atom_site_label
 _atom_site_symmetry_multiplicity
 _atom_site_fract_x
 _atom_site_fract_y
 _atom_site_fract_z
 _atom_site_occupancy
  Li  Li0  1  0.66666667  0.33333333  0.83498020  1.0
  Li  Li1  1  0.66666667  0.33333333  0.16501980  1.0
  Li  Li2  1  0.33333333  0.66666667  0.66824309  1.0
  Li  Li3  1  0.33333333  0.66666667  0.33175691  1.0
  Li  Li4  1  0.66666667  0.33333333  0.50000000  1.0
  Li  Li5  1  0.33333333  0.66666667  0.00000000  1.0
  B  B6  1  0.00000000  0.00000000  0.79990551  1.0
  B  B7  1  0.00000000  0.00000000  0.20009449  1.0
  B  B8  1  0.00000000  0.00000000  0.59994210  1.0
  B  B9  1  0.00000000  0.00000000  0.40005790  1.0
  B  B10  1  0.00000000  0.00000000  0.00000000  1.0
