# generated using pymatgen
data_Ba14Na17CaN6
_symmetry_space_group_name_H-M   'P 1'
_cell_length_a   12.03153340
_cell_length_b   11.09006365
_cell_length_c   13.67723160
_cell_angle_alpha   67.53626324
_cell_angle_beta   66.54277689
_cell_angle_gamma   78.69349113
_symmetry_Int_Tables_number   1
_chemical_formula_structural   Ba14Na17CaN6
_chemical_formula_sum   'Ba14 Na17 Ca1 N6'
_cell_volume   1545.02790341
_cell_formula_units_Z   1
loop_
 _symmetry_equiv_pos_site_id
 _symmetry_equiv_pos_as_xyz
  1  'x, y, z'
loop_
 _atom_site_type_symbol
 _atom_site_label
 _atom_site_symmetry_multiplicity
 _atom_site_fract_x
 _atom_site_fract_y
 _atom_site_fract_z
 _atom_site_occupancy
  Ba  Ba0  1  -0.28928561  -0.97682586  -0.61938605  1.0
  Ba  Ba1  1  -0.71071439  -0.02317414  -0.38061395  1.0
  Ba  Ba2  1  -0.27910294  -0.86976882  -0.94581342  1.0
  Ba  Ba3  1  -0.72089706  -0.13023118  -0.05418658  1.0
  Ba  Ba4  1  -0.66356967  -0.84039017  -0.95722466  1.0
  Ba  Ba5  1  -0.33643033  -0.15960983  -0.04277534  1.0
  Ba  Ba6  1  -0.80984961  -0.77499393  -0.19709978  1.0
  Ba  Ba7  1  -0.19015039  -0.22500607  -0.80290022  1.0
  Ba  Ba8  1  -0.02207841  -0.76154287  -0.90614077  1.0
  Ba  Ba9  1  -0.97792159  -0.23845713  -0.09385923  1.0
  Ba  Ba10  1  -0.88003628  -0.47014574  -0.82115095  1.0
  Ba  Ba11  1  -0.11996372  -0.52985426  -0.17884905  1.0
  Ba  Ba12  1  -0.93141379  -0.11471091  -0.76615044  1.0
  Ba  Ba13  1  -0.06858621  -0.88528909  -0.23384956  1.0
  Na  Na14  1  -0.41406806  -0.91174791  -0.31352317  1.0
  Na  Na15  1  -0.58593194  -0.08825209  -0.68647683  1.0
  Na  Na16  1  -0.90093222  -0.86838805  -0.60436106  1.0
  Na  Na17  1  -0.09906778  -0.13161195  -0.39563894  1.0
  Na  Na18  1  -0.59628179  -0.73648781  -0.70752637  1.0
  Na  Na19  1  -0.40371821  -0.26351219  -0.29247363  1.0
  Na  Na20  1  -0.52686068  -0.64777931  -0.51002686  1.0
  Na  Na21  1  -0.47313932  -0.35222069  -0.48997314  1.0
  Na  Na22  1  -0.85398698  -0.59491982  -0.51434354  1.0
  Na  Na23  1  -0.14601302  -0.40508018  -0.48565646  1.0
  Na  Na24  1  -0.31961795  -0.54211816  -0.81091398  1.0
  Na  Na25  1  -0.68038205  -0.45788184  -0.18908602  1.0
  Na  Na26  1  -0.60888675  -0.36721733  -0.74154121  1.0
  Na  Na27  1  -0.39111325  -0.63278267  -0.25845879  1.0
  Na  Na28  1  -0.80851874  -0.33287997  -0.44104556  1.0
  Na  Na29  1  -0.19148126  -0.66712003  -0.55895444  1.0
  Na  Na30  1  -0.50000000  -0.50000000  -0.00000000  1.0
  Ca  Ca31  1  0.00000000  0.00000000  0.00000000  1.0
  N  N32  1  -0.14245404  -0.98786509  -0.80657298  1.0
  N  N33  1  -0.85754596  -0.01213491  -0.19342702  1.0
  N  N34  1  -0.82713951  -0.92494663  -0.97653377  1.0
  N  N35  1  -0.17286049  -0.07505337  -0.02346623  1.0
  N  N36  1  -0.94025997  -0.23743114  -0.90565251  1.0
  N  N37  1  -0.05974003  -0.76256886  -0.09434749  1.0
