# generated using pymatgen
data_SrTi(PO4)2
_symmetry_space_group_name_H-M   'P 1'
_cell_length_a   4.90498359
_cell_length_b   4.90498359
_cell_length_c   7.44342585
_cell_angle_alpha   87.75273879
_cell_angle_beta   92.24726121
_cell_angle_gamma   115.16730532
_symmetry_Int_Tables_number   1
_chemical_formula_structural   SrTi(PO4)2
_chemical_formula_sum   'Sr1 Ti1 P2 O8'
_cell_volume   161.90529960
_cell_formula_units_Z   1
loop_
 _symmetry_equiv_pos_site_id
 _symmetry_equiv_pos_as_xyz
  1  'x, y, z'
loop_
 _atom_site_type_symbol
 _atom_site_label
 _atom_site_symmetry_multiplicity
 _atom_site_fract_x
 _atom_site_fract_y
 _atom_site_fract_z
 _atom_site_occupancy
  Sr  Sr0  1  0.00000000  -0.00000000  0.50000000  1.0
  Ti  Ti1  1  0.00000000  0.00000000  0.00000000  1.0
  P  P2  1  0.63975178  -0.63975178  0.78071749  1.0
  P  P3  1  0.36024822  -0.36024822  0.21928251  1.0
  O  O4  1  1.29066300  0.22456595  0.80902574  1.0
  O  O5  1  0.77543405  -0.29066300  0.80902574  1.0
  O  O6  1  1.22456595  0.29066300  0.19097426  1.0
  O  O7  1  0.70933700  -0.22456595  0.19097426  1.0
  O  O8  1  0.77752211  -0.77752211  0.92965548  1.0
  O  O9  1  0.22247789  -0.22247789  0.07034452  1.0
  O  O10  1  0.69864273  -0.69864273  0.58985898  1.0
  O  O11  1  0.30135727  -0.30135727  0.41014102  1.0
