# generated using pymatgen
data_Pr5P12Ru19
_symmetry_space_group_name_H-M   'P 1'
_cell_length_a   12.59882532
_cell_length_b   12.59882532
_cell_length_c   3.98687787
_cell_angle_alpha   90.00000000
_cell_angle_beta   90.00000000
_cell_angle_gamma   120.00000000
_symmetry_Int_Tables_number   1
_chemical_formula_structural   Pr5P12Ru19
_chemical_formula_sum   'Pr5 P12 Ru19'
_cell_volume   548.05440608
_cell_formula_units_Z   1
loop_
 _symmetry_equiv_pos_site_id
 _symmetry_equiv_pos_as_xyz
  1  'x, y, z'
loop_
 _atom_site_type_symbol
 _atom_site_label
 _atom_site_symmetry_multiplicity
 _atom_site_fract_x
 _atom_site_fract_y
 _atom_site_fract_z
 _atom_site_occupancy
  Pr  Pr0  1  -0.00000000  0.18540808  0.50000000  1.0
  Pr  Pr1  1  0.81459192  0.81459192  0.50000000  1.0
  Pr  Pr2  1  0.18540808  0.00000000  0.50000000  1.0
  Pr  Pr3  1  0.66666667  0.33333333  0.00000000  1.0
  Pr  Pr4  1  0.33333333  0.66666667  0.00000000  1.0
  P  P5  1  0.00000000  0.81386132  0.00000000  1.0
  P  P6  1  0.18613868  0.18613868  0.00000000  1.0
  P  P7  1  0.81386132  0.00000000  0.00000000  1.0
  P  P8  1  0.69460433  0.17099496  0.50000000  1.0
  P  P9  1  0.82900504  0.52360937  0.50000000  1.0
  P  P10  1  0.47639063  0.30539567  0.50000000  1.0
  P  P11  1  0.17099496  0.69460433  0.50000000  1.0
  P  P12  1  0.52360937  0.82900504  0.50000000  1.0
  P  P13  1  0.30539567  0.47639063  0.50000000  1.0
  P  P14  1  0.00000000  0.37473110  0.00000000  1.0
  P  P15  1  0.62526890  0.62526890  0.00000000  1.0
  P  P16  1  0.37473110  0.00000000  0.00000000  1.0
  Ru  Ru17  1  0.00000000  0.55524380  0.00000000  1.0
  Ru  Ru18  1  0.44475620  0.44475620  0.00000000  1.0
  Ru  Ru19  1  0.55524380  0.00000000  0.00000000  1.0
  Ru  Ru20  1  0.00000000  0.71585778  0.50000000  1.0
  Ru  Ru21  1  0.28414222  0.28414222  0.50000000  1.0
  Ru  Ru22  1  0.71585778  0.00000000  0.50000000  1.0
  Ru  Ru23  1  0.80692500  0.18435758  0.00000000  1.0
  Ru  Ru24  1  0.81564242  0.62256742  0.00000000  1.0
  Ru  Ru25  1  0.37743258  0.19307500  0.00000000  1.0
  Ru  Ru26  1  0.18435758  0.80692500  0.00000000  1.0
  Ru  Ru27  1  0.62256742  0.81564242  0.00000000  1.0
  Ru  Ru28  1  0.19307500  0.37743258  0.00000000  1.0
  Ru  Ru29  1  0.87459060  0.36677106  0.50000000  1.0
  Ru  Ru30  1  0.63322894  0.50781954  0.50000000  1.0
  Ru  Ru31  1  0.49218046  0.12540940  0.50000000  1.0
  Ru  Ru32  1  0.36677106  0.87459060  0.50000000  1.0
  Ru  Ru33  1  0.50781954  0.63322894  0.50000000  1.0
  Ru  Ru34  1  0.12540940  0.49218046  0.50000000  1.0
  Ru  Ru35  1  0.00000000  0.00000000  0.00000000  1.0
