# generated using pymatgen
data_TcP4
_symmetry_space_group_name_H-M   'P 1'
_cell_length_a   6.27230504
_cell_length_b   9.26804429
_cell_length_c   10.89882245
_cell_angle_alpha   90.00000000
_cell_angle_beta   90.00000000
_cell_angle_gamma   90.00000000
_symmetry_Int_Tables_number   1
_chemical_formula_structural   TcP4
_chemical_formula_sum   'Tc8 P32'
_cell_volume   633.57035688
_cell_formula_units_Z   8
loop_
 _symmetry_equiv_pos_site_id
 _symmetry_equiv_pos_as_xyz
  1  'x, y, z'
loop_
 _atom_site_type_symbol
 _atom_site_label
 _atom_site_symmetry_multiplicity
 _atom_site_fract_x
 _atom_site_fract_y
 _atom_site_fract_z
 _atom_site_occupancy
  Tc  Tc0  1  0.37907162  0.89067729  0.57516620  1.0
  Tc  Tc1  1  0.37907162  0.60932271  0.07516620  1.0
  Tc  Tc2  1  0.87907162  0.89067729  0.92483380  1.0
  Tc  Tc3  1  0.87907162  0.60932271  0.42483380  1.0
  Tc  Tc4  1  0.62092838  0.39067729  0.92483380  1.0
  Tc  Tc5  1  0.62092838  0.10932271  0.42483380  1.0
  Tc  Tc6  1  0.12092838  0.39067729  0.57516620  1.0
  Tc  Tc7  1  0.12092838  0.10932271  0.07516620  1.0
  P  P8  1  0.00085476  0.79182372  0.56862448  1.0
  P  P9  1  0.00085476  0.70817628  0.06862448  1.0
  P  P10  1  0.50085476  0.79182372  0.93137552  1.0
  P  P11  1  0.50085476  0.70817628  0.43137552  1.0
  P  P12  1  0.99914524  0.29182372  0.93137552  1.0
  P  P13  1  0.99914524  0.20817628  0.43137552  1.0
  P  P14  1  0.49914524  0.29182372  0.56862448  1.0
  P  P15  1  0.49914524  0.20817628  0.06862448  1.0
  P  P16  1  0.43984048  0.71875999  0.73554064  1.0
  P  P17  1  0.43984048  0.78124001  0.23554064  1.0
  P  P18  1  0.93984048  0.71875999  0.76445936  1.0
  P  P19  1  0.93984048  0.78124001  0.26445936  1.0
  P  P20  1  0.56015952  0.21875999  0.76445936  1.0
  P  P21  1  0.56015952  0.28124001  0.26445936  1.0
  P  P22  1  0.06015952  0.21875999  0.73554064  1.0
  P  P23  1  0.06015952  0.28124001  0.23554064  1.0
  P  P24  1  0.24314847  0.95648691  0.91886636  1.0
  P  P25  1  0.24314847  0.54351309  0.41886636  1.0
  P  P26  1  0.74314847  0.95648691  0.58113364  1.0
  P  P27  1  0.74314847  0.54351309  0.08113364  1.0
  P  P28  1  0.75685153  0.45648691  0.58113364  1.0
  P  P29  1  0.75685153  0.04351309  0.08113364  1.0
  P  P30  1  0.25685153  0.45648691  0.91886636  1.0
  P  P31  1  0.25685153  0.04351309  0.41886636  1.0
  P  P32  1  0.18950749  0.55304143  0.73789540  1.0
  P  P33  1  0.18950749  0.94695857  0.23789540  1.0
  P  P34  1  0.68950749  0.55304143  0.76210460  1.0
  P  P35  1  0.68950749  0.94695857  0.26210460  1.0
  P  P36  1  0.81049251  0.05304143  0.76210460  1.0
  P  P37  1  0.81049251  0.44695857  0.26210460  1.0
  P  P38  1  0.31049251  0.05304143  0.73789540  1.0
  P  P39  1  0.31049251  0.44695857  0.23789540  1.0
