# generated using pymatgen
data_Sr3SbI3
_symmetry_space_group_name_H-M   'P 1'
_cell_length_a   11.70020545
_cell_length_b   11.70020545
_cell_length_c   11.70020545
_cell_angle_alpha   109.47122063
_cell_angle_beta   109.47122063
_cell_angle_gamma   109.47122063
_symmetry_Int_Tables_number   1
_chemical_formula_structural   Sr3SbI3
_chemical_formula_sum   'Sr12 Sb4 I12'
_cell_volume   1232.98721163
_cell_formula_units_Z   4
loop_
 _symmetry_equiv_pos_site_id
 _symmetry_equiv_pos_as_xyz
  1  'x, y, z'
loop_
 _atom_site_type_symbol
 _atom_site_label
 _atom_site_symmetry_multiplicity
 _atom_site_fract_x
 _atom_site_fract_y
 _atom_site_fract_z
 _atom_site_occupancy
  Sr  Sr0  1  1.75000000  1.24168390  1.25831610  1.0
  Sr  Sr1  1  0.75000000  1.00831610  0.49168390  1.0
  Sr  Sr2  1  1.01663220  0.25831610  1.00831610  1.0
  Sr  Sr3  1  0.48336780  0.49168390  0.24168390  1.0
  Sr  Sr4  1  1.25831610  1.00831610  1.01663220  1.0
  Sr  Sr5  1  1.24168390  1.25831610  0.75000000  1.0
  Sr  Sr6  1  1.00831610  1.01663220  0.25831610  1.0
  Sr  Sr7  1  1.49168390  0.75000000  1.00831610  1.0
  Sr  Sr8  1  1.00831610  1.49168390  0.75000000  1.0
  Sr  Sr9  1  1.49168390  1.24168390  1.48336780  1.0
  Sr  Sr10  1  0.24168390  0.48336780  0.49168390  1.0
  Sr  Sr11  1  1.25831610  0.75000000  1.24168390  1.0
  Sb  Sb12  1  1.50000000  1.00000000  1.25000000  1.0
  Sb  Sb13  1  1.00000000  1.25000000  0.50000000  1.0
  Sb  Sb14  1  0.25000000  0.25000000  0.25000000  1.0
  Sb  Sb15  1  1.25000000  0.50000000  1.00000000  1.0
  I  I16  1  0.49981323  0.49990662  0.74990662  1.0
  I  I17  1  1.00018677  0.75009338  1.00009338  1.0
  I  I18  1  1.25000000  0.74990662  0.75009338  1.0
  I  I19  1  1.25000000  1.00009338  0.49990662  1.0
  I  I20  1  1.00009338  1.49990662  1.25000000  1.0
  I  I21  1  1.49990662  1.74990662  1.49981323  1.0
  I  I22  1  0.75009338  0.25000000  0.74990662  1.0
  I  I23  1  0.74990662  0.49981323  0.49990662  1.0
  I  I24  1  1.00009338  1.00018677  0.75009338  1.0
  I  I25  1  1.49990662  1.25000000  1.00009338  1.0
  I  I26  1  0.74990662  0.75009338  0.25000000  1.0
  I  I27  1  1.75009338  1.00009338  1.00018677  1.0
