# generated using pymatgen
data_SrNiSn3
_symmetry_space_group_name_H-M   'P 1'
_cell_length_a   6.46224030
_cell_length_b   6.46224030
_cell_length_c   6.46224030
_cell_angle_alpha   136.48566881
_cell_angle_beta   136.48566881
_cell_angle_gamma   63.23037073
_symmetry_Int_Tables_number   1
_chemical_formula_structural   SrNiSn3
_chemical_formula_sum   'Sr1 Ni1 Sn3'
_cell_volume   126.30546702
_cell_formula_units_Z   1
loop_
 _symmetry_equiv_pos_site_id
 _symmetry_equiv_pos_as_xyz
  1  'x, y, z'
loop_
 _atom_site_type_symbol
 _atom_site_label
 _atom_site_symmetry_multiplicity
 _atom_site_fract_x
 _atom_site_fract_y
 _atom_site_fract_z
 _atom_site_occupancy
  Sr  Sr0  1  0.57013068  0.57013068  1.00000000  1.0
  Ni  Ni1  1  0.22989841  0.22989841  0.00000000  1.0
  Sn  Sn2  1  0.82059588  0.32059588  0.50000000  1.0
  Sn  Sn3  1  0.32059588  0.82059588  0.50000000  1.0
  Sn  Sn4  1  0.00177916  0.00177916  0.00000000  1.0
