# generated using pymatgen
data_Nb5Sb4
_symmetry_space_group_name_H-M   'P 1'
_cell_length_a   7.56915271
_cell_length_b   7.56915271
_cell_length_c   7.56915271
_cell_angle_alpha   93.20298989
_cell_angle_beta   93.20298989
_cell_angle_gamma   152.65450732
_symmetry_Int_Tables_number   1
_chemical_formula_structural   Nb5Sb4
_chemical_formula_sum   'Nb5 Sb4'
_cell_volume   193.55539939
_cell_formula_units_Z   1
loop_
 _symmetry_equiv_pos_site_id
 _symmetry_equiv_pos_as_xyz
  1  'x, y, z'
loop_
 _atom_site_type_symbol
 _atom_site_label
 _atom_site_symmetry_multiplicity
 _atom_site_fract_x
 _atom_site_fract_y
 _atom_site_fract_z
 _atom_site_occupancy
  Nb  Nb0  1  0.68795540  0.62714772  0.31510312  1.0
  Nb  Nb1  1  0.62714772  0.31204460  0.93919232  1.0
  Nb  Nb2  1  1.31204460  1.37285228  1.68489688  1.0
  Nb  Nb3  1  0.37285228  0.68795540  1.06080768  1.0
  Nb  Nb4  1  0.00000000  0.00000000  0.00000000  1.0
  Sb  Sb5  1  0.94654745  0.70664718  0.65319463  1.0
  Sb  Sb6  1  0.70664718  0.05345255  0.76009974  1.0
  Sb  Sb7  1  1.05345255  1.29335282  1.34680537  1.0
  Sb  Sb8  1  0.29335282  0.94654745  1.23990026  1.0
