# generated using pymatgen
data_TlS
_symmetry_space_group_name_H-M   'P 1'
_cell_length_a   8.03530461
_cell_length_b   8.03530461
_cell_length_c   29.98881945
_cell_angle_alpha   90.00000000
_cell_angle_beta   90.00000000
_cell_angle_gamma   90.00000000
_symmetry_Int_Tables_number   1
_chemical_formula_structural   TlS
_chemical_formula_sum   'Tl32 S32'
_cell_volume   1936.26172209
_cell_formula_units_Z   32
loop_
 _symmetry_equiv_pos_site_id
 _symmetry_equiv_pos_as_xyz
  1  'x, y, z'
loop_
 _atom_site_type_symbol
 _atom_site_label
 _atom_site_symmetry_multiplicity
 _atom_site_fract_x
 _atom_site_fract_y
 _atom_site_fract_z
 _atom_site_occupancy
  Tl  Tl0  1  0.37116822  0.62214277  0.95306860  1.0
  Tl  Tl1  1  0.87116822  0.87785723  0.79693140  1.0
  Tl  Tl2  1  0.37785723  0.62883178  0.54693140  1.0
  Tl  Tl3  1  0.87785723  0.87116822  0.20306860  1.0
  Tl  Tl4  1  0.62883178  0.37785723  0.45306860  1.0
  Tl  Tl5  1  0.12883178  0.12214277  0.29693140  1.0
  Tl  Tl6  1  0.62214277  0.37116822  0.04693140  1.0
  Tl  Tl7  1  0.12214277  0.12883178  0.70306860  1.0
  Tl  Tl8  1  0.37289817  0.90981742  0.06350512  1.0
  Tl  Tl9  1  0.87289817  0.59018258  0.68649488  1.0
  Tl  Tl10  1  0.09018258  0.62710183  0.43649488  1.0
  Tl  Tl11  1  0.59018258  0.87289817  0.31350512  1.0
  Tl  Tl12  1  0.62710183  0.09018258  0.56350512  1.0
  Tl  Tl13  1  0.12710183  0.40981742  0.18649488  1.0
  Tl  Tl14  1  0.90981742  0.37289817  0.93649488  1.0
  Tl  Tl15  1  0.40981742  0.12710183  0.81350512  1.0
  Tl  Tl16  1  0.37238201  0.87494619  0.19731545  1.0
  Tl  Tl17  1  0.87238201  0.62505381  0.55268455  1.0
  Tl  Tl18  1  0.12505381  0.62761799  0.30268455  1.0
  Tl  Tl19  1  0.62505381  0.87238201  0.44731545  1.0
  Tl  Tl20  1  0.62761799  0.12505381  0.69731545  1.0
  Tl  Tl21  1  0.12761799  0.37494619  0.05268455  1.0
  Tl  Tl22  1  0.87494619  0.37238201  0.80268455  1.0
  Tl  Tl23  1  0.37494619  0.12761799  0.94731545  1.0
  Tl  Tl24  1  0.42313979  0.62937353  0.81795675  1.0
  Tl  Tl25  1  0.92313979  0.87062647  0.93204325  1.0
  Tl  Tl26  1  0.37062647  0.57686021  0.68204325  1.0
  Tl  Tl27  1  0.87062647  0.92313979  0.06795675  1.0
  Tl  Tl28  1  0.57686021  0.37062647  0.31795675  1.0
  Tl  Tl29  1  0.07686021  0.12937353  0.43204325  1.0
  Tl  Tl30  1  0.62937353  0.42313979  0.18204325  1.0
  Tl  Tl31  1  0.12937353  0.07686021  0.56795675  1.0
  S  S32  1  0.31515894  0.86849822  0.89967700  1.0
  S  S33  1  0.81515894  0.63150178  0.85032300  1.0
  S  S34  1  0.13150178  0.68484106  0.60032300  1.0
  S  S35  1  0.63150178  0.81515894  0.14967700  1.0
  S  S36  1  0.68484106  0.13150178  0.39967700  1.0
  S  S37  1  0.18484106  0.36849822  0.35032300  1.0
  S  S38  1  0.86849822  0.31515894  0.10032300  1.0
  S  S39  1  0.36849822  0.18484106  0.64967700  1.0
  S  S40  1  0.11840721  0.81717422  0.14816836  1.0
  S  S41  1  0.61840721  0.68282578  0.60183164  1.0
  S  S42  1  0.18282578  0.88159279  0.35183164  1.0
  S  S43  1  0.68282578  0.61840721  0.39816836  1.0
  S  S44  1  0.88159279  0.18282578  0.64816836  1.0
  S  S45  1  0.38159279  0.31717422  0.10183164  1.0
  S  S46  1  0.81717422  0.11840721  0.85183164  1.0
  S  S47  1  0.31717422  0.38159279  0.89816836  1.0
  S  S48  1  0.11735669  0.64301994  0.00781708  1.0
  S  S49  1  0.61735669  0.85698006  0.74218292  1.0
  S  S50  1  0.35698006  0.88264331  0.49218292  1.0
  S  S51  1  0.85698006  0.61735669  0.25781708  1.0
  S  S52  1  0.88264331  0.35698006  0.50781708  1.0
  S  S53  1  0.38264331  0.14301994  0.24218292  1.0
  S  S54  1  0.64301994  0.11735669  0.99218292  1.0
  S  S55  1  0.14301994  0.38264331  0.75781708  1.0
  S  S56  1  0.38428678  0.61571322  0.25000000  1.0
  S  S57  1  0.88428678  0.88428678  0.50000000  1.0
  S  S58  1  0.61571322  0.38428678  0.75000000  1.0
  S  S59  1  0.11571322  0.11571322  0.00000000  1.0
  S  S60  1  0.86371718  0.13628282  0.25000000  1.0
  S  S61  1  0.36371718  0.36371718  0.50000000  1.0
  S  S62  1  0.13628282  0.86371718  0.75000000  1.0
  S  S63  1  0.63628282  0.63628282  0.00000000  1.0
