# generated using pymatgen
data_Na3CoC2ClO6
_symmetry_space_group_name_H-M   'P 1'
_cell_length_a   10.01463761
_cell_length_b   10.01463761
_cell_length_c   10.01463761
_cell_angle_alpha   60.00000000
_cell_angle_beta   60.00000000
_cell_angle_gamma   60.00000000
_symmetry_Int_Tables_number   1
_chemical_formula_structural   Na3CoC2ClO6
_chemical_formula_sum   'Na12 Co4 C8 Cl4 O24'
_cell_volume   710.21643535
_cell_formula_units_Z   4
loop_
 _symmetry_equiv_pos_site_id
 _symmetry_equiv_pos_as_xyz
  1  'x, y, z'
loop_
 _atom_site_type_symbol
 _atom_site_label
 _atom_site_symmetry_multiplicity
 _atom_site_fract_x
 _atom_site_fract_y
 _atom_site_fract_z
 _atom_site_occupancy
  Na  Na0  1  0.72532484  -0.27467516  0.27467516  1.0
  Na  Na1  1  1.27467516  0.27467516  -0.27467516  1.0
  Na  Na2  1  0.27467516  -0.27467516  0.72532484  1.0
  Na  Na3  1  -0.27467516  0.27467516  1.27467516  1.0
  Na  Na4  1  -0.27467516  0.27467516  0.72532484  1.0
  Na  Na5  1  0.27467516  -0.27467516  0.27467516  1.0
  Na  Na6  1  -0.47532484  0.52467516  0.97532484  1.0
  Na  Na7  1  -0.02467516  0.97532484  0.52467516  1.0
  Na  Na8  1  -0.02467516  0.52467516  0.52467516  1.0
  Na  Na9  1  -0.47532484  0.97532484  0.97532484  1.0
  Na  Na10  1  0.52467516  -0.02467516  0.52467516  1.0
  Na  Na11  1  -0.02467516  0.52467516  0.97532484  1.0
  Co  Co12  1  0.62500000  0.12500000  0.12500000  1.0
  Co  Co13  1  0.12500000  0.12500000  0.62500000  1.0
  Co  Co14  1  0.12500000  1.62500000  0.12500000  1.0
  Co  Co15  1  0.12500000  0.12500000  0.12500000  1.0
  C  C16  1  -0.09166560  0.27499681  0.90833440  1.0
  C  C17  1  -0.09166560  0.90833440  0.90833440  1.0
  C  C18  1  0.27499681  -0.09166560  0.90833440  1.0
  C  C19  1  0.90833440  -0.09166560  0.27499681  1.0
  C  C20  1  0.34166560  -0.02499681  0.34166560  1.0
  C  C21  1  0.34166560  1.34166560  0.34166560  1.0
  C  C22  1  -0.02499681  0.34166560  0.34166560  1.0
  C  C23  1  0.34166560  1.34166560  -0.02499681  1.0
  Cl  Cl24  1  -0.37500000  0.62500000  0.62500000  1.0
  Cl  Cl25  1  -0.37500000  1.12500000  0.62500000  1.0
  Cl  Cl26  1  -0.37500000  0.62500000  1.12500000  1.0
  Cl  Cl27  1  1.12500000  0.62500000  -0.37500000  1.0
  O  O28  1  -0.23538365  0.27811187  0.93962762  1.0
  O  O29  1  -0.06037238  1.01764416  0.76461635  1.0
  O  O30  1  -0.72188813  0.76461635  1.01764416  1.0
  O  O31  1  0.01764416  0.93962762  0.27811187  1.0
  O  O32  1  0.93962762  -0.23538365  0.27811187  1.0
  O  O33  1  -0.23538365  0.93962762  1.01764416  1.0
  O  O34  1  0.01764416  0.27811187  0.76461635  1.0
  O  O35  1  0.27811187  0.01764416  0.93962762  1.0
  O  O36  1  0.27811187  -0.06037238  0.76461635  1.0
  O  O37  1  0.01764416  0.76461635  0.93962762  1.0
  O  O38  1  0.76461635  0.01764416  0.27811187  1.0
  O  O39  1  -0.06037238  0.27811187  1.01764416  1.0
  O  O40  1  0.48538365  -0.02811187  0.31037238  1.0
  O  O41  1  0.31037238  1.23235584  0.48538365  1.0
  O  O42  1  -0.02811187  0.48538365  1.23235584  1.0
  O  O43  1  1.23235584  0.31037238  -0.02811187  1.0
  O  O44  1  0.31037238  1.48538365  -0.02811187  1.0
  O  O45  1  0.48538365  1.31037238  0.23235584  1.0
  O  O46  1  0.23235584  -0.02811187  0.48538365  1.0
  O  O47  1  -0.02811187  0.23235584  0.31037238  1.0
  O  O48  1  -0.02811187  0.31037238  0.48538365  1.0
  O  O49  1  0.23235584  1.48538365  0.31037238  1.0
  O  O50  1  0.48538365  1.23235584  -0.02811187  1.0
  O  O51  1  0.31037238  -0.02811187  0.23235584  1.0
