# generated using pymatgen
data_NaSr3RuO6
_symmetry_space_group_name_H-M   'P 1'
_cell_length_a   6.81646243
_cell_length_b   6.81646243
_cell_length_c   6.81646243
_cell_angle_alpha   90.76228042
_cell_angle_beta   90.76228042
_cell_angle_gamma   90.76228042
_symmetry_Int_Tables_number   1
_chemical_formula_structural   NaSr3RuO6
_chemical_formula_sum   'Na2 Sr6 Ru2 O12'
_cell_volume   316.63635719
_cell_formula_units_Z   2
loop_
 _symmetry_equiv_pos_site_id
 _symmetry_equiv_pos_as_xyz
  1  'x, y, z'
loop_
 _atom_site_type_symbol
 _atom_site_label
 _atom_site_symmetry_multiplicity
 _atom_site_fract_x
 _atom_site_fract_y
 _atom_site_fract_z
 _atom_site_occupancy
  Na  Na0  1  0.25000000  0.25000000  0.25000000  1.0
  Na  Na1  1  0.75000000  0.75000000  0.75000000  1.0
  Sr  Sr2  1  0.89230030  1.25000000  -0.39230030  1.0
  Sr  Sr3  1  1.39230030  0.10769970  -0.25000000  1.0
  Sr  Sr4  1  0.75000000  0.39230030  0.10769970  1.0
  Sr  Sr5  1  1.25000000  0.60769970  -0.10769970  1.0
  Sr  Sr6  1  1.10769970  -0.25000000  0.39230030  1.0
  Sr  Sr7  1  0.60769970  0.89230030  0.25000000  1.0
  Ru  Ru8  1  0.50000000  0.50000000  0.50000000  1.0
  Ru  Ru9  1  0.00000000  0.00000000  0.00000000  1.0
  O  O10  1  1.22241245  0.42513174  -0.44437428  1.0
  O  O11  1  0.72241245  1.05562572  -0.07486826  1.0
  O  O12  1  0.94437428  0.07486826  0.27758755  1.0
  O  O13  1  1.44437428  -0.22241245  0.57486826  1.0
  O  O14  1  1.57486826  0.44437428  -0.22241245  1.0
  O  O15  1  1.07486826  0.27758755  -0.05562572  1.0
  O  O16  1  0.77758755  0.57486826  0.44437428  1.0
  O  O17  1  1.27758755  -0.05562572  0.07486826  1.0
  O  O18  1  0.55562572  1.22241245  -0.57486826  1.0
  O  O19  1  1.05562572  0.92513174  -0.27758755  1.0
  O  O20  1  0.92513174  0.72241245  0.05562572  1.0
  O  O21  1  0.42513174  0.55562572  0.22241245  1.0
