# generated using pymatgen
data_B4Mo2O9
_symmetry_space_group_name_H-M   'P 1'
_cell_length_a   8.00766180
_cell_length_b   8.00766180
_cell_length_c   7.77991691
_cell_angle_alpha   90.00000000
_cell_angle_beta   90.00000000
_cell_angle_gamma   90.00000000
_symmetry_Int_Tables_number   1
_chemical_formula_structural   B4Mo2O9
_chemical_formula_sum   'B16 Mo8 O36'
_cell_volume   498.86886945
_cell_formula_units_Z   4
loop_
 _symmetry_equiv_pos_site_id
 _symmetry_equiv_pos_as_xyz
  1  'x, y, z'
loop_
 _atom_site_type_symbol
 _atom_site_label
 _atom_site_symmetry_multiplicity
 _atom_site_fract_x
 _atom_site_fract_y
 _atom_site_fract_z
 _atom_site_occupancy
  B  B0  1  0.84055533  0.50000000  0.21004464  1.0
  B  B1  1  0.15944467  0.50000000  0.21004464  1.0
  B  B2  1  0.00000000  0.34055533  0.71004464  1.0
  B  B3  1  0.00000000  0.65944467  0.71004464  1.0
  B  B4  1  0.65944467  0.00000000  0.28995536  1.0
  B  B5  1  0.34055533  0.00000000  0.28995536  1.0
  B  B6  1  0.50000000  0.15944467  0.78995536  1.0
  B  B7  1  0.50000000  0.84055533  0.78995536  1.0
  B  B8  1  0.34317445  0.65682555  0.00000000  1.0
  B  B9  1  0.65682555  0.65682555  0.00000000  1.0
  B  B10  1  0.34317445  0.34317445  0.00000000  1.0
  B  B11  1  0.65682555  0.34317445  0.00000000  1.0
  B  B12  1  0.15682555  0.84317445  0.50000000  1.0
  B  B13  1  0.84317445  0.84317445  0.50000000  1.0
  B  B14  1  0.15682555  0.15682555  0.50000000  1.0
  B  B15  1  0.84317445  0.15682555  0.50000000  1.0
  Mo  Mo16  1  0.33836770  0.50000000  0.61854370  1.0
  Mo  Mo17  1  0.66163230  0.50000000  0.61854370  1.0
  Mo  Mo18  1  0.00000000  0.83836770  0.11854370  1.0
  Mo  Mo19  1  0.00000000  0.16163230  0.11854370  1.0
  Mo  Mo20  1  0.16163230  0.00000000  0.88145630  1.0
  Mo  Mo21  1  0.83836770  0.00000000  0.88145630  1.0
  Mo  Mo22  1  0.50000000  0.66163230  0.38145630  1.0
  Mo  Mo23  1  0.50000000  0.33836770  0.38145630  1.0
  O  O24  1  0.80635861  0.34692983  0.10854207  1.0
  O  O25  1  0.19364139  0.34692983  0.10854207  1.0
  O  O26  1  0.80635861  0.65307017  0.10854207  1.0
  O  O27  1  0.19364139  0.65307017  0.10854207  1.0
  O  O28  1  0.84692983  0.30635861  0.60854207  1.0
  O  O29  1  0.15307017  0.30635861  0.60854207  1.0
  O  O30  1  0.84692983  0.69364139  0.60854207  1.0
  O  O31  1  0.15307017  0.69364139  0.60854207  1.0
  O  O32  1  0.69364139  0.15307017  0.39145793  1.0
  O  O33  1  0.30635861  0.15307017  0.39145793  1.0
  O  O34  1  0.69364139  0.84692983  0.39145793  1.0
  O  O35  1  0.30635861  0.84692983  0.39145793  1.0
  O  O36  1  0.65307017  0.19364139  0.89145793  1.0
  O  O37  1  0.34692983  0.19364139  0.89145793  1.0
  O  O38  1  0.65307017  0.80635861  0.89145793  1.0
  O  O39  1  0.34692983  0.80635861  0.89145793  1.0
  O  O40  1  0.29776885  0.50000000  0.35169236  1.0
  O  O41  1  0.70223115  0.50000000  0.35169236  1.0
  O  O42  1  0.00000000  0.79776885  0.85169236  1.0
  O  O43  1  0.00000000  0.20223115  0.85169236  1.0
  O  O44  1  0.20223115  0.00000000  0.14830764  1.0
  O  O45  1  0.79776885  0.00000000  0.14830764  1.0
  O  O46  1  0.50000000  0.70223115  0.64830764  1.0
  O  O47  1  0.50000000  0.29776885  0.64830764  1.0
  O  O48  1  0.34080894  0.50000000  0.89261480  1.0
  O  O49  1  0.65919106  0.50000000  0.89261480  1.0
  O  O50  1  0.00000000  0.84080894  0.39261480  1.0
  O  O51  1  0.00000000  0.15919106  0.39261480  1.0
  O  O52  1  0.15919106  0.00000000  0.60738520  1.0
  O  O53  1  0.84080894  0.00000000  0.60738520  1.0
  O  O54  1  0.50000000  0.65919106  0.10738520  1.0
  O  O55  1  0.50000000  0.34080894  0.10738520  1.0
  O  O56  1  0.00000000  0.50000000  0.78448770  1.0
  O  O57  1  0.00000000  0.50000000  0.28448770  1.0
  O  O58  1  0.50000000  0.00000000  0.71551230  1.0
  O  O59  1  0.50000000  0.00000000  0.21551230  1.0
