# generated using pymatgen
data_Fe3H6S2O15
_symmetry_space_group_name_H-M   'P 1'
_cell_length_a   7.18388552
_cell_length_b   7.18388552
_cell_length_c   7.18388552
_cell_angle_alpha   61.57498802
_cell_angle_beta   61.57498802
_cell_angle_gamma   61.57498802
_symmetry_Int_Tables_number   1
_chemical_formula_structural   Fe3H6S2O15
_chemical_formula_sum   'Fe3 H6 S2 O15'
_cell_volume   271.42162767
_cell_formula_units_Z   1
loop_
 _symmetry_equiv_pos_site_id
 _symmetry_equiv_pos_as_xyz
  1  'x, y, z'
loop_
 _atom_site_type_symbol
 _atom_site_label
 _atom_site_symmetry_multiplicity
 _atom_site_fract_x
 _atom_site_fract_y
 _atom_site_fract_z
 _atom_site_occupancy
  Fe  Fe0  1  0.50000000  1.00000000  -0.50000000  1.0
  Fe  Fe1  1  0.50000000  -0.50000000  -0.00000000  1.0
  Fe  Fe2  1  -0.00000000  0.50000000  -0.50000000  1.0
  O  O3  1  0.89213460  0.89213460  -0.10786540  1.0
  O  O4  1  1.10786540  1.10786540  0.10786540  1.0
  O  O5  1  0.50000000  0.50000000  -0.50000000  1.0
  O  O6  1  0.23211669  0.23211669  -0.38403750  1.0
  O  O7  1  0.23211669  0.61596250  -0.76788331  1.0
  O  O8  1  0.38403750  0.76788331  -0.23211669  1.0
  O  O9  1  0.76788331  0.38403750  -0.23211669  1.0
  O  O10  1  0.76788331  0.76788331  -0.61596250  1.0
  O  O11  1  0.61596250  0.23211669  -0.76788331  1.0
  O  O12  1  1.33316859  1.33316859  0.00009358  1.0
  O  O13  1  1.33316859  1.00009358  0.33316859  1.0
  O  O14  1  0.99990642  0.66683141  -0.33316859  1.0
  O  O15  1  0.66683141  0.99990642  -0.33316859  1.0
  O  O16  1  0.66683141  0.66683141  -0.00009358  1.0
  O  O17  1  1.00009358  1.33316859  0.33316859  1.0
  S  S18  1  0.80695030  0.80695030  -0.19304970  1.0
  S  S19  1  1.19304970  1.19304970  0.19304970  1.0
  H  H20  1  0.20254067  0.20254067  -0.22504665  1.0
  H  H21  1  0.20254067  0.77495335  -0.79745933  1.0
  H  H22  1  0.22504665  0.79745933  -0.20254067  1.0
  H  H23  1  0.79745933  0.22504665  -0.20254067  1.0
  H  H24  1  0.79745933  0.79745933  -0.77495335  1.0
  H  H25  1  0.77495335  0.20254067  -0.79745933  1.0
