# generated using pymatgen
data_LiVPO5
_symmetry_space_group_name_H-M   'P 1'
_cell_length_a   7.52950874
_cell_length_b   6.34256863
_cell_length_c   7.28650500
_cell_angle_alpha   90.00000000
_cell_angle_beta   90.00000000
_cell_angle_gamma   90.00000000
_symmetry_Int_Tables_number   1
_chemical_formula_structural   LiVPO5
_chemical_formula_sum   'Li4 V4 P4 O20'
_cell_volume   347.97743615
_cell_formula_units_Z   4
loop_
 _symmetry_equiv_pos_site_id
 _symmetry_equiv_pos_as_xyz
  1  'x, y, z'
loop_
 _atom_site_type_symbol
 _atom_site_label
 _atom_site_symmetry_multiplicity
 _atom_site_fract_x
 _atom_site_fract_y
 _atom_site_fract_z
 _atom_site_occupancy
  Li  Li0  1  0.50000000  0.00000000  0.50000000  1.0
  Li  Li1  1  0.50000000  0.50000000  0.50000000  1.0
  Li  Li2  1  0.00000000  0.00000000  0.00000000  1.0
  Li  Li3  1  0.00000000  0.50000000  0.00000000  1.0
  V  V4  1  0.32711039  0.75000000  0.78136932  1.0
  V  V5  1  0.82711039  0.75000000  0.71863068  1.0
  V  V6  1  0.67288961  0.25000000  0.21863068  1.0
  V  V7  1  0.17288961  0.25000000  0.28136932  1.0
  P  P8  1  0.12650722  0.75000000  0.37726875  1.0
  P  P9  1  0.62650722  0.75000000  0.12273125  1.0
  P  P10  1  0.87349278  0.25000000  0.62273125  1.0
  P  P11  1  0.37349278  0.25000000  0.87726875  1.0
  O  O12  1  0.37094879  0.44506971  0.74697100  1.0
  O  O13  1  0.37094879  0.05493029  0.74697100  1.0
  O  O14  1  0.87094879  0.44506971  0.75302900  1.0
  O  O15  1  0.87094879  0.05493029  0.75302900  1.0
  O  O16  1  0.62905121  0.94506971  0.25302900  1.0
  O  O17  1  0.62905121  0.55493029  0.25302900  1.0
  O  O18  1  0.12905121  0.94506971  0.24697100  1.0
  O  O19  1  0.12905121  0.55493029  0.24697100  1.0
  O  O20  1  0.45582392  0.75000000  0.00661776  1.0
  O  O21  1  0.95582392  0.75000000  0.49338224  1.0
  O  O22  1  0.54417608  0.25000000  0.99338224  1.0
  O  O23  1  0.04417608  0.25000000  0.50661776  1.0
  O  O24  1  0.29638811  0.75000000  0.50163080  1.0
  O  O25  1  0.79638811  0.75000000  0.99836920  1.0
  O  O26  1  0.70361189  0.25000000  0.49836920  1.0
  O  O27  1  0.20361189  0.25000000  0.00163080  1.0
  O  O28  1  0.11695594  0.75000000  0.84498963  1.0
  O  O29  1  0.61695594  0.75000000  0.65501037  1.0
  O  O30  1  0.88304406  0.25000000  0.15501037  1.0
  O  O31  1  0.38304406  0.25000000  0.34498963  1.0
