# generated using pymatgen
data_Rb2SnI6
_symmetry_space_group_name_H-M   'P 1'
_cell_length_a   8.38114360
_cell_length_b   8.38114360
_cell_length_c   8.38114360
_cell_angle_alpha   60.00000000
_cell_angle_beta   60.00000000
_cell_angle_gamma   60.00000000
_symmetry_Int_Tables_number   1
_chemical_formula_structural   Rb2SnI6
_chemical_formula_sum   'Rb2 Sn1 I6'
_cell_volume   416.28891611
_cell_formula_units_Z   1
loop_
 _symmetry_equiv_pos_site_id
 _symmetry_equiv_pos_as_xyz
  1  'x, y, z'
loop_
 _atom_site_type_symbol
 _atom_site_label
 _atom_site_symmetry_multiplicity
 _atom_site_fract_x
 _atom_site_fract_y
 _atom_site_fract_z
 _atom_site_occupancy
  Rb  Rb0  1  0.75000000  0.75000000  -0.25000000  1.0
  Rb  Rb1  1  1.25000000  0.25000000  0.25000000  1.0
  Sn  Sn2  1  0.00000000  0.00000000  0.00000000  1.0
  I  I3  1  -0.75496583  0.75496583  0.75496583  1.0
  I  I4  1  -0.24503417  0.24503417  0.75496583  1.0
  I  I5  1  0.75496583  0.75496583  -0.75496583  1.0
  I  I6  1  0.24503417  1.24503417  -0.24503417  1.0
  I  I7  1  0.24503417  -0.24503417  1.24503417  1.0
  I  I8  1  -0.24503417  0.24503417  0.24503417  1.0
