# generated using pymatgen
data_K2VAgS2
_symmetry_space_group_name_H-M   'P 1'
_cell_length_a   18.01878247
_cell_length_b   17.15711909
_cell_length_c   6.87553589
_cell_angle_alpha   85.87689313
_cell_angle_beta   71.75296746
_cell_angle_gamma   22.37013942
_symmetry_Int_Tables_number   1
_chemical_formula_structural   K2VAgS2
_chemical_formula_sum   'K8 V4 Ag4 S8'
_cell_volume   613.38399749
_cell_formula_units_Z   4
loop_
 _symmetry_equiv_pos_site_id
 _symmetry_equiv_pos_as_xyz
  1  'x, y, z'
loop_
 _atom_site_type_symbol
 _atom_site_label
 _atom_site_symmetry_multiplicity
 _atom_site_fract_x
 _atom_site_fract_y
 _atom_site_fract_z
 _atom_site_occupancy
  K  K0  1  1.12619417  0.44573568  0.60703662  1.0
  K  K1  1  0.82103352  0.60703662  0.44573568  1.0
  K  K2  1  0.80426432  1.12380583  0.42896648  1.0
  K  K3  1  0.64296338  0.42896648  1.12380583  1.0
  K  K4  1  1.60703662  -0.17896648  0.12619417  1.0
  K  K5  1  1.44573568  0.12619417  -0.17896648  1.0
  K  K6  1  0.42896648  0.64296338  0.80426432  1.0
  K  K7  1  1.12380583  0.80426432  0.64296338  1.0
  V  V8  1  1.12500000  0.12500000  0.62500000  1.0
  V  V9  1  1.12500000  0.62500000  0.12500000  1.0
  V  V10  1  1.12500000  0.12500000  0.12500000  1.0
  V  V11  1  1.62500000  0.12500000  0.12500000  1.0
  Ag  Ag12  1  0.62500000  0.62500000  1.12500000  1.0
  Ag  Ag13  1  0.62500000  1.12500000  0.62500000  1.0
  Ag  Ag14  1  0.62500000  0.62500000  0.62500000  1.0
  Ag  Ag15  1  1.12500000  0.62500000  0.62500000  1.0
  S  S16  1  1.15794513  -0.03521585  0.60999000  1.0
  S  S17  1  1.26728072  0.60999000  -0.03521585  1.0
  S  S18  1  0.28521585  1.09205487  0.98271928  1.0
  S  S19  1  0.64001000  0.98271928  1.09205487  1.0
  S  S20  1  1.60999000  0.26728072  0.15794513  1.0
  S  S21  1  0.96478415  0.15794513  0.26728072  1.0
  S  S22  1  0.98271928  0.64001000  0.28521585  1.0
  S  S23  1  1.09205487  0.28521585  0.64001000  1.0
