# generated using pymatgen
data_LaAsPt5
_symmetry_space_group_name_H-M   'P 1'
_cell_length_a   20.72116323
_cell_length_b   20.72116323
_cell_length_c   20.72116323
_cell_angle_alpha   14.89054709
_cell_angle_beta   14.89054709
_cell_angle_gamma   14.89054709
_symmetry_Int_Tables_number   1
_chemical_formula_structural   LaAsPt5
_chemical_formula_sum   'La4 As4 Pt20'
_cell_volume   511.66603602
_cell_formula_units_Z   4
loop_
 _symmetry_equiv_pos_site_id
 _symmetry_equiv_pos_as_xyz
  1  'x, y, z'
loop_
 _atom_site_type_symbol
 _atom_site_label
 _atom_site_symmetry_multiplicity
 _atom_site_fract_x
 _atom_site_fract_y
 _atom_site_fract_z
 _atom_site_occupancy
  La  La0  1  0.25000000  0.25000000  0.25000000  1.0
  La  La1  1  0.75000000  0.75000000  -0.25000000  1.0
  La  La2  1  1.00000000  0.00000000  0.00000000  1.0
  La  La3  1  0.50000000  0.50000000  0.50000000  1.0
  As  As4  1  0.94758048  -0.05241952  -0.05241952  1.0
  As  As5  1  0.44758048  0.44758048  0.44758048  1.0
  As  As6  1  1.05241952  0.05241952  0.05241952  1.0
  As  As7  1  0.55241952  0.55241952  -0.44758048  1.0
  Pt  Pt8  1  0.90824410  -0.09175590  -0.09175590  1.0
  Pt  Pt9  1  0.40824410  0.40824410  0.40824410  1.0
  Pt  Pt10  1  1.09175590  0.09175590  0.09175590  1.0
  Pt  Pt11  1  0.59175590  0.59175590  -0.40824410  1.0
  Pt  Pt12  1  0.66706123  0.66706123  -0.33293877  1.0
  Pt  Pt13  1  0.16706123  0.16706123  0.16706123  1.0
  Pt  Pt14  1  0.33293877  0.33293877  0.33293877  1.0
  Pt  Pt15  1  0.83293877  0.83293877  -0.16706123  1.0
  Pt  Pt16  1  0.96366784  0.52956882  -0.60618543  1.0
  Pt  Pt17  1  0.52956882  0.39381457  -0.03633216  1.0
  Pt  Pt18  1  0.39381457  0.96366784  -0.47043118  1.0
  Pt  Pt19  1  0.46366784  0.89381457  0.02956882  1.0
  Pt  Pt20  1  0.89381457  1.02956882  -0.53633216  1.0
  Pt  Pt21  1  1.02956882  0.46366784  -0.10618543  1.0
  Pt  Pt22  1  1.03633216  0.47043118  -0.39381457  1.0
  Pt  Pt23  1  0.47043118  0.60618543  0.03633216  1.0
  Pt  Pt24  1  0.60618543  1.03633216  -0.52956882  1.0
  Pt  Pt25  1  0.53633216  0.10618543  -0.02956882  1.0
  Pt  Pt26  1  1.10618543  -0.02956882  -0.46366784  1.0
  Pt  Pt27  1  0.97043118  -0.46366784  0.10618543  1.0
