# generated using pymatgen
data_Y(BRu)2
_symmetry_space_group_name_H-M   'P 1'
_cell_length_a   11.46329631
_cell_length_b   11.46329631
_cell_length_c   11.46329631
_cell_angle_alpha   138.18577508
_cell_angle_beta   138.18577508
_cell_angle_gamma   60.61859430
_symmetry_Int_Tables_number   1
_chemical_formula_structural   Y(BRu)2
_chemical_formula_sum   'Y8 B16 Ru16'
_cell_volume   662.42729305
_cell_formula_units_Z   8
loop_
 _symmetry_equiv_pos_site_id
 _symmetry_equiv_pos_as_xyz
  1  'x, y, z'
loop_
 _atom_site_type_symbol
 _atom_site_label
 _atom_site_symmetry_multiplicity
 _atom_site_fract_x
 _atom_site_fract_y
 _atom_site_fract_z
 _atom_site_occupancy
  Y  Y0  1  0.87500000  0.12500000  0.75000000  1.0
  Y  Y1  1  0.37500000  0.12500000  0.25000000  1.0
  Y  Y2  1  0.87500000  0.62500000  1.25000000  1.0
  Y  Y3  1  0.37500000  0.62500000  0.75000000  1.0
  Y  Y4  1  0.37500000  1.12500000  0.75000000  1.0
  Y  Y5  1  0.37500000  0.62500000  0.25000000  1.0
  Y  Y6  1  0.87500000  0.62500000  0.75000000  1.0
  Y  Y7  1  0.87500000  1.12500000  1.25000000  1.0
  B  B8  1  1.13392803  1.27788600  1.87293629  1.0
  B  B9  1  1.34505030  0.98900827  1.37293629  1.0
  B  B10  1  0.90494970  0.77788600  1.14395797  1.0
  B  B11  1  1.11607197  1.48900827  1.64395797  1.0
  B  B12  1  1.23900827  1.09505030  1.87293629  1.0
  B  B13  1  0.52788600  0.88392803  1.37293629  1.0
  B  B14  1  0.72211400  0.59505030  0.85604203  1.0
  B  B15  1  0.01099173  0.38392803  0.35604203  1.0
  B  B16  1  0.63392803  0.76099173  0.85604203  1.0
  B  B17  1  0.84505030  0.47211400  0.35604203  1.0
  B  B18  1  0.40494970  0.26099173  0.12706371  1.0
  B  B19  1  0.61607197  0.97211400  0.62706371  1.0
  B  B20  1  0.73900827  0.86607197  1.14395797  1.0
  B  B21  1  1.02788600  0.65494970  1.64395797  1.0
  B  B22  1  0.22211400  0.36607197  0.12706371  1.0
  B  B23  1  0.51099173  0.15494970  0.62706371  1.0
  Ru  Ru24  1  1.09572791  0.89464855  1.51985204  1.0
  Ru  Ru25  1  0.37520349  0.67412413  1.01985204  1.0
  Ru  Ru26  1  0.87479651  0.39464855  0.79892064  1.0
  Ru  Ru27  1  0.15427209  0.17412413  0.29892064  1.0
  Ru  Ru28  1  0.92412413  1.12520349  1.51985204  1.0
  Ru  Ru29  1  1.14464855  0.84572791  1.01985204  1.0
  Ru  Ru30  1  1.10535145  0.62520349  1.20107936  1.0
  Ru  Ru31  1  1.32587587  1.34572791  1.70107936  1.0
  Ru  Ru32  1  0.59572791  1.07587587  1.20107936  1.0
  Ru  Ru33  1  0.87520349  0.85535145  1.70107936  1.0
  Ru  Ru34  1  0.37479651  0.57587587  0.48014796  1.0
  Ru  Ru35  1  0.65427209  0.35535145  0.98014796  1.0
  Ru  Ru36  1  0.42412413  0.90427209  0.79892064  1.0
  Ru  Ru37  1  0.64464855  0.62479651  0.29892064  1.0
  Ru  Ru38  1  0.60535145  0.40427209  0.48014796  1.0
  Ru  Ru39  1  0.82587587  1.12479651  0.98014796  1.0
