# generated using pymatgen
data_GeIr
_symmetry_space_group_name_H-M   'P 1'
_cell_length_a   5.59915098
_cell_length_b   3.61567937
_cell_length_c   6.31237203
_cell_angle_alpha   90.00000000
_cell_angle_beta   90.00000000
_cell_angle_gamma   90.00000000
_symmetry_Int_Tables_number   1
_chemical_formula_structural   GeIr
_chemical_formula_sum   'Ge4 Ir4'
_cell_volume   127.79229697
_cell_formula_units_Z   4
loop_
 _symmetry_equiv_pos_site_id
 _symmetry_equiv_pos_as_xyz
  1  'x, y, z'
loop_
 _atom_site_type_symbol
 _atom_site_label
 _atom_site_symmetry_multiplicity
 _atom_site_fract_x
 _atom_site_fract_y
 _atom_site_fract_z
 _atom_site_occupancy
  Ge  Ge0  1  0.80698623  0.75000000  0.57951456  1.0
  Ge  Ge1  1  0.30698623  0.75000000  0.92048544  1.0
  Ge  Ge2  1  0.19301377  0.25000000  0.42048544  1.0
  Ge  Ge3  1  0.69301377  0.25000000  0.07951456  1.0
  Ir  Ir4  1  0.99719682  0.75000000  0.20830336  1.0
  Ir  Ir5  1  0.49719682  0.75000000  0.29169664  1.0
  Ir  Ir6  1  0.00280318  0.25000000  0.79169664  1.0
  Ir  Ir7  1  0.50280318  0.25000000  0.70830336  1.0
