# generated using pymatgen
data_NaCa2Si3HO9
_symmetry_space_group_name_H-M   'P 1'
_cell_length_a   7.10422002
_cell_length_b   7.09003714
_cell_length_c   8.06919179
_cell_angle_alpha   102.40430477
_cell_angle_beta   95.12281937
_cell_angle_gamma   90.60125947
_symmetry_Int_Tables_number   1
_chemical_formula_structural   NaCa2Si3HO9
_chemical_formula_sum   'Na2 Ca4 Si6 H2 O18'
_cell_volume   395.18117032
_cell_formula_units_Z   2
loop_
 _symmetry_equiv_pos_site_id
 _symmetry_equiv_pos_as_xyz
  1  'x, y, z'
loop_
 _atom_site_type_symbol
 _atom_site_label
 _atom_site_symmetry_multiplicity
 _atom_site_fract_x
 _atom_site_fract_y
 _atom_site_fract_z
 _atom_site_occupancy
  Na  Na0  1  0.15799656  0.74500086  0.94805930  1.0
  Na  Na1  1  0.84200344  0.25499914  0.05194070  1.0
  Ca  Ca2  1  0.64271305  0.59450686  0.35385251  1.0
  Ca  Ca3  1  0.35728695  0.40549314  0.64614749  1.0
  Ca  Ca4  1  0.35812963  0.91649641  0.65382961  1.0
  Ca  Ca5  1  0.64187037  0.08350359  0.34617039  1.0
  Si  Si6  1  0.84505050  0.95215333  0.71340216  1.0
  Si  Si7  1  0.15494950  0.04784667  0.28659784  1.0
  Si  Si8  1  0.83501694  0.40082465  0.71786482  1.0
  Si  Si9  1  0.16498306  0.59917535  0.28213518  1.0
  Si  Si10  1  0.64389446  0.73519812  0.94971307  1.0
  Si  Si11  1  0.35610554  0.26480188  0.05028693  1.0
  H  H12  1  0.96941284  0.36212929  0.33497511  1.0
  H  H13  1  0.03058716  0.63787071  0.66502489  1.0
  O  O14  1  0.96066666  0.50502298  0.31467704  1.0
  O  O15  1  0.03933334  0.49497702  0.68532296  1.0
  O  O16  1  0.88511414  0.19052776  0.76288782  1.0
  O  O17  1  0.11488586  0.80947224  0.23711218  1.0
  O  O18  1  0.77260942  0.91017378  0.89500103  1.0
  O  O19  1  0.22739058  0.08982622  0.10499897  1.0
  O  O20  1  0.77140402  0.53398994  0.89915226  1.0
  O  O21  1  0.22859598  0.46601006  0.10084774  1.0
  O  O22  1  0.67742423  0.89510351  0.55855950  1.0
  O  O23  1  0.32257577  0.10489649  0.44144050  1.0
  O  O24  1  0.67191618  0.38689845  0.56255244  1.0
  O  O25  1  0.32808382  0.61310155  0.43744756  1.0
  O  O26  1  0.62719610  0.78686919  0.15257358  1.0
  O  O27  1  0.37280390  0.21313081  0.84742642  1.0
  O  O28  1  0.44494876  0.70338511  0.82920677  1.0
  O  O29  1  0.55505124  0.29661489  0.17079323  1.0
  O  O30  1  0.04260107  0.84533617  0.68008877  1.0
  O  O31  1  0.95739893  0.15466383  0.31991123  1.0
