# generated using pymatgen
data_FeCuPO5
_symmetry_space_group_name_H-M   'P 1'
_cell_length_a   8.05238862
_cell_length_b   6.38153406
_cell_length_c   7.12002518
_cell_angle_alpha   90.00000000
_cell_angle_beta   90.00000000
_cell_angle_gamma   90.00000000
_symmetry_Int_Tables_number   1
_chemical_formula_structural   FeCuPO5
_chemical_formula_sum   'Fe4 Cu4 P4 O20'
_cell_volume   365.87383063
_cell_formula_units_Z   4
loop_
 _symmetry_equiv_pos_site_id
 _symmetry_equiv_pos_as_xyz
  1  'x, y, z'
loop_
 _atom_site_type_symbol
 _atom_site_label
 _atom_site_symmetry_multiplicity
 _atom_site_fract_x
 _atom_site_fract_y
 _atom_site_fract_z
 _atom_site_occupancy
  Fe  Fe0  1  0.30659509  0.75000000  0.20215044  1.0
  Fe  Fe1  1  0.80659509  0.75000000  0.29784956  1.0
  Fe  Fe2  1  0.69340491  0.25000000  0.79784956  1.0
  Fe  Fe3  1  0.19340491  0.25000000  0.70215044  1.0
  O  O4  1  0.12167590  0.94788164  0.75818314  1.0
  O  O5  1  0.12167590  0.55211836  0.75818314  1.0
  O  O6  1  0.62167590  0.94788164  0.74181686  1.0
  O  O7  1  0.62167590  0.55211836  0.74181686  1.0
  O  O8  1  0.87832410  0.44788164  0.24181686  1.0
  O  O9  1  0.87832410  0.05211836  0.24181686  1.0
  O  O10  1  0.37832410  0.44788164  0.25818314  1.0
  O  O11  1  0.37832410  0.05211836  0.25818314  1.0
  O  O12  1  0.25532415  0.75000000  0.48928094  1.0
  O  O13  1  0.75532415  0.75000000  0.01071906  1.0
  O  O14  1  0.74467585  0.25000000  0.51071906  1.0
  O  O15  1  0.24467585  0.25000000  0.98928094  1.0
  O  O16  1  0.09359656  0.75000000  0.11164335  1.0
  O  O17  1  0.59359656  0.75000000  0.38835665  1.0
  O  O18  1  0.90640344  0.25000000  0.88835665  1.0
  O  O19  1  0.40640344  0.25000000  0.61164335  1.0
  O  O20  1  0.43612691  0.75000000  0.97049979  1.0
  O  O21  1  0.93612691  0.75000000  0.52950021  1.0
  O  O22  1  0.56387309  0.25000000  0.02950021  1.0
  O  O23  1  0.06387309  0.25000000  0.47049979  1.0
  Cu  Cu24  1  0.50000000  0.00000000  0.50000000  1.0
  Cu  Cu25  1  0.50000000  0.50000000  0.50000000  1.0
  Cu  Cu26  1  0.00000000  0.00000000  -0.00000000  1.0
  Cu  Cu27  1  -0.00000000  0.50000000  0.00000000  1.0
  P  P28  1  0.10615714  0.75000000  0.62612818  1.0
  P  P29  1  0.60615714  0.75000000  0.87387182  1.0
  P  P30  1  0.89384286  0.25000000  0.37387182  1.0
  P  P31  1  0.39384286  0.25000000  0.12612818  1.0
