# generated using pymatgen
data_TiF3
_symmetry_space_group_name_H-M   'P 1'
_cell_length_a   5.57910583
_cell_length_b   5.57910583
_cell_length_c   5.57910583
_cell_angle_alpha   60.00135845
_cell_angle_beta   60.00135845
_cell_angle_gamma   60.00135844
_symmetry_Int_Tables_number   1
_chemical_formula_structural   TiF3
_chemical_formula_sum   'Ti2 F6'
_cell_volume   122.79824999
_cell_formula_units_Z   2
loop_
 _symmetry_equiv_pos_site_id
 _symmetry_equiv_pos_as_xyz
  1  'x, y, z'
loop_
 _atom_site_type_symbol
 _atom_site_label
 _atom_site_symmetry_multiplicity
 _atom_site_fract_x
 _atom_site_fract_y
 _atom_site_fract_z
 _atom_site_occupancy
  Ti  Ti0  1  1.00000000  -0.00000000  -0.00000000  1.0
  Ti  Ti1  1  0.50000000  0.50000000  0.50000000  1.0
  F  F2  1  1.24971297  -0.25000000  0.25028703  1.0
  F  F3  1  0.74971297  -0.24971297  0.25000000  1.0
  F  F4  1  0.25000000  0.74971297  -0.24971297  1.0
  F  F5  1  0.75000000  0.25028703  0.24971297  1.0
  F  F6  1  0.75028703  0.25000000  -0.25028703  1.0
  F  F7  1  1.25028703  0.24971297  -0.25000000  1.0
