# generated using pymatgen
data_ZnMoO4
_symmetry_space_group_name_H-M   'P 1'
_cell_length_a   9.87151876
_cell_length_b   8.46849838
_cell_length_c   7.04700421
_cell_angle_alpha   101.88656264
_cell_angle_beta   106.61087485
_cell_angle_gamma   97.50031889
_symmetry_Int_Tables_number   1
_chemical_formula_structural   ZnMoO4
_chemical_formula_sum   'Zn6 Mo6 O24'
_cell_volume   541.03151685
_cell_formula_units_Z   6
loop_
 _symmetry_equiv_pos_site_id
 _symmetry_equiv_pos_as_xyz
  1  'x, y, z'
loop_
 _atom_site_type_symbol
 _atom_site_label
 _atom_site_symmetry_multiplicity
 _atom_site_fract_x
 _atom_site_fract_y
 _atom_site_fract_z
 _atom_site_occupancy
  Zn  Zn0  1  -0.71361831  -0.88406278  -0.96861896  1.0
  Zn  Zn1  1  -0.28638169  -0.11593722  -0.03138104  1.0
  Zn  Zn2  1  -0.48342702  -0.70064122  -0.53345914  1.0
  Zn  Zn3  1  -0.51657298  -0.29935878  -0.46654086  1.0
  Zn  Zn4  1  -0.91058747  -0.69245090  -0.25192119  1.0
  Zn  Zn5  1  -0.08941253  -0.30754910  -0.74807881  1.0
  Mo  Mo6  1  -0.37366512  -0.70979593  -0.98018098  1.0
  Mo  Mo7  1  -0.62633488  -0.29020407  -0.01981902  1.0
  Mo  Mo8  1  -0.83940582  -0.60098713  -0.69953893  1.0
  Mo  Mo9  1  -0.16059418  -0.39901287  -0.30046107  1.0
  Mo  Mo10  1  -0.75558044  -0.98533883  -0.50354571  1.0
  Mo  Mo11  1  -0.24441956  -0.01466117  -0.49645429  1.0
  O  O12  1  -0.28433252  -0.87916496  -0.97729025  1.0
  O  O13  1  -0.71566748  -0.12083504  -0.02270975  1.0
  O  O14  1  -0.85588673  -0.73204800  -0.94907274  1.0
  O  O15  1  -0.14411327  -0.26795200  -0.05092726  1.0
  O  O16  1  -0.51308132  -0.73354386  -0.85873988  1.0
  O  O17  1  -0.48691868  -0.26645614  -0.14126012  1.0
  O  O18  1  -0.24732808  -0.52427243  -0.85449140  1.0
  O  O19  1  -0.75267192  -0.47572757  -0.14550860  1.0
  O  O20  1  -0.54054336  -0.28829396  -0.76345818  1.0
  O  O21  1  -0.45945664  -0.71170604  -0.23654182  1.0
  O  O22  1  -0.92860246  -0.44125605  -0.74696149  1.0
  O  O23  1  -0.07139754  -0.55874395  -0.25303851  1.0
  O  O24  1  -0.92539701  -0.09715940  -0.65960817  1.0
  O  O25  1  -0.07460299  -0.90284060  -0.34039183  1.0
  O  O26  1  -0.68047332  -0.85852024  -0.64649936  1.0
  O  O27  1  -0.31952668  -0.14147976  -0.35350064  1.0
  O  O28  1  -0.92002637  -0.70723914  -0.55633832  1.0
  O  O29  1  -0.07997363  -0.29276086  -0.44366168  1.0
  O  O30  1  -0.65172818  -0.51588004  -0.55520881  1.0
  O  O31  1  -0.34827182  -0.48411996  -0.44479119  1.0
  O  O32  1  -0.35460236  -0.87438355  -0.55499032  1.0
  O  O33  1  -0.64539764  -0.12561645  -0.44500968  1.0
  O  O34  1  -0.76642953  -0.86557902  -0.26549955  1.0
  O  O35  1  -0.23357047  -0.13442098  -0.73450045  1.0
