# generated using pymatgen
data_Ga5Pd
_symmetry_space_group_name_H-M   'P 1'
_cell_length_a   6.82823987
_cell_length_b   6.82823987
_cell_length_c   6.82823987
_cell_angle_alpha   122.98239997
_cell_angle_beta   122.98239997
_cell_angle_gamma   84.90756553
_symmetry_Int_Tables_number   1
_chemical_formula_structural   Ga5Pd
_chemical_formula_sum   'Ga10 Pd2'
_cell_volume   214.04712255
_cell_formula_units_Z   2
loop_
 _symmetry_equiv_pos_site_id
 _symmetry_equiv_pos_as_xyz
  1  'x, y, z'
loop_
 _atom_site_type_symbol
 _atom_site_label
 _atom_site_symmetry_multiplicity
 _atom_site_fract_x
 _atom_site_fract_y
 _atom_site_fract_z
 _atom_site_occupancy
  Ga  Ga0  1  0.00000000  0.00000000  0.00000000  1.0
  Ga  Ga1  1  0.50000000  0.50000000  1.00000000  1.0
  Ga  Ga2  1  1.21428258  0.71428258  1.20829450  1.0
  Ga  Ga3  1  0.49401192  0.99401192  1.20829450  1.0
  Ga  Ga4  1  1.00598808  1.21428258  1.50000000  1.0
  Ga  Ga5  1  0.28571742  0.49401192  0.50000000  1.0
  Ga  Ga6  1  0.71428258  0.50598808  0.50000000  1.0
  Ga  Ga7  1  0.99401192  0.78571742  1.50000000  1.0
  Ga  Ga8  1  0.50598808  1.00598808  0.79170550  1.0
  Ga  Ga9  1  0.78571742  0.28571742  0.79170550  1.0
  Pd  Pd10  1  0.75000000  0.75000000  1.00000000  1.0
  Pd  Pd11  1  0.25000000  0.25000000  0.00000000  1.0
