# generated using pymatgen
data_Zr14As9
_symmetry_space_group_name_H-M   'P 1'
_cell_length_a   17.19085876
_cell_length_b   28.44340869
_cell_length_c   3.79456494
_cell_angle_alpha   90.00000000
_cell_angle_beta   90.00000000
_cell_angle_gamma   90.00000000
_symmetry_Int_Tables_number   1
_chemical_formula_structural   Zr14As9
_chemical_formula_sum   'Zr56 As36'
_cell_volume   1855.41559876
_cell_formula_units_Z   4
loop_
 _symmetry_equiv_pos_site_id
 _symmetry_equiv_pos_as_xyz
  1  'x, y, z'
loop_
 _atom_site_type_symbol
 _atom_site_label
 _atom_site_symmetry_multiplicity
 _atom_site_fract_x
 _atom_site_fract_y
 _atom_site_fract_z
 _atom_site_occupancy
  Zr  Zr0  1  0.40085803  0.39444986  0.50000000  1.0
  Zr  Zr1  1  0.90085803  0.10555014  0.00000000  1.0
  Zr  Zr2  1  0.59914197  0.60555014  0.50000000  1.0
  Zr  Zr3  1  0.09914197  0.89444986  0.00000000  1.0
  Zr  Zr4  1  0.45133697  0.92085444  0.50000000  1.0
  Zr  Zr5  1  0.95133697  0.57914556  0.00000000  1.0
  Zr  Zr6  1  0.54866303  0.07914556  0.50000000  1.0
  Zr  Zr7  1  0.04866303  0.42085444  0.00000000  1.0
  Zr  Zr8  1  0.38338861  0.74419254  0.50000000  1.0
  Zr  Zr9  1  0.88338861  0.75580746  0.00000000  1.0
  Zr  Zr10  1  0.61661139  0.25580746  0.50000000  1.0
  Zr  Zr11  1  0.11661139  0.24419254  0.00000000  1.0
  Zr  Zr12  1  0.36468059  0.02957975  0.50000000  1.0
  Zr  Zr13  1  0.86468059  0.47042025  0.00000000  1.0
  Zr  Zr14  1  0.63531941  0.97042025  0.50000000  1.0
  Zr  Zr15  1  0.13531941  0.52957975  0.00000000  1.0
  Zr  Zr16  1  0.36097565  0.14681984  0.50000000  1.0
  Zr  Zr17  1  0.86097565  0.35318016  0.00000000  1.0
  Zr  Zr18  1  0.63902435  0.85318016  0.50000000  1.0
  Zr  Zr19  1  0.13902435  0.64681984  0.00000000  1.0
  Zr  Zr20  1  0.30138518  0.50793383  0.50000000  1.0
  Zr  Zr21  1  0.80138518  0.99206617  0.00000000  1.0
  Zr  Zr22  1  0.69861482  0.49206617  0.50000000  1.0
  Zr  Zr23  1  0.19861482  0.00793383  0.00000000  1.0
  Zr  Zr24  1  0.29705214  0.64132644  0.50000000  1.0
  Zr  Zr25  1  0.79705214  0.85867356  0.00000000  1.0
  Zr  Zr26  1  0.70294786  0.35867356  0.50000000  1.0
  Zr  Zr27  1  0.20294786  0.14132644  0.00000000  1.0
  Zr  Zr28  1  0.25293679  0.91567571  0.50000000  1.0
  Zr  Zr29  1  0.75293679  0.58432429  0.00000000  1.0
  Zr  Zr30  1  0.74706321  0.08432429  0.50000000  1.0
  Zr  Zr31  1  0.24706321  0.41567571  0.00000000  1.0
  Zr  Zr32  1  0.16796603  0.73639497  0.50000000  1.0
  Zr  Zr33  1  0.66796603  0.76360503  0.00000000  1.0
  Zr  Zr34  1  0.83203397  0.26360503  0.50000000  1.0
  Zr  Zr35  1  0.33203397  0.23639497  0.00000000  1.0
  Zr  Zr36  1  0.01352689  0.80241771  0.50000000  1.0
  Zr  Zr37  1  0.51352689  0.69758229  0.00000000  1.0
  Zr  Zr38  1  0.98647311  0.19758229  0.50000000  1.0
  Zr  Zr39  1  0.48647311  0.30241771  0.00000000  1.0
  Zr  Zr40  1  0.98199159  0.67645705  0.50000000  1.0
  Zr  Zr41  1  0.48199159  0.82354295  0.00000000  1.0
  Zr  Zr42  1  0.01800841  0.32354295  0.50000000  1.0
  Zr  Zr43  1  0.51800841  0.17645705  0.00000000  1.0
  Zr  Zr44  1  0.93327247  0.92547409  0.50000000  1.0
  Zr  Zr45  1  0.43327247  0.57452591  0.00000000  1.0
  Zr  Zr46  1  0.06672753  0.07452591  0.50000000  1.0
  Zr  Zr47  1  0.56672753  0.42547409  0.00000000  1.0
  Zr  Zr48  1  0.76876298  0.68926758  0.50000000  1.0
  Zr  Zr49  1  0.26876298  0.81073242  0.00000000  1.0
  Zr  Zr50  1  0.23123702  0.31073242  0.50000000  1.0
  Zr  Zr51  1  0.73123702  0.18926758  0.00000000  1.0
  Zr  Zr52  1  0.50000000  0.00000000  0.00000000  1.0
  Zr  Zr53  1  0.00000000  0.50000000  0.50000000  1.0
  Zr  Zr54  1  0.50000000  0.50000000  0.50000000  1.0
  Zr  Zr55  1  0.00000000  0.00000000  0.00000000  1.0
  As  As56  1  0.45120966  0.23287644  0.50000000  1.0
  As  As57  1  0.95120966  0.26712356  0.00000000  1.0
  As  As58  1  0.54879034  0.76712356  0.50000000  1.0
  As  As59  1  0.04879034  0.73287644  0.00000000  1.0
  As  As60  1  0.45053350  0.64345224  0.50000000  1.0
  As  As61  1  0.95053350  0.85654776  0.00000000  1.0
  As  As62  1  0.54946650  0.35654776  0.50000000  1.0
  As  As63  1  0.04946650  0.14345224  0.00000000  1.0
  As  As64  1  0.36775458  0.84283074  0.50000000  1.0
  As  As65  1  0.86775458  0.65716926  0.00000000  1.0
  As  As66  1  0.63224542  0.15716926  0.50000000  1.0
  As  As67  1  0.13224542  0.34283074  0.00000000  1.0
  As  As68  1  0.23071637  0.07642544  0.50000000  1.0
  As  As69  1  0.73071637  0.42357456  0.00000000  1.0
  As  As70  1  0.76928363  0.92357456  0.50000000  1.0
  As  As71  1  0.26928363  0.57642544  0.00000000  1.0
  As  As72  1  0.22375098  0.21266956  0.50000000  1.0
  As  As73  1  0.72375098  0.28733044  0.00000000  1.0
  As  As74  1  0.77624902  0.78733044  0.50000000  1.0
  As  As75  1  0.27624902  0.71266956  0.00000000  1.0
  As  As76  1  0.15924092  0.83351475  0.50000000  1.0
  As  As77  1  0.65924092  0.66648525  0.00000000  1.0
  As  As78  1  0.84075908  0.16648525  0.50000000  1.0
  As  As79  1  0.34075908  0.33351475  0.00000000  1.0
  As  As80  1  0.10271634  0.96572842  0.50000000  1.0
  As  As81  1  0.60271634  0.53427158  0.00000000  1.0
  As  As82  1  0.89728366  0.03427158  0.50000000  1.0
  As  As83  1  0.39728366  0.46572842  0.00000000  1.0
  As  As84  1  0.06595519  0.59149831  0.50000000  1.0
  As  As85  1  0.56595519  0.90850169  0.00000000  1.0
  As  As86  1  0.93404481  0.40850169  0.50000000  1.0
  As  As87  1  0.43404481  0.09149831  0.00000000  1.0
  As  As88  1  0.84461437  0.53956717  0.50000000  1.0
  As  As89  1  0.34461437  0.96043283  0.00000000  1.0
  As  As90  1  0.15538563  0.46043283  0.50000000  1.0
  As  As91  1  0.65538563  0.03956717  0.00000000  1.0
