# generated using pymatgen
data_Cs3GaSe3
_symmetry_space_group_name_H-M   'P 1'
_cell_length_a   8.77930009
_cell_length_b   14.06608341
_cell_length_c   11.69673343
_cell_angle_alpha   90.00000000
_cell_angle_beta   128.15910690
_cell_angle_gamma   90.00000000
_symmetry_Int_Tables_number   1
_chemical_formula_structural   Cs3GaSe3
_chemical_formula_sum   'Cs12 Ga4 Se12'
_cell_volume   1135.75558370
_cell_formula_units_Z   4
loop_
 _symmetry_equiv_pos_site_id
 _symmetry_equiv_pos_as_xyz
  1  'x, y, z'
loop_
 _atom_site_type_symbol
 _atom_site_label
 _atom_site_symmetry_multiplicity
 _atom_site_fract_x
 _atom_site_fract_y
 _atom_site_fract_z
 _atom_site_occupancy
  Cs  Cs0  1  0.87026661  0.70536564  0.10906116  1.0
  Cs  Cs1  1  0.87026661  0.79463436  0.60906116  1.0
  Cs  Cs2  1  0.12973339  0.20536564  0.39093884  1.0
  Cs  Cs3  1  0.12973339  0.29463436  0.89093884  1.0
  Cs  Cs4  1  0.65441392  0.06815524  0.39269467  1.0
  Cs  Cs5  1  0.65441392  0.43184476  0.89269467  1.0
  Cs  Cs6  1  0.34558608  0.56815524  0.10730533  1.0
  Cs  Cs7  1  0.34558608  0.93184476  0.60730533  1.0
  Cs  Cs8  1  0.61829103  0.36730837  0.47027572  1.0
  Cs  Cs9  1  0.61829103  0.13269163  0.97027572  1.0
  Cs  Cs10  1  0.38170897  0.86730837  0.02972428  1.0
  Cs  Cs11  1  0.38170897  0.63269163  0.52972428  1.0
  Ga  Ga12  1  0.93061626  0.44830690  0.33965769  1.0
  Ga  Ga13  1  0.93061626  0.05169310  0.83965769  1.0
  Ga  Ga14  1  0.06938374  0.94830690  0.16034231  1.0
  Ga  Ga15  1  0.06938374  0.55169310  0.66034231  1.0
  Se  Se16  1  0.88540275  0.95986247  0.25037287  1.0
  Se  Se17  1  0.88540275  0.54013753  0.75037287  1.0
  Se  Se18  1  0.11459725  0.45986247  0.24962713  1.0
  Se  Se19  1  0.11459725  0.04013753  0.74962713  1.0
  Se  Se20  1  0.85937461  0.89462615  0.89631926  1.0
  Se  Se21  1  0.85937461  0.60537385  0.39631926  1.0
  Se  Se22  1  0.14062539  0.39462615  0.60368074  1.0
  Se  Se23  1  0.14062539  0.10537385  0.10368074  1.0
  Se  Se24  1  0.65324983  0.34334824  0.18691865  1.0
  Se  Se25  1  0.65324983  0.15665176  0.68691865  1.0
  Se  Se26  1  0.34675017  0.84334824  0.31308135  1.0
  Se  Se27  1  0.34675017  0.65665176  0.81308135  1.0
