# generated using pymatgen
data_Y3Sb5O12
_symmetry_space_group_name_H-M   'P 1'
_cell_length_a   9.44154453
_cell_length_b   9.44154453
_cell_length_c   9.44154453
_cell_angle_alpha   109.47122063
_cell_angle_beta   109.47122063
_cell_angle_gamma   109.47122063
_symmetry_Int_Tables_number   1
_chemical_formula_structural   Y3Sb5O12
_chemical_formula_sum   'Y6 Sb10 O24'
_cell_volume   647.89890623
_cell_formula_units_Z   2
loop_
 _symmetry_equiv_pos_site_id
 _symmetry_equiv_pos_as_xyz
  1  'x, y, z'
loop_
 _atom_site_type_symbol
 _atom_site_label
 _atom_site_symmetry_multiplicity
 _atom_site_fract_x
 _atom_site_fract_y
 _atom_site_fract_z
 _atom_site_occupancy
  Y  Y0  1  0.25000000  0.75000000  0.50000000  1.0
  Y  Y1  1  0.75000000  0.25000000  0.50000000  1.0
  Y  Y2  1  0.25000000  0.50000000  0.75000000  1.0
  Y  Y3  1  0.50000000  0.25000000  0.75000000  1.0
  Y  Y4  1  0.75000000  0.50000000  0.25000000  1.0
  Y  Y5  1  0.50000000  0.75000000  0.25000000  1.0
  Sb  Sb6  1  0.71604271  0.71604271  0.00000000  1.0
  Sb  Sb7  1  0.71604271  0.00000000  0.71604271  1.0
  Sb  Sb8  1  0.00000000  0.71604271  0.71604271  1.0
  Sb  Sb9  1  0.28395729  -0.00000000  0.28395729  1.0
  Sb  Sb10  1  0.00000000  0.28395729  0.28395729  1.0
  Sb  Sb11  1  0.28395729  0.28395729  0.00000000  1.0
  Sb  Sb12  1  0.51465507  0.51465507  0.51465507  1.0
  Sb  Sb13  1  1.00000000  1.00000000  0.48534493  1.0
  Sb  Sb14  1  1.00000000  0.48534493  1.00000000  1.0
  Sb  Sb15  1  0.48534493  1.00000000  1.00000000  1.0
  O  O16  1  0.79773030  0.50127916  0.50127916  1.0
  O  O17  1  0.50127916  0.79773030  0.50127916  1.0
  O  O18  1  1.00000000  1.29645114  0.49872084  1.0
  O  O19  1  1.29645114  1.00000000  0.49872084  1.0
  O  O20  1  0.50127916  0.50127916  0.79773030  1.0
  O  O21  1  0.70354886  0.70354886  0.20226970  1.0
  O  O22  1  1.00000000  0.49872084  1.29645114  1.0
  O  O23  1  0.70354886  0.20226970  0.70354886  1.0
  O  O24  1  0.20226970  0.70354886  0.70354886  1.0
  O  O25  1  0.49872084  1.00000000  1.29645114  1.0
  O  O26  1  1.29645114  0.49872084  1.00000000  1.0
  O  O27  1  0.49872084  1.29645114  1.00000000  1.0
  O  O28  1  0.27782352  0.47963968  0.47963968  1.0
  O  O29  1  0.47963968  0.27782352  0.47963968  1.0
  O  O30  1  1.00000000  0.79818384  1.52036032  1.0
  O  O31  1  0.79818384  1.00000000  1.52036032  1.0
  O  O32  1  0.47963968  0.47963968  0.27782352  1.0
  O  O33  1  1.20181616  1.20181616  0.72217648  1.0
  O  O34  1  1.00000000  1.52036032  0.79818384  1.0
  O  O35  1  1.20181616  0.72217648  1.20181616  1.0
  O  O36  1  0.72217648  1.20181616  1.20181616  1.0
  O  O37  1  1.52036032  1.00000000  0.79818384  1.0
  O  O38  1  0.79818384  1.52036032  1.00000000  1.0
  O  O39  1  1.52036032  0.79818384  1.00000000  1.0
