# generated using pymatgen
data_BaZrS3
_symmetry_space_group_name_H-M   'P 1'
_cell_length_a   7.16152329
_cell_length_b   10.04303520
_cell_length_c   7.03364085
_cell_angle_alpha   90.00000000
_cell_angle_beta   90.00000000
_cell_angle_gamma   90.00000000
_symmetry_Int_Tables_number   1
_chemical_formula_structural   BaZrS3
_chemical_formula_sum   'Ba4 Zr4 S12'
_cell_volume   505.88357830
_cell_formula_units_Z   4
loop_
 _symmetry_equiv_pos_site_id
 _symmetry_equiv_pos_as_xyz
  1  'x, y, z'
loop_
 _atom_site_type_symbol
 _atom_site_label
 _atom_site_symmetry_multiplicity
 _atom_site_fract_x
 _atom_site_fract_y
 _atom_site_fract_z
 _atom_site_occupancy
  Ba  Ba0  1  0.05000484  0.75000000  0.51154328  1.0
  Ba  Ba1  1  0.55000484  0.75000000  0.98845672  1.0
  Ba  Ba2  1  0.94999516  0.25000000  0.48845672  1.0
  Ba  Ba3  1  0.44999516  0.25000000  0.01154328  1.0
  Zr  Zr4  1  0.50000000  0.00000000  0.50000000  1.0
  Zr  Zr5  1  0.50000000  0.50000000  0.50000000  1.0
  Zr  Zr6  1  0.00000000  0.00000000  0.00000000  1.0
  Zr  Zr7  1  0.00000000  0.50000000  0.00000000  1.0
  S  S8  1  0.28936075  -0.03284726  0.78949541  1.0
  S  S9  1  0.28936075  0.53284726  0.78949541  1.0
  S  S10  1  0.78936075  -0.03284726  0.71050459  1.0
  S  S11  1  0.78936075  0.53284726  0.71050459  1.0
  S  S12  1  0.71063925  0.46715274  0.21050459  1.0
  S  S13  1  0.71063925  1.03284726  0.21050459  1.0
  S  S14  1  0.21063925  0.46715274  0.28949541  1.0
  S  S15  1  0.21063925  1.03284726  0.28949541  1.0
  S  S16  1  0.99381364  0.75000000  0.06234587  1.0
  S  S17  1  0.49381364  0.75000000  0.43765413  1.0
  S  S18  1  0.00618636  0.25000000  0.93765413  1.0
  S  S19  1  0.50618636  0.25000000  0.56234587  1.0
