# generated using pymatgen
data_ScSiPt2
_symmetry_space_group_name_H-M   'P 1'
_cell_length_a   5.27471255
_cell_length_b   5.27471255
_cell_length_c   7.01750225
_cell_angle_alpha   90.00000000
_cell_angle_beta   90.00000000
_cell_angle_gamma   138.72890014
_symmetry_Int_Tables_number   1
_chemical_formula_structural   ScSiPt2
_chemical_formula_sum   'Sc2 Si2 Pt4'
_cell_volume   128.78809280
_cell_formula_units_Z   2
loop_
 _symmetry_equiv_pos_site_id
 _symmetry_equiv_pos_as_xyz
  1  'x, y, z'
loop_
 _atom_site_type_symbol
 _atom_site_label
 _atom_site_symmetry_multiplicity
 _atom_site_fract_x
 _atom_site_fract_y
 _atom_site_fract_z
 _atom_site_occupancy
  Sc  Sc0  1  0.45049970  0.54950030  0.75000000  1.0
  Sc  Sc1  1  -0.45049970  0.45049970  0.25000000  1.0
  Si  Si2  1  -0.26802559  0.26802559  0.75000000  1.0
  Si  Si3  1  0.26802559  0.73197441  0.25000000  1.0
  Pt  Pt4  1  0.13864621  0.86135379  0.95179108  1.0
  Pt  Pt5  1  0.13864621  0.86135379  0.54820892  1.0
  Pt  Pt6  1  -0.13864621  0.13864621  0.45179108  1.0
  Pt  Pt7  1  -0.13864621  0.13864621  0.04820892  1.0
