# generated using pymatgen
data_Cs2CaF4
_symmetry_space_group_name_H-M   'P 1'
_cell_length_a   8.18972354
_cell_length_b   8.18972354
_cell_length_c   8.18972354
_cell_angle_alpha   147.69977328
_cell_angle_beta   147.69977328
_cell_angle_gamma   46.32875908
_symmetry_Int_Tables_number   1
_chemical_formula_structural   Cs2CaF4
_chemical_formula_sum   'Cs2 Ca1 F4'
_cell_volume   156.29179832
_cell_formula_units_Z   1
loop_
 _symmetry_equiv_pos_site_id
 _symmetry_equiv_pos_as_xyz
  1  'x, y, z'
loop_
 _atom_site_type_symbol
 _atom_site_label
 _atom_site_symmetry_multiplicity
 _atom_site_fract_x
 _atom_site_fract_y
 _atom_site_fract_z
 _atom_site_occupancy
  Cs  Cs0  1  0.64924202  0.64924202  1.00000000  1.0
  Cs  Cs1  1  0.35075798  0.35075798  -0.00000000  1.0
  Ca  Ca2  1  0.00000000  0.00000000  0.00000000  1.0
  F  F3  1  0.84876659  0.84876659  1.00000000  1.0
  F  F4  1  0.15123341  0.15123341  0.00000000  1.0
  F  F5  1  0.50000000  0.00000000  0.50000000  1.0
  F  F6  1  0.00000000  0.50000000  0.50000000  1.0
