# generated using pymatgen
data_CaMg2Ni9
_symmetry_space_group_name_H-M   'P 1'
_cell_length_a   8.35293540
_cell_length_b   8.35293540
_cell_length_c   8.35293540
_cell_angle_alpha   33.88672134
_cell_angle_beta   33.88672134
_cell_angle_gamma   33.88672134
_symmetry_Int_Tables_number   1
_chemical_formula_structural   CaMg2Ni9
_chemical_formula_sum   'Ca1 Mg2 Ni9'
_cell_volume   161.46132637
_cell_formula_units_Z   1
loop_
 _symmetry_equiv_pos_site_id
 _symmetry_equiv_pos_as_xyz
  1  'x, y, z'
loop_
 _atom_site_type_symbol
 _atom_site_label
 _atom_site_symmetry_multiplicity
 _atom_site_fract_x
 _atom_site_fract_y
 _atom_site_fract_z
 _atom_site_occupancy
  Ni  Ni0  1  1.50000000  0.50000000  0.50000000  1.0
  Ni  Ni1  1  0.66655485  0.66655485  0.66655485  1.0
  Ni  Ni2  1  1.33344515  1.33344515  0.33344515  1.0
  Ni  Ni3  1  1.41436343  1.41436343  -0.08211675  1.0
  Ni  Ni4  1  1.41436343  0.91788325  0.41436343  1.0
  Ni  Ni5  1  1.08211675  0.58563657  0.58563657  1.0
  Ni  Ni6  1  1.58563657  0.08211675  0.58563657  1.0
  Ni  Ni7  1  1.58563657  0.58563657  0.08211675  1.0
  Ni  Ni8  1  0.91788325  1.41436343  0.41436343  1.0
  Ca  Ca9  1  -0.00000000  0.00000000  -0.00000000  1.0
  Mg  Mg10  1  0.85677909  0.85677909  0.85677909  1.0
  Mg  Mg11  1  1.14322091  1.14322091  0.14322091  1.0
