# generated using pymatgen
data_Na5SiP3
_symmetry_space_group_name_H-M   'P 1'
_cell_length_a   7.96349794
_cell_length_b   7.35763444
_cell_length_c   15.29792956
_cell_angle_alpha   90.00000000
_cell_angle_beta   120.60836853
_cell_angle_gamma   90.00000000
_symmetry_Int_Tables_number   1
_chemical_formula_structural   Na5SiP3
_chemical_formula_sum   'Na20 Si4 P12'
_cell_volume   771.45433540
_cell_formula_units_Z   4
loop_
 _symmetry_equiv_pos_site_id
 _symmetry_equiv_pos_as_xyz
  1  'x, y, z'
loop_
 _atom_site_type_symbol
 _atom_site_label
 _atom_site_symmetry_multiplicity
 _atom_site_fract_x
 _atom_site_fract_y
 _atom_site_fract_z
 _atom_site_occupancy
  Na  Na0  1  0.94255700  0.00916966  0.25678301  1.0
  Na  Na1  1  0.94255700  0.49083034  0.75678301  1.0
  Na  Na2  1  0.05744300  0.50916966  0.24321699  1.0
  Na  Na3  1  0.05744300  0.99083034  0.74321699  1.0
  Na  Na4  1  0.75674886  0.97106496  0.41830030  1.0
  Na  Na5  1  0.75674886  0.52893504  0.91830030  1.0
  Na  Na6  1  0.24325114  0.47106496  0.08169970  1.0
  Na  Na7  1  0.24325114  0.02893504  0.58169970  1.0
  Na  Na8  1  0.65919913  0.33751777  0.08189737  1.0
  Na  Na9  1  0.65919913  0.16248223  0.58189737  1.0
  Na  Na10  1  0.34080087  0.83751777  0.41810263  1.0
  Na  Na11  1  0.34080087  0.66248223  0.91810263  1.0
  Na  Na12  1  0.58621500  0.48229489  0.41307441  1.0
  Na  Na13  1  0.58621500  0.01770511  0.91307441  1.0
  Na  Na14  1  0.41378500  0.98229489  0.08692559  1.0
  Na  Na15  1  0.41378500  0.51770511  0.58692559  1.0
  Na  Na16  1  0.33683126  0.15434029  0.25845473  1.0
  Na  Na17  1  0.33683126  0.34565971  0.75845473  1.0
  Na  Na18  1  0.66316874  0.65434029  0.24154527  1.0
  Na  Na19  1  0.66316874  0.84565971  0.74154527  1.0
  Si  Si20  1  0.98877267  0.36207017  0.41710180  1.0
  Si  Si21  1  0.98877267  0.13792983  0.91710180  1.0
  Si  Si22  1  0.01122733  0.86207017  0.08289820  1.0
  Si  Si23  1  0.01122733  0.63792983  0.58289820  1.0
  P  P24  1  0.98005267  0.17949375  0.06528463  1.0
  P  P25  1  0.98005267  0.32050625  0.56528463  1.0
  P  P26  1  0.01994733  0.67949375  0.43471537  1.0
  P  P27  1  0.01994733  0.82050625  0.93471537  1.0
  P  P28  1  0.70284993  0.27113839  0.27998933  1.0
  P  P29  1  0.70284993  0.22886161  0.77998933  1.0
  P  P30  1  0.29715007  0.77113839  0.22001067  1.0
  P  P31  1  0.29715007  0.72886161  0.72001067  1.0
  P  P32  1  0.25806768  0.24207030  0.42084286  1.0
  P  P33  1  0.25806768  0.25792970  0.92084286  1.0
  P  P34  1  0.74193232  0.74207030  0.07915714  1.0
  P  P35  1  0.74193232  0.75792970  0.57915714  1.0
