# generated using pymatgen
data_P4N6O
_symmetry_space_group_name_H-M   'P 1'
_cell_length_a   6.16298370
_cell_length_b   6.92800593
_cell_length_c   6.89724434
_cell_angle_alpha   90.00000000
_cell_angle_beta   90.00000000
_cell_angle_gamma   90.00000000
_symmetry_Int_Tables_number   1
_chemical_formula_structural   P4N6O
_chemical_formula_sum   'P8 N12 O2'
_cell_volume   294.49293562
_cell_formula_units_Z   2
loop_
 _symmetry_equiv_pos_site_id
 _symmetry_equiv_pos_as_xyz
  1  'x, y, z'
loop_
 _atom_site_type_symbol
 _atom_site_label
 _atom_site_symmetry_multiplicity
 _atom_site_fract_x
 _atom_site_fract_y
 _atom_site_fract_z
 _atom_site_occupancy
  P  P0  1  0.50000000  0.00000000  0.31386396  1.0
  P  P1  1  0.50000000  0.00000000  0.68613604  1.0
  P  P2  1  0.00000000  0.50000000  0.81386396  1.0
  P  P3  1  0.00000000  0.50000000  0.18613604  1.0
  P  P4  1  0.29366865  0.64031174  0.50000000  1.0
  P  P5  1  0.79366865  0.85968826  0.00000000  1.0
  P  P6  1  0.70633135  0.35968826  0.50000000  1.0
  P  P7  1  0.20633135  0.14031174  0.00000000  1.0
  N  N8  1  0.17500209  0.62159739  0.29844549  1.0
  N  N9  1  0.17500209  0.62159739  0.70155451  1.0
  N  N10  1  0.67500209  0.87840261  0.79844549  1.0
  N  N11  1  0.67500209  0.87840261  0.20155451  1.0
  N  N12  1  0.82499791  0.37840261  0.29844549  1.0
  N  N13  1  0.82499791  0.37840261  0.70155451  1.0
  N  N14  1  0.32499791  0.12159739  0.79844549  1.0
  N  N15  1  0.32499791  0.12159739  0.20155451  1.0
  N  N16  1  0.39746901  0.86333835  0.50000000  1.0
  N  N17  1  0.89746901  0.63666165  0.00000000  1.0
  N  N18  1  0.60253099  0.13666165  0.50000000  1.0
  N  N19  1  0.10253099  0.36333835  0.00000000  1.0
  O  O20  1  0.50000000  0.50000000  0.50000000  1.0
  O  O21  1  0.00000000  0.00000000  0.00000000  1.0
