# generated using pymatgen
data_AgCNO
_symmetry_space_group_name_H-M   'P 1'
_cell_length_a   5.87219645
_cell_length_b   5.87219645
_cell_length_c   5.82468145
_cell_angle_alpha   90.00000000
_cell_angle_beta   90.00000000
_cell_angle_gamma   130.84724260
_symmetry_Int_Tables_number   1
_chemical_formula_structural   AgCNO
_chemical_formula_sum   'Ag2 C2 N2 O2'
_cell_volume   151.93471652
_cell_formula_units_Z   2
loop_
 _symmetry_equiv_pos_site_id
 _symmetry_equiv_pos_as_xyz
  1  'x, y, z'
loop_
 _atom_site_type_symbol
 _atom_site_label
 _atom_site_symmetry_multiplicity
 _atom_site_fract_x
 _atom_site_fract_y
 _atom_site_fract_z
 _atom_site_occupancy
  Ag  Ag0  1  0.00000000  0.00000000  0.00000000  1.0
  Ag  Ag1  1  0.00000000  0.00000000  0.50000000  1.0
  C  C2  1  0.14441825  0.85558175  0.75000000  1.0
  C  C3  1  -0.14441825  0.14441825  0.25000000  1.0
  N  N4  1  0.25584028  0.74415972  0.75000000  1.0
  N  N5  1  -0.25584028  0.25584028  0.25000000  1.0
  O  O6  1  0.37002197  0.62997803  0.75000000  1.0
  O  O7  1  -0.37002197  0.37002197  0.25000000  1.0
