# generated using pymatgen
data_La2O3
_symmetry_space_group_name_H-M   'P 1'
_cell_length_a   9.89002866
_cell_length_b   9.89002866
_cell_length_c   9.89002866
_cell_angle_alpha   109.47122063
_cell_angle_beta   109.47122063
_cell_angle_gamma   109.47122063
_symmetry_Int_Tables_number   1
_chemical_formula_structural   La2O3
_chemical_formula_sum   'La16 O24'
_cell_volume   744.68183456
_cell_formula_units_Z   8
loop_
 _symmetry_equiv_pos_site_id
 _symmetry_equiv_pos_as_xyz
  1  'x, y, z'
loop_
 _atom_site_type_symbol
 _atom_site_label
 _atom_site_symmetry_multiplicity
 _atom_site_fract_x
 _atom_site_fract_y
 _atom_site_fract_z
 _atom_site_occupancy
  La  La0  1  1.72105522  1.47105522  1.25000000  1.0
  La  La1  1  1.22105522  0.97105522  1.25000000  1.0
  La  La2  1  0.75000000  0.77894478  0.02894478  1.0
  La  La3  1  0.25000000  1.22105522  0.97105522  1.0
  La  La4  1  0.25000000  0.72105522  0.47105522  1.0
  La  La5  1  0.75000000  1.27894478  0.52894478  1.0
  La  La6  1  1.47105522  1.25000000  1.72105522  1.0
  La  La7  1  0.97105522  0.25000000  1.22105522  1.0
  La  La8  1  0.02894478  0.75000000  0.77894478  1.0
  La  La9  1  0.52894478  0.75000000  0.27894478  1.0
  La  La10  1  0.27894478  0.52894478  0.75000000  1.0
  La  La11  1  0.77894478  1.02894478  0.75000000  1.0
  La  La12  1  1.00000000  0.50000000  1.00000000  1.0
  La  La13  1  0.50000000  0.50000000  0.50000000  1.0
  La  La14  1  1.00000000  1.00000000  1.50000000  1.0
  La  La15  1  1.50000000  1.00000000  1.00000000  1.0
  O  O16  1  0.53749437  0.52670850  0.76805713  1.0
  O  O17  1  1.03749437  0.26943724  1.01078587  1.0
  O  O18  1  0.25865138  0.76943724  0.73194287  1.0
  O  O19  1  0.75865138  1.02670850  0.48921413  1.0
  O  O20  1  0.51078587  1.24134862  0.97329150  1.0
  O  O21  1  1.01078587  1.03749437  0.26943724  1.0
  O  O22  1  0.76805713  0.53749437  0.52670850  1.0
  O  O23  1  1.26805713  0.74134862  1.23056276  1.0
  O  O24  1  0.76943724  0.73194287  0.25865138  1.0
  O  O25  1  1.26943724  1.01078587  1.03749437  1.0
  O  O26  1  0.97329150  0.51078587  1.24134862  1.0
  O  O27  1  1.47329150  1.23194287  1.46250563  1.0
  O  O28  1  1.74134862  1.23056276  1.26805713  1.0
  O  O29  1  1.24134862  0.97329150  1.51078587  1.0
  O  O30  1  1.46250563  1.47329150  1.23194287  1.0
  O  O31  1  0.96250563  1.73056276  0.98921413  1.0
  O  O32  1  1.23194287  1.46250563  1.47329150  1.0
  O  O33  1  0.73194287  1.25865138  0.76943724  1.0
  O  O34  1  1.48921413  0.75865138  1.02670850  1.0
  O  O35  1  0.98921413  0.96250563  1.73056276  1.0
  O  O36  1  1.02670850  1.48921413  0.75865138  1.0
  O  O37  1  0.52670850  0.76805713  0.53749437  1.0
  O  O38  1  1.23056276  1.26805713  1.74134862  1.0
  O  O39  1  0.73056276  0.98921413  0.96250563  1.0
