# generated using pymatgen
data_CuPb2(ClO2)2
_symmetry_space_group_name_H-M   'P 1'
_cell_length_a   5.59301579
_cell_length_b   5.59301579
_cell_length_c   5.83834195
_cell_angle_alpha   90.00000000
_cell_angle_beta   90.00000000
_cell_angle_gamma   90.00000000
_symmetry_Int_Tables_number   1
_chemical_formula_structural   CuPb2(ClO2)2
_chemical_formula_sum   'Cu1 Pb2 Cl2 O4'
_cell_volume   182.63399513
_cell_formula_units_Z   1
loop_
 _symmetry_equiv_pos_site_id
 _symmetry_equiv_pos_as_xyz
  1  'x, y, z'
loop_
 _atom_site_type_symbol
 _atom_site_label
 _atom_site_symmetry_multiplicity
 _atom_site_fract_x
 _atom_site_fract_y
 _atom_site_fract_z
 _atom_site_occupancy
  Pb  Pb0  1  0.50000000  0.00000000  0.26469722  1.0
  Pb  Pb1  1  0.00000000  0.50000000  0.26469722  1.0
  O  O2  1  0.76990354  0.76990354  0.07643239  1.0
  O  O3  1  0.76990354  0.23009646  0.07643239  1.0
  O  O4  1  0.23009646  0.76990354  0.07643239  1.0
  O  O5  1  0.23009646  0.23009646  0.07643239  1.0
  Cu  Cu6  1  0.00000000  0.00000000  0.04113967  1.0
  Cl  Cl7  1  0.00000000  0.00000000  0.56904483  1.0
  Cl  Cl8  1  0.50000000  0.50000000  0.51049153  1.0
