# generated using pymatgen
data_SO3
_symmetry_space_group_name_H-M   'P 1'
_cell_length_a   11.77494059
_cell_length_b   12.95862212
_cell_length_c   5.69833147
_cell_angle_alpha   90.00000000
_cell_angle_beta   90.00000000
_cell_angle_gamma   90.00000000
_symmetry_Int_Tables_number   1
_chemical_formula_structural   SO3
_chemical_formula_sum   'S12 O36'
_cell_volume   869.49133697
_cell_formula_units_Z   12
loop_
 _symmetry_equiv_pos_site_id
 _symmetry_equiv_pos_as_xyz
  1  'x, y, z'
loop_
 _atom_site_type_symbol
 _atom_site_label
 _atom_site_symmetry_multiplicity
 _atom_site_fract_x
 _atom_site_fract_y
 _atom_site_fract_z
 _atom_site_occupancy
  S  S0  1  0.35852471  0.57320154  0.70308480  1.0
  S  S1  1  0.85852471  0.92679846  0.70308480  1.0
  S  S2  1  0.64147529  0.42679846  0.20308480  1.0
  S  S3  1  0.14147529  0.07320154  0.20308480  1.0
  S  S4  1  0.30978894  0.92702217  0.03595891  1.0
  S  S5  1  0.80978894  0.57297783  0.03595891  1.0
  S  S6  1  0.69021106  0.07297783  0.53595891  1.0
  S  S7  1  0.19021106  0.42702217  0.53595891  1.0
  S  S8  1  0.14697200  0.64672800  0.50374376  1.0
  S  S9  1  0.64697200  0.85327200  0.50374376  1.0
  S  S10  1  0.85302800  0.35327200  0.00374376  1.0
  S  S11  1  0.35302800  0.14672800  0.00374376  1.0
  O  O12  1  0.47429925  0.58967405  0.64201093  1.0
  O  O13  1  0.97429925  0.91032595  0.64201093  1.0
  O  O14  1  0.52570075  0.41032595  0.14201093  1.0
  O  O15  1  0.02570075  0.08967405  0.14201093  1.0
  O  O16  1  0.37726890  0.21337440  0.81188005  1.0
  O  O17  1  0.87726890  0.28662560  0.81188005  1.0
  O  O18  1  0.62273110  0.78662560  0.31188005  1.0
  O  O19  1  0.12273110  0.71337440  0.31188005  1.0
  O  O20  1  0.36329083  0.91864630  0.25969502  1.0
  O  O21  1  0.86329083  0.58135370  0.25969502  1.0
  O  O22  1  0.63670917  0.08135371  0.75969502  1.0
  O  O23  1  0.13670917  0.41864629  0.75969502  1.0
  O  O24  1  0.35897378  0.02858675  0.89166535  1.0
  O  O25  1  0.85897378  0.47141325  0.89166535  1.0
  O  O26  1  0.64102622  0.97141325  0.39166535  1.0
  O  O27  1  0.14102622  0.52858675  0.39166535  1.0
  O  O28  1  0.31481650  0.57321077  0.93634748  1.0
  O  O29  1  0.81481650  0.92678923  0.93634748  1.0
  O  O30  1  0.68518350  0.42678923  0.43634748  1.0
  O  O31  1  0.18518350  0.07321077  0.43634748  1.0
  O  O32  1  0.30528034  0.84712218  0.86506998  1.0
  O  O33  1  0.80528034  0.65287782  0.86506998  1.0
  O  O34  1  0.69471966  0.15287782  0.36506998  1.0
  O  O35  1  0.19471966  0.34712218  0.36506998  1.0
  O  O36  1  0.28682997  0.65461868  0.53589830  1.0
  O  O37  1  0.78682997  0.84538132  0.53589830  1.0
  O  O38  1  0.71317003  0.34538132  0.03589830  1.0
  O  O39  1  0.21317003  0.15461868  0.03589830  1.0
  O  O40  1  0.17617406  0.96454792  0.06660031  1.0
  O  O41  1  0.67617406  0.53545208  0.06660031  1.0
  O  O42  1  0.82382594  0.03545208  0.56660031  1.0
  O  O43  1  0.32382594  0.46454792  0.56660031  1.0
  O  O44  1  0.09186711  0.64944687  0.72634510  1.0
  O  O45  1  0.59186711  0.85055313  0.72634510  1.0
  O  O46  1  0.90813289  0.35055313  0.22634510  1.0
  O  O47  1  0.40813289  0.14944687  0.22634510  1.0
