# generated using pymatgen
data_H4CSN2
_symmetry_space_group_name_H-M   'P 1'
_cell_length_a   4.54350371
_cell_length_b   7.09275118
_cell_length_c   13.52212314
_cell_angle_alpha   90.00000000
_cell_angle_beta   94.45432914
_cell_angle_gamma   90.00000000
_symmetry_Int_Tables_number   1
_chemical_formula_structural   H4CSN2
_chemical_formula_sum   'H16 C4 S4 N8'
_cell_volume   434.44694890
_cell_formula_units_Z   4
loop_
 _symmetry_equiv_pos_site_id
 _symmetry_equiv_pos_as_xyz
  1  'x, y, z'
loop_
 _atom_site_type_symbol
 _atom_site_label
 _atom_site_symmetry_multiplicity
 _atom_site_fract_x
 _atom_site_fract_y
 _atom_site_fract_z
 _atom_site_occupancy
  H  H0  1  0.64874252  0.46642257  0.90314075  1.0
  H  H1  1  0.64874252  0.03357743  0.40314075  1.0
  H  H2  1  0.35125748  0.96642257  0.59685925  1.0
  H  H3  1  0.35125748  0.53357743  0.09685925  1.0
  H  H4  1  0.62290850  0.87924775  0.67657694  1.0
  H  H5  1  0.62290850  0.62075225  0.17657694  1.0
  H  H6  1  0.37709150  0.37924775  0.82342306  1.0
  H  H7  1  0.37709150  0.12075225  0.32342306  1.0
  H  H8  1  0.59949108  0.81207400  0.55487002  1.0
  H  H9  1  0.59949108  0.68792600  0.05487002  1.0
  H  H10  1  0.40050892  0.31207400  0.94512998  1.0
  H  H11  1  0.40050892  0.18792600  0.44512998  1.0
  H  H12  1  0.34523105  0.73447526  0.63340466  1.0
  H  H13  1  0.34523105  0.76552474  0.13340466  1.0
  H  H14  1  0.65476895  0.23447526  0.86659534  1.0
  H  H15  1  0.65476895  0.26552474  0.36659534  1.0
  C  C16  1  0.85494703  0.82453480  0.88534006  1.0
  C  C17  1  0.85494703  0.67546520  0.38534006  1.0
  C  C18  1  0.14505297  0.32453480  0.61465994  1.0
  C  C19  1  0.14505297  0.17546520  0.11465994  1.0
  S  S20  1  1.05488219  0.48897150  0.69185367  1.0
  S  S21  1  1.05488219  0.01102850  0.19185367  1.0
  S  S22  1  -0.05488219  0.98897150  0.80814633  1.0
  S  S23  1  -0.05488219  0.51102850  0.30814633  1.0
  N  N24  1  0.79062592  0.70416399  0.94058887  1.0
  N  N25  1  0.79062592  0.79583601  0.44058887  1.0
  N  N26  1  0.20937408  0.20416399  0.55941113  1.0
  N  N27  1  0.20937408  0.29583601  0.05941113  1.0
  N  N28  1  0.47851583  0.84656176  0.61544596  1.0
  N  N29  1  0.47851583  0.65343824  0.11544596  1.0
  N  N30  1  0.52148417  0.34656176  0.88455404  1.0
  N  N31  1  0.52148417  0.15343824  0.38455404  1.0
