# generated using pymatgen
data_Rb3TaO8
_symmetry_space_group_name_H-M   'P 1'
_cell_length_a   6.55465416
_cell_length_b   6.55465416
_cell_length_c   6.55465416
_cell_angle_alpha   113.56488812
_cell_angle_beta   113.56488812
_cell_angle_gamma   101.56182538
_symmetry_Int_Tables_number   1
_chemical_formula_structural   Rb3TaO8
_chemical_formula_sum   'Rb3 Ta1 O8'
_cell_volume   213.74649538
_cell_formula_units_Z   1
loop_
 _symmetry_equiv_pos_site_id
 _symmetry_equiv_pos_as_xyz
  1  'x, y, z'
loop_
 _atom_site_type_symbol
 _atom_site_label
 _atom_site_symmetry_multiplicity
 _atom_site_fract_x
 _atom_site_fract_y
 _atom_site_fract_z
 _atom_site_occupancy
  Rb  Rb0  1  0.75000000  1.25000000  0.50000000  1.0
  Rb  Rb1  1  1.25000000  0.75000000  0.50000000  1.0
  Rb  Rb2  1  0.50000000  0.50000000  0.00000000  1.0
  Ta  Ta3  1  0.00000000  0.00000000  0.00000000  1.0
  O  O4  1  1.04442357  1.04442357  0.73051967  1.0
  O  O5  1  0.95557643  1.68609611  1.00000000  1.0
  O  O6  1  1.68609611  0.95557643  1.00000000  1.0
  O  O7  1  0.31390389  0.31390389  0.26948033  1.0
  O  O8  1  0.81399073  0.81399073  0.59208035  1.0
  O  O9  1  1.18600927  0.77808961  1.00000000  1.0
  O  O10  1  0.77808961  1.18600927  1.00000000  1.0
  O  O11  1  0.22191039  0.22191039  0.40791965  1.0
