# generated using pymatgen
data_Ti13Co4
_symmetry_space_group_name_H-M   'P 1'
_cell_length_a   10.21675659
_cell_length_b   10.21675659
_cell_length_c   10.21675659
_cell_angle_alpha   60.00000000
_cell_angle_beta   60.00000000
_cell_angle_gamma   60.00000000
_symmetry_Int_Tables_number   1
_chemical_formula_structural   Ti13Co4
_chemical_formula_sum   'Ti26 Co8'
_cell_volume   754.09166860
_cell_formula_units_Z   2
loop_
 _symmetry_equiv_pos_site_id
 _symmetry_equiv_pos_as_xyz
  1  'x, y, z'
loop_
 _atom_site_type_symbol
 _atom_site_label
 _atom_site_symmetry_multiplicity
 _atom_site_fract_x
 _atom_site_fract_y
 _atom_site_fract_z
 _atom_site_occupancy
  Ti  Ti0  1  0.94152859  -0.56586648  0.68280931  1.0
  Ti  Ti1  1  -0.05847141  0.68280931  0.43413352  1.0
  Ti  Ti2  1  -0.18413352  0.30847141  0.30847141  1.0
  Ti  Ti3  1  0.56719069  0.30847141  0.30847141  1.0
  Ti  Ti4  1  -0.56586648  0.94152859  0.68280931  1.0
  Ti  Ti5  1  0.94152859  -0.05847141  0.68280931  1.0
  Ti  Ti6  1  0.94152859  -0.31719069  0.94152859  1.0
  Ti  Ti7  1  -0.56586648  0.68280931  0.94152859  1.0
  Ti  Ti8  1  0.30847141  -0.18413352  0.30847141  1.0
  Ti  Ti9  1  0.30847141  0.30847141  -0.18413352  1.0
  Ti  Ti10  1  0.56719069  0.30847141  -0.18413352  1.0
  Ti  Ti11  1  0.56719069  -0.18413352  0.30847141  1.0
  Ti  Ti12  1  0.68280931  -0.05847141  0.94152859  1.0
  Ti  Ti13  1  -0.56586648  0.94152859  0.94152859  1.0
  Ti  Ti14  1  0.30847141  0.56719069  -0.18413352  1.0
  Ti  Ti15  1  0.30847141  -0.18413352  0.56719069  1.0
  Ti  Ti16  1  -0.31719069  0.94152859  0.43413352  1.0
  Ti  Ti17  1  0.68280931  -0.56586648  0.94152859  1.0
  Ti  Ti18  1  0.94152859  -0.56586648  0.94152859  1.0
  Ti  Ti19  1  -0.05847141  0.94152859  0.43413352  1.0
  Ti  Ti20  1  0.30847141  0.56719069  0.30847141  1.0
  Ti  Ti21  1  -0.18413352  0.56719069  0.30847141  1.0
  Ti  Ti22  1  -0.18413352  0.30847141  0.56719069  1.0
  Ti  Ti23  1  0.30847141  0.30847141  0.56719069  1.0
  Ti  Ti24  1  0.50000000  0.50000000  -0.50000000  1.0
  Ti  Ti25  1  0.75000000  -0.25000000  0.75000000  1.0
  Co  Co26  1  0.66408611  -0.33591389  1.00774168  1.0
  Co  Co27  1  0.66408611  0.00774168  0.66408611  1.0
  Co  Co28  1  0.58591389  -0.41408611  0.58591389  1.0
  Co  Co29  1  1.24225832  -0.41408611  0.58591389  1.0
  Co  Co30  1  1.00774168  -0.33591389  0.66408611  1.0
  Co  Co31  1  0.66408611  -0.33591389  0.66408611  1.0
  Co  Co32  1  0.58591389  0.24225832  0.58591389  1.0
  Co  Co33  1  0.58591389  -0.41408611  1.24225832  1.0
