# generated using pymatgen
data_SeO2
_symmetry_space_group_name_H-M   'P 1'
_cell_length_a   5.22463094
_cell_length_b   4.58765280
_cell_length_c   16.99947662
_cell_angle_alpha   90.00000000
_cell_angle_beta   90.00000000
_cell_angle_gamma   90.00000000
_symmetry_Int_Tables_number   1
_chemical_formula_structural   SeO2
_chemical_formula_sum   'Se8 O16'
_cell_volume   407.45693239
_cell_formula_units_Z   8
loop_
 _symmetry_equiv_pos_site_id
 _symmetry_equiv_pos_as_xyz
  1  'x, y, z'
loop_
 _atom_site_type_symbol
 _atom_site_label
 _atom_site_symmetry_multiplicity
 _atom_site_fract_x
 _atom_site_fract_y
 _atom_site_fract_z
 _atom_site_occupancy
  Se  Se0  1  0.50000000  0.76809300  0.69382742  1.0
  Se  Se1  1  0.50000000  0.23190700  0.19382742  1.0
  Se  Se2  1  0.50000000  0.57148995  0.44492736  1.0
  Se  Se3  1  0.50000000  0.42851005  0.94492736  1.0
  Se  Se4  1  0.00000000  1.07202612  0.01232399  1.0
  Se  Se5  1  0.00000000  -0.07202612  0.51232399  1.0
  Se  Se6  1  0.00000000  0.59226596  0.26003973  1.0
  Se  Se7  1  0.00000000  0.40773404  0.76003973  1.0
  O  O8  1  0.74949345  0.51253111  0.18737240  1.0
  O  O9  1  0.74949345  0.48746889  0.68737240  1.0
  O  O10  1  0.25050655  0.51253111  0.18737240  1.0
  O  O11  1  0.25050655  0.48746889  0.68737240  1.0
  O  O12  1  0.75073630  0.85101166  0.43875111  1.0
  O  O13  1  0.75073630  0.14898834  0.93875111  1.0
  O  O14  1  0.24926370  0.85101166  0.43875111  1.0
  O  O15  1  0.24926370  0.14898834  0.93875111  1.0
  O  O16  1  0.50000000  1.13266281  0.10117377  1.0
  O  O17  1  0.50000000  -0.13266281  0.60117377  1.0
  O  O18  1  0.50000000  0.47712465  0.35206628  1.0
  O  O19  1  0.50000000  0.52287535  0.85206628  1.0
  O  O20  1  0.00000000  0.94712133  0.25005539  1.0
  O  O21  1  0.00000000  0.05287867  0.75005539  1.0
  O  O22  1  0.00000000  0.71675962  0.00483906  1.0
  O  O23  1  0.00000000  0.28324038  0.50483906  1.0
