# generated using pymatgen
data_SrCuAs2O7
_symmetry_space_group_name_H-M   'P 1'
_cell_length_a   5.72302711
_cell_length_b   8.41369079
_cell_length_c   14.09668294
_cell_angle_alpha   90.00000000
_cell_angle_beta   111.58338142
_cell_angle_gamma   90.00000000
_symmetry_Int_Tables_number   1
_chemical_formula_structural   SrCuAs2O7
_chemical_formula_sum   'Sr4 Cu4 As8 O28'
_cell_volume   631.18648850
_cell_formula_units_Z   4
loop_
 _symmetry_equiv_pos_site_id
 _symmetry_equiv_pos_as_xyz
  1  'x, y, z'
loop_
 _atom_site_type_symbol
 _atom_site_label
 _atom_site_symmetry_multiplicity
 _atom_site_fract_x
 _atom_site_fract_y
 _atom_site_fract_z
 _atom_site_occupancy
  Sr  Sr0  1  0.99166368  0.16373436  0.28303347  1.0
  Sr  Sr1  1  0.99166368  0.33626564  0.78303347  1.0
  Sr  Sr2  1  0.00833632  0.66373436  0.21696653  1.0
  Sr  Sr3  1  0.00833632  0.83626564  0.71696653  1.0
  Cu  Cu4  1  0.67531983  0.86073720  0.38131064  1.0
  Cu  Cu5  1  0.67531983  0.63926280  0.88131064  1.0
  Cu  Cu6  1  0.32468017  0.36073720  0.11868936  1.0
  Cu  Cu7  1  0.32468017  0.13926280  0.61868936  1.0
  As  As8  1  0.67014430  0.18578893  0.49434711  1.0
  As  As9  1  0.67014430  0.31421107  0.99434711  1.0
  As  As10  1  0.32985570  0.68578893  0.00565289  1.0
  As  As11  1  0.32985570  0.81421107  0.50565289  1.0
  As  As12  1  0.59451392  0.47121023  0.34141581  1.0
  As  As13  1  0.59451392  0.02878977  0.84141581  1.0
  As  As14  1  0.40548608  0.97121023  0.15858419  1.0
  As  As15  1  0.40548608  0.52878977  0.65858419  1.0
  O  O16  1  0.90452776  0.33696642  0.11025922  1.0
  O  O17  1  0.90452776  0.16303358  0.61025922  1.0
  O  O18  1  0.09547224  0.83696642  0.38974078  1.0
  O  O19  1  0.09547224  0.66303358  0.88974078  1.0
  O  O20  1  0.84131362  0.45049666  0.30229801  1.0
  O  O21  1  0.84131362  0.04950334  0.80229801  1.0
  O  O22  1  0.15868638  0.95049666  0.19770199  1.0
  O  O23  1  0.15868638  0.54950334  0.69770199  1.0
  O  O24  1  0.72443199  0.09415235  0.39329975  1.0
  O  O25  1  0.72443199  0.40584765  0.89329975  1.0
  O  O26  1  0.27556801  0.59415235  0.10670025  1.0
  O  O27  1  0.27556801  0.90584765  0.60670025  1.0
  O  O28  1  0.68825932  0.39684257  0.46937361  1.0
  O  O29  1  0.68825932  0.10315743  0.96937361  1.0
  O  O30  1  0.31174068  0.89684257  0.03062639  1.0
  O  O31  1  0.31174068  0.60315743  0.53062639  1.0
  O  O32  1  0.50959896  0.16259157  0.15431981  1.0
  O  O33  1  0.50959896  0.33740843  0.65431981  1.0
  O  O34  1  0.49040104  0.66259157  0.34568019  1.0
  O  O35  1  0.49040104  0.83740843  0.84568019  1.0
  O  O36  1  0.35869497  0.15016623  0.48188289  1.0
  O  O37  1  0.35869497  0.34983377  0.98188289  1.0
  O  O38  1  0.64130503  0.65016623  0.01811711  1.0
  O  O39  1  0.64130503  0.84983377  0.51811711  1.0
  O  O40  1  0.32352243  0.37303684  0.26406437  1.0
  O  O41  1  0.32352243  0.12696316  0.76406437  1.0
  O  O42  1  0.67647757  0.87303684  0.23593563  1.0
  O  O43  1  0.67647757  0.62696316  0.73593563  1.0
