# generated using pymatgen
data_GdBrO2
_symmetry_space_group_name_H-M   'P 1'
_cell_length_a   6.23846820
_cell_length_b   3.67422910
_cell_length_c   6.80885658
_cell_angle_alpha   90.00000000
_cell_angle_beta   109.66962679
_cell_angle_gamma   90.00000000
_symmetry_Int_Tables_number   1
_chemical_formula_structural   GdBrO2
_chemical_formula_sum   'Gd2 Br2 O4'
_cell_volume   146.96282280
_cell_formula_units_Z   2
loop_
 _symmetry_equiv_pos_site_id
 _symmetry_equiv_pos_as_xyz
  1  'x, y, z'
loop_
 _atom_site_type_symbol
 _atom_site_label
 _atom_site_symmetry_multiplicity
 _atom_site_fract_x
 _atom_site_fract_y
 _atom_site_fract_z
 _atom_site_occupancy
  Gd  Gd0  1  0.18465395  0.25000000  0.37240903  1.0
  Gd  Gd1  1  0.81534605  0.75000000  0.62759097  1.0
  Br  Br2  1  0.74234492  0.25000000  0.97401696  1.0
  Br  Br3  1  0.25765508  0.75000000  0.02598304  1.0
  O  O4  1  0.57495692  0.25000000  0.44206577  1.0
  O  O5  1  0.42504308  0.75000000  0.55793423  1.0
  O  O6  1  0.05164470  0.25000000  0.64421377  1.0
  O  O7  1  0.94835530  0.75000000  0.35578623  1.0
