# generated using pymatgen
data_Bi2Rh
_symmetry_space_group_name_H-M   'P 1'
_cell_length_a   7.00785468
_cell_length_b   6.90886172
_cell_length_c   7.05558262
_cell_angle_alpha   90.00000000
_cell_angle_beta   117.36263416
_cell_angle_gamma   90.00000000
_symmetry_Int_Tables_number   1
_chemical_formula_structural   Bi2Rh
_chemical_formula_sum   'Bi8 Rh4'
_cell_volume   303.38480844
_cell_formula_units_Z   4
loop_
 _symmetry_equiv_pos_site_id
 _symmetry_equiv_pos_as_xyz
  1  'x, y, z'
loop_
 _atom_site_type_symbol
 _atom_site_label
 _atom_site_symmetry_multiplicity
 _atom_site_fract_x
 _atom_site_fract_y
 _atom_site_fract_z
 _atom_site_occupancy
  Bi  Bi0  1  0.64531093  0.14222334  0.37257805  1.0
  Bi  Bi1  1  0.64531093  0.35777666  0.87257805  1.0
  Bi  Bi2  1  0.35468907  0.64222334  0.12742195  1.0
  Bi  Bi3  1  0.35468907  0.85777666  0.62742195  1.0
  Bi  Bi4  1  0.84705771  0.85792387  0.17325241  1.0
  Bi  Bi5  1  0.84705771  0.64207613  0.67325241  1.0
  Bi  Bi6  1  0.15294229  0.35792387  0.32674759  1.0
  Bi  Bi7  1  0.15294229  0.14207613  0.82674759  1.0
  Rh  Rh8  1  0.77269897  0.49879161  0.28773022  1.0
  Rh  Rh9  1  0.77269897  0.00120839  0.78773022  1.0
  Rh  Rh10  1  0.22730103  -0.00120839  0.21226978  1.0
  Rh  Rh11  1  0.22730103  0.50120839  0.71226978  1.0
