# generated using pymatgen
data_CsMoPO6
_symmetry_space_group_name_H-M   'P 1'
_cell_length_a   10.43153726
_cell_length_b   9.89197930
_cell_length_c   8.56672006
_cell_angle_alpha   68.38840452
_cell_angle_beta   61.83771487
_cell_angle_gamma   49.77388061
_symmetry_Int_Tables_number   1
_chemical_formula_structural   CsMoPO6
_chemical_formula_sum   'Cs4 Mo4 P4 O24'
_cell_volume   592.36973432
_cell_formula_units_Z   4
loop_
 _symmetry_equiv_pos_site_id
 _symmetry_equiv_pos_as_xyz
  1  'x, y, z'
loop_
 _atom_site_type_symbol
 _atom_site_label
 _atom_site_symmetry_multiplicity
 _atom_site_fract_x
 _atom_site_fract_y
 _atom_site_fract_z
 _atom_site_occupancy
  Cs  Cs0  1  0.30587415  0.69412585  -0.30587415  1.0
  Cs  Cs1  1  -0.30587415  1.30587415  0.30587415  1.0
  Cs  Cs2  1  -0.05587415  0.55587415  0.55587415  1.0
  Cs  Cs3  1  -0.44412585  0.94412585  0.94412585  1.0
  Mo  Mo4  1  0.21689307  0.78310693  0.21689307  1.0
  Mo  Mo5  1  0.78310693  0.21689307  0.78310693  1.0
  Mo  Mo6  1  0.03310693  0.46689307  0.03310693  1.0
  Mo  Mo7  1  0.46689307  0.03310693  0.46689307  1.0
  P  P8  1  0.13026571  0.13026571  -0.13026571  1.0
  P  P9  1  -0.13026571  0.86973429  0.13026571  1.0
  P  P10  1  0.11973429  1.11973429  0.38026571  1.0
  P  P11  1  0.38026571  0.38026571  0.11973429  1.0
  O  O12  1  0.16963878  0.69240339  0.43208809  1.0
  O  O13  1  0.70586974  0.43208809  0.69240339  1.0
  O  O14  1  0.43208809  0.70586974  0.16963878  1.0
  O  O15  1  0.69240339  0.16963878  0.70586974  1.0
  O  O16  1  1.08036122  -0.44240339  0.81791191  1.0
  O  O17  1  0.54413026  -0.18208809  0.55759661  1.0
  O  O18  1  0.81791191  -0.45586974  1.08036122  1.0
  O  O19  1  0.55759661  0.08036122  0.54413026  1.0
  O  O20  1  0.10609604  1.01704785  0.29164151  1.0
  O  O21  1  0.58521460  0.29164151  0.01704785  1.0
  O  O22  1  0.29164151  0.58521460  0.10609604  1.0
  O  O23  1  0.01704785  1.10609604  0.58521460  1.0
  O  O24  1  0.14390396  0.23295215  -0.04164151  1.0
  O  O25  1  0.66478540  -0.04164151  1.23295215  1.0
  O  O26  1  -0.04164151  0.66478540  0.14390396  1.0
  O  O27  1  0.23295215  0.14390396  1.66478540  1.0
  O  O28  1  -0.05128165  0.89325323  0.22330262  1.0
  O  O29  1  0.93472579  0.22330262  0.89325323  1.0
  O  O30  1  0.22330262  0.93472579  -0.05128165  1.0
  O  O31  1  0.89325323  -0.05128165  0.93472579  1.0
  O  O32  1  0.30128165  0.35674677  0.02669738  1.0
  O  O33  1  0.31527421  0.02669738  0.35674677  1.0
  O  O34  1  0.02669738  0.31527421  0.30128165  1.0
  O  O35  1  0.35674677  0.30128165  0.31527421  1.0
