# generated using pymatgen
data_S4IN3Cl2
_symmetry_space_group_name_H-M   'P 1'
_cell_length_a   6.66315415
_cell_length_b   9.23890396
_cell_length_c   18.10251113
_cell_angle_alpha   90.00000000
_cell_angle_beta   93.04260821
_cell_angle_gamma   90.00000000
_symmetry_Int_Tables_number   1
_chemical_formula_structural   S4IN3Cl2
_chemical_formula_sum   'S16 I4 N12 Cl8'
_cell_volume   1112.82403257
_cell_formula_units_Z   4
loop_
 _symmetry_equiv_pos_site_id
 _symmetry_equiv_pos_as_xyz
  1  'x, y, z'
loop_
 _atom_site_type_symbol
 _atom_site_label
 _atom_site_symmetry_multiplicity
 _atom_site_fract_x
 _atom_site_fract_y
 _atom_site_fract_z
 _atom_site_occupancy
  S  S0  1  1.01538409  0.38505653  0.60501460  1.0
  S  S1  1  1.01538409  0.11494347  0.10501460  1.0
  S  S2  1  -0.01538409  0.88505653  0.89498540  1.0
  S  S3  1  -0.01538409  0.61494347  0.39498540  1.0
  S  S4  1  0.77996586  0.73798758  0.76110189  1.0
  S  S5  1  0.77996586  0.76201242  0.26110189  1.0
  S  S6  1  0.22003414  0.23798758  0.73889811  1.0
  S  S7  1  0.22003414  0.26201242  0.23889811  1.0
  S  S8  1  0.65326248  0.74859255  0.97174016  1.0
  S  S9  1  0.65326248  0.75140745  0.47174016  1.0
  S  S10  1  0.34673752  0.24859255  0.52825984  1.0
  S  S11  1  0.34673752  0.25140745  0.02825984  1.0
  S  S12  1  0.53965547  0.64063110  0.81638227  1.0
  S  S13  1  0.53965547  0.85936890  0.31638227  1.0
  S  S14  1  0.46034453  0.14063110  0.68361773  1.0
  S  S15  1  0.46034453  0.35936890  0.18361773  1.0
  I  I16  1  0.76990109  0.26887642  0.86861767  1.0
  I  I17  1  0.76990109  0.23112358  0.36861767  1.0
  I  I18  1  0.23009891  0.76887642  0.63138233  1.0
  I  I19  1  0.23009891  0.73112358  0.13138233  1.0
  N  N20  1  0.92275171  0.82673432  0.81656521  1.0
  N  N21  1  0.92275171  0.67326568  0.31656521  1.0
  N  N22  1  0.07724829  0.32673432  0.68343479  1.0
  N  N23  1  0.07724829  0.17326568  0.18343479  1.0
  N  N24  1  0.84993761  0.84226256  0.96145993  1.0
  N  N25  1  0.84993761  0.65773744  0.46145993  1.0
  N  N26  1  0.15006239  0.34226256  0.53854007  1.0
  N  N27  1  0.15006239  0.15773744  0.03854007  1.0
  N  N28  1  0.54994525  0.67737401  0.90159423  1.0
  N  N29  1  0.54994525  0.82262599  0.40159423  1.0
  N  N30  1  0.45005475  0.17737401  0.59840577  1.0
  N  N31  1  0.45005475  0.32262599  0.09840577  1.0
  Cl  Cl32  1  0.96054352  0.95643609  0.60930304  1.0
  Cl  Cl33  1  0.96054352  0.54356391  0.10930304  1.0
  Cl  Cl34  1  0.03945648  0.45643609  0.89069696  1.0
  Cl  Cl35  1  0.03945648  0.04356391  0.39069696  1.0
  Cl  Cl36  1  0.51385710  0.57155606  0.65690652  1.0
  Cl  Cl37  1  0.51385710  0.92844394  0.15690652  1.0
  Cl  Cl38  1  0.48614290  0.07155606  0.84309348  1.0
  Cl  Cl39  1  0.48614290  0.42844394  0.34309348  1.0
