# generated using pymatgen
data_Cs2H2PtC4(N2O)2
_symmetry_space_group_name_H-M   'P 1'
_cell_length_a   9.31329044
_cell_length_b   9.31329044
_cell_length_c   7.29578948
_cell_angle_alpha   78.26824843
_cell_angle_beta   101.73175157
_cell_angle_gamma   100.87028158
_symmetry_Int_Tables_number   1
_chemical_formula_structural   Cs2H2PtC4(N2O)2
_chemical_formula_sum   'Cs4 H4 Pt2 C8 N8 O4'
_cell_volume   599.45658670
_cell_formula_units_Z   2
loop_
 _symmetry_equiv_pos_site_id
 _symmetry_equiv_pos_as_xyz
  1  'x, y, z'
loop_
 _atom_site_type_symbol
 _atom_site_label
 _atom_site_symmetry_multiplicity
 _atom_site_fract_x
 _atom_site_fract_y
 _atom_site_fract_z
 _atom_site_occupancy
  Cs  Cs0  1  0.81128379  0.47277963  0.20400124  1.0
  Cs  Cs1  1  0.52722037  0.18871621  0.70400124  1.0
  Cs  Cs2  1  1.47277963  -0.18871621  0.29599876  1.0
  Cs  Cs3  1  1.18871621  -0.47277963  0.79599876  1.0
  H  H4  1  1.29627138  -0.57072290  0.31143351  1.0
  H  H5  1  1.57072290  -0.29627138  0.81143351  1.0
  H  H6  1  0.42927710  0.29627138  0.18856649  1.0
  H  H7  1  0.70372862  0.57072290  0.68856649  1.0
  Pt  Pt8  1  0.00000000  0.00000000  0.00000000  1.0
  Pt  Pt9  1  -0.00000000  0.00000000  0.50000000  1.0
  C  C10  1  0.89203430  0.79391823  0.52355707  1.0
  C  C11  1  0.20608177  0.10796570  0.02355707  1.0
  C  C12  1  1.79391823  -0.10796570  0.97644293  1.0
  C  C13  1  1.10796570  -0.79391823  0.47644293  1.0
  C  C14  1  1.07664542  -0.19237252  0.06724712  1.0
  C  C15  1  1.19237252  -0.07664542  0.56724712  1.0
  C  C16  1  0.80762748  0.07664542  0.43275288  1.0
  C  C17  1  0.92335458  0.19237252  0.93275288  1.0
  N  N18  1  0.82705808  0.67237312  0.53774590  1.0
  N  N19  1  0.32762688  0.17294192  0.03774590  1.0
  N  N20  1  1.67237312  -0.17294192  0.96225410  1.0
  N  N21  1  1.17294192  -0.67237312  0.46225410  1.0
  N  N22  1  1.12138659  -0.30637031  0.10741195  1.0
  N  N23  1  1.30637031  -0.12138659  0.60741195  1.0
  N  N24  1  0.69362969  0.12138659  0.39258805  1.0
  N  N25  1  0.87861341  0.30637031  0.89258805  1.0
  O  O26  1  1.36954381  -0.52489642  0.22410337  1.0
  O  O27  1  1.52489642  -0.36954381  0.72410337  1.0
  O  O28  1  0.47510358  0.36954381  0.27589663  1.0
  O  O29  1  0.63045619  0.52489642  0.77589663  1.0
