# generated using pymatgen
data_MgCl2
_symmetry_space_group_name_H-M   'P 1'
_cell_length_a   7.06413514
_cell_length_b   6.83977784
_cell_length_c   7.08559935
_cell_angle_alpha   119.57609121
_cell_angle_beta   114.80972003
_cell_angle_gamma   74.43485135
_symmetry_Int_Tables_number   1
_chemical_formula_structural   MgCl2
_chemical_formula_sum   'Mg2 Cl4'
_cell_volume   269.45287914
_cell_formula_units_Z   2
loop_
 _symmetry_equiv_pos_site_id
 _symmetry_equiv_pos_as_xyz
  1  'x, y, z'
loop_
 _atom_site_type_symbol
 _atom_site_label
 _atom_site_symmetry_multiplicity
 _atom_site_fract_x
 _atom_site_fract_y
 _atom_site_fract_z
 _atom_site_occupancy
  Mg  Mg0  1  0.86535061  0.49915397  -0.86405118  1.0
  Mg  Mg1  1  0.13464939  0.50084603  -0.13594882  1.0
  Cl  Cl2  1  0.00000000  0.50000000  -0.50000000  1.0
  Cl  Cl3  1  0.50000000  0.50000000  0.00000000  1.0
  Cl  Cl4  1  0.02069499  0.20725315  -0.13181943  1.0
  Cl  Cl5  1  0.97930501  0.79274685  -0.86818057  1.0
