# generated using pymatgen
data_TaBi4ClO8
_symmetry_space_group_name_H-M   'P 1'
_cell_length_a   3.90463935
_cell_length_b   3.90463935
_cell_length_c   14.36144122
_cell_angle_alpha   90.00000000
_cell_angle_beta   90.00000000
_cell_angle_gamma   90.00000000
_symmetry_Int_Tables_number   1
_chemical_formula_structural   TaBi4ClO8
_chemical_formula_sum   'Ta1 Bi4 Cl1 O8'
_cell_volume   218.95752669
_cell_formula_units_Z   1
loop_
 _symmetry_equiv_pos_site_id
 _symmetry_equiv_pos_as_xyz
  1  'x, y, z'
loop_
 _atom_site_type_symbol
 _atom_site_label
 _atom_site_symmetry_multiplicity
 _atom_site_fract_x
 _atom_site_fract_y
 _atom_site_fract_z
 _atom_site_occupancy
  Ta  Ta0  1  0.00000000  0.00000000  0.00000000  1.0
  Bi  Bi1  1  0.50000000  0.50000000  0.81782813  1.0
  Bi  Bi2  1  0.50000000  0.50000000  0.18217187  1.0
  Bi  Bi3  1  0.00000000  0.00000000  0.64128375  1.0
  Bi  Bi4  1  0.00000000  0.00000000  0.35871625  1.0
  Cl  Cl5  1  0.50000000  0.50000000  0.50000000  1.0
  O  O6  1  0.00000000  0.50000000  0.71721873  1.0
  O  O7  1  0.00000000  0.50000000  0.28278127  1.0
  O  O8  1  0.50000000  0.00000000  0.71721873  1.0
  O  O9  1  0.50000000  0.00000000  0.28278127  1.0
  O  O10  1  0.00000000  0.00000000  0.85954623  1.0
  O  O11  1  0.00000000  0.00000000  0.14045377  1.0
  O  O12  1  0.00000000  0.50000000  0.00000000  1.0
  O  O13  1  0.50000000  0.00000000  0.00000000  1.0
