# generated using pymatgen
data_LaZn11
_symmetry_space_group_name_H-M   'P 1'
_cell_length_a   8.30178185
_cell_length_b   8.30178185
_cell_length_c   8.30178185
_cell_angle_alpha   99.96029939
_cell_angle_beta   99.96029939
_cell_angle_gamma   130.84905538
_symmetry_Int_Tables_number   1
_chemical_formula_structural   LaZn11
_chemical_formula_sum   'La2 Zn22'
_cell_volume   393.59312575
_cell_formula_units_Z   2
loop_
 _symmetry_equiv_pos_site_id
 _symmetry_equiv_pos_as_xyz
  1  'x, y, z'
loop_
 _atom_site_type_symbol
 _atom_site_label
 _atom_site_symmetry_multiplicity
 _atom_site_fract_x
 _atom_site_fract_y
 _atom_site_fract_z
 _atom_site_occupancy
  La  La0  1  0.75000000  1.25000000  0.50000000  1.0
  La  La1  1  0.00000000  0.00000000  0.00000000  1.0
  Zn  Zn2  1  0.25000000  0.75000000  0.50000000  1.0
  Zn  Zn3  1  0.50000000  0.50000000  -0.00000000  1.0
  Zn  Zn4  1  0.37500000  1.12500000  0.75000000  1.0
  Zn  Zn5  1  0.37500000  0.62500000  0.25000000  1.0
  Zn  Zn6  1  0.87500000  0.62500000  1.25000000  1.0
  Zn  Zn7  1  0.37500000  0.62500000  0.75000000  1.0
  Zn  Zn8  1  0.93106665  0.75882745  1.58387451  1.0
  Zn  Zn9  1  0.17495294  0.34719214  0.41612549  1.0
  Zn  Zn10  1  1.57504706  0.90280786  1.08387451  1.0
  Zn  Zn11  1  0.81893335  1.49117255  0.91612549  1.0
  Zn  Zn12  1  0.93106665  0.34719214  1.17223920  1.0
  Zn  Zn13  1  0.17495294  0.75882745  0.82776080  1.0
  Zn  Zn14  1  1.57504706  1.49117255  1.67223920  1.0
  Zn  Zn15  1  0.81893335  0.90280786  0.32776080  1.0
  Zn  Zn16  1  1.24117255  1.06893335  1.41612549  1.0
  Zn  Zn17  1  0.65280786  0.82504706  0.58387451  1.0
  Zn  Zn18  1  1.09719214  1.42495294  0.91612549  1.0
  Zn  Zn19  1  1.50882745  1.18106665  1.08387451  1.0
  Zn  Zn20  1  1.24117255  0.82504706  1.17223920  1.0
  Zn  Zn21  1  0.65280786  1.06893335  0.82776080  1.0
  Zn  Zn22  1  1.09719214  1.18106665  0.67223920  1.0
  Zn  Zn23  1  1.50882745  1.42495294  1.32776080  1.0
