# generated using pymatgen
data_HC4N5
_symmetry_space_group_name_H-M   'P 1'
_cell_length_a   6.07206715
_cell_length_b   13.07972771
_cell_length_c   7.54200362
_cell_angle_alpha   90.00000000
_cell_angle_beta   95.65177292
_cell_angle_gamma   90.00000000
_symmetry_Int_Tables_number   1
_chemical_formula_structural   HC4N5
_chemical_formula_sum   'H4 C16 N20'
_cell_volume   596.08153969
_cell_formula_units_Z   4
loop_
 _symmetry_equiv_pos_site_id
 _symmetry_equiv_pos_as_xyz
  1  'x, y, z'
loop_
 _atom_site_type_symbol
 _atom_site_label
 _atom_site_symmetry_multiplicity
 _atom_site_fract_x
 _atom_site_fract_y
 _atom_site_fract_z
 _atom_site_occupancy
  H  H0  1  0.65988803  0.06683931  0.37830447  1.0
  H  H1  1  0.65988803  0.43316069  0.87830447  1.0
  H  H2  1  0.34011197  0.56683931  0.12169553  1.0
  H  H3  1  0.34011197  0.93316069  0.62169553  1.0
  C  C4  1  0.96028614  0.35491691  0.20253731  1.0
  C  C5  1  0.96028614  0.14508309  0.70253731  1.0
  C  C6  1  0.03971386  0.85491691  0.29746269  1.0
  C  C7  1  0.03971386  0.64508309  0.79746269  1.0
  C  C8  1  0.84568762  0.80662250  0.21785227  1.0
  C  C9  1  0.84568762  0.69337750  0.71785227  1.0
  C  C10  1  0.15431238  0.30662250  0.28214773  1.0
  C  C11  1  0.15431238  0.19337750  0.78214773  1.0
  C  C12  1  0.78634693  0.40456604  0.28170316  1.0
  C  C13  1  0.78634693  0.09543396  0.78170316  1.0
  C  C14  1  0.21365307  0.90456604  0.21829684  1.0
  C  C15  1  0.21365307  0.59543396  0.71829684  1.0
  C  C16  1  0.75477417  0.41689787  0.46383596  1.0
  C  C17  1  0.75477417  0.08310213  0.96383596  1.0
  C  C18  1  0.24522583  0.91689787  0.03616404  1.0
  C  C19  1  0.24522583  0.58310213  0.53616404  1.0
  N  N20  1  0.91743721  0.36299913  0.02449726  1.0
  N  N21  1  0.91743721  0.13700087  0.52449726  1.0
  N  N22  1  0.08256279  0.86299913  0.47550274  1.0
  N  N23  1  0.08256279  0.63700087  0.97550274  1.0
  N  N24  1  0.73364225  0.07320328  0.11446852  1.0
  N  N25  1  0.73364225  0.42679672  0.61446852  1.0
  N  N26  1  0.26635775  0.57320328  0.38553148  1.0
  N  N27  1  0.26635775  0.92679672  0.88553148  1.0
  N  N28  1  0.73028755  0.08543212  0.50430222  1.0
  N  N29  1  0.73028755  0.41456788  1.00430222  1.0
  N  N30  1  0.26971245  0.58543212  -0.00430222  1.0
  N  N31  1  0.26971245  0.91456788  0.49569778  1.0
  N  N32  1  0.64281681  0.44216651  0.15011252  1.0
  N  N33  1  0.64281681  0.05783349  0.65011252  1.0
  N  N34  1  0.35718319  0.94216651  0.34988748  1.0
  N  N35  1  0.35718319  0.55783349  0.84988748  1.0
  N  N36  1  0.31519437  0.26872125  0.34856290  1.0
  N  N37  1  0.31519437  0.23127875  0.84856290  1.0
  N  N38  1  0.68480563  0.76872125  0.15143710  1.0
  N  N39  1  0.68480563  0.73127875  0.65143710  1.0
