# generated using pymatgen
data_TlRe
_symmetry_space_group_name_H-M   'P 1'
_cell_length_a   6.57259883
_cell_length_b   6.57259883
_cell_length_c   6.57259883
_cell_angle_alpha   152.17477358
_cell_angle_beta   136.75669681
_cell_angle_gamma   52.20583385
_symmetry_Int_Tables_number   1
_chemical_formula_structural   TlRe
_chemical_formula_sum   'Tl2 Re2'
_cell_volume   90.35852271
_cell_formula_units_Z   2
loop_
 _symmetry_equiv_pos_site_id
 _symmetry_equiv_pos_as_xyz
  1  'x, y, z'
loop_
 _atom_site_type_symbol
 _atom_site_label
 _atom_site_symmetry_multiplicity
 _atom_site_fract_x
 _atom_site_fract_y
 _atom_site_fract_z
 _atom_site_occupancy
  Tl  Tl0  1  1.14419706  0.89419706  1.25000000  1.0
  Tl  Tl1  1  0.85580294  0.10580294  0.75000000  1.0
  Re  Re2  1  0.57416847  0.32416847  0.25000000  1.0
  Re  Re3  1  0.42583153  0.67583153  0.75000000  1.0
