# generated using pymatgen
data_Y5Si4
_symmetry_space_group_name_H-M   'P 1'
_cell_length_a   7.44614326
_cell_length_b   14.60358114
_cell_length_c   7.69788306
_cell_angle_alpha   90.00000000
_cell_angle_beta   90.00000000
_cell_angle_gamma   90.00000000
_symmetry_Int_Tables_number   1
_chemical_formula_structural   Y5Si4
_chemical_formula_sum   'Y20 Si16'
_cell_volume   837.07055427
_cell_formula_units_Z   4
loop_
 _symmetry_equiv_pos_site_id
 _symmetry_equiv_pos_as_xyz
  1  'x, y, z'
loop_
 _atom_site_type_symbol
 _atom_site_label
 _atom_site_symmetry_multiplicity
 _atom_site_fract_x
 _atom_site_fract_y
 _atom_site_fract_z
 _atom_site_occupancy
  Y  Y0  1  0.35399149  0.25000000  0.01155118  1.0
  Y  Y1  1  0.85399149  0.25000000  0.48844882  1.0
  Y  Y2  1  0.64600851  0.75000000  0.98844882  1.0
  Y  Y3  1  0.14600851  0.75000000  0.51155118  1.0
  Y  Y4  1  0.46849043  0.90095956  0.68356506  1.0
  Y  Y5  1  0.46849043  0.59904044  0.68356506  1.0
  Y  Y6  1  0.96849043  0.90095956  0.81643494  1.0
  Y  Y7  1  0.96849043  0.59904044  0.81643494  1.0
  Y  Y8  1  0.53150957  0.40095956  0.31643494  1.0
  Y  Y9  1  0.53150957  0.09904044  0.31643494  1.0
  Y  Y10  1  0.03150957  0.40095956  0.18356506  1.0
  Y  Y11  1  0.03150957  0.09904044  0.18356506  1.0
  Y  Y12  1  0.18432438  0.37737955  0.67908754  1.0
  Y  Y13  1  0.18432438  0.12262045  0.67908754  1.0
  Y  Y14  1  0.68432438  0.37737955  0.82091246  1.0
  Y  Y15  1  0.68432438  0.12262045  0.82091246  1.0
  Y  Y16  1  0.81567562  0.87737955  0.32091246  1.0
  Y  Y17  1  0.81567562  0.62262045  0.32091246  1.0
  Y  Y18  1  0.31567562  0.87737955  0.17908754  1.0
  Y  Y19  1  0.31567562  0.62262045  0.17908754  1.0
  Si  Si20  1  0.35603369  0.45930184  0.97222858  1.0
  Si  Si21  1  0.35603369  0.04069816  0.97222858  1.0
  Si  Si22  1  0.85603369  0.45930184  0.52777142  1.0
  Si  Si23  1  0.85603369  0.04069816  0.52777142  1.0
  Si  Si24  1  0.64396631  0.95930184  0.02777142  1.0
  Si  Si25  1  0.64396631  0.54069816  0.02777142  1.0
  Si  Si26  1  0.14396631  0.95930184  0.47222858  1.0
  Si  Si27  1  0.14396631  0.54069816  0.47222858  1.0
  Si  Si28  1  0.48135702  0.25000000  0.60408699  1.0
  Si  Si29  1  0.98135702  0.25000000  0.89591301  1.0
  Si  Si30  1  0.51864298  0.75000000  0.39591301  1.0
  Si  Si31  1  0.01864298  0.75000000  0.10408699  1.0
  Si  Si32  1  0.23682464  0.25000000  0.37291696  1.0
  Si  Si33  1  0.73682464  0.25000000  0.12708304  1.0
  Si  Si34  1  0.76317536  0.75000000  0.62708304  1.0
  Si  Si35  1  0.26317536  0.75000000  0.87291696  1.0
