# generated using pymatgen
data_BaNb3O6
_symmetry_space_group_name_H-M   'P 1'
_cell_length_a   7.17264451
_cell_length_b   7.17264451
_cell_length_c   7.17264451
_cell_angle_alpha   118.22203048
_cell_angle_beta   118.22203048
_cell_angle_gamma   118.22203048
_symmetry_Int_Tables_number   1
_chemical_formula_structural   BaNb3O6
_chemical_formula_sum   'Ba1 Nb3 O6'
_cell_volume   126.55844055
_cell_formula_units_Z   1
loop_
 _symmetry_equiv_pos_site_id
 _symmetry_equiv_pos_as_xyz
  1  'x, y, z'
loop_
 _atom_site_type_symbol
 _atom_site_label
 _atom_site_symmetry_multiplicity
 _atom_site_fract_x
 _atom_site_fract_y
 _atom_site_fract_z
 _atom_site_occupancy
  Ba  Ba0  1  0.05725748  0.05725748  0.05725748  1.0
  Nb  Nb1  1  0.36104943  0.36104943  -0.17550241  1.0
  Nb  Nb2  1  0.36104943  0.82449759  -0.63895057  1.0
  Nb  Nb3  1  0.82449759  0.36104943  0.36104943  1.0
  O  O4  1  1.04886191  1.27407538  -0.15766426  1.0
  O  O5  1  1.27407538  1.04886191  0.84233574  1.0
  O  O6  1  1.04886191  0.84233574  0.27407538  1.0
  O  O7  1  0.84233574  0.04886191  0.27407538  1.0
  O  O8  1  0.84233574  0.27407538  0.04886191  1.0
  O  O9  1  1.27407538  0.84233574  1.04886191  1.0
