# generated using pymatgen
data_Rb6HgSe4
_symmetry_space_group_name_H-M   'P 1'
_cell_length_a   10.88423495
_cell_length_b   10.88423495
_cell_length_c   8.37945718
_cell_angle_alpha   90.00000000
_cell_angle_beta   90.00000000
_cell_angle_gamma   120.00000000
_symmetry_Int_Tables_number   1
_chemical_formula_structural   Rb6HgSe4
_chemical_formula_sum   'Rb12 Hg2 Se8'
_cell_volume   859.69090756
_cell_formula_units_Z   2
loop_
 _symmetry_equiv_pos_site_id
 _symmetry_equiv_pos_as_xyz
  1  'x, y, z'
loop_
 _atom_site_type_symbol
 _atom_site_label
 _atom_site_symmetry_multiplicity
 _atom_site_fract_x
 _atom_site_fract_y
 _atom_site_fract_z
 _atom_site_occupancy
  Rb  Rb0  1  0.70245046  0.85122523  0.28951515  1.0
  Rb  Rb1  1  0.85122523  0.70245046  0.78951515  1.0
  Rb  Rb2  1  0.85122523  0.14877477  0.78951515  1.0
  Rb  Rb3  1  0.14877477  0.85122523  0.28951515  1.0
  Rb  Rb4  1  0.14877477  0.29754954  0.28951515  1.0
  Rb  Rb5  1  0.29754954  0.14877477  0.78951515  1.0
  Rb  Rb6  1  0.94507898  0.47253949  0.11600796  1.0
  Rb  Rb7  1  0.47253949  0.94507898  0.61600796  1.0
  Rb  Rb8  1  0.47253949  0.52746051  0.61600796  1.0
  Rb  Rb9  1  0.52746051  0.47253949  0.11600796  1.0
  Rb  Rb10  1  0.52746051  0.05492102  0.11600796  1.0
  Rb  Rb11  1  0.05492102  0.52746051  0.61600796  1.0
  Hg  Hg12  1  0.33333333  0.66666667  -0.00661306  1.0
  Hg  Hg13  1  0.66666667  0.33333333  0.49338694  1.0
  Se  Se14  1  0.38603159  0.19301580  0.39526185  1.0
  Se  Se15  1  0.19301580  0.38603159  0.89526185  1.0
  Se  Se16  1  0.19301580  0.80698420  0.89526185  1.0
  Se  Se17  1  0.80698420  0.19301580  0.39526185  1.0
  Se  Se18  1  0.80698420  0.61396841  0.39526185  1.0
  Se  Se19  1  0.61396841  0.80698420  0.89526185  1.0
  Se  Se20  1  0.33333333  0.66666667  0.32825817  1.0
  Se  Se21  1  0.66666667  0.33333333  0.82825817  1.0
