# generated using pymatgen
data_Ti2FeO5
_symmetry_space_group_name_H-M   'P 1'
_cell_length_a   5.23424031
_cell_length_b   5.23424031
_cell_length_c   10.16721384
_cell_angle_alpha   90.00000000
_cell_angle_beta   90.00000000
_cell_angle_gamma   137.70853842
_symmetry_Int_Tables_number   1
_chemical_formula_structural   Ti2FeO5
_chemical_formula_sum   'Ti4 Fe2 O10'
_cell_volume   187.43956861
_cell_formula_units_Z   2
loop_
 _symmetry_equiv_pos_site_id
 _symmetry_equiv_pos_as_xyz
  1  'x, y, z'
loop_
 _atom_site_type_symbol
 _atom_site_label
 _atom_site_symmetry_multiplicity
 _atom_site_fract_x
 _atom_site_fract_y
 _atom_site_fract_z
 _atom_site_occupancy
  Fe  Fe0  1  0.19068966  0.80931034  0.75000000  1.0
  Fe  Fe1  1  -0.19068966  0.19068966  0.25000000  1.0
  Ti  Ti2  1  0.13558419  0.86441581  0.43268001  1.0
  Ti  Ti3  1  0.13558419  0.86441581  0.06731999  1.0
  Ti  Ti4  1  -0.13558419  0.13558419  0.93268001  1.0
  Ti  Ti5  1  -0.13558419  0.13558419  0.56731999  1.0
  O  O6  1  0.04599200  0.95400800  0.88664347  1.0
  O  O7  1  0.04599200  0.95400800  0.61335653  1.0
  O  O8  1  -0.04599200  0.04599200  0.38664347  1.0
  O  O9  1  -0.04599200  0.04599200  0.11335653  1.0
  O  O10  1  0.31441923  0.68558077  0.94055172  1.0
  O  O11  1  0.31441923  0.68558077  0.55944828  1.0
  O  O12  1  -0.31441923  0.31441923  0.44055172  1.0
  O  O13  1  -0.31441923  0.31441923  0.05944828  1.0
  O  O14  1  -0.20961836  0.20961836  0.75000000  1.0
  O  O15  1  0.20961836  0.79038164  0.25000000  1.0
