# generated using pymatgen
data_CrSi2
_symmetry_space_group_name_H-M   'P 1'
_cell_length_a   7.60239268
_cell_length_b   7.60239268
_cell_length_c   3.94653719
_cell_angle_alpha   90.00000000
_cell_angle_beta   90.00000000
_cell_angle_gamma   161.04462618
_symmetry_Int_Tables_number   1
_chemical_formula_structural   CrSi2
_chemical_formula_sum   'Cr2 Si4'
_cell_volume   74.09264325
_cell_formula_units_Z   2
loop_
 _symmetry_equiv_pos_site_id
 _symmetry_equiv_pos_as_xyz
  1  'x, y, z'
loop_
 _atom_site_type_symbol
 _atom_site_label
 _atom_site_symmetry_multiplicity
 _atom_site_fract_x
 _atom_site_fract_y
 _atom_site_fract_z
 _atom_site_occupancy
  Cr  Cr0  1  -0.12104768  1.12104768  0.75000000  1.0
  Cr  Cr1  1  -0.87895232  0.87895232  0.25000000  1.0
  Si  Si2  1  -0.29102660  1.29102660  0.75000000  1.0
  Si  Si3  1  -0.70897340  0.70897340  0.25000000  1.0
  Si  Si4  1  -0.45251245  1.45251245  0.75000000  1.0
  Si  Si5  1  -0.54748755  0.54748755  0.25000000  1.0
