# generated using pymatgen
data_Rb3Nb2Br9
_symmetry_space_group_name_H-M   'P 1'
_cell_length_a   7.83305424
_cell_length_b   7.83305424
_cell_length_c   18.32625358
_cell_angle_alpha   90.00000000
_cell_angle_beta   90.00000000
_cell_angle_gamma   120.00000000
_symmetry_Int_Tables_number   1
_chemical_formula_structural   Rb3Nb2Br9
_chemical_formula_sum   'Rb6 Nb4 Br18'
_cell_volume   973.79287109
_cell_formula_units_Z   2
loop_
 _symmetry_equiv_pos_site_id
 _symmetry_equiv_pos_as_xyz
  1  'x, y, z'
loop_
 _atom_site_type_symbol
 _atom_site_label
 _atom_site_symmetry_multiplicity
 _atom_site_fract_x
 _atom_site_fract_y
 _atom_site_fract_z
 _atom_site_occupancy
  Rb  Rb0  1  0.33333333  0.66666667  0.43596108  1.0
  Rb  Rb1  1  0.33333333  0.66666667  0.06403892  1.0
  Rb  Rb2  1  0.66666667  0.33333333  0.93596108  1.0
  Rb  Rb3  1  0.66666667  0.33333333  0.56403892  1.0
  Rb  Rb4  1  0.00000000  0.00000000  0.25000000  1.0
  Rb  Rb5  1  0.00000000  0.00000000  0.75000000  1.0
  Nb  Nb6  1  0.33333333  0.66666667  0.82381210  1.0
  Nb  Nb7  1  0.33333333  0.66666667  0.67618790  1.0
  Nb  Nb8  1  0.66666667  0.33333333  0.32381210  1.0
  Nb  Nb9  1  0.66666667  0.33333333  0.17618790  1.0
  Br  Br10  1  0.17427151  0.82572849  0.90510599  1.0
  Br  Br11  1  0.17427151  0.82572849  0.59489401  1.0
  Br  Br12  1  0.17427151  0.34854301  0.90510599  1.0
  Br  Br13  1  0.17427151  0.34854301  0.59489401  1.0
  Br  Br14  1  0.82572849  0.17427151  0.40510599  1.0
  Br  Br15  1  0.82572849  0.17427151  0.09489401  1.0
  Br  Br16  1  0.82572849  0.65145699  0.40510599  1.0
  Br  Br17  1  0.82572849  0.65145699  0.09489401  1.0
  Br  Br18  1  0.65145699  0.82572849  0.90510599  1.0
  Br  Br19  1  0.65145699  0.82572849  0.59489401  1.0
  Br  Br20  1  0.34854301  0.17427151  0.40510599  1.0
  Br  Br21  1  0.34854301  0.17427151  0.09489401  1.0
  Br  Br22  1  0.49553145  0.50446855  0.25000000  1.0
  Br  Br23  1  0.49553145  0.99106290  0.25000000  1.0
  Br  Br24  1  0.50446855  0.49553145  0.75000000  1.0
  Br  Br25  1  0.50446855  0.00893710  0.75000000  1.0
  Br  Br26  1  0.00893710  0.50446855  0.25000000  1.0
  Br  Br27  1  0.99106290  0.49553145  0.75000000  1.0
