# generated using pymatgen
data_Sr2YCu3(PbO4)2
_symmetry_space_group_name_H-M   'P 1'
_cell_length_a   15.93737750
_cell_length_b   5.46109986
_cell_length_c   5.42881919
_cell_angle_alpha   90.00173274
_cell_angle_beta   90.47855746
_cell_angle_gamma   89.99815641
_symmetry_Int_Tables_number   1
_chemical_formula_structural   Sr2YCu3(PbO4)2
_chemical_formula_sum   'Sr4 Y2 Cu6 Pb4 O16'
_cell_volume   472.48410802
_cell_formula_units_Z   2
loop_
 _symmetry_equiv_pos_site_id
 _symmetry_equiv_pos_as_xyz
  1  'x, y, z'
loop_
 _atom_site_type_symbol
 _atom_site_label
 _atom_site_symmetry_multiplicity
 _atom_site_fract_x
 _atom_site_fract_y
 _atom_site_fract_z
 _atom_site_occupancy
  Sr  Sr0  1  -0.77938062  -0.49924160  -0.49406518  1.0
  Sr  Sr1  1  -0.22061938  -0.50075840  -0.50593482  1.0
  Sr  Sr2  1  -0.77937664  -0.00102186  0.00593411  1.0
  Sr  Sr3  1  -0.22062336  0.00102186  -0.00593411  1.0
  Y  Y4  1  0.00000000  -0.50000000  -0.50000000  1.0
  Y  Y5  1  0.00000000  0.00000000  0.00000000  1.0
  Cu  Cu6  1  -0.89645599  -0.49980402  0.00262418  1.0
  Cu  Cu7  1  -0.10354401  -0.50019598  -0.00262418  1.0
  Cu  Cu8  1  -0.89646529  -0.00027742  -0.49739028  1.0
  Cu  Cu9  1  -0.10353471  0.00027742  -0.50260972  1.0
  Cu  Cu10  1  -0.50000000  -0.50000000  -0.50000000  1.0
  Cu  Cu11  1  -0.50000000  0.00000000  0.00000000  1.0
  Pb  Pb12  1  -0.61161350  -0.50685799  -0.00383769  1.0
  Pb  Pb13  1  -0.38838650  -0.49314201  0.00383769  1.0
  Pb  Pb14  1  -0.61161764  0.00679285  -0.50390032  1.0
  Pb  Pb15  1  -0.38838236  -0.00679285  -0.49609968  1.0
  O  O16  1  -0.74932762  -0.48958424  0.00751708  1.0
  O  O17  1  -0.25067238  -0.51041576  -0.00751708  1.0
  O  O18  1  -0.61454103  -0.94328783  -0.95656728  1.0
  O  O19  1  -0.38545897  -0.05671217  -0.04343272  1.0
  O  O20  1  -0.90781135  -0.75008705  -0.74773129  1.0
  O  O21  1  -0.09218865  -0.24991295  -0.25226871  1.0
  O  O22  1  -0.09039339  -0.74993606  -0.75224413  1.0
  O  O23  1  -0.90960661  -0.25006394  -0.24775587  1.0
  O  O24  1  -0.90965456  -0.24999969  -0.74776855  1.0
  O  O25  1  -0.09034544  -0.75000031  -0.25223145  1.0
  O  O26  1  -0.74931126  -0.01070438  -0.49278672  1.0
  O  O27  1  -0.25068874  0.01070438  -0.50721328  1.0
  O  O28  1  -0.61453403  -0.55669912  -0.45626006  1.0
  O  O29  1  -0.38546597  -0.44330088  -0.54373994  1.0
  O  O30  1  -0.90777120  -0.74997809  -0.24774507  1.0
  O  O31  1  -0.09222880  -0.25002191  -0.75225493  1.0
