# generated using pymatgen
data_RbCrH4(C2O5)2
_symmetry_space_group_name_H-M   'P 1'
_cell_length_a   4.98286660
_cell_length_b   4.98286660
_cell_length_c   10.39757064
_cell_angle_alpha   89.79240679
_cell_angle_beta   90.20759321
_cell_angle_gamma   86.96659988
_symmetry_Int_Tables_number   1
_chemical_formula_structural   RbCrH4(C2O5)2
_chemical_formula_sum   'Rb1 Cr1 H4 C4 O10'
_cell_volume   257.79556698
_cell_formula_units_Z   1
loop_
 _symmetry_equiv_pos_site_id
 _symmetry_equiv_pos_as_xyz
  1  'x, y, z'
loop_
 _atom_site_type_symbol
 _atom_site_label
 _atom_site_symmetry_multiplicity
 _atom_site_fract_x
 _atom_site_fract_y
 _atom_site_fract_z
 _atom_site_occupancy
  Rb  Rb0  1  0.00000000  0.00000000  0.00000000  1.0
  Cr  Cr1  1  0.50000000  -0.50000000  0.50000000  1.0
  H  H2  1  1.72509515  0.04829255  0.59681976  1.0
  H  H3  1  0.95170745  -0.72509515  0.59681976  1.0
  H  H4  1  1.04829255  0.72509515  0.40318024  1.0
  H  H5  1  0.27490485  -0.04829255  0.40318024  1.0
  C  C6  1  0.47793475  -0.26246618  0.74485348  1.0
  C  C7  1  1.26246618  0.52206525  0.74485348  1.0
  C  C8  1  0.73753382  -0.52206525  0.25514652  1.0
  C  C9  1  1.52206525  0.26246618  0.25514652  1.0
  O  O10  1  0.61005218  -0.25064001  0.63594709  1.0
  O  O11  1  1.25064001  0.38994782  0.63594709  1.0
  O  O12  1  0.74935999  -0.38994782  0.36405291  1.0
  O  O13  1  1.38994782  0.25064001  0.36405291  1.0
  O  O14  1  0.51125865  -0.11844034  0.83830254  1.0
  O  O15  1  1.11844034  0.48874135  0.83830254  1.0
  O  O16  1  0.88155966  -0.48874135  0.16169746  1.0
  O  O17  1  1.48874135  0.11844034  0.16169746  1.0
  O  O18  1  0.78004525  -0.78004525  0.55694947  1.0
  O  O19  1  0.21995475  -0.21995475  0.44305053  1.0
