# generated using pymatgen
data_Sr(GePt)2
_symmetry_space_group_name_H-M   'P 1'
_cell_length_a   4.44215457
_cell_length_b   4.44216773
_cell_length_c   10.19737366
_cell_angle_alpha   90.00000000
_cell_angle_beta   90.01253494
_cell_angle_gamma   90.00000000
_symmetry_Int_Tables_number   1
_chemical_formula_structural   Sr(GePt)2
_chemical_formula_sum   'Sr2 Ge4 Pt4'
_cell_volume   201.22268595
_cell_formula_units_Z   2
loop_
 _symmetry_equiv_pos_site_id
 _symmetry_equiv_pos_as_xyz
  1  'x, y, z'
loop_
 _atom_site_type_symbol
 _atom_site_label
 _atom_site_symmetry_multiplicity
 _atom_site_fract_x
 _atom_site_fract_y
 _atom_site_fract_z
 _atom_site_occupancy
  Sr  Sr0  1  0.74985964  0.51946832  0.25313882  1.0
  Sr  Sr1  1  0.25014036  0.01946832  0.74686118  1.0
  Ge  Ge2  1  0.75025412  0.51938349  0.87416686  1.0
  Ge  Ge3  1  0.24974588  0.01938349  0.12583314  1.0
  Ge  Ge4  1  0.75004507  0.01940280  0.50002126  1.0
  Ge  Ge5  1  0.24995493  0.51940280  0.49997874  1.0
  Pt  Pt6  1  0.75002422  0.51935814  0.62453520  1.0
  Pt  Pt7  1  0.24997578  0.01935814  0.37546480  1.0
  Pt  Pt8  1  0.74960062  1.01938725  1.00000698  1.0
  Pt  Pt9  1  0.25039938  0.51938725  -0.00000698  1.0
