# generated using pymatgen
data_EuVO2
_symmetry_space_group_name_H-M   'P 1'
_cell_length_a   7.32011803
_cell_length_b   7.32011803
_cell_length_c   7.32011803
_cell_angle_alpha   129.81007765
_cell_angle_beta   129.81007765
_cell_angle_gamma   73.71056970
_symmetry_Int_Tables_number   1
_chemical_formula_structural   EuVO2
_chemical_formula_sum   'Eu4 V4 O8'
_cell_volume   225.82100659
_cell_formula_units_Z   4
loop_
 _symmetry_equiv_pos_site_id
 _symmetry_equiv_pos_as_xyz
  1  'x, y, z'
loop_
 _atom_site_type_symbol
 _atom_site_label
 _atom_site_symmetry_multiplicity
 _atom_site_fract_x
 _atom_site_fract_y
 _atom_site_fract_z
 _atom_site_occupancy
  Eu  Eu0  1  0.37500000  0.62500000  0.75000000  1.0
  Eu  Eu1  1  0.87500000  0.62500000  1.25000000  1.0
  Eu  Eu2  1  0.37500000  1.12500000  0.75000000  1.0
  Eu  Eu3  1  0.37500000  0.62500000  0.25000000  1.0
  V  V4  1  0.87500000  0.12500000  0.75000000  1.0
  V  V5  1  0.37500000  0.12500000  0.25000000  1.0
  V  V6  1  0.87500000  0.62500000  0.75000000  1.0
  V  V7  1  0.87500000  1.12500000  1.25000000  1.0
  O  O8  1  1.16408409  0.95534312  1.79125682  1.0
  O  O9  1  0.58591370  0.87717273  1.29125682  1.0
  O  O10  1  1.04465688  0.83591370  1.20874097  1.0
  O  O11  1  1.12282727  1.41408409  1.70874097  1.0
  O  O12  1  0.16408630  0.37282727  0.20874318  1.0
  O  O13  1  0.58591591  0.29465688  0.70874318  1.0
  O  O14  1  0.62717273  0.83591591  0.79125903  1.0
  O  O15  1  0.70534312  0.41408630  0.29125903  1.0
