# generated using pymatgen
data_Na2LaGeO5
_symmetry_space_group_name_H-M   'P 1'
_cell_length_a   9.73524147
_cell_length_b   7.70792171
_cell_length_c   6.89317066
_cell_angle_alpha   90.00000000
_cell_angle_beta   90.00000000
_cell_angle_gamma   90.00000000
_symmetry_Int_Tables_number   1
_chemical_formula_structural   Na2LaGeO5
_chemical_formula_sum   'Na8 La4 Ge4 O20'
_cell_volume   517.25304179
_cell_formula_units_Z   4
loop_
 _symmetry_equiv_pos_site_id
 _symmetry_equiv_pos_as_xyz
  1  'x, y, z'
loop_
 _atom_site_type_symbol
 _atom_site_label
 _atom_site_symmetry_multiplicity
 _atom_site_fract_x
 _atom_site_fract_y
 _atom_site_fract_z
 _atom_site_occupancy
  O  O0  1  0.93766266  0.93110643  0.33351355  1.0
  O  O1  1  0.93766266  0.56889357  0.33351355  1.0
  O  O2  1  0.43766266  0.93110643  0.16648645  1.0
  O  O3  1  0.43766266  0.56889357  0.16648645  1.0
  O  O4  1  0.06233734  0.43110643  0.66648645  1.0
  O  O5  1  0.06233734  0.06889357  0.66648645  1.0
  O  O6  1  0.56233734  0.43110643  0.83351355  1.0
  O  O7  1  0.56233734  0.06889357  0.83351355  1.0
  O  O8  1  0.96045281  0.25000000  0.01019472  1.0
  O  O9  1  0.46045281  0.25000000  0.48980528  1.0
  O  O10  1  0.03954719  0.75000000  0.98980528  1.0
  O  O11  1  0.53954719  0.75000000  0.51019472  1.0
  O  O12  1  0.75682164  0.25000000  0.59077755  1.0
  O  O13  1  0.25682164  0.25000000  0.90922245  1.0
  O  O14  1  0.24317836  0.75000000  0.40922245  1.0
  O  O15  1  0.74317836  0.75000000  0.09077755  1.0
  O  O16  1  0.71164934  0.25000000  0.23765578  1.0
  O  O17  1  0.21164934  0.25000000  0.26234422  1.0
  O  O18  1  0.28835066  0.75000000  0.76234422  1.0
  O  O19  1  0.78835066  0.75000000  0.73765578  1.0
  Ge  Ge20  1  0.58368941  0.25000000  0.67660305  1.0
  Ge  Ge21  1  0.08368941  0.25000000  0.82339695  1.0
  Ge  Ge22  1  0.41631059  0.75000000  0.32339695  1.0
  Ge  Ge23  1  0.91631059  0.75000000  0.17660305  1.0
  Na  Na24  1  0.68819434  0.96417862  0.37986628  1.0
  Na  Na25  1  0.68819434  0.53582138  0.37986628  1.0
  Na  Na26  1  0.18819434  0.96417862  0.12013372  1.0
  Na  Na27  1  0.18819434  0.53582138  0.12013372  1.0
  Na  Na28  1  0.31180566  0.46417862  0.62013372  1.0
  Na  Na29  1  0.31180566  0.03582138  0.62013372  1.0
  Na  Na30  1  0.81180566  0.46417862  0.87986628  1.0
  Na  Na31  1  0.81180566  0.03582138  0.87986628  1.0
  La  La32  1  0.95844394  0.25000000  0.36807329  1.0
  La  La33  1  0.45844394  0.25000000  0.13192671  1.0
  La  La34  1  0.04155606  0.75000000  0.63192671  1.0
  La  La35  1  0.54155606  0.75000000  0.86807329  1.0
