# generated using pymatgen
data_CuHCSO5
_symmetry_space_group_name_H-M   'P 1'
_cell_length_a   9.06830763
_cell_length_b   4.96225318
_cell_length_c   12.30618742
_cell_angle_alpha   90.00000000
_cell_angle_beta   96.00946983
_cell_angle_gamma   90.00000000
_symmetry_Int_Tables_number   1
_chemical_formula_structural   CuHCSO5
_chemical_formula_sum   'Cu4 H4 C4 S4 O20'
_cell_volume   550.72588141
_cell_formula_units_Z   4
loop_
 _symmetry_equiv_pos_site_id
 _symmetry_equiv_pos_as_xyz
  1  'x, y, z'
loop_
 _atom_site_type_symbol
 _atom_site_label
 _atom_site_symmetry_multiplicity
 _atom_site_fract_x
 _atom_site_fract_y
 _atom_site_fract_z
 _atom_site_occupancy
  Cu  Cu0  1  0.77098034  0.24901298  0.46639999  1.0
  Cu  Cu1  1  0.77098034  0.25098702  0.96639999  1.0
  Cu  Cu2  1  0.22901966  0.74901298  0.03360001  1.0
  Cu  Cu3  1  0.22901966  0.75098702  0.53360001  1.0
  H  H4  1  0.89730793  0.61333818  0.28763705  1.0
  H  H5  1  0.89730793  0.88666182  0.78763705  1.0
  H  H6  1  0.10269207  0.11333818  0.21236295  1.0
  H  H7  1  0.10269207  0.38666182  0.71236295  1.0
  C  C8  1  0.61478981  0.11194701  0.38687702  1.0
  C  C9  1  0.61478981  0.38805299  0.88687702  1.0
  C  C10  1  0.38521019  0.61194701  0.11312298  1.0
  C  C11  1  0.38521019  0.88805299  0.61312298  1.0
  S  S12  1  0.89241988  0.74238743  0.11993113  1.0
  S  S13  1  0.89241988  0.75761257  0.61993113  1.0
  S  S14  1  0.10758012  0.24238743  0.38006887  1.0
  S  S15  1  0.10758012  0.25761257  0.88006887  1.0
  O  O16  1  0.95693549  0.36583201  0.37486886  1.0
  O  O17  1  0.95693549  0.13416799  0.87486886  1.0
  O  O18  1  0.04306451  0.86583201  0.12513114  1.0
  O  O19  1  0.04306451  0.63416799  0.62513114  1.0
  O  O20  1  0.89659197  0.45632918  0.08783229  1.0
  O  O21  1  0.89659197  0.04367082  0.58783229  1.0
  O  O22  1  0.10340803  0.95632918  0.41216771  1.0
  O  O23  1  0.10340803  0.54367082  0.91216771  1.0
  O  O24  1  0.84349115  0.75398239  0.23905620  1.0
  O  O25  1  0.84349115  0.74601761  0.73905620  1.0
  O  O26  1  0.15650885  0.25398239  0.26094380  1.0
  O  O27  1  0.15650885  0.24601761  0.76094380  1.0
  O  O28  1  0.48625175  0.51401888  0.16156984  1.0
  O  O29  1  0.48625175  -0.01401888  0.66156984  1.0
  O  O30  1  0.51374825  1.01401888  0.33843016  1.0
  O  O31  1  0.51374825  0.48598112  0.83843016  1.0
  O  O32  1  0.22172579  0.39977417  0.44570214  1.0
  O  O33  1  0.22172579  0.10022583  0.94570214  1.0
  O  O34  1  0.77827421  0.89977417  0.05429786  1.0
  O  O35  1  0.77827421  0.60022583  0.55429786  1.0
