# generated using pymatgen
data_Ti4O7
_symmetry_space_group_name_H-M   'P 1'
_cell_length_a   12.56093741
_cell_length_b   7.16632312
_cell_length_c   5.62435122
_cell_angle_alpha   108.92463436
_cell_angle_beta   95.74360934
_cell_angle_gamma   95.13043393
_symmetry_Int_Tables_number   1
_chemical_formula_structural   Ti4O7
_chemical_formula_sum   'Ti16 O28'
_cell_volume   472.49715202
_cell_formula_units_Z   4
loop_
 _symmetry_equiv_pos_site_id
 _symmetry_equiv_pos_as_xyz
  1  'x, y, z'
loop_
 _atom_site_type_symbol
 _atom_site_label
 _atom_site_symmetry_multiplicity
 _atom_site_fract_x
 _atom_site_fract_y
 _atom_site_fract_z
 _atom_site_occupancy
  O  O0  1  -0.80202656  -0.93206475  -0.96579616  1.0
  O  O1  1  -0.19797344  -0.06793525  -0.03420384  1.0
  O  O2  1  -0.30203279  -0.43135926  -0.96579407  1.0
  O  O3  1  -0.69796721  -0.56864074  -0.03420593  1.0
  O  O4  1  -0.48253553  -0.63674394  -0.89196258  1.0
  O  O5  1  -0.51746447  -0.36325606  -0.10803742  1.0
  O  O6  1  -0.98264509  -0.13699422  -0.89206282  1.0
  O  O7  1  -0.01735491  -0.86300578  -0.10793718  1.0
  O  O8  1  -0.58221039  -0.99358306  -0.85301027  1.0
  O  O9  1  -0.41778961  -0.00641694  -0.14698973  1.0
  O  O10  1  -0.77631317  -0.21011735  -0.70514097  1.0
  O  O11  1  -0.22368683  -0.78988265  -0.29485903  1.0
  O  O12  1  -0.27634784  -0.70953367  -0.70514019  1.0
  O  O13  1  -0.72365216  -0.29046633  -0.29485981  1.0
  O  O14  1  -0.86133060  -0.56331101  -0.67224509  1.0
  O  O15  1  -0.13866940  -0.43668899  -0.32775491  1.0
  O  O16  1  -0.66375358  -0.64518730  -0.52579754  1.0
  O  O17  1  -0.33624642  -0.35481270  -0.47420246  1.0
  O  O18  1  -0.83624229  -0.85542058  -0.47427035  1.0
  O  O19  1  -0.16375771  -0.14457942  -0.52572965  1.0
  O  O20  1  -0.44246046  -0.70567007  -0.41418208  1.0
  O  O21  1  -0.55753954  -0.29432993  -0.58581792  1.0
  O  O22  1  -0.94250066  -0.20590858  -0.41419086  1.0
  O  O23  1  -0.05749934  -0.79409142  -0.58580914  1.0
  O  O24  1  -0.63866912  -0.93712001  -0.32773805  1.0
  O  O25  1  -0.36133088  -0.06287999  -0.67226195  1.0
  O  O26  1  -0.91767291  -0.50651716  -0.14684261  1.0
  O  O27  1  -0.08232709  -0.49348284  -0.85315739  1.0
  Ti  Ti28  1  -0.93874842  -0.84651418  -0.78276272  1.0
  Ti  Ti29  1  -0.06125158  -0.15348582  -0.21723728  1.0
  Ti  Ti30  1  -0.20166785  -0.93998908  -0.68685370  1.0
  Ti  Ti31  1  -0.79833215  -0.06001092  -0.31314630  1.0
  Ti  Ti32  1  -0.70162913  -0.44062517  -0.68683451  1.0
  Ti  Ti33  1  -0.29837087  -0.55937483  -0.31316549  1.0
  Ti  Ti34  1  -0.70233212  -0.93848455  -0.68424314  1.0
  Ti  Ti35  1  -0.29766788  -0.06151545  -0.31575686  1.0
  Ti  Ti36  1  -0.79765806  -0.56220206  -0.31585111  1.0
  Ti  Ti37  1  -0.20234194  -0.43779794  -0.68414889  1.0
  Ti  Ti38  1  -0.43402588  -0.85074426  -0.78623788  1.0
  Ti  Ti39  1  -0.56597412  -0.14925574  -0.21376212  1.0
  Ti  Ti40  1  -0.93405771  -0.35100015  -0.78628452  1.0
  Ti  Ti41  1  -0.06594229  -0.64899985  -0.21371548  1.0
  Ti  Ti42  1  -0.43874650  -0.34620415  -0.78281036  1.0
  Ti  Ti43  1  -0.56125350  -0.65379585  -0.21718964  1.0
