# generated using pymatgen
data_Hf9Mo4P
_symmetry_space_group_name_H-M   'P 1'
_cell_length_a   8.63784558
_cell_length_b   8.63784558
_cell_length_c   8.61509058
_cell_angle_alpha   90.00000000
_cell_angle_beta   90.00000000
_cell_angle_gamma   120.00000000
_symmetry_Int_Tables_number   1
_chemical_formula_structural   Hf9Mo4P
_chemical_formula_sum   'Hf18 Mo8 P2'
_cell_volume   556.67452987
_cell_formula_units_Z   2
loop_
 _symmetry_equiv_pos_site_id
 _symmetry_equiv_pos_as_xyz
  1  'x, y, z'
loop_
 _atom_site_type_symbol
 _atom_site_label
 _atom_site_symmetry_multiplicity
 _atom_site_fract_x
 _atom_site_fract_y
 _atom_site_fract_z
 _atom_site_occupancy
  Hf  Hf0  1  0.53887389  0.46112611  0.25000000  1.0
  Hf  Hf1  1  0.53887389  0.07774777  0.25000000  1.0
  Hf  Hf2  1  0.46112611  0.53887389  0.75000000  1.0
  Hf  Hf3  1  0.46112611  0.92225223  0.75000000  1.0
  Hf  Hf4  1  0.92225223  0.46112611  0.25000000  1.0
  Hf  Hf5  1  0.07774777  0.53887389  0.75000000  1.0
  Hf  Hf6  1  0.19801939  0.80198061  0.45304700  1.0
  Hf  Hf7  1  0.19801939  0.80198061  0.04695300  1.0
  Hf  Hf8  1  0.19801939  0.39603877  0.45304700  1.0
  Hf  Hf9  1  0.19801939  0.39603877  0.04695300  1.0
  Hf  Hf10  1  0.80198061  0.19801939  0.95304700  1.0
  Hf  Hf11  1  0.80198061  0.19801939  0.54695300  1.0
  Hf  Hf12  1  0.80198061  0.60396123  0.95304700  1.0
  Hf  Hf13  1  0.80198061  0.60396123  0.54695300  1.0
  Hf  Hf14  1  0.60396123  0.80198061  0.45304700  1.0
  Hf  Hf15  1  0.60396123  0.80198061  0.04695300  1.0
  Hf  Hf16  1  0.39603877  0.19801939  0.95304700  1.0
  Hf  Hf17  1  0.39603877  0.19801939  0.54695300  1.0
  Mo  Mo18  1  0.00000000  0.00000000  0.50000000  1.0
  Mo  Mo19  1  0.00000000  0.00000000  0.00000000  1.0
  Mo  Mo20  1  0.89002081  0.10997919  0.25000000  1.0
  Mo  Mo21  1  0.89002081  0.78004162  0.25000000  1.0
  Mo  Mo22  1  0.10997919  0.89002081  0.75000000  1.0
  Mo  Mo23  1  0.10997919  0.21995838  0.75000000  1.0
  Mo  Mo24  1  0.21995838  0.10997919  0.25000000  1.0
  Mo  Mo25  1  0.78004162  0.89002081  0.75000000  1.0
  P  P26  1  0.33333333  0.66666667  0.25000000  1.0
  P  P27  1  0.66666667  0.33333333  0.75000000  1.0
