# generated using pymatgen
data_Ba2Y(CuO2)4
_symmetry_space_group_name_H-M   'P 1'
_cell_length_a   14.66016591
_cell_length_b   14.66016591
_cell_length_c   3.81126224
_cell_angle_alpha   90.00000000
_cell_angle_beta   90.00000000
_cell_angle_gamma   164.75103826
_symmetry_Int_Tables_number   1
_chemical_formula_structural   Ba2Y(CuO2)4
_chemical_formula_sum   'Ba2 Y1 Cu4 O8'
_cell_volume   215.43934760
_cell_formula_units_Z   1
loop_
 _symmetry_equiv_pos_site_id
 _symmetry_equiv_pos_as_xyz
  1  'x, y, z'
loop_
 _atom_site_type_symbol
 _atom_site_label
 _atom_site_symmetry_multiplicity
 _atom_site_fract_x
 _atom_site_fract_y
 _atom_site_fract_z
 _atom_site_occupancy
  Ba  Ba0  1  0.36256565  0.63743435  0.50000000  1.0
  Ba  Ba1  1  -0.36256565  0.36256565  0.50000000  1.0
  Y  Y2  1  0.00000000  0.00000000  0.00000000  1.0
  Cu  Cu3  1  -0.21518185  0.21518185  0.00000000  1.0
  Cu  Cu4  1  0.21518185  0.78481815  0.00000000  1.0
  Cu  Cu5  1  -0.08289049  0.08289049  -0.00000000  1.0
  Cu  Cu6  1  0.08289049  0.91710951  -0.00000000  1.0
  O  O7  1  -0.15108521  0.15108521  -0.00000000  1.0
  O  O8  1  0.15108521  0.84891479  -0.00000000  1.0
  O  O9  1  -0.05681155  0.05681155  0.50000000  1.0
  O  O10  1  0.05681155  0.94318845  0.50000000  1.0
  O  O11  1  0.44049111  0.55950889  -0.00000000  1.0
  O  O12  1  -0.44049111  0.44049111  -0.00000000  1.0
  O  O13  1  0.27998653  0.72001347  0.00000000  1.0
  O  O14  1  -0.27998653  0.27998653  0.00000000  1.0
