# generated using pymatgen
data_K2MnO4
_symmetry_space_group_name_H-M   'P 1'
_cell_length_a   7.73614574
_cell_length_b   5.99376782
_cell_length_c   10.50180042
_cell_angle_alpha   90.00000000
_cell_angle_beta   90.00000000
_cell_angle_gamma   90.00000000
_symmetry_Int_Tables_number   1
_chemical_formula_structural   K2MnO4
_chemical_formula_sum   'K8 Mn4 O16'
_cell_volume   486.95442700
_cell_formula_units_Z   4
loop_
 _symmetry_equiv_pos_site_id
 _symmetry_equiv_pos_as_xyz
  1  'x, y, z'
loop_
 _atom_site_type_symbol
 _atom_site_label
 _atom_site_symmetry_multiplicity
 _atom_site_fract_x
 _atom_site_fract_y
 _atom_site_fract_z
 _atom_site_occupancy
  K  K0  1  0.83391136  0.75000000  0.42164004  1.0
  K  K1  1  0.33391136  0.75000000  0.07835996  1.0
  K  K2  1  0.16608864  0.25000000  0.57835996  1.0
  K  K3  1  0.66608864  0.25000000  0.92164004  1.0
  K  K4  1  0.50300134  0.75000000  0.69874193  1.0
  K  K5  1  0.00300134  0.75000000  0.80125807  1.0
  K  K6  1  0.49699866  0.25000000  0.30125807  1.0
  K  K7  1  0.99699866  0.25000000  0.19874193  1.0
  Mn  Mn8  1  0.77369293  0.75000000  0.08227190  1.0
  Mn  Mn9  1  0.27369293  0.75000000  0.41772810  1.0
  Mn  Mn10  1  0.22630707  0.25000000  0.91772810  1.0
  Mn  Mn11  1  0.72630707  0.25000000  0.58227190  1.0
  O  O12  1  0.70615542  0.97502313  0.15863958  1.0
  O  O13  1  0.70615542  0.52497687  0.15863958  1.0
  O  O14  1  0.20615542  0.97502313  0.34136042  1.0
  O  O15  1  0.20615542  0.52497687  0.34136042  1.0
  O  O16  1  0.29384458  0.47502313  0.84136042  1.0
  O  O17  1  0.29384458  0.02497687  0.84136042  1.0
  O  O18  1  0.79384458  0.47502313  0.65863958  1.0
  O  O19  1  0.79384458  0.02497687  0.65863958  1.0
  O  O20  1  0.98582071  0.75000000  0.07317057  1.0
  O  O21  1  0.48582071  0.75000000  0.42682943  1.0
  O  O22  1  0.01417929  0.25000000  0.92682943  1.0
  O  O23  1  0.51417929  0.25000000  0.57317057  1.0
  O  O24  1  0.18772504  0.75000000  0.56274560  1.0
  O  O25  1  0.68772504  0.75000000  0.93725440  1.0
  O  O26  1  0.81227496  0.25000000  0.43725440  1.0
  O  O27  1  0.31227496  0.25000000  0.06274560  1.0
