# generated using pymatgen
data_BeH6(NF)2
_symmetry_space_group_name_H-M   'P 1'
_cell_length_a   4.98878909
_cell_length_b   7.53178941
_cell_length_c   10.61065469
_cell_angle_alpha   90.00000000
_cell_angle_beta   91.02079547
_cell_angle_gamma   90.00000000
_symmetry_Int_Tables_number   1
_chemical_formula_structural   BeH6(NF)2
_chemical_formula_sum   'Be4 H24 N8 F8'
_cell_volume   398.62686438
_cell_formula_units_Z   4
loop_
 _symmetry_equiv_pos_site_id
 _symmetry_equiv_pos_as_xyz
  1  'x, y, z'
loop_
 _atom_site_type_symbol
 _atom_site_label
 _atom_site_symmetry_multiplicity
 _atom_site_fract_x
 _atom_site_fract_y
 _atom_site_fract_z
 _atom_site_occupancy
  Be  Be0  1  0.91866769  0.85846219  0.82268039  1.0
  Be  Be1  1  0.91866769  0.64153781  0.32268039  1.0
  Be  Be2  1  0.08133231  0.35846219  0.67731961  1.0
  Be  Be3  1  0.08133231  0.14153781  0.17731961  1.0
  H  H4  1  0.84381661  0.55461945  0.86510131  1.0
  H  H5  1  0.84381661  0.94538055  0.36510131  1.0
  H  H6  1  0.15618339  0.05461945  0.63489869  1.0
  H  H7  1  0.15618339  0.44538055  0.13489869  1.0
  H  H8  1  0.80607983  0.15921131  0.83035050  1.0
  H  H9  1  0.80607983  0.34078869  0.33035050  1.0
  H  H10  1  0.19392017  0.65921131  0.66964950  1.0
  H  H11  1  0.19392017  0.84078869  0.16964950  1.0
  H  H12  1  0.80144959  0.67297415  0.99370638  1.0
  H  H13  1  0.80144959  0.82702585  0.49370638  1.0
  H  H14  1  0.19855041  0.17297415  0.50629362  1.0
  H  H15  1  0.19855041  0.32702585  0.00629362  1.0
  H  H16  1  0.75111918  0.43030410  0.46766648  1.0
  H  H17  1  0.75111918  0.06969590  0.96766648  1.0
  H  H18  1  0.24888082  0.93030410  0.03233352  1.0
  H  H19  1  0.24888082  0.56969590  0.53233352  1.0
  H  H20  1  0.56546439  0.67406377  0.88266616  1.0
  H  H21  1  0.56546439  0.82593623  0.38266616  1.0
  H  H22  1  0.43453561  0.17406377  0.61733384  1.0
  H  H23  1  0.43453561  0.32593623  0.11733384  1.0
  H  H24  1  0.46091109  0.52791377  0.64993855  1.0
  H  H25  1  0.46091109  0.97208623  0.14993855  1.0
  H  H26  1  0.53908891  0.02791377  0.85006145  1.0
  H  H27  1  0.53908891  0.47208623  0.35006145  1.0
  N  N28  1  0.76913286  0.67322762  0.89742956  1.0
  N  N29  1  0.76913286  0.82677238  0.39742956  1.0
  N  N30  1  0.23086714  0.17322762  0.60257044  1.0
  N  N31  1  0.23086714  0.32677238  0.10257044  1.0
  N  N32  1  0.73876706  0.45507484  0.37196853  1.0
  N  N33  1  0.73876706  0.04492516  0.87196853  1.0
  N  N34  1  0.26123294  0.95507484  0.12803147  1.0
  N  N35  1  0.26123294  0.54492516  0.62803147  1.0
  F  F36  1  0.78286377  0.36681423  0.63398235  1.0
  F  F37  1  0.78286377  0.13318577  0.13398235  1.0
  F  F38  1  0.21713623  0.86681423  0.86601765  1.0
  F  F39  1  0.21713623  0.63318577  0.36601765  1.0
  F  F40  1  0.89854151  0.84587728  0.67712421  1.0
  F  F41  1  0.89854151  0.65412272  0.17712421  1.0
  F  F42  1  0.10145849  0.34587728  0.82287579  1.0
  F  F43  1  0.10145849  0.15412272  0.32287579  1.0
