# generated using pymatgen
data_Cs3InO3
_symmetry_space_group_name_H-M   'P 1'
_cell_length_a   8.25560169
_cell_length_b   7.48354371
_cell_length_c   11.98854161
_cell_angle_alpha   90.00000000
_cell_angle_beta   95.84300319
_cell_angle_gamma   90.00000000
_symmetry_Int_Tables_number   1
_chemical_formula_structural   Cs3InO3
_chemical_formula_sum   'Cs12 In4 O12'
_cell_volume   736.81789086
_cell_formula_units_Z   4
loop_
 _symmetry_equiv_pos_site_id
 _symmetry_equiv_pos_as_xyz
  1  'x, y, z'
loop_
 _atom_site_type_symbol
 _atom_site_label
 _atom_site_symmetry_multiplicity
 _atom_site_fract_x
 _atom_site_fract_y
 _atom_site_fract_z
 _atom_site_occupancy
  Cs  Cs0  1  0.94988360  0.37145278  0.34263921  1.0
  Cs  Cs1  1  0.94988360  0.12854722  0.84263921  1.0
  Cs  Cs2  1  0.05011640  0.87145278  0.15736079  1.0
  Cs  Cs3  1  0.05011640  0.62854722  0.65736079  1.0
  Cs  Cs4  1  0.65716431  0.16187403  0.07373135  1.0
  Cs  Cs5  1  0.65716431  0.33812597  0.57373135  1.0
  Cs  Cs6  1  0.34283569  0.66187403  0.42626865  1.0
  Cs  Cs7  1  0.34283569  0.83812597  0.92626865  1.0
  Cs  Cs8  1  0.37742392  0.17572529  0.30711427  1.0
  Cs  Cs9  1  0.37742392  0.32427471  0.80711427  1.0
  Cs  Cs10  1  0.62257608  0.67572529  0.19288573  1.0
  Cs  Cs11  1  0.62257608  0.82427471  0.69288573  1.0
  In  In12  1  0.84481273  0.91312428  0.43176856  1.0
  In  In13  1  0.84481273  0.58687572  0.93176856  1.0
  In  In14  1  0.15518727  0.41312428  0.06823144  1.0
  In  In15  1  0.15518727  0.08687572  0.56823144  1.0
  O  O16  1  0.89725132  0.44670178  0.08932899  1.0
  O  O17  1  0.89725132  0.05329822  0.58932899  1.0
  O  O18  1  0.10274868  0.94670178  0.41067101  1.0
  O  O19  1  0.10274868  0.55329822  0.91067101  1.0
  O  O20  1  0.75828961  0.84198109  0.95817850  1.0
  O  O21  1  0.75828961  0.65801891  0.45817850  1.0
  O  O22  1  0.24171039  0.34198109  0.54182150  1.0
  O  O23  1  0.24171039  0.15801891  0.04182150  1.0
  O  O24  1  0.71010834  0.04893360  0.30352354  1.0
  O  O25  1  0.71010834  0.45106640  0.80352354  1.0
  O  O26  1  0.28989166  0.54893360  0.19647646  1.0
  O  O27  1  0.28989166  0.95106640  0.69647646  1.0
