# generated using pymatgen
data_Sb2Te3
_symmetry_space_group_name_H-M   'P 1'
_cell_length_a   8.04461229
_cell_length_b   8.04461229
_cell_length_c   10.40236643
_cell_angle_alpha   83.52480858
_cell_angle_beta   96.47519142
_cell_angle_gamma   149.02698221
_symmetry_Int_Tables_number   1
_chemical_formula_structural   Sb2Te3
_chemical_formula_sum   'Sb4 Te6'
_cell_volume   344.07013636
_cell_formula_units_Z   2
loop_
 _symmetry_equiv_pos_site_id
 _symmetry_equiv_pos_as_xyz
  1  'x, y, z'
loop_
 _atom_site_type_symbol
 _atom_site_label
 _atom_site_symmetry_multiplicity
 _atom_site_fract_x
 _atom_site_fract_y
 _atom_site_fract_z
 _atom_site_occupancy
  Sb  Sb0  1  0.51701552  0.48298448  0.78475287  1.0
  Sb  Sb1  1  0.48298448  -0.48298448  0.21524713  1.0
  Sb  Sb2  1  0.26446076  -0.26446076  0.81960026  1.0
  Sb  Sb3  1  0.73553924  0.26446076  0.18039974  1.0
  Te  Te4  1  0.92359871  0.07640129  0.63576597  1.0
  Te  Te5  1  0.07640129  -0.07640129  0.36423403  1.0
  Te  Te6  1  0.86552502  0.13447498  1.00608404  1.0
  Te  Te7  1  0.13447498  -0.13447498  -0.00608404  1.0
  Te  Te8  1  0.66872355  0.33127645  0.64909397  1.0
  Te  Te9  1  0.33127645  -0.33127645  0.35090603  1.0
