# generated using pymatgen
data_Zn(InSe2)2
_symmetry_space_group_name_H-M   'P 1'
_cell_length_a   7.16931654
_cell_length_b   7.16931654
_cell_length_c   7.16931654
_cell_angle_alpha   132.24536766
_cell_angle_beta   132.24536766
_cell_angle_gamma   69.84177034
_symmetry_Int_Tables_number   1
_chemical_formula_structural   Zn(InSe2)2
_chemical_formula_sum   'Zn1 In2 Se4'
_cell_volume   198.02238444
_cell_formula_units_Z   1
loop_
 _symmetry_equiv_pos_site_id
 _symmetry_equiv_pos_as_xyz
  1  'x, y, z'
loop_
 _atom_site_type_symbol
 _atom_site_label
 _atom_site_symmetry_multiplicity
 _atom_site_fract_x
 _atom_site_fract_y
 _atom_site_fract_z
 _atom_site_occupancy
  Zn  Zn0  1  -0.00000000  -0.00000000  -0.00000000  1.0
  In  In1  1  0.25000000  0.75000000  0.50000000  1.0
  In  In2  1  0.50000000  0.50000000  1.00000000  1.0
  Se  Se3  1  0.39237555  0.91308239  1.04420471  1.0
  Se  Se4  1  1.08691761  1.13112231  1.47929316  1.0
  Se  Se5  1  0.86887769  0.34817085  0.95579529  1.0
  Se  Se6  1  0.65182915  0.60762445  0.52070684  1.0
