# generated using pymatgen
data_Cd2Hg
_symmetry_space_group_name_H-M   'P 1'
_cell_length_a   5.23164695
_cell_length_b   5.23164695
_cell_length_c   5.23164695
_cell_angle_alpha   134.65974013
_cell_angle_beta   134.65974013
_cell_angle_gamma   66.05934869
_symmetry_Int_Tables_number   1
_chemical_formula_structural   Cd2Hg
_chemical_formula_sum   'Cd2 Hg1'
_cell_volume   71.33462527
_cell_formula_units_Z   1
loop_
 _symmetry_equiv_pos_site_id
 _symmetry_equiv_pos_as_xyz
  1  'x, y, z'
loop_
 _atom_site_type_symbol
 _atom_site_label
 _atom_site_symmetry_multiplicity
 _atom_site_fract_x
 _atom_site_fract_y
 _atom_site_fract_z
 _atom_site_occupancy
  Cd  Cd0  1  0.66631145  0.66631145  1.00000000  1.0
  Cd  Cd1  1  0.33368855  0.33368855  -0.00000000  1.0
  Hg  Hg2  1  0.00000000  0.00000000  0.00000000  1.0
