# generated using pymatgen
data_CsIO4
_symmetry_space_group_name_H-M   'P 1'
_cell_length_a   6.07898533
_cell_length_b   6.14852076
_cell_length_c   14.98874935
_cell_angle_alpha   90.00000000
_cell_angle_beta   90.00000000
_cell_angle_gamma   90.00000000
_symmetry_Int_Tables_number   1
_chemical_formula_structural   CsIO4
_chemical_formula_sum   'Cs4 I4 O16'
_cell_volume   560.23099967
_cell_formula_units_Z   4
loop_
 _symmetry_equiv_pos_site_id
 _symmetry_equiv_pos_as_xyz
  1  'x, y, z'
loop_
 _atom_site_type_symbol
 _atom_site_label
 _atom_site_symmetry_multiplicity
 _atom_site_fract_x
 _atom_site_fract_y
 _atom_site_fract_z
 _atom_site_occupancy
  Cs  Cs0  1  0.48006066  0.75000000  0.12793525  1.0
  Cs  Cs1  1  0.98006066  0.75000000  0.37206475  1.0
  Cs  Cs2  1  0.51993934  0.25000000  0.87206475  1.0
  Cs  Cs3  1  0.01993934  0.25000000  0.62793525  1.0
  I  I4  1  0.03212948  0.75000000  0.88294655  1.0
  I  I5  1  0.53212948  0.75000000  0.61705345  1.0
  I  I6  1  0.96787052  0.25000000  0.11705345  1.0
  I  I7  1  0.46787052  0.25000000  0.38294655  1.0
  O  O8  1  0.48229565  0.99506319  0.68509117  1.0
  O  O9  1  0.48229565  0.50493681  0.68509117  1.0
  O  O10  1  0.98229565  0.99506319  0.81490883  1.0
  O  O11  1  0.98229565  0.50493681  0.81490883  1.0
  O  O12  1  0.51770435  0.49506319  0.31490883  1.0
  O  O13  1  0.51770435  0.00493681  0.31490883  1.0
  O  O14  1  0.01770435  0.49506319  0.18509117  1.0
  O  O15  1  0.01770435  0.00493681  0.18509117  1.0
  O  O16  1  0.34157899  0.75000000  0.52195529  1.0
  O  O17  1  0.84157899  0.75000000  0.97804471  1.0
  O  O18  1  0.65842101  0.25000000  0.47804471  1.0
  O  O19  1  0.15842101  0.25000000  0.02195529  1.0
  O  O20  1  0.32080710  0.75000000  0.92067860  1.0
  O  O21  1  0.82080710  0.75000000  0.57932140  1.0
  O  O22  1  0.67919290  0.25000000  0.07932140  1.0
  O  O23  1  0.17919290  0.25000000  0.42067860  1.0
