# generated using pymatgen
data_Sc2GeO5
_symmetry_space_group_name_H-M   'P 1'
_cell_length_a   7.63791074
_cell_length_b   7.63791074
_cell_length_c   10.75558333
_cell_angle_alpha   87.50253107
_cell_angle_beta   92.49746893
_cell_angle_gamma   92.28529325
_symmetry_Int_Tables_number   1
_chemical_formula_structural   Sc2GeO5
_chemical_formula_sum   'Sc12 Ge6 O30'
_cell_volume   625.81088108
_cell_formula_units_Z   6
loop_
 _symmetry_equiv_pos_site_id
 _symmetry_equiv_pos_as_xyz
  1  'x, y, z'
loop_
 _atom_site_type_symbol
 _atom_site_label
 _atom_site_symmetry_multiplicity
 _atom_site_fract_x
 _atom_site_fract_y
 _atom_site_fract_z
 _atom_site_occupancy
  Sc  Sc0  1  1.49418170  -0.19571166  0.56159316  1.0
  Sc  Sc1  1  1.19571166  -0.49418170  0.06159316  1.0
  Sc  Sc2  1  0.80428834  0.49418170  0.93840684  1.0
  Sc  Sc3  1  0.50581830  0.19571166  0.43840684  1.0
  Sc  Sc4  1  0.49227135  0.13921402  0.74530721  1.0
  Sc  Sc5  1  0.86078598  0.50772865  0.24530721  1.0
  Sc  Sc6  1  1.13921402  -0.50772865  0.75469279  1.0
  Sc  Sc7  1  1.50772865  -0.13921402  0.25469279  1.0
  Sc  Sc8  1  0.15182440  0.12980424  0.92972347  1.0
  Sc  Sc9  1  0.87019576  0.84817560  0.42972347  1.0
  Sc  Sc10  1  1.12980424  -0.84817560  0.57027653  1.0
  Sc  Sc11  1  1.84817560  -0.12980424  0.07027653  1.0
  Ge  Ge12  1  1.43883640  -0.22613487  0.95625476  1.0
  Ge  Ge13  1  1.22613487  -0.43883640  0.45625476  1.0
  Ge  Ge14  1  0.77386513  0.43883640  0.54374524  1.0
  Ge  Ge15  1  0.56116360  0.22613487  0.04374524  1.0
  Ge  Ge16  1  0.85680851  0.85680851  0.75000000  1.0
  Ge  Ge17  1  0.14319149  0.14319149  0.25000000  1.0
  O  O18  1  1.93980943  -0.03477490  0.88560983  1.0
  O  O19  1  1.03477490  -0.93980943  0.38560983  1.0
  O  O20  1  0.96522510  0.93980943  0.61439017  1.0
  O  O21  1  0.06019057  0.03477490  0.11439017  1.0
  O  O22  1  1.66230234  -0.27471381  0.95334370  1.0
  O  O23  1  1.27471381  -0.66230234  0.45334370  1.0
  O  O24  1  0.72528619  0.66230234  0.54665630  1.0
  O  O25  1  0.33769766  0.27471381  0.04665630  1.0
  O  O26  1  1.63267092  -0.09304971  0.71894421  1.0
  O  O27  1  1.09304971  -0.63267092  0.21894421  1.0
  O  O28  1  0.90695029  0.63267092  0.78105579  1.0
  O  O29  1  0.36732908  0.09304971  0.28105579  1.0
  O  O30  1  1.37442482  -0.01873058  0.89570265  1.0
  O  O31  1  1.01873058  -0.37442482  0.39570265  1.0
  O  O32  1  0.98126942  0.37442482  0.60429735  1.0
  O  O33  1  0.62557518  0.01873058  0.10429735  1.0
  O  O34  1  0.63004942  0.27866706  0.88758510  1.0
  O  O35  1  0.72133294  0.36995058  0.38758510  1.0
  O  O36  1  1.27866706  -0.36995058  0.61241490  1.0
  O  O37  1  1.36995058  -0.27866706  0.11241490  1.0
  O  O38  1  0.36923147  0.03662611  0.57520821  1.0
  O  O39  1  0.96337389  0.63076853  0.07520821  1.0
  O  O40  1  1.03662611  -0.63076853  0.92479179  1.0
  O  O41  1  1.63076853  -0.03662611  0.42479179  1.0
  O  O42  1  0.60933585  0.30099661  0.61317816  1.0
  O  O43  1  0.69900339  0.39066415  0.11317816  1.0
  O  O44  1  1.30099661  -0.39066415  0.88682184  1.0
  O  O45  1  1.39066415  -0.30099661  0.38682184  1.0
  O  O46  1  0.23713122  0.23713122  0.75000000  1.0
  O  O47  1  0.76286878  0.76286878  0.25000000  1.0
