# generated using pymatgen
data_CaGa4
_symmetry_space_group_name_H-M   'P 1'
_cell_length_a   6.20537615
_cell_length_b   6.20537615
_cell_length_c   6.20537615
_cell_angle_alpha   138.62078558
_cell_angle_beta   138.62078558
_cell_angle_gamma   59.95355458
_symmetry_Int_Tables_number   1
_chemical_formula_structural   CaGa4
_chemical_formula_sum   'Ca1 Ga4'
_cell_volume   103.34667245
_cell_formula_units_Z   1
loop_
 _symmetry_equiv_pos_site_id
 _symmetry_equiv_pos_as_xyz
  1  'x, y, z'
loop_
 _atom_site_type_symbol
 _atom_site_label
 _atom_site_symmetry_multiplicity
 _atom_site_fract_x
 _atom_site_fract_y
 _atom_site_fract_z
 _atom_site_occupancy
  Ca  Ca0  1  0.00000000  0.00000000  0.00000000  1.0
  Ga  Ga1  1  0.61500537  0.61500537  1.00000000  1.0
  Ga  Ga2  1  0.38499463  0.38499463  -0.00000000  1.0
  Ga  Ga3  1  0.25000000  0.75000000  0.50000000  1.0
  Ga  Ga4  1  0.75000000  0.25000000  0.50000000  1.0
