# generated using pymatgen
data_AgHg2AsO4
_symmetry_space_group_name_H-M   'P 1'
_cell_length_a   8.99282299
_cell_length_b   9.85359927
_cell_length_c   6.35652914
_cell_angle_alpha   90.00000000
_cell_angle_beta   90.00000000
_cell_angle_gamma   90.00000000
_symmetry_Int_Tables_number   1
_chemical_formula_structural   AgHg2AsO4
_chemical_formula_sum   'Ag4 Hg8 As4 O16'
_cell_volume   563.26268753
_cell_formula_units_Z   4
loop_
 _symmetry_equiv_pos_site_id
 _symmetry_equiv_pos_as_xyz
  1  'x, y, z'
loop_
 _atom_site_type_symbol
 _atom_site_label
 _atom_site_symmetry_multiplicity
 _atom_site_fract_x
 _atom_site_fract_y
 _atom_site_fract_z
 _atom_site_occupancy
  Ag  Ag0  1  0.03269436  0.85877833  0.50000000  1.0
  Ag  Ag1  1  0.53269436  0.64122167  0.50000000  1.0
  Ag  Ag2  1  0.96730564  0.14122167  0.50000000  1.0
  Ag  Ag3  1  0.46730564  0.35877833  0.50000000  1.0
  Hg  Hg4  1  0.25866046  0.53474667  0.71083868  1.0
  Hg  Hg5  1  0.25866046  0.53474667  0.28916132  1.0
  Hg  Hg6  1  0.75866046  0.96525333  0.71083868  1.0
  Hg  Hg7  1  0.75866046  0.96525333  0.28916132  1.0
  Hg  Hg8  1  0.74133954  0.46525333  0.71083868  1.0
  Hg  Hg9  1  0.74133954  0.46525333  0.28916132  1.0
  Hg  Hg10  1  0.24133954  0.03474667  0.71083868  1.0
  Hg  Hg11  1  0.24133954  0.03474667  0.28916132  1.0
  As  As12  1  0.46363603  0.78892611  0.00000000  1.0
  As  As13  1  0.96363603  0.71107389  0.00000000  1.0
  As  As14  1  0.53636397  0.21107389  0.00000000  1.0
  As  As15  1  0.03636397  0.28892611  0.00000000  1.0
  O  O16  1  0.06225184  0.69772603  0.76553300  1.0
  O  O17  1  0.06225184  0.69772603  0.23446700  1.0
  O  O18  1  0.56225184  0.80227397  0.76553300  1.0
  O  O19  1  0.56225184  0.80227397  0.23446700  1.0
  O  O20  1  0.93774816  0.30227397  0.76553300  1.0
  O  O21  1  0.93774816  0.30227397  0.23446700  1.0
  O  O22  1  0.43774816  0.19772603  0.76553300  1.0
  O  O23  1  0.43774816  0.19772603  0.23446700  1.0
  O  O24  1  0.38099576  0.62823446  -0.00000000  1.0
  O  O25  1  0.88099576  0.87176554  0.00000000  1.0
  O  O26  1  0.61900424  0.37176554  -0.00000000  1.0
  O  O27  1  0.11900424  0.12823446  0.00000000  1.0
  O  O28  1  0.32821786  0.91807849  -0.00000000  1.0
  O  O29  1  0.82821786  0.58192151  -0.00000000  1.0
  O  O30  1  0.67178214  0.08192151  -0.00000000  1.0
  O  O31  1  0.17178214  0.41807849  -0.00000000  1.0
