# generated using pymatgen
data_Sc3B2Ir5
_symmetry_space_group_name_H-M   'P 1'
_cell_length_a   9.59717976
_cell_length_b   9.59717976
_cell_length_c   3.07606299
_cell_angle_alpha   90.00000000
_cell_angle_beta   90.00000000
_cell_angle_gamma   90.00000000
_symmetry_Int_Tables_number   1
_chemical_formula_structural   Sc3B2Ir5
_chemical_formula_sum   'Sc6 B4 Ir10'
_cell_volume   283.32342475
_cell_formula_units_Z   2
loop_
 _symmetry_equiv_pos_site_id
 _symmetry_equiv_pos_as_xyz
  1  'x, y, z'
loop_
 _atom_site_type_symbol
 _atom_site_label
 _atom_site_symmetry_multiplicity
 _atom_site_fract_x
 _atom_site_fract_y
 _atom_site_fract_z
 _atom_site_occupancy
  Sc  Sc0  1  0.32332065  0.17667935  0.00000000  1.0
  Sc  Sc1  1  0.82332065  0.32332065  0.00000000  1.0
  Sc  Sc2  1  0.67667935  0.82332065  0.00000000  1.0
  Sc  Sc3  1  0.17667935  0.67667935  0.00000000  1.0
  Sc  Sc4  1  0.50000000  0.50000000  0.00000000  1.0
  Sc  Sc5  1  0.00000000  0.00000000  0.00000000  1.0
  B  B6  1  0.87763303  0.62236697  0.00000000  1.0
  B  B7  1  0.37763303  0.87763303  0.00000000  1.0
  B  B8  1  0.12236697  0.37763303  0.00000000  1.0
  B  B9  1  0.62236697  0.12236697  0.00000000  1.0
  Ir  Ir10  1  0.42980170  0.72279263  0.50000000  1.0
  Ir  Ir11  1  0.92980170  0.77720737  0.50000000  1.0
  Ir  Ir12  1  0.27720737  0.42980170  0.50000000  1.0
  Ir  Ir13  1  0.77720737  0.07019830  0.50000000  1.0
  Ir  Ir14  1  0.57019830  0.27720737  0.50000000  1.0
  Ir  Ir15  1  0.07019830  0.22279263  0.50000000  1.0
  Ir  Ir16  1  0.72279263  0.57019830  0.50000000  1.0
  Ir  Ir17  1  0.22279263  0.92980170  0.50000000  1.0
  Ir  Ir18  1  0.50000000  0.00000000  0.50000000  1.0
  Ir  Ir19  1  0.00000000  0.50000000  0.50000000  1.0
