# generated using pymatgen
data_K6Na3AlSb4
_symmetry_space_group_name_H-M   'P 1'
_cell_length_a   10.30119427
_cell_length_b   10.30119427
_cell_length_c   10.54004682
_cell_angle_alpha   90.00000000
_cell_angle_beta   90.00000000
_cell_angle_gamma   120.00000000
_symmetry_Int_Tables_number   1
_chemical_formula_structural   K6Na3AlSb4
_chemical_formula_sum   'K12 Na6 Al2 Sb8'
_cell_volume   968.60861432
_cell_formula_units_Z   2
loop_
 _symmetry_equiv_pos_site_id
 _symmetry_equiv_pos_as_xyz
  1  'x, y, z'
loop_
 _atom_site_type_symbol
 _atom_site_label
 _atom_site_symmetry_multiplicity
 _atom_site_fract_x
 _atom_site_fract_y
 _atom_site_fract_z
 _atom_site_occupancy
  K  K0  1  0.20703896  0.79296104  0.95722897  1.0
  K  K1  1  0.20703896  0.79296104  0.54277103  1.0
  K  K2  1  0.20703896  0.41407792  0.95722897  1.0
  K  K3  1  0.20703896  0.41407792  0.54277103  1.0
  K  K4  1  0.79296104  0.20703896  0.45722897  1.0
  K  K5  1  0.79296104  0.20703896  0.04277103  1.0
  K  K6  1  0.79296104  0.58592208  0.45722897  1.0
  K  K7  1  0.79296104  0.58592208  0.04277103  1.0
  K  K8  1  0.58592208  0.79296104  0.95722897  1.0
  K  K9  1  0.58592208  0.79296104  0.54277103  1.0
  K  K10  1  0.41407792  0.20703896  0.45722897  1.0
  K  K11  1  0.41407792  0.20703896  0.04277103  1.0
  Na  Na12  1  0.11696910  0.88303090  0.25000000  1.0
  Na  Na13  1  0.11696910  0.23393820  0.25000000  1.0
  Na  Na14  1  0.88303090  0.11696910  0.75000000  1.0
  Na  Na15  1  0.88303090  0.76606180  0.75000000  1.0
  Na  Na16  1  0.76606180  0.88303090  0.25000000  1.0
  Na  Na17  1  0.23393820  0.11696910  0.75000000  1.0
  Al  Al18  1  0.33333333  0.66666667  0.25000000  1.0
  Al  Al19  1  0.66666667  0.33333333  0.75000000  1.0
  Sb  Sb20  1  0.48105537  0.51894463  0.25000000  1.0
  Sb  Sb21  1  0.48105537  0.96211075  0.25000000  1.0
  Sb  Sb22  1  0.51894463  0.48105537  0.75000000  1.0
  Sb  Sb23  1  0.51894463  0.03788925  0.75000000  1.0
  Sb  Sb24  1  0.03788925  0.51894463  0.25000000  1.0
  Sb  Sb25  1  0.96211075  0.48105537  0.75000000  1.0
  Sb  Sb26  1  0.00000000  0.00000000  0.50000000  1.0
  Sb  Sb27  1  0.00000000  0.00000000  0.00000000  1.0
