# generated using pymatgen
data_Y4TiSi2(O3F2)3
_symmetry_space_group_name_H-M   'P 1'
_cell_length_a   9.20561898
_cell_length_b   9.20561898
_cell_length_c   7.10840808
_cell_angle_alpha   90.00000000
_cell_angle_beta   90.00000000
_cell_angle_gamma   70.92496286
_symmetry_Int_Tables_number   1
_chemical_formula_structural   Y4TiSi2(O3F2)3
_chemical_formula_sum   'Y8 Ti2 Si4 O18 F12'
_cell_volume   569.31437336
_cell_formula_units_Z   2
loop_
 _symmetry_equiv_pos_site_id
 _symmetry_equiv_pos_as_xyz
  1  'x, y, z'
loop_
 _atom_site_type_symbol
 _atom_site_label
 _atom_site_symmetry_multiplicity
 _atom_site_fract_x
 _atom_site_fract_y
 _atom_site_fract_z
 _atom_site_occupancy
  Y  Y0  1  0.07601443  0.66308310  0.25000000  1.0
  Y  Y1  1  -0.33691690  1.07601443  0.75000000  1.0
  Y  Y2  1  0.33691690  0.92398557  0.25000000  1.0
  Y  Y3  1  -0.07601443  1.33691690  0.75000000  1.0
  Y  Y4  1  -0.28938606  1.58198132  0.25000000  1.0
  Y  Y5  1  0.58198132  0.71061394  0.75000000  1.0
  Y  Y6  1  -0.58198132  1.28938606  0.25000000  1.0
  Y  Y7  1  0.28938606  0.41801868  0.75000000  1.0
  Ti  Ti8  1  0.00000000  0.00000000  0.50000000  1.0
  Ti  Ti9  1  0.00000000  0.00000000  0.00000000  1.0
  Si  Si10  1  0.03686706  0.27745750  0.25000000  1.0
  Si  Si11  1  -0.72254250  1.03686706  0.75000000  1.0
  Si  Si12  1  0.72254250  0.96313294  0.25000000  1.0
  Si  Si13  1  -0.03686706  1.72254250  0.75000000  1.0
  O  O14  1  -0.03214645  1.22115966  0.44351625  1.0
  O  O15  1  -0.03214645  1.22115966  0.05648375  1.0
  O  O16  1  0.22115966  0.96785355  0.94351625  1.0
  O  O17  1  0.22115966  0.96785355  0.55648375  1.0
  O  O18  1  -0.22115966  1.03214645  0.44351625  1.0
  O  O19  1  -0.22115966  1.03214645  0.05648375  1.0
  O  O20  1  0.03214645  0.77884034  0.94351625  1.0
  O  O21  1  0.03214645  0.77884034  0.55648375  1.0
  O  O22  1  -0.19441945  1.77605741  0.25000000  1.0
  O  O23  1  0.77605741  0.80558055  0.75000000  1.0
  O  O24  1  -0.77605741  1.19441945  0.25000000  1.0
  O  O25  1  0.19441945  0.22394259  0.75000000  1.0
  O  O26  1  -0.02872022  1.46631417  0.25000000  1.0
  O  O27  1  0.46631417  0.97127978  0.75000000  1.0
  O  O28  1  -0.46631417  1.02872022  0.25000000  1.0
  O  O29  1  0.02872022  0.53368583  0.75000000  1.0
  O  O30  1  0.06136737  0.93863263  0.25000000  1.0
  O  O31  1  -0.06136737  1.06136737  0.75000000  1.0
  F  F32  1  0.24622153  0.47137321  0.43845942  1.0
  F  F33  1  0.24622153  0.47137321  0.06154058  1.0
  F  F34  1  -0.52862679  1.24622153  0.93845942  1.0
  F  F35  1  -0.52862679  1.24622153  0.56154058  1.0
  F  F36  1  0.52862679  0.75377847  0.43845942  1.0
  F  F37  1  0.52862679  0.75377847  0.06154058  1.0
  F  F38  1  -0.24622153  1.52862679  0.93845942  1.0
  F  F39  1  -0.24622153  1.52862679  0.56154058  1.0
  F  F40  1  0.30008871  0.69991129  0.25000000  1.0
  F  F41  1  -0.30008871  1.30008871  0.75000000  1.0
  F  F42  1  -0.41288350  1.41288350  0.25000000  1.0
  F  F43  1  0.41288350  0.58711650  0.75000000  1.0
