# generated using pymatgen
data_Ba2(CuO2)3
_symmetry_space_group_name_H-M   'P 1'
_cell_length_a   8.31326204
_cell_length_b   7.54336044
_cell_length_c   12.79786801
_cell_angle_alpha   90.00000000
_cell_angle_beta   116.70030121
_cell_angle_gamma   90.00000000
_symmetry_Int_Tables_number   1
_chemical_formula_structural   Ba2(CuO2)3
_chemical_formula_sum   'Ba8 Cu12 O24'
_cell_volume   716.97637870
_cell_formula_units_Z   4
loop_
 _symmetry_equiv_pos_site_id
 _symmetry_equiv_pos_as_xyz
  1  'x, y, z'
loop_
 _atom_site_type_symbol
 _atom_site_label
 _atom_site_symmetry_multiplicity
 _atom_site_fract_x
 _atom_site_fract_y
 _atom_site_fract_z
 _atom_site_occupancy
  Ba  Ba0  1  0.79228110  0.50000000  0.25016531  1.0
  Ba  Ba1  1  0.20771890  0.50000000  0.74983469  1.0
  Ba  Ba2  1  0.76322511  0.50000000  0.75049972  1.0
  Ba  Ba3  1  0.23677489  0.50000000  0.24950028  1.0
  Ba  Ba4  1  0.90069980  0.00000000  0.74668157  1.0
  Ba  Ba5  1  0.09930020  0.00000000  0.25331843  1.0
  Ba  Ba6  1  0.45827784  0.00000000  0.75073442  1.0
  Ba  Ba7  1  0.54172216  0.00000000  0.24926558  1.0
  Cu  Cu8  1  0.66793108  0.75049741  0.00024173  1.0
  Cu  Cu9  1  0.66793108  0.24950259  0.00024173  1.0
  Cu  Cu10  1  0.33206892  0.75049741  -0.00024173  1.0
  Cu  Cu11  1  0.33206892  0.24950259  -0.00024173  1.0
  Cu  Cu12  1  0.66500645  0.75166640  0.49875546  1.0
  Cu  Cu13  1  0.66500645  0.24833360  0.49875546  1.0
  Cu  Cu14  1  0.33499355  0.75166640  0.50124454  1.0
  Cu  Cu15  1  0.33499355  0.24833360  0.50124454  1.0
  Cu  Cu16  1  -0.00000000  0.74536687  0.50000000  1.0
  Cu  Cu17  1  -0.00000000  0.25463313  0.50000000  1.0
  Cu  Cu18  1  0.00000000  0.74998204  0.00000000  1.0
  Cu  Cu19  1  0.00000000  0.25001796  0.00000000  1.0
  O  O20  1  0.90837169  0.73460872  0.61096960  1.0
  O  O21  1  0.90837169  0.26539128  0.61096960  1.0
  O  O22  1  0.09162831  0.73460872  0.38903040  1.0
  O  O23  1  0.09162831  0.26539128  0.38903040  1.0
  O  O24  1  0.91140853  0.73649724  0.11193512  1.0
  O  O25  1  0.91140853  0.26350276  0.11193512  1.0
  O  O26  1  0.08859147  0.73649724  0.88806488  1.0
  O  O27  1  0.08859147  0.26350276  0.88806488  1.0
  O  O28  1  0.75663368  0.76178752  0.88844975  1.0
  O  O29  1  0.75663368  0.23821248  0.88844975  1.0
  O  O30  1  0.24336632  0.76178752  0.11155025  1.0
  O  O31  1  0.24336632  0.23821248  0.11155025  1.0
  O  O32  1  0.75734028  0.74593551  0.38997670  1.0
  O  O33  1  0.75734028  0.25406449  0.38997670  1.0
  O  O34  1  0.24265972  0.74593551  0.61002330  1.0
  O  O35  1  0.24265972  0.25406449  0.61002330  1.0
  O  O36  1  0.57902906  0.76903152  0.61194599  1.0
  O  O37  1  0.57902906  0.23096848  0.61194599  1.0
  O  O38  1  0.42097094  0.76903152  0.38805401  1.0
  O  O39  1  0.42097094  0.23096848  0.38805401  1.0
  O  O40  1  0.42487699  0.75211378  0.89105308  1.0
  O  O41  1  0.42487699  0.24788622  0.89105308  1.0
  O  O42  1  0.57512301  0.75211378  0.10894692  1.0
  O  O43  1  0.57512301  0.24788622  0.10894692  1.0
