# generated using pymatgen
data_Li4CO4
_symmetry_space_group_name_H-M   'P 1'
_cell_length_a   4.50811342
_cell_length_b   4.50811342
_cell_length_c   4.65521983
_cell_angle_alpha   79.58592718
_cell_angle_beta   100.41407282
_cell_angle_gamma   84.76629647
_symmetry_Int_Tables_number   1
_chemical_formula_structural   Li4CO4
_chemical_formula_sum   'Li4 C1 O4'
_cell_volume   90.76343545
_cell_formula_units_Z   1
loop_
 _symmetry_equiv_pos_site_id
 _symmetry_equiv_pos_as_xyz
  1  'x, y, z'
loop_
 _atom_site_type_symbol
 _atom_site_label
 _atom_site_symmetry_multiplicity
 _atom_site_fract_x
 _atom_site_fract_y
 _atom_site_fract_z
 _atom_site_occupancy
  Li  Li0  1  1.01815601  -0.61261923  -0.02287062  1.0
  Li  Li1  1  1.61261923  -0.01815601  -0.02287062  1.0
  Li  Li2  1  0.48059826  0.04757433  0.46967703  1.0
  Li  Li3  1  0.95242567  0.51940174  0.46967703  1.0
  C  C4  1  1.00407747  -0.00407747  0.51985749  1.0
  O  O5  1  0.18920331  0.16181243  0.69751132  1.0
  O  O6  1  0.83818757  0.81079669  0.69751132  1.0
  O  O7  1  0.77744121  0.22255879  0.28502812  1.0
  O  O8  1  1.16753127  -0.16753127  0.36804893  1.0
