# generated using pymatgen
data_Ho2CuO4
_symmetry_space_group_name_H-M   'P 1'
_cell_length_a   6.43617263
_cell_length_b   6.43617263
_cell_length_c   6.43617263
_cell_angle_alpha   144.96654853
_cell_angle_beta   144.96654853
_cell_angle_gamma   50.38437748
_symmetry_Int_Tables_number   1
_chemical_formula_structural   Ho2CuO4
_chemical_formula_sum   'Ho2 Cu1 O4'
_cell_volume   87.42262821
_cell_formula_units_Z   1
loop_
 _symmetry_equiv_pos_site_id
 _symmetry_equiv_pos_as_xyz
  1  'x, y, z'
loop_
 _atom_site_type_symbol
 _atom_site_label
 _atom_site_symmetry_multiplicity
 _atom_site_fract_x
 _atom_site_fract_y
 _atom_site_fract_z
 _atom_site_occupancy
  Ho  Ho0  1  0.65049769  0.65049769  1.00000000  1.0
  Ho  Ho1  1  0.34950231  0.34950231  0.00000000  1.0
  Cu  Cu2  1  0.00000000  0.00000000  0.00000000  1.0
  O  O3  1  0.50000000  0.00000000  0.50000000  1.0
  O  O4  1  -0.00000000  0.50000000  0.50000000  1.0
  O  O5  1  0.25000000  0.75000000  0.50000000  1.0
  O  O6  1  0.75000000  0.25000000  0.50000000  1.0
