# generated using pymatgen
data_Rb2MgH12(SO7)2
_symmetry_space_group_name_H-M   'P 1'
_cell_length_a   6.35037107
_cell_length_b   12.56065791
_cell_length_c   9.25199038
_cell_angle_alpha   90.00000000
_cell_angle_beta   104.98026943
_cell_angle_gamma   90.00000000
_symmetry_Int_Tables_number   1
_chemical_formula_structural   Rb2MgH12(SO7)2
_chemical_formula_sum   'Rb4 Mg2 H24 S4 O28'
_cell_volume   712.90307334
_cell_formula_units_Z   2
loop_
 _symmetry_equiv_pos_site_id
 _symmetry_equiv_pos_as_xyz
  1  'x, y, z'
loop_
 _atom_site_type_symbol
 _atom_site_label
 _atom_site_symmetry_multiplicity
 _atom_site_fract_x
 _atom_site_fract_y
 _atom_site_fract_z
 _atom_site_occupancy
  Rb  Rb0  1  0.83959187  0.65214053  0.12867071  1.0
  Rb  Rb1  1  0.83959187  0.84785947  0.62867071  1.0
  Rb  Rb2  1  0.16040813  0.15214053  0.37132929  1.0
  Rb  Rb3  1  0.16040813  0.34785947  0.87132929  1.0
  Mg  Mg4  1  0.50000000  0.50000000  0.50000000  1.0
  Mg  Mg5  1  0.50000000  0.00000000  -0.00000000  1.0
  H  H6  1  0.83147580  0.43678275  0.39139233  1.0
  H  H7  1  0.83147580  0.06321725  0.89139233  1.0
  H  H8  1  0.16852420  0.93678275  0.10860767  1.0
  H  H9  1  0.16852420  0.56321725  0.60860767  1.0
  H  H10  1  0.82165177  0.14203022  0.02226868  1.0
  H  H11  1  0.82165177  0.35796978  0.52226868  1.0
  H  H12  1  0.17834823  0.64203022  0.47773132  1.0
  H  H13  1  0.17834823  0.85796978  0.97773132  1.0
  H  H14  1  0.82095957  0.90884530  0.21796993  1.0
  H  H15  1  0.82095957  0.59115470  0.71796993  1.0
  H  H16  1  0.17904043  0.40884530  0.28203007  1.0
  H  H17  1  0.17904043  0.09115470  0.78203007  1.0
  H  H18  1  0.57918703  0.10059126  0.27211776  1.0
  H  H19  1  0.57918703  0.39940874  0.77211776  1.0
  H  H20  1  0.42081297  0.60059126  0.22788224  1.0
  H  H21  1  0.42081297  0.89940874  0.72788224  1.0
  H  H22  1  0.51529121  0.18911902  0.14774691  1.0
  H  H23  1  0.51529121  0.31088098  0.64774691  1.0
  H  H24  1  0.48470879  0.68911902  0.35225309  1.0
  H  H25  1  0.48470879  0.81088098  0.85225309  1.0
  H  H26  1  0.41031498  0.37495989  0.25590308  1.0
  H  H27  1  0.41031498  0.12504011  0.75590308  1.0
  H  H28  1  0.58968502  0.87495989  0.24409692  1.0
  H  H29  1  0.58968502  0.62504011  0.74409692  1.0
  S  S30  1  0.77234610  0.35874047  0.09689331  1.0
  S  S31  1  0.77234610  0.14125953  0.59689331  1.0
  S  S32  1  0.22765390  0.85874047  0.40310669  1.0
  S  S33  1  0.22765390  0.64125953  0.90310669  1.0
  O  O34  1  0.91268935  0.26381770  0.09013326  1.0
  O  O35  1  0.91268935  0.23618230  0.59013326  1.0
  O  O36  1  0.08731065  0.76381770  0.40986674  1.0
  O  O37  1  0.08731065  0.73618230  0.90986674  1.0
  O  O38  1  0.89369987  0.43000860  0.22168092  1.0
  O  O39  1  0.89369987  0.06999140  0.72168092  1.0
  O  O40  1  0.10630013  0.93000860  0.27831908  1.0
  O  O41  1  0.10630013  0.56999140  0.77831908  1.0
  O  O42  1  0.78647656  0.43195146  0.48617404  1.0
  O  O43  1  0.78647656  0.06804854  0.98617404  1.0
  O  O44  1  0.21352344  0.93195146  0.01382596  1.0
  O  O45  1  0.21352344  0.56804854  0.51382596  1.0
  O  O46  1  0.73295601  0.08027810  0.45357659  1.0
  O  O47  1  0.73295601  0.41972190  0.95357659  1.0
  O  O48  1  0.26704399  0.58027810  0.04642341  1.0
  O  O49  1  0.26704399  0.91972190  0.54642341  1.0
  O  O50  1  0.55939857  0.32407039  0.12449876  1.0
  O  O51  1  0.55939857  0.17592961  0.62449876  1.0
  O  O52  1  0.44060143  0.82407039  0.37550124  1.0
  O  O53  1  0.44060143  0.67592961  0.87550124  1.0
  O  O54  1  0.48605724  0.11374392  0.16954713  1.0
  O  O55  1  0.48605724  0.38625608  0.66954713  1.0
  O  O56  1  0.51394276  0.61374392  0.33045287  1.0
  O  O57  1  0.51394276  0.88625608  0.83045287  1.0
  O  O58  1  0.33328604  0.39219555  0.33313006  1.0
  O  O59  1  0.33328604  0.10780445  0.83313006  1.0
  O  O60  1  0.66671396  0.89219555  0.16686994  1.0
  O  O61  1  0.66671396  0.60780445  0.66686994  1.0
