# generated using pymatgen
data_In3Rh
_symmetry_space_group_name_H-M   'P 1'
_cell_length_a   7.09512647
_cell_length_b   7.09512647
_cell_length_c   7.26443968
_cell_angle_alpha   90.00000000
_cell_angle_beta   90.00000000
_cell_angle_gamma   90.00000000
_symmetry_Int_Tables_number   1
_chemical_formula_structural   In3Rh
_chemical_formula_sum   'In12 Rh4'
_cell_volume   365.69784751
_cell_formula_units_Z   4
loop_
 _symmetry_equiv_pos_site_id
 _symmetry_equiv_pos_as_xyz
  1  'x, y, z'
loop_
 _atom_site_type_symbol
 _atom_site_label
 _atom_site_symmetry_multiplicity
 _atom_site_fract_x
 _atom_site_fract_y
 _atom_site_fract_z
 _atom_site_occupancy
  In  In0  1  0.15207287  0.84792713  0.24309331  1.0
  In  In1  1  0.15207287  0.84792713  0.75690669  1.0
  In  In2  1  0.65207287  0.65207287  0.74309331  1.0
  In  In3  1  0.65207287  0.65207287  0.25690669  1.0
  In  In4  1  0.84792713  0.15207287  0.24309331  1.0
  In  In5  1  0.84792713  0.15207287  0.75690669  1.0
  In  In6  1  0.34792713  0.34792713  0.74309331  1.0
  In  In7  1  0.34792713  0.34792713  0.25690669  1.0
  In  In8  1  0.50000000  0.00000000  0.50000000  1.0
  In  In9  1  0.00000000  0.50000000  0.00000000  1.0
  In  In10  1  0.00000000  0.50000000  0.50000000  1.0
  In  In11  1  0.50000000  0.00000000  0.00000000  1.0
  Rh  Rh12  1  0.34508862  0.65491138  0.50000000  1.0
  Rh  Rh13  1  0.84508862  0.84508862  0.00000000  1.0
  Rh  Rh14  1  0.65491138  0.34508862  0.50000000  1.0
  Rh  Rh15  1  0.15491138  0.15491138  0.00000000  1.0
