# generated using pymatgen
data_RbGd2CuSe4
_symmetry_space_group_name_H-M   'P 1'
_cell_length_a   7.53539253
_cell_length_b   7.53539253
_cell_length_c   14.49046449
_cell_angle_alpha   90.00000000
_cell_angle_beta   90.00000000
_cell_angle_gamma   147.79974926
_symmetry_Int_Tables_number   1
_chemical_formula_structural   RbGd2CuSe4
_chemical_formula_sum   'Rb2 Gd4 Cu2 Se8'
_cell_volume   438.45342972
_cell_formula_units_Z   2
loop_
 _symmetry_equiv_pos_site_id
 _symmetry_equiv_pos_as_xyz
  1  'x, y, z'
loop_
 _atom_site_type_symbol
 _atom_site_label
 _atom_site_symmetry_multiplicity
 _atom_site_fract_x
 _atom_site_fract_y
 _atom_site_fract_z
 _atom_site_occupancy
  Rb  Rb0  1  0.10928203  0.89071797  0.75000000  1.0
  Rb  Rb1  1  -0.10928203  0.10928203  0.25000000  1.0
  Gd  Gd2  1  0.36604178  0.63395822  0.93730903  1.0
  Gd  Gd3  1  0.36604178  0.63395822  0.56269097  1.0
  Gd  Gd4  1  -0.36604178  0.36604178  0.43730903  1.0
  Gd  Gd5  1  -0.36604178  0.36604178  0.06269097  1.0
  Cu  Cu6  1  -0.16293316  0.16293316  0.75000000  1.0
  Cu  Cu7  1  0.16293316  0.83706684  0.25000000  1.0
  Se  Se8  1  0.26141780  0.73858220  0.38951569  1.0
  Se  Se9  1  0.26141780  0.73858220  0.11048431  1.0
  Se  Se10  1  -0.26141780  0.26141780  0.88951569  1.0
  Se  Se11  1  -0.26141780  0.26141780  0.61048431  1.0
  Se  Se12  1  0.42852300  0.57147700  0.75000000  1.0
  Se  Se13  1  -0.42852300  0.42852300  0.25000000  1.0
  Se  Se14  1  -0.00000000  -0.00000000  -0.00000000  1.0
  Se  Se15  1  -0.00000000  0.00000000  0.50000000  1.0
