# generated using pymatgen
data_Ca(SiAu)2
_symmetry_space_group_name_H-M   'P 1'
_cell_length_a   5.90545778
_cell_length_b   5.90545778
_cell_length_c   5.90545778
_cell_angle_alpha   136.62938767
_cell_angle_beta   136.62938767
_cell_angle_gamma   63.00877843
_symmetry_Int_Tables_number   1
_chemical_formula_structural   Ca(SiAu)2
_chemical_formula_sum   'Ca1 Si2 Au2'
_cell_volume   95.89917621
_cell_formula_units_Z   1
loop_
 _symmetry_equiv_pos_site_id
 _symmetry_equiv_pos_as_xyz
  1  'x, y, z'
loop_
 _atom_site_type_symbol
 _atom_site_label
 _atom_site_symmetry_multiplicity
 _atom_site_fract_x
 _atom_site_fract_y
 _atom_site_fract_z
 _atom_site_occupancy
  Ca  Ca0  1  0.00000000  0.00000000  0.00000000  1.0
  Si  Si1  1  0.61529321  0.61529321  1.00000000  1.0
  Si  Si2  1  0.38470679  0.38470679  0.00000000  1.0
  Au  Au3  1  0.25000000  0.75000000  0.50000000  1.0
  Au  Au4  1  0.75000000  0.25000000  0.50000000  1.0
