# generated using pymatgen
data_Nb2BN
_symmetry_space_group_name_H-M   'P 1'
_cell_length_a   9.11672076
_cell_length_b   9.11672076
_cell_length_c   3.11883019
_cell_angle_alpha   90.00000000
_cell_angle_beta   90.00000000
_cell_angle_gamma   159.93465982
_symmetry_Int_Tables_number   1
_chemical_formula_structural   Nb2BN
_chemical_formula_sum   'Nb4 B2 N2'
_cell_volume   88.93629933
_cell_formula_units_Z   2
loop_
 _symmetry_equiv_pos_site_id
 _symmetry_equiv_pos_as_xyz
  1  'x, y, z'
loop_
 _atom_site_type_symbol
 _atom_site_label
 _atom_site_symmetry_multiplicity
 _atom_site_fract_x
 _atom_site_fract_y
 _atom_site_fract_z
 _atom_site_occupancy
  Nb  Nb0  1  0.42714433  0.57285567  0.75000000  1.0
  Nb  Nb1  1  -0.42714433  0.42714433  0.25000000  1.0
  Nb  Nb2  1  0.18226526  0.81773474  0.75000000  1.0
  Nb  Nb3  1  -0.18226526  0.18226526  0.25000000  1.0
  B  B4  1  0.02696083  0.97303917  0.75000000  1.0
  B  B5  1  -0.02696083  0.02696083  0.25000000  1.0
  N  N6  1  0.30608638  0.69391362  0.75000000  1.0
  N  N7  1  -0.30608638  0.30608638  0.25000000  1.0
