# generated using pymatgen
data_CaMg3(CO3)4
_symmetry_space_group_name_H-M   'P 1'
_cell_length_a   6.13497072
_cell_length_b   6.13497072
_cell_length_c   6.13497072
_cell_angle_alpha   102.90960750
_cell_angle_beta   102.90960750
_cell_angle_gamma   102.90960750
_symmetry_Int_Tables_number   1
_chemical_formula_structural   CaMg3(CO3)4
_chemical_formula_sum   'Ca1 Mg3 C4 O12'
_cell_volume   210.10733419
_cell_formula_units_Z   1
loop_
 _symmetry_equiv_pos_site_id
 _symmetry_equiv_pos_as_xyz
  1  'x, y, z'
loop_
 _atom_site_type_symbol
 _atom_site_label
 _atom_site_symmetry_multiplicity
 _atom_site_fract_x
 _atom_site_fract_y
 _atom_site_fract_z
 _atom_site_occupancy
  Ca  Ca0  1  0.50000000  0.50000000  0.50000000  1.0
  Mg  Mg1  1  1.04254316  0.50000000  -0.04254316  1.0
  Mg  Mg2  1  0.50000000  0.95745684  0.04254316  1.0
  Mg  Mg3  1  0.95745684  0.04254316  0.50000000  1.0
  C  C4  1  0.45656992  1.00000000  -0.45656992  1.0
  C  C5  1  1.00000000  0.54343008  -0.54343008  1.0
  C  C6  1  0.54343008  0.45656992  0.00000000  1.0
  C  C7  1  -0.00000000  0.00000000  0.00000000  1.0
  O  O8  1  1.47483375  0.88055291  -0.30843929  1.0
  O  O9  1  1.30843929  0.11944709  -0.47483375  1.0
  O  O10  1  1.11944709  -0.47483375  0.30843929  1.0
  O  O11  1  0.52516625  0.30843929  0.11944709  1.0
  O  O12  1  0.69156071  1.47483375  -0.11944709  1.0
  O  O13  1  0.88055291  0.69156071  0.47483375  1.0
  O  O14  1  0.86501280  0.00000000  0.13498720  1.0
  O  O15  1  1.00000000  0.13498720  -0.13498720  1.0
  O  O16  1  1.13498720  -0.13498720  -0.00000000  1.0
  O  O17  1  0.59206376  1.00000000  -0.59206376  1.0
  O  O18  1  1.00000000  0.40793624  -0.40793624  1.0
  O  O19  1  0.40793624  0.59206376  0.00000000  1.0
