# generated using pymatgen
data_MnBi2O5
_symmetry_space_group_name_H-M   'P 1'
_cell_length_a   7.92071987
_cell_length_b   10.74139514
_cell_length_c   6.48664922
_cell_angle_alpha   90.00000000
_cell_angle_beta   90.00000000
_cell_angle_gamma   90.00000000
_symmetry_Int_Tables_number   1
_chemical_formula_structural   MnBi2O5
_chemical_formula_sum   'Mn4 Bi8 O20'
_cell_volume   551.88140354
_cell_formula_units_Z   4
loop_
 _symmetry_equiv_pos_site_id
 _symmetry_equiv_pos_as_xyz
  1  'x, y, z'
loop_
 _atom_site_type_symbol
 _atom_site_label
 _atom_site_symmetry_multiplicity
 _atom_site_fract_x
 _atom_site_fract_y
 _atom_site_fract_z
 _atom_site_occupancy
  Mn  Mn0  1  0.15879559  0.94367401  0.50000000  1.0
  Mn  Mn1  1  0.65879559  0.55632599  0.50000000  1.0
  Mn  Mn2  1  0.84120441  0.05632599  0.50000000  1.0
  Mn  Mn3  1  0.34120441  0.44367401  0.50000000  1.0
  Bi  Bi4  1  0.59350027  0.66421466  0.00000000  1.0
  Bi  Bi5  1  1.09350027  0.83578534  0.00000000  1.0
  Bi  Bi6  1  0.40649973  0.33578534  0.00000000  1.0
  Bi  Bi7  1  -0.09350027  0.16421466  0.00000000  1.0
  Bi  Bi8  1  0.50000000  0.00000000  0.75851281  1.0
  Bi  Bi9  1  0.50000000  0.00000000  0.24148719  1.0
  Bi  Bi10  1  0.00000000  0.50000000  0.75851281  1.0
  Bi  Bi11  1  0.00000000  0.50000000  0.24148719  1.0
  O  O12  1  0.26602292  0.85947815  0.73148227  1.0
  O  O13  1  0.26602292  0.85947815  0.26851773  1.0
  O  O14  1  0.76602292  0.64052185  0.73148227  1.0
  O  O15  1  0.76602292  0.64052185  0.26851773  1.0
  O  O16  1  0.73397708  0.14052185  0.73148227  1.0
  O  O17  1  0.73397708  0.14052185  0.26851773  1.0
  O  O18  1  0.23397708  0.35947815  0.73148227  1.0
  O  O19  1  0.23397708  0.35947815  0.26851773  1.0
  O  O20  1  0.18430102  0.56299975  0.50000000  1.0
  O  O21  1  0.68430102  0.93700025  0.50000000  1.0
  O  O22  1  0.81569898  0.43700025  0.50000000  1.0
  O  O23  1  0.31569898  0.06299975  0.50000000  1.0
  O  O24  1  0.12172674  0.63885409  0.00000000  1.0
  O  O25  1  0.62172674  0.86114591  0.00000000  1.0
  O  O26  1  0.87827326  0.36114591  0.00000000  1.0
  O  O27  1  0.37827326  0.13885409  0.00000000  1.0
  O  O28  1  0.50000000  0.50000000  0.68993404  1.0
  O  O29  1  0.50000000  0.50000000  0.31006596  1.0
  O  O30  1  0.00000000  0.00000000  0.68993404  1.0
  O  O31  1  0.00000000  0.00000000  0.31006596  1.0
