# generated using pymatgen
data_B(HO)2
_symmetry_space_group_name_H-M   'P 1'
_cell_length_a   8.32197976
_cell_length_b   7.64573245
_cell_length_c   7.84374383
_cell_angle_alpha   90.00000000
_cell_angle_beta   123.61954348
_cell_angle_gamma   90.00000000
_symmetry_Int_Tables_number   1
_chemical_formula_structural   B(HO)2
_chemical_formula_sum   'B8 H16 O16'
_cell_volume   415.59913217
_cell_formula_units_Z   8
loop_
 _symmetry_equiv_pos_site_id
 _symmetry_equiv_pos_as_xyz
  1  'x, y, z'
loop_
 _atom_site_type_symbol
 _atom_site_label
 _atom_site_symmetry_multiplicity
 _atom_site_fract_x
 _atom_site_fract_y
 _atom_site_fract_z
 _atom_site_occupancy
  B  B0  1  0.58253112  0.57684994  0.58262160  1.0
  B  B1  1  0.41746888  0.07684994  0.91737840  1.0
  B  B2  1  0.41746888  0.42315006  0.41737840  1.0
  B  B3  1  0.58253112  0.92315006  0.08262160  1.0
  B  B4  1  0.07723470  0.58260864  0.57603672  1.0
  B  B5  1  0.92276530  0.08260864  0.92396328  1.0
  B  B6  1  0.92276530  0.41739136  0.42396328  1.0
  B  B7  1  0.07723470  0.91739136  0.07603672  1.0
  H  H8  1  0.30018458  0.43497315  0.80017519  1.0
  H  H9  1  0.69981542  0.93497315  0.69982481  1.0
  H  H10  1  0.69981542  0.56502685  0.19982481  1.0
  H  H11  1  0.30018458  0.06502685  0.30017519  1.0
  H  H12  1  0.43481503  0.80018337  0.43576986  1.0
  H  H13  1  0.56518497  0.30018337  0.06423014  1.0
  H  H14  1  0.56518497  0.19981663  0.56423014  1.0
  H  H15  1  0.43481503  0.69981663  0.93576986  1.0
  H  H16  1  0.84174434  0.62052013  0.84054208  1.0
  H  H17  1  0.15825566  0.12052013  0.65945792  1.0
  H  H18  1  0.15825566  0.37947987  0.15945792  1.0
  H  H19  1  0.84174434  0.87947987  0.34054208  1.0
  H  H20  1  0.12150058  0.84121462  0.61873442  1.0
  H  H21  1  0.87849942  0.34121462  0.88126558  1.0
  H  H22  1  0.87849942  0.15878538  0.38126558  1.0
  H  H23  1  0.12150058  0.65878538  0.11873442  1.0
  O  O24  1  0.55631222  0.75491642  0.55751009  1.0
  O  O25  1  0.44368778  0.25491642  0.94248991  1.0
  O  O26  1  0.44368778  0.24508358  0.44248991  1.0
  O  O27  1  0.55631222  0.74508358  0.05751009  1.0
  O  O28  1  0.75495319  0.52283480  0.75283570  1.0
  O  O29  1  0.24504681  0.02283480  0.74716430  1.0
  O  O30  1  0.24504681  0.47716520  0.24716430  1.0
  O  O31  1  0.75495319  0.97716520  0.25283570  1.0
  O  O32  1  0.25594654  0.55662660  0.75341526  1.0
  O  O33  1  0.74405346  0.05662660  0.74658474  1.0
  O  O34  1  0.74405346  0.44337340  0.24658474  1.0
  O  O35  1  0.25594654  0.94337340  0.25341526  1.0
  O  O36  1  0.02386183  0.75398903  0.52127381  1.0
  O  O37  1  0.97613817  0.25398903  0.97872619  1.0
  O  O38  1  0.97613817  0.24601097  0.47872619  1.0
  O  O39  1  0.02386183  0.74601097  0.02127381  1.0
