# generated using pymatgen
data_Tl2FeS2
_symmetry_space_group_name_H-M   'P 1'
_cell_length_a   7.78358079
_cell_length_b   7.78358079
_cell_length_c   7.78358079
_cell_angle_alpha   148.79604718
_cell_angle_beta   148.79604718
_cell_angle_gamma   44.71160099
_symmetry_Int_Tables_number   1
_chemical_formula_structural   Tl2FeS2
_chemical_formula_sum   'Tl2 Fe1 S2'
_cell_volume   126.18789947
_cell_formula_units_Z   1
loop_
 _symmetry_equiv_pos_site_id
 _symmetry_equiv_pos_as_xyz
  1  'x, y, z'
loop_
 _atom_site_type_symbol
 _atom_site_label
 _atom_site_symmetry_multiplicity
 _atom_site_fract_x
 _atom_site_fract_y
 _atom_site_fract_z
 _atom_site_occupancy
  Tl  Tl0  1  0.25000000  0.75000000  0.50000000  1.0
  Tl  Tl1  1  0.75000000  0.25000000  0.50000000  1.0
  Fe  Fe2  1  0.00000000  0.00000000  0.00000000  1.0
  S  S3  1  0.57524385  0.57524385  1.00000000  1.0
  S  S4  1  0.42475615  0.42475615  0.00000000  1.0
