# generated using pymatgen
data_KNa2(NiO2)2
_symmetry_space_group_name_H-M   'P 1'
_cell_length_a   5.74211947
_cell_length_b   10.82790899
_cell_length_c   9.33613378
_cell_angle_alpha   90.00000000
_cell_angle_beta   115.63847936
_cell_angle_gamma   90.00000000
_symmetry_Int_Tables_number   1
_chemical_formula_structural   KNa2(NiO2)2
_chemical_formula_sum   'K4 Na8 Ni8 O16'
_cell_volume   523.32311463
_cell_formula_units_Z   4
loop_
 _symmetry_equiv_pos_site_id
 _symmetry_equiv_pos_as_xyz
  1  'x, y, z'
loop_
 _atom_site_type_symbol
 _atom_site_label
 _atom_site_symmetry_multiplicity
 _atom_site_fract_x
 _atom_site_fract_y
 _atom_site_fract_z
 _atom_site_occupancy
  O  O0  1  0.78991378  0.45815739  0.25058839  1.0
  O  O1  1  0.78991378  0.04184261  0.75058839  1.0
  O  O2  1  0.21008622  0.95815739  0.24941161  1.0
  O  O3  1  0.21008622  0.54184261  0.74941161  1.0
  O  O4  1  0.74302857  0.94987404  0.17850565  1.0
  O  O5  1  0.74302857  0.55012596  0.67850565  1.0
  O  O6  1  0.25697143  0.44987404  0.32149435  1.0
  O  O7  1  0.25697143  0.05012596  0.82149435  1.0
  O  O8  1  0.73228450  0.21261514  0.16289395  1.0
  O  O9  1  0.73228450  0.28738486  0.66289395  1.0
  O  O10  1  0.26771550  0.71261514  0.33710605  1.0
  O  O11  1  0.26771550  0.78738486  0.83710605  1.0
  O  O12  1  0.79774800  0.70648405  0.26366718  1.0
  O  O13  1  0.79774800  0.79351595  0.76366718  1.0
  O  O14  1  0.20225200  0.20648405  0.23633282  1.0
  O  O15  1  0.20225200  0.29351595  0.73633282  1.0
  Ni  Ni16  1  0.99417978  0.33216339  0.24143514  1.0
  Ni  Ni17  1  0.99417978  0.16783661  0.74143514  1.0
  Ni  Ni18  1  0.00582022  0.83216339  0.25856486  1.0
  Ni  Ni19  1  0.00582022  0.66783661  0.75856486  1.0
  Ni  Ni20  1  0.96568999  0.08131723  0.20200851  1.0
  Ni  Ni21  1  0.96568999  0.41868277  0.70200851  1.0
  Ni  Ni22  1  0.03431001  0.58131723  0.29799149  1.0
  Ni  Ni23  1  0.03431001  0.91868277  0.79799149  1.0
  K  K24  1  0.67842089  0.88864498  0.45149800  1.0
  K  K25  1  0.67842089  0.61135502  0.95149800  1.0
  K  K26  1  0.32157911  0.38864498  0.04850200  1.0
  K  K27  1  0.32157911  0.11135502  0.54850200  1.0
  Na  Na28  1  0.62724880  0.29344529  0.38236938  1.0
  Na  Na29  1  0.62724880  0.20655471  0.88236938  1.0
  Na  Na30  1  0.37275120  0.79344529  0.11763062  1.0
  Na  Na31  1  0.37275120  0.70655471  0.61763062  1.0
  Na  Na32  1  0.38052909  0.07854812  0.10273026  1.0
  Na  Na33  1  0.38052909  0.42145188  0.60273026  1.0
  Na  Na34  1  0.61947091  0.57854812  0.39726974  1.0
  Na  Na35  1  0.61947091  0.92145188  0.89726974  1.0
