# generated using pymatgen
data_TcP3
_symmetry_space_group_name_H-M   'P 1'
_cell_length_a   15.42583339
_cell_length_b   3.11109449
_cell_length_c   5.16722710
_cell_angle_alpha   90.00000000
_cell_angle_beta   90.00000000
_cell_angle_gamma   90.00000000
_symmetry_Int_Tables_number   1
_chemical_formula_structural   TcP3
_chemical_formula_sum   'Tc4 P12'
_cell_volume   247.98156004
_cell_formula_units_Z   4
loop_
 _symmetry_equiv_pos_site_id
 _symmetry_equiv_pos_as_xyz
  1  'x, y, z'
loop_
 _atom_site_type_symbol
 _atom_site_label
 _atom_site_symmetry_multiplicity
 _atom_site_fract_x
 _atom_site_fract_y
 _atom_site_fract_z
 _atom_site_occupancy
  Tc  Tc0  1  0.34942511  0.75000000  0.85056876  1.0
  Tc  Tc1  1  0.84942511  0.75000000  0.64943124  1.0
  Tc  Tc2  1  0.65057489  0.25000000  0.14943124  1.0
  Tc  Tc3  1  0.15057489  0.25000000  0.35056876  1.0
  P  P4  1  0.48697086  0.75000000  0.64744026  1.0
  P  P5  1  0.98697086  0.75000000  0.85255974  1.0
  P  P6  1  0.51302914  0.25000000  0.35255974  1.0
  P  P7  1  0.01302914  0.25000000  0.14744026  1.0
  P  P8  1  0.20734029  0.75000000  0.02281197  1.0
  P  P9  1  0.70734029  0.75000000  0.47718803  1.0
  P  P10  1  0.79265971  0.25000000  0.97718803  1.0
  P  P11  1  0.29265971  0.25000000  0.52281197  1.0
  P  P12  1  0.11858421  0.75000000  0.67971333  1.0
  P  P13  1  0.61858421  0.75000000  0.82028667  1.0
  P  P14  1  0.88141579  0.25000000  0.32028667  1.0
  P  P15  1  0.38141579  0.25000000  0.17971333  1.0
