# generated using pymatgen
data_Cs2BaTa6Cl18
_symmetry_space_group_name_H-M   'P 1'
_cell_length_a   10.61287392
_cell_length_b   10.61287392
_cell_length_c   10.61287392
_cell_angle_alpha   55.19129278
_cell_angle_beta   55.19129278
_cell_angle_gamma   55.19129278
_symmetry_Int_Tables_number   1
_chemical_formula_structural   Cs2BaTa6Cl18
_chemical_formula_sum   'Cs2 Ba1 Ta6 Cl18'
_cell_volume   750.75265350
_cell_formula_units_Z   1
loop_
 _symmetry_equiv_pos_site_id
 _symmetry_equiv_pos_as_xyz
  1  'x, y, z'
loop_
 _atom_site_type_symbol
 _atom_site_label
 _atom_site_symmetry_multiplicity
 _atom_site_fract_x
 _atom_site_fract_y
 _atom_site_fract_z
 _atom_site_occupancy
  Cs  Cs0  1  0.27539525  0.27539525  0.27539525  1.0
  Cs  Cs1  1  0.72460475  -0.27539525  -0.27539525  1.0
  Ba  Ba2  1  0.00000000  0.00000000  0.00000000  1.0
  Ta  Ta3  1  0.63988600  0.42525050  -0.69676331  1.0
  Ta  Ta4  1  0.69676331  0.36011400  -0.42525050  1.0
  Ta  Ta5  1  0.57474950  0.69676331  -0.63988600  1.0
  Ta  Ta6  1  0.36011400  0.57474950  -0.30323669  1.0
  Ta  Ta7  1  0.30323669  0.63988600  -0.57474950  1.0
  Ta  Ta8  1  0.42525050  0.30323669  -0.36011400  1.0
  Cl  Cl9  1  0.57747157  0.17567016  -0.56846682  1.0
  Cl  Cl10  1  0.56846682  0.42252843  -0.17567016  1.0
  Cl  Cl11  1  0.82432984  0.56846682  -0.57747157  1.0
  Cl  Cl12  1  0.42252843  0.82432984  -0.43153318  1.0
  Cl  Cl13  1  0.43153318  0.57747157  -0.82432984  1.0
  Cl  Cl14  1  0.17567016  0.43153318  -0.42252843  1.0
  Cl  Cl15  1  0.35587219  0.89999839  -0.75743182  1.0
  Cl  Cl16  1  0.75743182  -0.35587219  0.10000161  1.0
  Cl  Cl17  1  1.10000161  -0.24256818  -0.35587219  1.0
  Cl  Cl18  1  0.64412781  0.10000161  -0.24256818  1.0
  Cl  Cl19  1  0.24256818  0.35587219  -0.10000161  1.0
  Cl  Cl20  1  0.89999839  0.24256818  -0.64412781  1.0
  Cl  Cl21  1  0.33403177  0.04843872  -0.18523711  1.0
  Cl  Cl22  1  1.18523711  -0.33403177  -0.04843872  1.0
  Cl  Cl23  1  0.95156128  0.18523711  -0.33403177  1.0
  Cl  Cl24  1  0.66596823  -0.04843872  0.18523711  1.0
  Cl  Cl25  1  0.81476289  -0.66596823  0.04843872  1.0
  Cl  Cl26  1  1.04843872  -0.18523711  -0.66596823  1.0
