# generated using pymatgen
data_Y5Ir3
_symmetry_space_group_name_H-M   'P 1'
_cell_length_a   10.90846653
_cell_length_b   10.90846653
_cell_length_c   6.39320847
_cell_angle_alpha   90.00000000
_cell_angle_beta   90.00000000
_cell_angle_gamma   90.00000000
_symmetry_Int_Tables_number   1
_chemical_formula_structural   Y5Ir3
_chemical_formula_sum   'Y20 Ir12'
_cell_volume   760.75755312
_cell_formula_units_Z   4
loop_
 _symmetry_equiv_pos_site_id
 _symmetry_equiv_pos_as_xyz
  1  'x, y, z'
loop_
 _atom_site_type_symbol
 _atom_site_label
 _atom_site_symmetry_multiplicity
 _atom_site_fract_x
 _atom_site_fract_y
 _atom_site_fract_z
 _atom_site_occupancy
  Y  Y0  1  0.08830020  0.29181515  0.38167371  1.0
  Y  Y1  1  0.91169980  0.29181515  0.88167371  1.0
  Y  Y2  1  0.08830020  0.70818485  0.88167371  1.0
  Y  Y3  1  0.91169980  0.70818485  0.38167371  1.0
  Y  Y4  1  0.79181515  0.58830020  0.88167371  1.0
  Y  Y5  1  0.20818485  0.58830020  0.38167371  1.0
  Y  Y6  1  0.79181515  0.41169980  0.38167371  1.0
  Y  Y7  1  0.20818485  0.41169980  0.88167371  1.0
  Y  Y8  1  0.41169980  0.20818485  0.61832629  1.0
  Y  Y9  1  0.58830020  0.20818485  0.11832629  1.0
  Y  Y10  1  0.41169980  0.79181515  0.11832629  1.0
  Y  Y11  1  0.58830020  0.79181515  0.61832629  1.0
  Y  Y12  1  0.70818485  0.91169980  0.11832629  1.0
  Y  Y13  1  0.29181515  0.91169980  0.61832629  1.0
  Y  Y14  1  0.70818485  0.08830020  0.61832629  1.0
  Y  Y15  1  0.29181515  0.08830020  0.11832629  1.0
  Y  Y16  1  0.00000000  0.00000000  0.50000000  1.0
  Y  Y17  1  0.00000000  0.00000000  0.00000000  1.0
  Y  Y18  1  0.50000000  0.50000000  0.00000000  1.0
  Y  Y19  1  0.50000000  0.50000000  0.50000000  1.0
  Ir  Ir20  1  0.15338241  0.84661759  0.25000000  1.0
  Ir  Ir21  1  0.84661759  0.84661759  0.75000000  1.0
  Ir  Ir22  1  0.15338241  0.15338241  0.75000000  1.0
  Ir  Ir23  1  0.84661759  0.15338241  0.25000000  1.0
  Ir  Ir24  1  0.34661759  0.65338241  0.75000000  1.0
  Ir  Ir25  1  0.65338241  0.65338241  0.25000000  1.0
  Ir  Ir26  1  0.34661759  0.34661759  0.25000000  1.0
  Ir  Ir27  1  0.65338241  0.34661759  0.75000000  1.0
  Ir  Ir28  1  0.00000000  0.50000000  0.12807338  1.0
  Ir  Ir29  1  0.00000000  0.50000000  0.62807338  1.0
  Ir  Ir30  1  0.50000000  0.00000000  0.87192662  1.0
  Ir  Ir31  1  0.50000000  0.00000000  0.37192662  1.0
