# generated using pymatgen
data_K2Li3GaO4
_symmetry_space_group_name_H-M   'P 1'
_cell_length_a   5.57836718
_cell_length_b   8.88718002
_cell_length_c   11.00375786
_cell_angle_alpha   90.00000000
_cell_angle_beta   111.11970980
_cell_angle_gamma   90.00000000
_symmetry_Int_Tables_number   1
_chemical_formula_structural   K2Li3GaO4
_chemical_formula_sum   'K8 Li12 Ga4 O16'
_cell_volume   508.87889189
_cell_formula_units_Z   4
loop_
 _symmetry_equiv_pos_site_id
 _symmetry_equiv_pos_as_xyz
  1  'x, y, z'
loop_
 _atom_site_type_symbol
 _atom_site_label
 _atom_site_symmetry_multiplicity
 _atom_site_fract_x
 _atom_site_fract_y
 _atom_site_fract_z
 _atom_site_occupancy
  K  K0  1  0.70838284  0.99267285  0.36205680  1.0
  K  K1  1  0.70838284  0.50732715  0.86205680  1.0
  K  K2  1  0.29161716  0.49267285  0.13794320  1.0
  K  K3  1  0.29161716  0.00732715  0.63794320  1.0
  K  K4  1  0.27979103  0.22822356  0.39033549  1.0
  K  K5  1  0.27979103  0.27177644  0.89033549  1.0
  K  K6  1  0.72020897  0.72822356  0.10966451  1.0
  K  K7  1  0.72020897  0.77177644  0.60966451  1.0
  Li  Li8  1  0.90646390  0.46473109  0.29756285  1.0
  Li  Li9  1  0.90646390  0.03526891  0.79756285  1.0
  Li  Li10  1  0.09353610  0.96473109  0.20243715  1.0
  Li  Li11  1  0.09353610  0.53526891  0.70243715  1.0
  Li  Li12  1  0.62740824  0.99018162  0.92990219  1.0
  Li  Li13  1  0.62740824  0.50981838  0.42990219  1.0
  Li  Li14  1  0.37259176  0.49018162  0.57009781  1.0
  Li  Li15  1  0.37259176  0.00981838  0.07009781  1.0
  Li  Li16  1  0.61645325  0.23864766  0.20066128  1.0
  Li  Li17  1  0.61645325  0.26135234  0.70066128  1.0
  Li  Li18  1  0.38354675  0.73864766  0.29933872  1.0
  Li  Li19  1  0.38354675  0.76135234  0.79933872  1.0
  Ga  Ga20  1  0.89837957  0.21056433  0.06307960  1.0
  Ga  Ga21  1  0.89837957  0.28943567  0.56307960  1.0
  Ga  Ga22  1  0.10162043  0.71056433  0.43692040  1.0
  Ga  Ga23  1  0.10162043  0.78943567  0.93692040  1.0
  O  O24  1  0.78236464  0.39068995  0.11538809  1.0
  O  O25  1  0.78236464  0.10931005  0.61538809  1.0
  O  O26  1  0.21763536  0.89068995  0.38461191  1.0
  O  O27  1  0.21763536  0.60931005  0.88461191  1.0
  O  O28  1  0.76603281  0.31068169  0.38022482  1.0
  O  O29  1  0.76603281  0.18931831  0.88022482  1.0
  O  O30  1  0.23396719  0.81068169  0.11977518  1.0
  O  O31  1  0.23396719  0.68931831  0.61977518  1.0
  O  O32  1  0.74693375  0.67765527  0.35791675  1.0
  O  O33  1  0.74693375  0.82234473  0.85791675  1.0
  O  O34  1  0.25306625  0.17765527  0.14208325  1.0
  O  O35  1  0.25306625  0.32234473  0.64208325  1.0
  O  O36  1  0.74234446  0.05027674  0.12354314  1.0
  O  O37  1  0.74234446  0.44972326  0.62354314  1.0
  O  O38  1  0.25765554  0.55027674  0.37645686  1.0
  O  O39  1  0.25765554  0.94972326  0.87645686  1.0
