# generated using pymatgen
data_CdI2
_symmetry_space_group_name_H-M   'P 1'
_cell_length_a   4.32841214
_cell_length_b   4.32841214
_cell_length_c   83.44038753
_cell_angle_alpha   90.00000000
_cell_angle_beta   90.00000000
_cell_angle_gamma   120.00000000
_symmetry_Int_Tables_number   1
_chemical_formula_structural   CdI2
_chemical_formula_sum   'Cd11 I22'
_cell_volume   1353.83007578
_cell_formula_units_Z   11
loop_
 _symmetry_equiv_pos_site_id
 _symmetry_equiv_pos_as_xyz
  1  'x, y, z'
loop_
 _atom_site_type_symbol
 _atom_site_label
 _atom_site_symmetry_multiplicity
 _atom_site_fract_x
 _atom_site_fract_y
 _atom_site_fract_z
 _atom_site_occupancy
  Cd  Cd0  1  0.00000000  0.00000000  0.02274692  1.0
  Cd  Cd1  1  0.00000000  0.00000000  0.11363889  1.0
  Cd  Cd2  1  0.00000000  0.00000000  0.20455974  1.0
  Cd  Cd3  1  0.00000000  0.00000000  0.29546553  1.0
  Cd  Cd4  1  0.00000000  0.00000000  0.38636255  1.0
  Cd  Cd5  1  0.00000000  0.00000000  0.65909526  1.0
  Cd  Cd6  1  0.00000000  0.00000000  0.84090547  1.0
  Cd  Cd7  1  0.66666667  0.33333333  0.47729938  1.0
  Cd  Cd8  1  0.66666667  0.33333333  0.56816580  1.0
  Cd  Cd9  1  0.66666667  0.33333333  0.75000028  1.0
  Cd  Cd10  1  0.66666667  0.33333333  0.93182639  1.0
  I  I11  1  0.00000000  0.00000000  0.49789373  1.0
  I  I12  1  0.00000000  0.00000000  0.58876879  1.0
  I  I13  1  0.00000000  0.00000000  0.77059442  1.0
  I  I14  1  0.00000000  0.00000000  0.95242856  1.0
  I  I15  1  0.66666667  0.33333333  0.04334944  1.0
  I  I16  1  0.66666667  0.33333333  0.13424247  1.0
  I  I17  1  0.66666667  0.33333333  0.22516317  1.0
  I  I18  1  0.66666667  0.33333333  0.31606902  1.0
  I  I19  1  0.66666667  0.33333333  0.40696589  1.0
  I  I20  1  0.66666667  0.33333333  0.67968946  1.0
  I  I21  1  0.66666667  0.33333333  0.86149953  1.0
  I  I22  1  0.33333333  0.66666667  0.00214523  1.0
  I  I23  1  0.33333333  0.66666667  0.09303561  1.0
  I  I24  1  0.33333333  0.66666667  0.18395593  1.0
  I  I25  1  0.33333333  0.66666667  0.27486163  1.0
  I  I26  1  0.33333333  0.66666667  0.36575899  1.0
  I  I27  1  0.33333333  0.66666667  0.45670526  1.0
  I  I28  1  0.33333333  0.66666667  0.54756230  1.0
  I  I29  1  0.33333333  0.66666667  0.63850123  1.0
  I  I30  1  0.33333333  0.66666667  0.72940651  1.0
  I  I31  1  0.33333333  0.66666667  0.82031173  1.0
  I  I32  1  0.33333333  0.66666667  0.91122488  1.0
