# generated using pymatgen
data_Rb4PbBr6
_symmetry_space_group_name_H-M   'P 1'
_cell_length_a   9.63162859
_cell_length_b   9.63162859
_cell_length_c   9.63162859
_cell_angle_alpha   89.76905722
_cell_angle_beta   89.76905722
_cell_angle_gamma   89.76905722
_symmetry_Int_Tables_number   1
_chemical_formula_structural   Rb4PbBr6
_chemical_formula_sum   'Rb8 Pb2 Br12'
_cell_volume   893.48779806
_cell_formula_units_Z   2
loop_
 _symmetry_equiv_pos_site_id
 _symmetry_equiv_pos_as_xyz
  1  'x, y, z'
loop_
 _atom_site_type_symbol
 _atom_site_label
 _atom_site_symmetry_multiplicity
 _atom_site_fract_x
 _atom_site_fract_y
 _atom_site_fract_z
 _atom_site_occupancy
  Rb  Rb0  1  0.87071612  0.25000000  -0.37071612  1.0
  Rb  Rb1  1  0.37071612  0.12928388  -0.25000000  1.0
  Rb  Rb2  1  0.75000000  0.37071612  -0.87071612  1.0
  Rb  Rb3  1  0.25000000  0.62928388  -0.12928388  1.0
  Rb  Rb4  1  0.12928388  0.75000000  -0.62928388  1.0
  Rb  Rb5  1  0.62928388  -0.12928388  0.25000000  1.0
  Rb  Rb6  1  1.25000000  1.25000000  0.25000000  1.0
  Rb  Rb7  1  0.75000000  0.75000000  -0.25000000  1.0
  Pb  Pb8  1  0.50000000  0.50000000  -0.50000000  1.0
  Pb  Pb9  1  0.00000000  0.00000000  0.00000000  1.0
  Br  Br10  1  0.19737028  0.42722820  -0.44206674  1.0
  Br  Br11  1  0.69737028  0.05793326  -0.07277180  1.0
  Br  Br12  1  0.94206674  0.07277180  -0.69737028  1.0
  Br  Br13  1  0.44206674  0.80262972  -0.42722820  1.0
  Br  Br14  1  0.57277180  0.44206674  -0.19737028  1.0
  Br  Br15  1  1.07277180  -0.69737028  -0.05793326  1.0
  Br  Br16  1  0.80262972  0.57277180  -0.55793326  1.0
  Br  Br17  1  0.30262972  -0.05793326  0.07277180  1.0
  Br  Br18  1  0.55793326  0.19737028  -0.57277180  1.0
  Br  Br19  1  1.05793326  -0.07277180  -0.30262972  1.0
  Br  Br20  1  0.92722820  -0.30262972  0.05793326  1.0
  Br  Br21  1  0.42722820  0.55793326  -0.80262972  1.0
