# generated using pymatgen
data_Rb2MgN4
_symmetry_space_group_name_H-M   'P 1'
_cell_length_a   8.06763032
_cell_length_b   6.78656997
_cell_length_c   13.60773013
_cell_angle_alpha   90.00000000
_cell_angle_beta   107.44020155
_cell_angle_gamma   90.00000000
_symmetry_Int_Tables_number   1
_chemical_formula_structural   Rb2MgN4
_chemical_formula_sum   'Rb8 Mg4 N16'
_cell_volume   710.79467087
_cell_formula_units_Z   4
loop_
 _symmetry_equiv_pos_site_id
 _symmetry_equiv_pos_as_xyz
  1  'x, y, z'
loop_
 _atom_site_type_symbol
 _atom_site_label
 _atom_site_symmetry_multiplicity
 _atom_site_fract_x
 _atom_site_fract_y
 _atom_site_fract_z
 _atom_site_occupancy
  Rb  Rb0  1  0.96331937  0.07486807  0.15292035  1.0
  Rb  Rb1  1  0.96331937  0.42513193  0.65292035  1.0
  Rb  Rb2  1  0.03668063  0.57486807  0.34707965  1.0
  Rb  Rb3  1  0.03668063  0.92513193  0.84707965  1.0
  Rb  Rb4  1  0.45052459  0.12549353  0.13244588  1.0
  Rb  Rb5  1  0.45052459  0.37450647  0.63244588  1.0
  Rb  Rb6  1  0.54947541  0.62549353  0.36755412  1.0
  Rb  Rb7  1  0.54947541  0.87450647  0.86755412  1.0
  Mg  Mg8  1  0.83578997  0.08670446  0.41852565  1.0
  Mg  Mg9  1  0.83578997  0.41329554  0.91852565  1.0
  Mg  Mg10  1  0.16421003  0.58670446  0.08147435  1.0
  Mg  Mg11  1  0.16421004  0.91329554  0.58147435  1.0
  N  N12  1  0.90933766  0.67815093  0.00391178  1.0
  N  N13  1  0.90933766  0.82184907  0.50391178  1.0
  N  N14  1  0.09066234  0.17815093  0.49608822  1.0
  N  N15  1  0.09066234  0.32184907  0.99608822  1.0
  N  N16  1  0.75071661  0.29462634  0.29562401  1.0
  N  N17  1  0.75071661  0.20537366  0.79562401  1.0
  N  N18  1  0.24928339  0.79462634  0.20437599  1.0
  N  N19  1  0.24928339  0.70537366  0.70437599  1.0
  N  N20  1  0.76860849  0.89972378  0.28502795  1.0
  N  N21  1  0.76860849  0.60027622  0.78502795  1.0
  N  N22  1  0.23139151  0.39972378  0.21497205  1.0
  N  N23  1  0.23139151  0.10027622  0.71497205  1.0
  N  N24  1  0.67340936  0.25235369  0.48843310  1.0
  N  N25  1  0.67340936  0.24764631  0.98843310  1.0
  N  N26  1  0.32659064  0.75235369  0.01156690  1.0
  N  N27  1  0.32659064  0.74764631  0.51156690  1.0
