# generated using pymatgen
data_Ta2Ni3Se8
_symmetry_space_group_name_H-M   'P 1'
_cell_length_a   10.88820319
_cell_length_b   15.07583516
_cell_length_c   3.48422933
_cell_angle_alpha   90.00000000
_cell_angle_beta   90.00000000
_cell_angle_gamma   90.00000000
_symmetry_Int_Tables_number   1
_chemical_formula_structural   Ta2Ni3Se8
_chemical_formula_sum   'Ta4 Ni6 Se16'
_cell_volume   571.93191230
_cell_formula_units_Z   2
loop_
 _symmetry_equiv_pos_site_id
 _symmetry_equiv_pos_as_xyz
  1  'x, y, z'
loop_
 _atom_site_type_symbol
 _atom_site_label
 _atom_site_symmetry_multiplicity
 _atom_site_fract_x
 _atom_site_fract_y
 _atom_site_fract_z
 _atom_site_occupancy
  Ta  Ta0  1  0.31533028  0.62652181  0.50000000  1.0
  Ta  Ta1  1  0.81533028  0.87347819  0.50000000  1.0
  Ta  Ta2  1  0.68466972  0.37347819  0.50000000  1.0
  Ta  Ta3  1  0.18466972  0.12652181  0.50000000  1.0
  Ni  Ni4  1  0.15726227  0.73005039  0.00000000  1.0
  Ni  Ni5  1  0.65726227  0.76994961  0.00000000  1.0
  Ni  Ni6  1  0.84273773  0.26994961  0.00000000  1.0
  Ni  Ni7  1  0.34273773  0.23005039  0.00000000  1.0
  Ni  Ni8  1  0.50000000  0.50000000  -0.00000000  1.0
  Ni  Ni9  1  0.00000000  0.00000000  -0.00000000  1.0
  Se  Se10  1  0.27740642  0.79317539  0.50000000  1.0
  Se  Se11  1  0.77740642  0.70682461  0.50000000  1.0
  Se  Se12  1  0.72259358  0.20682461  0.50000000  1.0
  Se  Se13  1  0.22259358  0.29317539  0.50000000  1.0
  Se  Se14  1  0.08066310  0.63860391  0.50000000  1.0
  Se  Se15  1  0.58066310  0.86139609  0.50000000  1.0
  Se  Se16  1  0.91933690  0.36139609  0.50000000  1.0
  Se  Se17  1  0.41933690  0.13860391  0.50000000  1.0
  Se  Se18  1  0.49070340  0.65576138  0.00000000  1.0
  Se  Se19  1  0.99070340  0.84423862  -0.00000000  1.0
  Se  Se20  1  0.50929660  0.34423862  0.00000000  1.0
  Se  Se21  1  0.00929660  0.15576138  -0.00000000  1.0
  Se  Se22  1  0.21418229  1.00018052  0.00000000  1.0
  Se  Se23  1  0.71418229  0.49981948  0.00000000  1.0
  Se  Se24  1  0.78581771  -0.00018052  0.00000000  1.0
  Se  Se25  1  0.28581771  0.50018052  0.00000000  1.0
