# generated using pymatgen
data_H5IO6
_symmetry_space_group_name_H-M   'P 1'
_cell_length_a   5.08225849
_cell_length_b   18.64466045
_cell_length_c   6.50173034
_cell_angle_alpha   90.00000000
_cell_angle_beta   124.75271621
_cell_angle_gamma   90.00000000
_symmetry_Int_Tables_number   1
_chemical_formula_structural   H5IO6
_chemical_formula_sum   'H20 I4 O24'
_cell_volume   506.18717641
_cell_formula_units_Z   4
loop_
 _symmetry_equiv_pos_site_id
 _symmetry_equiv_pos_as_xyz
  1  'x, y, z'
loop_
 _atom_site_type_symbol
 _atom_site_label
 _atom_site_symmetry_multiplicity
 _atom_site_fract_x
 _atom_site_fract_y
 _atom_site_fract_z
 _atom_site_occupancy
  H  H0  1  0.95016097  0.31110501  0.05927531  1.0
  H  H1  1  0.95016097  0.18889499  0.55927531  1.0
  H  H2  1  0.04983903  0.81110501  0.44072469  1.0
  H  H3  1  0.04983903  0.68889499  0.94072469  1.0
  H  H4  1  0.91655347  0.63085344  0.38183052  1.0
  H  H5  1  0.91655347  0.86914656  0.88183052  1.0
  H  H6  1  0.08344653  0.13085344  0.11816948  1.0
  H  H7  1  0.08344653  0.36914656  0.61816948  1.0
  H  H8  1  0.83521491  0.50075172  0.15493572  1.0
  H  H9  1  0.83521491  -0.00075172  0.65493572  1.0
  H  H10  1  0.16478509  1.00075172  0.34506428  1.0
  H  H11  1  0.16478509  0.49924828  0.84506428  1.0
  H  H12  1  0.48720320  0.26689850  0.29541324  1.0
  H  H13  1  0.48720320  0.23310150  0.79541324  1.0
  H  H14  1  0.51279680  0.76689850  0.20458676  1.0
  H  H15  1  0.51279680  0.73310150  0.70458676  1.0
  H  H16  1  0.33439284  0.44296797  0.31794767  1.0
  H  H17  1  0.33439284  0.05703203  0.81794767  1.0
  H  H18  1  0.66560716  0.94296797  0.18205233  1.0
  H  H19  1  0.66560716  0.55703203  0.68205233  1.0
  I  I20  1  0.62303633  0.38006676  0.16808208  1.0
  I  I21  1  0.62303633  0.11993324  0.66808208  1.0
  I  I22  1  0.37696367  0.88006676  0.33191792  1.0
  I  I23  1  0.37696367  0.61993324  0.83191792  1.0
  O  O24  1  0.98990053  0.33518365  0.46822792  1.0
  O  O25  1  0.98990053  0.16481635  0.96822792  1.0
  O  O26  1  0.01009947  0.83518365  0.03177208  1.0
  O  O27  1  0.01009947  0.66481635  0.53177208  1.0
  O  O28  1  0.92790447  0.45012438  0.18541227  1.0
  O  O29  1  0.92790447  0.04987562  0.68541227  1.0
  O  O30  1  0.07209553  0.95012438  0.31458773  1.0
  O  O31  1  0.07209553  0.54987562  0.81458773  1.0
  O  O32  1  0.71277060  0.18661320  0.47703690  1.0
  O  O33  1  0.71277060  0.31338680  0.97703690  1.0
  O  O34  1  0.28722940  0.68661320  0.02296310  1.0
  O  O35  1  0.28722940  0.81338680  0.52296310  1.0
  O  O36  1  0.56747155  0.44306250  0.38391834  1.0
  O  O37  1  0.56747155  0.05693750  0.88391834  1.0
  O  O38  1  0.43252845  0.94306250  0.11608166  1.0
  O  O39  1  0.43252845  0.55693750  0.61608166  1.0
  O  O40  1  0.34704484  0.30336307  0.16612409  1.0
  O  O41  1  0.34704484  0.19663693  0.66612409  1.0
  O  O42  1  0.65295516  0.80336307  0.33387591  1.0
  O  O43  1  0.65295516  0.69663693  0.83387591  1.0
  O  O44  1  0.26065997  0.08389208  0.37042913  1.0
  O  O45  1  0.26065997  0.41610792  0.87042913  1.0
  O  O46  1  0.73934003  0.58389208  0.12957087  1.0
  O  O47  1  0.73934003  0.91610792  0.62957087  1.0
