# generated using pymatgen
data_Sr3Fe2O7
_symmetry_space_group_name_H-M   'P 1'
_cell_length_a   10.40203079
_cell_length_b   10.40203079
_cell_length_c   10.40203079
_cell_angle_alpha   158.62074373
_cell_angle_beta   158.62074373
_cell_angle_gamma   30.41561634
_symmetry_Int_Tables_number   1
_chemical_formula_structural   Sr3Fe2O7
_chemical_formula_sum   'Sr3 Fe2 O7'
_cell_volume   149.47485311
_cell_formula_units_Z   1
loop_
 _symmetry_equiv_pos_site_id
 _symmetry_equiv_pos_as_xyz
  1  'x, y, z'
loop_
 _atom_site_type_symbol
 _atom_site_label
 _atom_site_symmetry_multiplicity
 _atom_site_fract_x
 _atom_site_fract_y
 _atom_site_fract_z
 _atom_site_occupancy
  Sr  Sr0  1  0.68232406  0.68232406  1.00000000  1.0
  Sr  Sr1  1  0.31767594  0.31767594  -0.00000000  1.0
  Sr  Sr2  1  0.50000000  0.50000000  1.00000000  1.0
  Fe  Fe3  1  0.90372418  0.90372418  1.00000000  1.0
  Fe  Fe4  1  0.09627582  0.09627582  -0.00000000  1.0
  O  O5  1  0.00000000  0.00000000  0.00000000  1.0
  O  O6  1  0.40452145  0.90452145  0.50000000  1.0
  O  O7  1  0.59547855  0.09547855  0.50000000  1.0
  O  O8  1  0.90452145  0.40452145  0.50000000  1.0
  O  O9  1  0.09547855  0.59547855  0.50000000  1.0
  O  O10  1  0.80784068  0.80784068  1.00000000  1.0
  O  O11  1  0.19215932  0.19215932  0.00000000  1.0
