# generated using pymatgen
data_CsPt2Se3
_symmetry_space_group_name_H-M   'P 1'
_cell_length_a   8.45321610
_cell_length_b   8.45321610
_cell_length_c   8.45321610
_cell_angle_alpha   53.13293072
_cell_angle_beta   53.13293072
_cell_angle_gamma   53.13293072
_symmetry_Int_Tables_number   1
_chemical_formula_structural   CsPt2Se3
_chemical_formula_sum   'Cs2 Pt4 Se6'
_cell_volume   358.40356917
_cell_formula_units_Z   2
loop_
 _symmetry_equiv_pos_site_id
 _symmetry_equiv_pos_as_xyz
  1  'x, y, z'
loop_
 _atom_site_type_symbol
 _atom_site_label
 _atom_site_symmetry_multiplicity
 _atom_site_fract_x
 _atom_site_fract_y
 _atom_site_fract_z
 _atom_site_occupancy
  Cs  Cs0  1  0.80017930  0.80017930  0.80017930  1.0
  Cs  Cs1  1  1.19982070  1.19982070  0.19982070  1.0
  Pt  Pt2  1  0.50000000  -0.00000000  -0.50000000  1.0
  Pt  Pt3  1  0.50000000  -0.50000000  0.00000000  1.0
  Pt  Pt4  1  -0.00000000  0.50000000  -0.50000000  1.0
  Pt  Pt5  1  0.00000000  0.00000000  0.00000000  1.0
  Se  Se6  1  1.22711235  0.22711235  0.71367765  1.0
  Se  Se7  1  1.22711235  0.71367765  0.22711235  1.0
  Se  Se8  1  1.28632235  0.77288765  0.77288765  1.0
  Se  Se9  1  1.77288765  0.28632235  0.77288765  1.0
  Se  Se10  1  1.77288765  0.77288765  0.28632235  1.0
  Se  Se11  1  1.71367765  0.22711235  0.22711235  1.0
