# generated using pymatgen
data_Li6Si
_symmetry_space_group_name_H-M   'P 1'
_cell_length_a   7.15140707
_cell_length_b   7.15140707
_cell_length_c   7.15140707
_cell_angle_alpha   36.27397077
_cell_angle_beta   36.27397077
_cell_angle_gamma   36.27397077
_symmetry_Int_Tables_number   1
_chemical_formula_structural   Li6Si
_chemical_formula_sum   'Li6 Si1'
_cell_volume   114.56554502
_cell_formula_units_Z   1
loop_
 _symmetry_equiv_pos_site_id
 _symmetry_equiv_pos_as_xyz
  1  'x, y, z'
loop_
 _atom_site_type_symbol
 _atom_site_label
 _atom_site_symmetry_multiplicity
 _atom_site_fract_x
 _atom_site_fract_y
 _atom_site_fract_z
 _atom_site_occupancy
  Li  Li0  1  0.08655143  0.08655143  0.08655143  1.0
  Li  Li1  1  0.91344857  -0.08655143  -0.08655143  1.0
  Li  Li2  1  0.20973121  0.20973121  0.20973121  1.0
  Li  Li3  1  0.79026879  -0.20973121  -0.20973121  1.0
  Li  Li4  1  0.36930301  0.36930301  -0.63069699  1.0
  Li  Li5  1  0.63069699  0.63069699  -0.36930301  1.0
  Si  Si6  1  0.50000000  0.50000000  -0.50000000  1.0
