# generated using pymatgen
data_Ta2B2Ru
_symmetry_space_group_name_H-M   'P 1'
_cell_length_a   5.90048128
_cell_length_b   5.90048128
_cell_length_c   6.82268904
_cell_angle_alpha   90.00000000
_cell_angle_beta   90.00000000
_cell_angle_gamma   90.00000000
_symmetry_Int_Tables_number   1
_chemical_formula_structural   Ta2B2Ru
_chemical_formula_sum   'Ta8 B8 Ru4'
_cell_volume   237.53655396
_cell_formula_units_Z   4
loop_
 _symmetry_equiv_pos_site_id
 _symmetry_equiv_pos_as_xyz
  1  'x, y, z'
loop_
 _atom_site_type_symbol
 _atom_site_label
 _atom_site_symmetry_multiplicity
 _atom_site_fract_x
 _atom_site_fract_y
 _atom_site_fract_z
 _atom_site_occupancy
  Ta  Ta0  1  0.66670546  0.81367751  0.50000000  1.0
  Ta  Ta1  1  0.33329454  0.18632249  0.50000000  1.0
  Ta  Ta2  1  0.83329454  0.31367751  0.00000000  1.0
  Ta  Ta3  1  0.16670546  0.68632249  0.00000000  1.0
  Ta  Ta4  1  0.81367751  0.33329454  0.50000000  1.0
  Ta  Ta5  1  0.18632249  0.66670546  0.50000000  1.0
  Ta  Ta6  1  0.31367751  0.16670546  0.00000000  1.0
  Ta  Ta7  1  0.68632249  0.83329454  0.00000000  1.0
  B  B8  1  0.38724316  0.88724316  0.25000000  1.0
  B  B9  1  0.61275684  0.11275684  0.25000000  1.0
  B  B10  1  0.11275684  0.38724316  0.75000000  1.0
  B  B11  1  0.88724316  0.61275684  0.75000000  1.0
  B  B12  1  0.88724316  0.61275684  0.25000000  1.0
  B  B13  1  0.11275684  0.38724316  0.25000000  1.0
  B  B14  1  0.38724316  0.88724316  0.75000000  1.0
  B  B15  1  0.61275684  0.11275684  0.75000000  1.0
  Ru  Ru16  1  0.50000000  0.50000000  0.22260117  1.0
  Ru  Ru17  1  0.00000000  0.00000000  0.72260117  1.0
  Ru  Ru18  1  0.50000000  0.50000000  0.77739883  1.0
  Ru  Ru19  1  0.00000000  0.00000000  0.27739883  1.0
