# generated using pymatgen
data_Cs2KAl3F12
_symmetry_space_group_name_H-M   'P 1'
_cell_length_a   7.63392116
_cell_length_b   7.63392116
_cell_length_c   7.63392116
_cell_angle_alpha   56.31825895
_cell_angle_beta   56.31825895
_cell_angle_gamma   56.31825895
_symmetry_Int_Tables_number   1
_chemical_formula_structural   Cs2KAl3F12
_chemical_formula_sum   'Cs2 K1 Al3 F12'
_cell_volume   287.78492977
_cell_formula_units_Z   1
loop_
 _symmetry_equiv_pos_site_id
 _symmetry_equiv_pos_as_xyz
  1  'x, y, z'
loop_
 _atom_site_type_symbol
 _atom_site_label
 _atom_site_symmetry_multiplicity
 _atom_site_fract_x
 _atom_site_fract_y
 _atom_site_fract_z
 _atom_site_occupancy
  Cs  Cs0  1  0.87930614  0.87930614  0.87930614  1.0
  Cs  Cs1  1  1.12069386  1.12069386  0.12069386  1.0
  K  K2  1  1.50000000  0.50000000  0.50000000  1.0
  Al  Al3  1  0.50000000  -0.00000000  -0.50000000  1.0
  Al  Al4  1  0.50000000  -0.50000000  -0.00000000  1.0
  Al  Al5  1  -0.00000000  0.50000000  -0.50000000  1.0
  F  F6  1  1.21464251  1.21464251  0.58700624  1.0
  F  F7  1  1.21464251  1.58700624  0.21464251  1.0
  F  F8  1  1.41299376  0.78535749  -0.21464251  1.0
  F  F9  1  0.78535749  1.41299376  -0.21464251  1.0
  F  F10  1  0.78535749  0.78535749  0.41299376  1.0
  F  F11  1  1.58700624  1.21464251  0.21464251  1.0
  F  F12  1  1.39795383  0.39795383  0.92696542  1.0
  F  F13  1  1.39795383  0.92696542  0.39795383  1.0
  F  F14  1  1.07303458  0.60204617  0.60204617  1.0
  F  F15  1  1.60204617  0.07303458  0.60204617  1.0
  F  F16  1  1.60204617  0.60204617  0.07303458  1.0
  F  F17  1  1.92696542  0.39795383  0.39795383  1.0
