# generated using pymatgen
data_Rb2LiAsO4
_symmetry_space_group_name_H-M   'P 1'
_cell_length_a   6.70808049
_cell_length_b   6.70808049
_cell_length_c   8.01042858
_cell_angle_alpha   90.00000000
_cell_angle_beta   90.00000000
_cell_angle_gamma   127.72937749
_symmetry_Int_Tables_number   1
_chemical_formula_structural   Rb2LiAsO4
_chemical_formula_sum   'Rb4 Li2 As2 O8'
_cell_volume   285.08822658
_cell_formula_units_Z   2
loop_
 _symmetry_equiv_pos_site_id
 _symmetry_equiv_pos_as_xyz
  1  'x, y, z'
loop_
 _atom_site_type_symbol
 _atom_site_label
 _atom_site_symmetry_multiplicity
 _atom_site_fract_x
 _atom_site_fract_y
 _atom_site_fract_z
 _atom_site_occupancy
  Rb  Rb0  1  0.10289336  0.89710664  0.05893546  1.0
  Rb  Rb1  1  -0.10289336  0.10289336  0.55893546  1.0
  Rb  Rb2  1  -0.43874719  0.43874719  0.70516871  1.0
  Rb  Rb3  1  0.43874719  0.56125281  0.20516871  1.0
  Li  Li4  1  0.29576854  0.70423146  0.78544700  1.0
  Li  Li5  1  -0.29576854  0.29576854  0.28544700  1.0
  As  As6  1  0.18989658  0.81010342  0.49963309  1.0
  As  As7  1  -0.18989658  0.18989658  -0.00036691  1.0
  O  O8  1  0.09468825  0.38393635  0.89369086  1.0
  O  O9  1  0.38393635  1.09468825  0.39369086  1.0
  O  O10  1  0.61606365  0.90531175  0.89369086  1.0
  O  O11  1  -0.09468825  0.61606365  0.39369086  1.0
  O  O12  1  0.13427528  0.86572472  0.70141949  1.0
  O  O13  1  -0.13427528  0.13427528  0.20141949  1.0
  O  O14  1  0.33371732  0.66628268  0.53191454  1.0
  O  O15  1  -0.33371732  0.33371732  0.03191454  1.0
