# generated using pymatgen
data_Sb2XeF12
_symmetry_space_group_name_H-M   'P 1'
_cell_length_a   7.69691950
_cell_length_b   10.18834016
_cell_length_c   8.35822969
_cell_angle_alpha   90.00000000
_cell_angle_beta   103.79921184
_cell_angle_gamma   90.00000000
_symmetry_Int_Tables_number   1
_chemical_formula_structural   Sb2XeF12
_chemical_formula_sum   'Sb4 Xe2 F24'
_cell_volume   636.52495395
_cell_formula_units_Z   2
loop_
 _symmetry_equiv_pos_site_id
 _symmetry_equiv_pos_as_xyz
  1  'x, y, z'
loop_
 _atom_site_type_symbol
 _atom_site_label
 _atom_site_symmetry_multiplicity
 _atom_site_fract_x
 _atom_site_fract_y
 _atom_site_fract_z
 _atom_site_occupancy
  Sb  Sb0  1  0.81893479  0.20908284  0.70018453  1.0
  Sb  Sb1  1  0.18106521  0.70908284  0.29981547  1.0
  Sb  Sb2  1  0.46295973  0.44053361  0.84828015  1.0
  Sb  Sb3  1  0.53704027  0.94053361  0.15171985  1.0
  Xe  Xe4  1  0.79605705  0.69191526  0.70975508  1.0
  Xe  Xe5  1  0.20394295  0.19191526  0.29024492  1.0
  F  F6  1  1.01776671  0.32529993  0.27681807  1.0
  F  F7  1  -0.01776671  0.82529993  0.72318193  1.0
  F  F8  1  0.97729243  0.13651499  0.58074561  1.0
  F  F9  1  0.02270757  0.63651499  0.41925439  1.0
  F  F10  1  0.96375132  0.17016807  0.91344360  1.0
  F  F11  1  0.03624868  0.67016807  0.08655640  1.0
  F  F12  1  0.91992114  0.38128629  0.71674631  1.0
  F  F13  1  0.08007886  0.88128629  0.28325369  1.0
  F  F14  1  0.69285469  0.08469075  0.15459836  1.0
  F  F15  1  0.30714531  0.58469075  0.84540164  1.0
  F  F16  1  0.68599525  0.05249142  0.70781253  1.0
  F  F17  1  0.31400475  0.55249142  0.29218747  1.0
  F  F18  1  0.64064512  0.29412479  0.83660291  1.0
  F  F19  1  0.35935488  0.79412479  0.16339709  1.0
  F  F20  1  0.64271513  0.26363102  0.51025674  1.0
  F  F21  1  0.35728487  0.76363102  0.48974326  1.0
  F  F22  1  0.57882644  0.53770163  0.68586491  1.0
  F  F23  1  0.42117356  0.03770163  0.31413509  1.0
  F  F24  1  0.35003575  0.01379298  0.98648480  1.0
  F  F25  1  0.64996425  0.51379298  0.01351520  1.0
  F  F26  1  0.37328411  0.33421046  0.99614255  1.0
  F  F27  1  0.62671589  0.83421046  0.00385745  1.0
  F  F28  1  0.31751818  0.36315594  0.65643475  1.0
  F  F29  1  0.68248182  0.86315594  0.34356525  1.0
