# generated using pymatgen
data_KSi2BO6
_symmetry_space_group_name_H-M   'P 1'
_cell_length_a   4.77297628
_cell_length_b   10.09206490
_cell_length_c   10.56010452
_cell_angle_alpha   90.00000000
_cell_angle_beta   90.00000000
_cell_angle_gamma   90.00000000
_symmetry_Int_Tables_number   1
_chemical_formula_structural   KSi2BO6
_chemical_formula_sum   'K4 Si8 B4 O24'
_cell_volume   508.67164319
_cell_formula_units_Z   4
loop_
 _symmetry_equiv_pos_site_id
 _symmetry_equiv_pos_as_xyz
  1  'x, y, z'
loop_
 _atom_site_type_symbol
 _atom_site_label
 _atom_site_symmetry_multiplicity
 _atom_site_fract_x
 _atom_site_fract_y
 _atom_site_fract_z
 _atom_site_occupancy
  K  K0  1  0.29681452  0.46570882  0.68989437  1.0
  K  K1  1  0.79681452  0.03429118  0.31010563  1.0
  K  K2  1  0.70318548  0.96570882  0.81010563  1.0
  K  K3  1  0.20318548  0.53429118  0.18989437  1.0
  Si  Si4  1  0.23396113  0.80211582  0.57535745  1.0
  Si  Si5  1  0.73396113  0.69788418  0.42464255  1.0
  Si  Si6  1  0.76603887  0.30211582  0.92464255  1.0
  Si  Si7  1  0.26603887  0.19788418  0.07535745  1.0
  Si  Si8  1  0.21389777  0.89079447  0.06479736  1.0
  Si  Si9  1  0.71389777  0.60920553  0.93520264  1.0
  Si  Si10  1  0.78610223  0.39079447  0.43520264  1.0
  Si  Si11  1  0.28610223  0.10920553  0.56479736  1.0
  B  B12  1  0.21058388  0.73173540  0.84294160  1.0
  B  B13  1  0.71058388  0.76826460  0.15705840  1.0
  B  B14  1  0.78941612  0.23173540  0.65705840  1.0
  B  B15  1  0.28941612  0.26826460  0.34294160  1.0
  O  O16  1  0.51052990  0.69427333  0.84162891  1.0
  O  O17  1  0.01052990  0.80572667  0.15837109  1.0
  O  O18  1  0.48947010  0.19427333  0.65837109  1.0
  O  O19  1  0.98947010  0.30572667  0.34162891  1.0
  O  O20  1  0.47497114  0.69677819  0.52732626  1.0
  O  O21  1  0.97497114  0.80322181  0.47267374  1.0
  O  O22  1  0.52502886  0.19677819  0.97267374  1.0
  O  O23  1  0.02502886  0.30322181  0.02732626  1.0
  O  O24  1  0.37285010  0.95046987  0.57890926  1.0
  O  O25  1  0.87285010  0.54953013  0.42109074  1.0
  O  O26  1  0.62714990  0.45046987  0.92109074  1.0
  O  O27  1  0.12714990  0.04953013  0.07890926  1.0
  O  O28  1  0.16906625  0.85672211  0.91447062  1.0
  O  O29  1  0.66906625  0.64327789  0.08552938  1.0
  O  O30  1  0.83093375  0.35672211  0.58552938  1.0
  O  O31  1  0.33093375  0.14327789  0.41447062  1.0
  O  O32  1  0.11605048  0.75611947  0.71120578  1.0
  O  O33  1  0.61605048  0.74388053  0.28879422  1.0
  O  O34  1  0.88394952  0.25611947  0.78879422  1.0
  O  O35  1  0.38394952  0.24388053  0.21120578  1.0
  O  O36  1  0.04285193  0.62175254  0.89488237  1.0
  O  O37  1  0.54285193  0.87824746  0.10511763  1.0
  O  O38  1  0.95714807  0.12175254  0.60511763  1.0
  O  O39  1  0.45714807  0.37824746  0.39488237  1.0
