# generated using pymatgen
data_Y3(Si3Ru)4
_symmetry_space_group_name_H-M   'P 1'
_cell_length_a   10.12355902
_cell_length_b   10.12355902
_cell_length_c   8.13661049
_cell_angle_alpha   90.00000000
_cell_angle_beta   90.00000000
_cell_angle_gamma   47.36675723
_symmetry_Int_Tables_number   1
_chemical_formula_structural   Y3(Si3Ru)4
_chemical_formula_sum   'Y6 Si24 Ru8'
_cell_volume   613.49810424
_cell_formula_units_Z   2
loop_
 _symmetry_equiv_pos_site_id
 _symmetry_equiv_pos_as_xyz
  1  'x, y, z'
loop_
 _atom_site_type_symbol
 _atom_site_label
 _atom_site_symmetry_multiplicity
 _atom_site_fract_x
 _atom_site_fract_y
 _atom_site_fract_z
 _atom_site_occupancy
  Y  Y0  1  0.50327540  0.99672460  0.25000000  1.0
  Y  Y1  1  0.00327540  1.49672460  0.25000000  1.0
  Y  Y2  1  -0.00327540  1.50327540  0.75000000  1.0
  Y  Y3  1  0.49672460  1.00327540  0.75000000  1.0
  Y  Y4  1  -0.50000000  0.50000000  0.50000000  1.0
  Y  Y5  1  0.00000000  0.00000000  0.00000000  1.0
  Si  Si6  1  0.38778541  1.37817941  0.22845465  1.0
  Si  Si7  1  -0.11221459  1.87817941  0.27154535  1.0
  Si  Si8  1  0.37817941  1.38778541  0.77154535  1.0
  Si  Si9  1  0.87817941  0.88778541  0.72845465  1.0
  Si  Si10  1  -0.37817941  1.61221459  0.22845465  1.0
  Si  Si11  1  0.12182059  1.11221459  0.27154535  1.0
  Si  Si12  1  0.61221459  0.62182059  0.77154535  1.0
  Si  Si13  1  0.11221459  1.12182059  0.72845465  1.0
  Si  Si14  1  0.34546375  0.88852452  0.49417147  1.0
  Si  Si15  1  -0.15453625  1.38852452  0.00582853  1.0
  Si  Si16  1  -0.11147548  1.34546375  0.50582853  1.0
  Si  Si17  1  0.38852452  0.84546375  0.99417147  1.0
  Si  Si18  1  0.11147548  1.65453625  0.49417147  1.0
  Si  Si19  1  0.61147548  1.15453625  0.00582853  1.0
  Si  Si20  1  0.65453625  1.11147548  0.50582853  1.0
  Si  Si21  1  0.15453625  1.61147548  0.99417147  1.0
  Si  Si22  1  -0.16713159  0.16713159  0.33323117  1.0
  Si  Si23  1  -0.66713159  0.66713159  0.16676883  1.0
  Si  Si24  1  -0.83286841  0.83286841  0.66676883  1.0
  Si  Si25  1  -0.33286841  0.33286841  0.83323117  1.0
  Si  Si26  1  0.20527295  1.20527295  0.50000000  1.0
  Si  Si27  1  0.70527295  0.70527295  0.00000000  1.0
  Si  Si28  1  0.79472705  0.79472705  0.50000000  1.0
  Si  Si29  1  0.29472705  1.29472705  0.00000000  1.0
  Ru  Ru30  1  -0.37323358  0.37323358  0.12704366  1.0
  Ru  Ru31  1  -0.87323358  0.87323358  0.37295634  1.0
  Ru  Ru32  1  -0.62676642  0.62676642  0.87295634  1.0
  Ru  Ru33  1  -0.12676642  0.12676642  0.62704366  1.0
  Ru  Ru34  1  0.33070939  1.33070939  0.50000000  1.0
  Ru  Ru35  1  0.83070939  0.83070939  0.00000000  1.0
  Ru  Ru36  1  0.66929061  0.66929061  0.50000000  1.0
  Ru  Ru37  1  0.16929061  1.16929061  0.00000000  1.0
