# generated using pymatgen
data_ScFeO3
_symmetry_space_group_name_H-M   'P 1'
_cell_length_a   5.63363766
_cell_length_b   5.63363766
_cell_length_c   5.63363766
_cell_angle_alpha   55.58619989
_cell_angle_beta   55.58619989
_cell_angle_gamma   55.58619989
_symmetry_Int_Tables_number   1
_chemical_formula_structural   ScFeO3
_chemical_formula_sum   'Sc2 Fe2 O6'
_cell_volume   113.47863281
_cell_formula_units_Z   2
loop_
 _symmetry_equiv_pos_site_id
 _symmetry_equiv_pos_as_xyz
  1  'x, y, z'
loop_
 _atom_site_type_symbol
 _atom_site_label
 _atom_site_symmetry_multiplicity
 _atom_site_fract_x
 _atom_site_fract_y
 _atom_site_fract_z
 _atom_site_occupancy
  Sc  Sc0  1  0.79150251  -0.20849749  -0.20849749  1.0
  Sc  Sc1  1  0.29150251  0.29150251  0.29150251  1.0
  Fe  Fe2  1  0.00665996  0.00665996  0.00665996  1.0
  Fe  Fe3  1  0.50665996  0.50665996  -0.49334004  1.0
  O  O4  1  0.59452641  -0.11904193  0.20615304  1.0
  O  O5  1  0.09452641  0.70615304  -0.61904193  1.0
  O  O6  1  0.70615304  0.38095807  -0.90547359  1.0
  O  O7  1  1.20615304  -0.40547359  -0.11904193  1.0
  O  O8  1  0.38095807  0.09452641  -0.29384696  1.0
  O  O9  1  0.88095807  0.20615304  -0.40547359  1.0
