# generated using pymatgen
data_V2Ni3O8
_symmetry_space_group_name_H-M   'P 1'
_cell_length_a   6.45406775
_cell_length_b   6.45406775
_cell_length_c   8.25145957
_cell_angle_alpha   90.00000000
_cell_angle_beta   90.00000000
_cell_angle_gamma   125.42902413
_symmetry_Int_Tables_number   1
_chemical_formula_structural   V2Ni3O8
_chemical_formula_sum   'V4 Ni6 O16'
_cell_volume   280.07032119
_cell_formula_units_Z   2
loop_
 _symmetry_equiv_pos_site_id
 _symmetry_equiv_pos_as_xyz
  1  'x, y, z'
loop_
 _atom_site_type_symbol
 _atom_site_label
 _atom_site_symmetry_multiplicity
 _atom_site_fract_x
 _atom_site_fract_y
 _atom_site_fract_z
 _atom_site_occupancy
  V  V0  1  0.37537057  0.62462943  0.88322641  1.0
  V  V1  1  -0.12462943  0.12462943  0.61677359  1.0
  V  V2  1  -0.37537057  0.37537057  0.11677359  1.0
  V  V3  1  0.12462943  0.87537057  0.38322641  1.0
  Ni  Ni4  1  -0.11926224  0.61926224  0.75000000  1.0
  Ni  Ni5  1  0.38073776  1.11926224  0.75000000  1.0
  Ni  Ni6  1  0.61926224  0.88073776  0.25000000  1.0
  Ni  Ni7  1  0.11926224  0.38073776  0.25000000  1.0
  Ni  Ni8  1  0.00000000  0.00000000  0.00000000  1.0
  Ni  Ni9  1  0.50000000  0.50000000  0.50000000  1.0
  O  O10  1  -0.14608071  0.61862882  0.99495078  1.0
  O  O11  1  0.35391929  1.11862882  0.50504922  1.0
  O  O12  1  0.61862882  0.85391929  0.00504922  1.0
  O  O13  1  0.11862882  0.35391929  0.49495078  1.0
  O  O14  1  0.38137118  1.14608071  0.99495078  1.0
  O  O15  1  -0.11862882  0.64608071  0.50504922  1.0
  O  O16  1  0.14608071  0.38137118  0.00504922  1.0
  O  O17  1  0.64608071  0.88137118  0.49495078  1.0
  O  O18  1  -0.00201971  0.00201971  0.75434590  1.0
  O  O19  1  0.49798029  0.50201971  0.74565410  1.0
  O  O20  1  0.00201971  0.99798029  0.24565410  1.0
  O  O21  1  -0.49798029  0.49798029  0.25434590  1.0
  O  O22  1  0.24683180  0.75316820  0.77094800  1.0
  O  O23  1  -0.25316820  0.25316820  0.72905200  1.0
  O  O24  1  -0.24683180  0.24683180  0.22905200  1.0
  O  O25  1  0.25316820  0.74683180  0.27094800  1.0
