# generated using pymatgen
data_Al5V2Ge5
_symmetry_space_group_name_H-M   'P 1'
_cell_length_a   7.04480819
_cell_length_b   7.04480819
_cell_length_c   11.39722854
_cell_angle_alpha   90.00000000
_cell_angle_beta   90.00000000
_cell_angle_gamma   134.84841055
_symmetry_Int_Tables_number   1
_chemical_formula_structural   Al5V2Ge5
_chemical_formula_sum   'Al10 V4 Ge10'
_cell_volume   401.02236920
_cell_formula_units_Z   2
loop_
 _symmetry_equiv_pos_site_id
 _symmetry_equiv_pos_as_xyz
  1  'x, y, z'
loop_
 _atom_site_type_symbol
 _atom_site_label
 _atom_site_symmetry_multiplicity
 _atom_site_fract_x
 _atom_site_fract_y
 _atom_site_fract_z
 _atom_site_occupancy
  Al  Al0  1  0.04071815  0.95928185  0.87246962  1.0
  Al  Al1  1  0.04071815  0.95928185  0.62753038  1.0
  Al  Al2  1  -0.04071815  0.04071815  0.37246962  1.0
  Al  Al3  1  -0.04071815  0.04071815  0.12753038  1.0
  Al  Al4  1  0.33383813  0.66616187  0.95279550  1.0
  Al  Al5  1  0.33383813  0.66616187  0.54720450  1.0
  Al  Al6  1  -0.33383813  0.33383813  0.45279550  1.0
  Al  Al7  1  -0.33383813  0.33383813  0.04720450  1.0
  Al  Al8  1  -0.29005761  0.29005761  0.75000000  1.0
  Al  Al9  1  0.29005761  0.70994239  0.25000000  1.0
  V  V10  1  0.13711170  0.35761256  0.75000000  1.0
  V  V11  1  0.35761256  1.13711170  0.25000000  1.0
  V  V12  1  0.64238744  0.86288830  0.75000000  1.0
  V  V13  1  -0.13711170  0.64238744  0.25000000  1.0
  Ge  Ge14  1  0.15761852  0.84238148  0.44361117  1.0
  Ge  Ge15  1  0.15761852  0.84238148  0.05638883  1.0
  Ge  Ge16  1  -0.15761852  0.15761852  0.94361117  1.0
  Ge  Ge17  1  -0.15761852  0.15761852  0.55638883  1.0
  Ge  Ge18  1  -0.46783218  0.46783218  0.86814357  1.0
  Ge  Ge19  1  -0.46783218  0.46783218  0.63185643  1.0
  Ge  Ge20  1  0.46783218  0.53216782  0.36814357  1.0
  Ge  Ge21  1  0.46783218  0.53216782  0.13185643  1.0
  Ge  Ge22  1  0.21996550  0.78003450  0.75000000  1.0
  Ge  Ge23  1  -0.21996550  0.21996550  0.25000000  1.0
