# generated using pymatgen
data_NbCo2
_symmetry_space_group_name_H-M   'P 1'
_cell_length_a   4.78136010
_cell_length_b   4.78136010
_cell_length_c   7.72173811
_cell_angle_alpha   90.00000000
_cell_angle_beta   90.00000000
_cell_angle_gamma   120.00000000
_symmetry_Int_Tables_number   1
_chemical_formula_structural   NbCo2
_chemical_formula_sum   'Nb4 Co8'
_cell_volume   152.87927194
_cell_formula_units_Z   4
loop_
 _symmetry_equiv_pos_site_id
 _symmetry_equiv_pos_as_xyz
  1  'x, y, z'
loop_
 _atom_site_type_symbol
 _atom_site_label
 _atom_site_symmetry_multiplicity
 _atom_site_fract_x
 _atom_site_fract_y
 _atom_site_fract_z
 _atom_site_occupancy
  Nb  Nb0  1  0.33333333  0.66666667  0.93701721  1.0
  Nb  Nb1  1  0.33333333  0.66666667  0.56298279  1.0
  Nb  Nb2  1  0.66666667  0.33333333  0.43701721  1.0
  Nb  Nb3  1  0.66666667  0.33333333  0.06298279  1.0
  Co  Co4  1  0.00000000  0.00000000  0.50000000  1.0
  Co  Co5  1  0.00000000  0.00000000  0.00000000  1.0
  Co  Co6  1  0.16909058  0.83090942  0.25000000  1.0
  Co  Co7  1  0.16909058  0.33818116  0.25000000  1.0
  Co  Co8  1  0.83090942  0.16909058  0.75000000  1.0
  Co  Co9  1  0.83090942  0.66181884  0.75000000  1.0
  Co  Co10  1  0.66181884  0.83090942  0.25000000  1.0
  Co  Co11  1  0.33818116  0.16909058  0.75000000  1.0
