# generated using pymatgen
data_K2CuS(ClO2)2
_symmetry_space_group_name_H-M   'P 1'
_cell_length_a   7.87470429
_cell_length_b   6.21079974
_cell_length_c   16.68776509
_cell_angle_alpha   90.00000000
_cell_angle_beta   90.00000000
_cell_angle_gamma   90.00000000
_symmetry_Int_Tables_number   1
_chemical_formula_structural   K2CuS(ClO2)2
_chemical_formula_sum   'K8 Cu4 S4 Cl8 O16'
_cell_volume   816.16874202
_cell_formula_units_Z   4
loop_
 _symmetry_equiv_pos_site_id
 _symmetry_equiv_pos_as_xyz
  1  'x, y, z'
loop_
 _atom_site_type_symbol
 _atom_site_label
 _atom_site_symmetry_multiplicity
 _atom_site_fract_x
 _atom_site_fract_y
 _atom_site_fract_z
 _atom_site_occupancy
  K  K0  1  0.89003979  0.75000000  0.78830192  1.0
  K  K1  1  0.39003979  0.75000000  0.71169808  1.0
  K  K2  1  0.10996021  0.25000000  0.21169808  1.0
  K  K3  1  0.60996021  0.25000000  0.28830192  1.0
  K  K4  1  0.87738972  0.75000000  0.40539510  1.0
  K  K5  1  0.37738972  0.75000000  0.09460490  1.0
  K  K6  1  0.12261028  0.25000000  0.59460490  1.0
  K  K7  1  0.62261028  0.25000000  0.90539510  1.0
  Cu  Cu8  1  0.87603259  0.75000000  0.03905196  1.0
  Cu  Cu9  1  0.37603259  0.75000000  0.46094804  1.0
  Cu  Cu10  1  0.12396741  0.25000000  0.96094804  1.0
  Cu  Cu11  1  0.62396741  0.25000000  0.53905196  1.0
  S  S12  1  0.86358991  0.75000000  0.19734917  1.0
  S  S13  1  0.36358991  0.75000000  0.30265083  1.0
  S  S14  1  0.13641009  0.25000000  0.80265083  1.0
  S  S15  1  0.63641009  0.25000000  0.69734917  1.0
  Cl  Cl16  1  0.59719374  0.75000000  0.54539215  1.0
  Cl  Cl17  1  0.09719374  0.75000000  0.95460785  1.0
  Cl  Cl18  1  0.40280626  0.25000000  0.45460785  1.0
  Cl  Cl19  1  0.90280626  0.25000000  0.04539215  1.0
  Cl  Cl20  1  0.16125489  0.75000000  0.55107380  1.0
  Cl  Cl21  1  0.66125489  0.75000000  0.94892620  1.0
  Cl  Cl22  1  0.83874511  0.25000000  0.44892620  1.0
  Cl  Cl23  1  0.33874511  0.25000000  0.05107380  1.0
  O  O24  1  0.85978426  0.94637853  0.24753417  1.0
  O  O25  1  0.85978426  0.55362147  0.24753417  1.0
  O  O26  1  0.35978426  0.94637853  0.25246583  1.0
  O  O27  1  0.35978426  0.55362147  0.25246583  1.0
  O  O28  1  0.14021574  0.44637853  0.75246583  1.0
  O  O29  1  0.14021574  0.05362147  0.75246583  1.0
  O  O30  1  0.64021574  0.44637853  0.74753417  1.0
  O  O31  1  0.64021574  0.05362147  0.74753417  1.0
  O  O32  1  0.71910154  0.75000000  0.13645129  1.0
  O  O33  1  0.21910154  0.75000000  0.36354871  1.0
  O  O34  1  0.28089846  0.25000000  0.86354871  1.0
  O  O35  1  0.78089846  0.25000000  0.63645129  1.0
  O  O36  1  0.51940774  0.75000000  0.35736717  1.0
  O  O37  1  0.01940774  0.75000000  0.14263283  1.0
  O  O38  1  0.48059226  0.25000000  0.64263283  1.0
  O  O39  1  0.98059226  0.25000000  0.85736717  1.0
