# generated using pymatgen
data_EuGaGe2O7
_symmetry_space_group_name_H-M   'P 1'
_cell_length_a   7.34001646
_cell_length_b   6.65899642
_cell_length_c   12.99905085
_cell_angle_alpha   90.00000000
_cell_angle_beta   117.81645757
_cell_angle_gamma   90.00000000
_symmetry_Int_Tables_number   1
_chemical_formula_structural   EuGaGe2O7
_chemical_formula_sum   'Eu4 Ga4 Ge8 O28'
_cell_volume   561.93910895
_cell_formula_units_Z   4
loop_
 _symmetry_equiv_pos_site_id
 _symmetry_equiv_pos_as_xyz
  1  'x, y, z'
loop_
 _atom_site_type_symbol
 _atom_site_label
 _atom_site_symmetry_multiplicity
 _atom_site_fract_x
 _atom_site_fract_y
 _atom_site_fract_z
 _atom_site_occupancy
  Eu  Eu0  1  0.74299810  0.85473208  0.97373844  1.0
  Eu  Eu1  1  0.74299810  0.64526792  0.47373844  1.0
  Eu  Eu2  1  0.25700190  0.35473208  0.52626156  1.0
  Eu  Eu3  1  0.25700190  0.14526792  0.02626156  1.0
  Ga  Ga4  1  0.71300848  0.90090470  0.23033125  1.0
  Ga  Ga5  1  0.71300848  0.59909530  0.73033125  1.0
  Ga  Ga6  1  0.28699152  0.40090470  0.26966875  1.0
  Ga  Ga7  1  0.28699152  0.09909530  0.76966875  1.0
  Ge  Ge8  1  0.80053235  0.41117546  0.22063865  1.0
  Ge  Ge9  1  0.80053235  0.08882454  0.72063865  1.0
  Ge  Ge10  1  0.19946765  0.91117546  0.27936135  1.0
  Ge  Ge11  1  0.19946765  0.58882454  0.77936135  1.0
  Ge  Ge12  1  0.71336285  0.15839646  0.45529901  1.0
  Ge  Ge13  1  0.71336285  0.34160354  0.95529901  1.0
  Ge  Ge14  1  0.28663715  0.65839646  0.04470099  1.0
  Ge  Ge15  1  0.28663715  0.84160354  0.54470099  1.0
  O  O16  1  0.92980160  0.87719275  0.19114144  1.0
  O  O17  1  0.92980160  0.62280725  0.69114144  1.0
  O  O18  1  0.07019840  0.37719275  0.30885856  1.0
  O  O19  1  0.07019840  0.12280725  0.80885856  1.0
  O  O20  1  0.90817416  0.32816041  0.47813860  1.0
  O  O21  1  0.90817416  0.17183959  0.97813860  1.0
  O  O22  1  0.09182584  0.82816041  0.02186140  1.0
  O  O23  1  0.09182584  0.67183959  0.52186140  1.0
  O  O24  1  0.75610381  0.49713958  0.07749832  1.0
  O  O25  1  0.75610381  0.00286042  0.57749832  1.0
  O  O26  1  0.24389619  0.99713958  0.42250168  1.0
  O  O27  1  0.24389619  0.50286042  0.92250168  1.0
  O  O28  1  0.71092285  0.94753128  0.37258246  1.0
  O  O29  1  0.71092285  0.55246872  0.87258246  1.0
  O  O30  1  0.28907715  0.44753128  0.12741754  1.0
  O  O31  1  0.28907715  0.05246872  0.62741754  1.0
  O  O32  1  0.65225745  0.18913776  0.18719969  1.0
  O  O33  1  0.65225745  0.31086224  0.68719969  1.0
  O  O34  1  0.34774255  0.68913776  0.31280031  1.0
  O  O35  1  0.34774255  0.81086224  0.81280031  1.0
  O  O36  1  0.51122674  0.33919338  0.42182918  1.0
  O  O37  1  0.51122674  0.16080662  0.92182918  1.0
  O  O38  1  0.48877326  0.83919338  0.07817082  1.0
  O  O39  1  0.48877326  0.66080662  0.57817082  1.0
  O  O40  1  0.28063013  0.11132887  0.22119468  1.0
  O  O41  1  0.28063013  0.38867113  0.72119468  1.0
  O  O42  1  0.71936987  0.61132887  0.27880532  1.0
  O  O43  1  0.71936987  0.88867113  0.77880532  1.0
