# generated using pymatgen
data_SrCdB2O5
_symmetry_space_group_name_H-M   'P 1'
_cell_length_a   6.44075940
_cell_length_b   6.44075940
_cell_length_c   11.29412231
_cell_angle_alpha   84.62120573
_cell_angle_beta   95.37879427
_cell_angle_gamma   73.48767082
_symmetry_Int_Tables_number   1
_chemical_formula_structural   SrCdB2O5
_chemical_formula_sum   'Sr4 Cd4 B8 O20'
_cell_volume   443.64726479
_cell_formula_units_Z   4
loop_
 _symmetry_equiv_pos_site_id
 _symmetry_equiv_pos_as_xyz
  1  'x, y, z'
loop_
 _atom_site_type_symbol
 _atom_site_label
 _atom_site_symmetry_multiplicity
 _atom_site_fract_x
 _atom_site_fract_y
 _atom_site_fract_z
 _atom_site_occupancy
  Sr  Sr0  1  0.86369288  -0.13630712  0.25000000  1.0
  Sr  Sr1  1  1.13630712  0.13630712  0.75000000  1.0
  Sr  Sr2  1  1.31761609  0.31761609  0.25000000  1.0
  Sr  Sr3  1  0.68238391  -0.31761609  0.75000000  1.0
  Cd  Cd4  1  0.43147906  -0.23628326  0.05668356  1.0
  Cd  Cd5  1  1.23628326  0.56852094  0.55668356  1.0
  Cd  Cd6  1  0.76371674  -0.56852094  0.44331644  1.0
  Cd  Cd7  1  1.56852094  0.23628326  0.94331644  1.0
  B  B8  1  0.76904592  -0.04422532  0.49400733  1.0
  B  B9  1  1.04422532  0.23095408  0.99400733  1.0
  B  B10  1  0.95577468  -0.23095408  0.00599267  1.0
  B  B11  1  1.23095408  0.04422532  0.50599267  1.0
  B  B12  1  0.36854200  -0.17369824  0.33213243  1.0
  B  B13  1  1.17369824  0.63145800  0.83213243  1.0
  B  B14  1  0.82630176  -0.63145800  0.16786757  1.0
  B  B15  1  1.63145800  0.17369824  0.66786757  1.0
  O  O16  1  0.74369494  -0.13569755  0.02627353  1.0
  O  O17  1  1.13569755  0.25630506  0.52627353  1.0
  O  O18  1  0.86430245  -0.25630506  0.47372647  1.0
  O  O19  1  1.25630506  0.13569755  0.97372647  1.0
  O  O20  1  0.46782590  -0.11354560  0.23937928  1.0
  O  O21  1  1.11354560  0.53217410  0.73937928  1.0
  O  O22  1  0.88645440  -0.53217410  0.26062072  1.0
  O  O23  1  1.53217410  0.11354560  0.76062072  1.0
  O  O24  1  1.69039547  0.12081941  0.40203581  1.0
  O  O25  1  0.87918059  -0.69039547  0.90203581  1.0
  O  O26  1  1.12081941  0.69039547  0.09796419  1.0
  O  O27  1  0.30960453  -0.12081941  0.59796419  1.0
  O  O28  1  1.61839478  0.36959939  0.12762809  1.0
  O  O29  1  0.63040061  -0.61839478  0.62762809  1.0
  O  O30  1  1.36959939  0.61839478  0.37237191  1.0
  O  O31  1  0.38160522  -0.36959939  0.87237191  1.0
  O  O32  1  1.23800257  0.00677723  0.38403819  1.0
  O  O33  1  0.99322277  -0.23800257  0.88403819  1.0
  O  O34  1  1.00677723  0.23800257  0.11596181  1.0
  O  O35  1  0.76199743  -0.00677723  0.61596181  1.0
