# generated using pymatgen
data_Sr2LuNbO6
_symmetry_space_group_name_H-M   'P 1'
_cell_length_a   5.80962675
_cell_length_b   5.88039671
_cell_length_c   10.10182226
_cell_angle_alpha   90.00000000
_cell_angle_beta   125.26829736
_cell_angle_gamma   90.00000000
_symmetry_Int_Tables_number   1
_chemical_formula_structural   Sr2LuNbO6
_chemical_formula_sum   'Sr4 Lu2 Nb2 O12'
_cell_volume   281.76562215
_cell_formula_units_Z   2
loop_
 _symmetry_equiv_pos_site_id
 _symmetry_equiv_pos_as_xyz
  1  'x, y, z'
loop_
 _atom_site_type_symbol
 _atom_site_label
 _atom_site_symmetry_multiplicity
 _atom_site_fract_x
 _atom_site_fract_y
 _atom_site_fract_z
 _atom_site_occupancy
  Sr  Sr0  1  0.74196925  0.03464352  0.24968736  1.0
  Sr  Sr1  1  0.74196925  0.46535648  0.74968736  1.0
  Sr  Sr2  1  0.25803075  0.53464352  0.25031264  1.0
  Sr  Sr3  1  0.25803075  0.96535648  0.75031264  1.0
  Lu  Lu4  1  0.50000000  0.50000000  -0.00000000  1.0
  Lu  Lu5  1  0.50000000  0.00000000  0.50000000  1.0
  Nb  Nb6  1  0.00000000  0.50000000  0.50000000  1.0
  Nb  Nb7  1  0.00000000  0.00000000  0.00000000  1.0
  O  O8  1  0.84031030  0.47849602  0.26295161  1.0
  O  O9  1  0.84031030  0.02150398  0.76295161  1.0
  O  O10  1  0.15968970  0.97849602  0.23704839  1.0
  O  O11  1  0.15968970  0.52150398  0.73704839  1.0
  O  O12  1  0.75844377  0.77484777  0.45751657  1.0
  O  O13  1  0.75844377  0.72515223  0.95751657  1.0
  O  O14  1  0.24155623  0.27484777  0.04248343  1.0
  O  O15  1  0.24155623  0.22515223  0.54248343  1.0
  O  O16  1  0.68636250  0.29893724  0.46056842  1.0
  O  O17  1  0.68636250  0.20106276  0.96056842  1.0
  O  O18  1  0.31363750  0.79893724  0.03943158  1.0
  O  O19  1  0.31363750  0.70106276  0.53943158  1.0
