# generated using pymatgen
data_Ca5CdAg2
_symmetry_space_group_name_H-M   'P 1'
_cell_length_a   9.39351965
_cell_length_b   9.39351965
_cell_length_c   9.39351965
_cell_angle_alpha   128.58801947
_cell_angle_beta   128.58801947
_cell_angle_gamma   75.67437715
_symmetry_Int_Tables_number   1
_chemical_formula_structural   Ca5CdAg2
_chemical_formula_sum   'Ca10 Cd2 Ag4'
_cell_volume   492.63367919
_cell_formula_units_Z   2
loop_
 _symmetry_equiv_pos_site_id
 _symmetry_equiv_pos_as_xyz
  1  'x, y, z'
loop_
 _atom_site_type_symbol
 _atom_site_label
 _atom_site_symmetry_multiplicity
 _atom_site_fract_x
 _atom_site_fract_y
 _atom_site_fract_z
 _atom_site_occupancy
  Ca  Ca0  1  0.00000000  0.00000000  0.00000000  1.0
  Ca  Ca1  1  0.50000000  0.50000000  1.00000000  1.0
  Ca  Ca2  1  1.18991314  0.68991314  1.16640727  1.0
  Ca  Ca3  1  0.47649413  0.97649413  1.16640727  1.0
  Ca  Ca4  1  1.02350587  1.18991314  1.50000000  1.0
  Ca  Ca5  1  0.31008686  0.47649413  0.50000000  1.0
  Ca  Ca6  1  0.68991314  0.52350587  0.50000000  1.0
  Ca  Ca7  1  0.97649413  0.81008686  1.50000000  1.0
  Ca  Ca8  1  0.52350587  1.02350587  0.83359273  1.0
  Ca  Ca9  1  0.81008686  0.31008686  0.83359273  1.0
  Cd  Cd10  1  0.75000000  0.75000000  1.00000000  1.0
  Cd  Cd11  1  0.25000000  0.25000000  -0.00000000  1.0
  Ag  Ag12  1  0.87394664  0.37394664  1.24789329  1.0
  Ag  Ag13  1  0.62605336  0.87394664  1.50000000  1.0
  Ag  Ag14  1  0.37394664  0.12605336  0.50000000  1.0
  Ag  Ag15  1  0.12605336  0.62605336  0.75210671  1.0
