# generated using pymatgen
data_Li6Tb2O7
_symmetry_space_group_name_H-M   'P 1'
_cell_length_a   5.56240162
_cell_length_b   6.17455596
_cell_length_c   10.68937834
_cell_angle_alpha   90.00000000
_cell_angle_beta   109.70977844
_cell_angle_gamma   90.00000000
_symmetry_Int_Tables_number   1
_chemical_formula_structural   Li6Tb2O7
_chemical_formula_sum   'Li12 Tb4 O14'
_cell_volume   345.62147042
_cell_formula_units_Z   2
loop_
 _symmetry_equiv_pos_site_id
 _symmetry_equiv_pos_as_xyz
  1  'x, y, z'
loop_
 _atom_site_type_symbol
 _atom_site_label
 _atom_site_symmetry_multiplicity
 _atom_site_fract_x
 _atom_site_fract_y
 _atom_site_fract_z
 _atom_site_occupancy
  Li  Li0  1  0.85244474  0.50879621  0.38151677  1.0
  Li  Li1  1  0.85244474  -0.00879621  0.88151677  1.0
  Li  Li2  1  0.14755526  1.00879621  0.11848323  1.0
  Li  Li3  1  0.14755526  0.49120379  0.61848323  1.0
  Li  Li4  1  0.78529155  0.26047400  0.13537368  1.0
  Li  Li5  1  0.78529155  0.23952600  0.63537368  1.0
  Li  Li6  1  0.21470845  0.76047400  0.36462632  1.0
  Li  Li7  1  0.21470845  0.73952600  0.86462632  1.0
  Li  Li8  1  0.19310065  0.21242813  0.35128257  1.0
  Li  Li9  1  0.19310065  0.28757187  0.85128257  1.0
  Li  Li10  1  0.80689935  0.71242813  0.14871743  1.0
  Li  Li11  1  0.80689935  0.78757187  0.64871743  1.0
  Tb  Tb12  1  0.72538302  0.98719405  0.36595498  1.0
  Tb  Tb13  1  0.72538302  0.51280595  0.86595498  1.0
  Tb  Tb14  1  0.27461698  0.48719405  0.13404502  1.0
  Tb  Tb15  1  0.27461698  0.01280595  0.63404502  1.0
  O  O16  1  0.97818476  0.24115861  0.49395214  1.0
  O  O17  1  0.97818476  0.25884139  0.99395214  1.0
  O  O18  1  0.02181524  0.74115861  0.00604786  1.0
  O  O19  1  0.02181524  0.75884139  0.50604786  1.0
  O  O20  1  0.96306940  0.98500530  0.24374123  1.0
  O  O21  1  0.96306940  0.51499470  0.74374123  1.0
  O  O22  1  0.03693060  0.48500530  0.25625877  1.0
  O  O23  1  0.03693060  0.01499470  0.75625877  1.0
  O  O24  1  0.45647913  0.18792016  0.22032654  1.0
  O  O25  1  0.45647913  0.31207984  0.72032654  1.0
  O  O26  1  0.54352087  0.68792016  0.27967346  1.0
  O  O27  1  0.54352087  0.81207984  0.77967346  1.0
  O  O28  1  0.50000000  0.50000000  0.00000000  1.0
  O  O29  1  0.50000000  0.00000000  0.50000000  1.0
