# generated using pymatgen
data_Nd(Ge2Rh3)2
_symmetry_space_group_name_H-M   'P 1'
_cell_length_a   7.22726471
_cell_length_b   7.22726471
_cell_length_c   3.86051583
_cell_angle_alpha   90.00000000
_cell_angle_beta   90.00000000
_cell_angle_gamma   120.00000000
_symmetry_Int_Tables_number   1
_chemical_formula_structural   Nd(Ge2Rh3)2
_chemical_formula_sum   'Nd1 Ge4 Rh6'
_cell_volume   174.63202617
_cell_formula_units_Z   1
loop_
 _symmetry_equiv_pos_site_id
 _symmetry_equiv_pos_as_xyz
  1  'x, y, z'
loop_
 _atom_site_type_symbol
 _atom_site_label
 _atom_site_symmetry_multiplicity
 _atom_site_fract_x
 _atom_site_fract_y
 _atom_site_fract_z
 _atom_site_occupancy
  Nd  Nd0  1  0.00000000  0.00000000  0.00000000  1.0
  Ge  Ge1  1  0.39643349  0.19821675  0.50000000  1.0
  Ge  Ge2  1  0.80178325  0.19821675  0.50000000  1.0
  Ge  Ge3  1  0.80178325  0.60356651  0.50000000  1.0
  Ge  Ge4  1  0.33333333  0.66666667  0.00000000  1.0
  Rh  Rh5  1  0.59976304  0.79988152  0.50000000  1.0
  Rh  Rh6  1  0.20011848  0.79988152  0.50000000  1.0
  Rh  Rh7  1  0.20011848  0.40023696  0.50000000  1.0
  Rh  Rh8  1  0.93332560  0.46666280  0.00000000  1.0
  Rh  Rh9  1  0.53333720  0.46666280  0.00000000  1.0
  Rh  Rh10  1  0.53333720  0.06667440  0.00000000  1.0
