# generated using pymatgen
data_Ag4TeSO4
_symmetry_space_group_name_H-M   'P 1'
_cell_length_a   8.89579777
_cell_length_b   8.89579777
_cell_length_c   8.89579777
_cell_angle_alpha   90.00000000
_cell_angle_beta   90.00000000
_cell_angle_gamma   90.00000000
_symmetry_Int_Tables_number   1
_chemical_formula_structural   Ag4TeSO4
_chemical_formula_sum   'Ag16 Te4 S4 O16'
_cell_volume   703.97089446
_cell_formula_units_Z   4
loop_
 _symmetry_equiv_pos_site_id
 _symmetry_equiv_pos_as_xyz
  1  'x, y, z'
loop_
 _atom_site_type_symbol
 _atom_site_label
 _atom_site_symmetry_multiplicity
 _atom_site_fract_x
 _atom_site_fract_y
 _atom_site_fract_z
 _atom_site_occupancy
  Ag  Ag0  1  0.28881042  0.52457791  0.90002427  1.0
  Ag  Ag1  1  0.78881042  0.97542209  0.09997573  1.0
  Ag  Ag2  1  0.02457791  0.59997573  0.71118958  1.0
  Ag  Ag3  1  0.52457791  0.90002427  0.28881042  1.0
  Ag  Ag4  1  0.09997573  0.78881042  0.97542209  1.0
  Ag  Ag5  1  0.59997573  0.71118958  0.02457791  1.0
  Ag  Ag6  1  0.71118958  0.02457791  0.59997573  1.0
  Ag  Ag7  1  0.21118958  0.47542209  0.40002427  1.0
  Ag  Ag8  1  0.97542209  0.09997573  0.78881042  1.0
  Ag  Ag9  1  0.47542209  0.40002427  0.21118958  1.0
  Ag  Ag10  1  0.90002427  0.28881042  0.52457791  1.0
  Ag  Ag11  1  0.40002427  0.21118958  0.47542209  1.0
  Ag  Ag12  1  0.99030352  0.49030352  0.00969648  1.0
  Ag  Ag13  1  0.49030352  0.00969648  0.99030352  1.0
  Ag  Ag14  1  0.00969648  0.99030352  0.49030352  1.0
  Ag  Ag15  1  0.50969648  0.50969648  0.50969648  1.0
  Te  Te16  1  0.67471801  0.17471801  0.32528199  1.0
  Te  Te17  1  0.17471801  0.32528199  0.67471801  1.0
  Te  Te18  1  0.32528199  0.67471801  0.17471801  1.0
  Te  Te19  1  0.82528199  0.82528199  0.82528199  1.0
  S  S20  1  0.37446323  0.87446323  0.62553677  1.0
  S  S21  1  0.87446323  0.62553677  0.37446323  1.0
  S  S22  1  0.62553677  0.37446323  0.87446323  1.0
  S  S23  1  0.12553677  0.12553677  0.12553677  1.0
  O  O24  1  0.46969307  0.97949358  0.71973881  1.0
  O  O25  1  0.96969307  0.52050642  0.28026119  1.0
  O  O26  1  0.47949358  0.78026119  0.53030693  1.0
  O  O27  1  0.97949358  0.71973881  0.46969307  1.0
  O  O28  1  0.28026119  0.96969307  0.52050642  1.0
  O  O29  1  0.78026119  0.53030693  0.47949358  1.0
  O  O30  1  0.53030693  0.47949358  0.78026119  1.0
  O  O31  1  0.03030693  0.02050642  0.21973881  1.0
  O  O32  1  0.52050642  0.28026119  0.96969307  1.0
  O  O33  1  0.02050642  0.21973881  0.03030693  1.0
  O  O34  1  0.71973881  0.46969307  0.97949358  1.0
  O  O35  1  0.21973881  0.03030693  0.02050642  1.0
  O  O36  1  0.27853594  0.77853594  0.72146406  1.0
  O  O37  1  0.77853594  0.72146406  0.27853594  1.0
  O  O38  1  0.72146406  0.27853594  0.77853594  1.0
  O  O39  1  0.22146406  0.22146406  0.22146406  1.0
