# generated using pymatgen
data_K2Ce(PO4)2
_symmetry_space_group_name_H-M   'P 1'
_cell_length_a   7.77056469
_cell_length_b   11.03834846
_cell_length_c   9.77322960
_cell_angle_alpha   90.00000000
_cell_angle_beta   117.30871380
_cell_angle_gamma   90.00000000
_symmetry_Int_Tables_number   1
_chemical_formula_structural   K2Ce(PO4)2
_chemical_formula_sum   'K8 Ce4 P8 O32'
_cell_volume   744.86130825
_cell_formula_units_Z   4
loop_
 _symmetry_equiv_pos_site_id
 _symmetry_equiv_pos_as_xyz
  1  'x, y, z'
loop_
 _atom_site_type_symbol
 _atom_site_label
 _atom_site_symmetry_multiplicity
 _atom_site_fract_x
 _atom_site_fract_y
 _atom_site_fract_z
 _atom_site_occupancy
  K  K0  1  0.85328072  0.62916086  0.95850923  1.0
  K  K1  1  0.85328072  0.87083914  0.45850923  1.0
  K  K2  1  0.14671928  0.37083914  0.04149077  1.0
  K  K3  1  0.14671928  0.12916086  0.54149077  1.0
  K  K4  1  0.66592308  0.61541024  0.54003791  1.0
  K  K5  1  0.66592308  0.88458976  0.04003791  1.0
  K  K6  1  0.33407692  0.38458976  0.45996209  1.0
  K  K7  1  0.33407692  0.11541024  0.95996209  1.0
  Ce  Ce8  1  0.25626791  0.63983550  0.78088490  1.0
  Ce  Ce9  1  0.25626791  0.86016450  0.28088490  1.0
  Ce  Ce10  1  0.74373209  0.36016450  0.21911510  1.0
  Ce  Ce11  1  0.74373209  0.13983550  0.71911510  1.0
  P  P12  1  0.06685372  0.63985205  0.35644501  1.0
  P  P13  1  0.06685372  0.86014795  0.85644501  1.0
  P  P14  1  0.93314628  0.36014795  0.64355499  1.0
  P  P15  1  0.93314628  0.13985205  0.14355499  1.0
  P  P16  1  0.53821511  0.36975793  0.86618802  1.0
  P  P17  1  0.53821511  0.13024207  0.36618802  1.0
  P  P18  1  0.46178489  0.63024207  0.13381198  1.0
  P  P19  1  0.46178489  0.86975793  0.63381198  1.0
  O  O20  1  0.96708958  0.75450389  0.25653578  1.0
  O  O21  1  0.96708958  0.74549611  0.75653578  1.0
  O  O22  1  0.03291042  0.24549611  0.74346422  1.0
  O  O23  1  0.03291042  0.25450389  0.24346422  1.0
  O  O24  1  0.06025368  0.64645422  0.51362025  1.0
  O  O25  1  0.06025368  0.85354578  0.01362025  1.0
  O  O26  1  0.93974632  0.35354578  0.48637975  1.0
  O  O27  1  0.93974632  0.14645422  0.98637975  1.0
  O  O28  1  0.97030196  0.52122447  0.26968271  1.0
  O  O29  1  0.97030196  0.97877553  0.76968271  1.0
  O  O30  1  0.02969804  0.47877553  0.73031729  1.0
  O  O31  1  0.02969804  0.02122447  0.23031729  1.0
  O  O32  1  0.27851773  0.64722830  0.38002729  1.0
  O  O33  1  0.27851773  0.85277170  0.88002729  1.0
  O  O34  1  0.72148227  0.35277170  0.61997271  1.0
  O  O35  1  0.72148227  0.14722830  0.11997271  1.0
  O  O36  1  0.45103275  0.35155338  0.98073178  1.0
  O  O37  1  0.45103275  0.14844662  0.48073178  1.0
  O  O38  1  0.54896725  0.64844662  0.01926822  1.0
  O  O39  1  0.54896725  0.85155338  0.51926822  1.0
  O  O40  1  0.51489322  0.25232012  0.77096269  1.0
  O  O41  1  0.51489322  0.24767988  0.27096269  1.0
  O  O42  1  0.48510678  0.74767988  0.22903731  1.0
  O  O43  1  0.48510678  0.75232012  0.72903731  1.0
  O  O44  1  0.43607850  0.47792414  0.75460423  1.0
  O  O45  1  0.43607850  0.02207586  0.25460423  1.0
  O  O46  1  0.56392150  0.52207586  0.24539577  1.0
  O  O47  1  0.56392150  0.97792414  0.74539577  1.0
  O  O48  1  0.75522818  0.39877482  0.97638751  1.0
  O  O49  1  0.75522818  0.10122518  0.47638751  1.0
  O  O50  1  0.24477182  0.60122518  0.02361249  1.0
  O  O51  1  0.24477182  0.89877482  0.52361249  1.0
