# generated using pymatgen
data_TlC3N3O
_symmetry_space_group_name_H-M   'P 1'
_cell_length_a   9.04936232
_cell_length_b   9.04936232
_cell_length_c   10.94910146
_cell_angle_alpha   55.29412517
_cell_angle_beta   124.70587483
_cell_angle_gamma   124.14561297
_symmetry_Int_Tables_number   1
_chemical_formula_structural   TlC3N3O
_chemical_formula_sum   'Tl4 C12 N12 O4'
_cell_volume   567.44291580
_cell_formula_units_Z   4
loop_
 _symmetry_equiv_pos_site_id
 _symmetry_equiv_pos_as_xyz
  1  'x, y, z'
loop_
 _atom_site_type_symbol
 _atom_site_label
 _atom_site_symmetry_multiplicity
 _atom_site_fract_x
 _atom_site_fract_y
 _atom_site_fract_z
 _atom_site_occupancy
  Tl  Tl0  1  0.58962960  0.26125355  0.82738255  1.0
  Tl  Tl1  1  0.73874645  -0.58962960  0.32738255  1.0
  Tl  Tl2  1  1.26125355  0.58962960  0.67261745  1.0
  Tl  Tl3  1  1.41037040  -0.26125355  0.17261745  1.0
  C  C4  1  1.74983066  -0.20081435  0.57282395  1.0
  C  C5  1  1.20081435  -0.74983066  0.07282395  1.0
  C  C6  1  0.79918565  0.74983066  0.92717605  1.0
  C  C7  1  0.25016934  0.20081435  0.42717605  1.0
  C  C8  1  0.76528629  -0.08609714  0.87915432  1.0
  C  C9  1  1.08609714  -0.76528629  0.37915432  1.0
  C  C10  1  0.91390286  0.76528629  0.62084568  1.0
  C  C11  1  1.23471371  0.08609714  0.12084568  1.0
  C  C12  1  0.83870145  0.08970836  0.76720980  1.0
  C  C13  1  0.91029164  -0.83870145  0.26720980  1.0
  C  C14  1  1.08970836  0.83870145  0.73279020  1.0
  C  C15  1  1.16129855  -0.08970836  0.23279020  1.0
  N  N16  1  0.66918686  -0.08859639  0.94074375  1.0
  N  N17  1  1.08859639  -0.66918686  0.44074375  1.0
  N  N18  1  0.91140361  0.66918686  0.55925625  1.0
  N  N19  1  1.33081314  0.08859639  0.05925625  1.0
  N  N20  1  1.61065479  -0.17681468  0.52936150  1.0
  N  N21  1  1.17681468  -0.61065479  0.02936150  1.0
  N  N22  1  0.82318532  0.61065479  0.97063850  1.0
  N  N23  1  0.38934521  0.17681468  0.47063850  1.0
  N  N24  1  0.23554080  -0.09628154  0.82280870  1.0
  N  N25  1  1.09628154  -0.23554080  0.32280870  1.0
  N  N26  1  0.90371846  0.23554080  0.67719130  1.0
  N  N27  1  1.76445920  0.09628154  0.17719130  1.0
  O  O28  1  0.39061757  0.24520959  0.95492921  1.0
  O  O29  1  0.75479041  0.60938243  0.45492921  1.0
  O  O30  1  1.24520959  -0.60938243  0.54507079  1.0
  O  O31  1  1.60938243  -0.24520959  0.04507079  1.0
