# generated using pymatgen
data_CsCuTeS3
_symmetry_space_group_name_H-M   'P 1'
_cell_length_a   9.35197822
_cell_length_b   9.35197822
_cell_length_c   9.35197822
_cell_angle_alpha   90.00000000
_cell_angle_beta   90.00000000
_cell_angle_gamma   90.00000000
_symmetry_Int_Tables_number   1
_chemical_formula_structural   CsCuTeS3
_chemical_formula_sum   'Cs4 Cu4 Te4 S12'
_cell_volume   817.91930825
_cell_formula_units_Z   4
loop_
 _symmetry_equiv_pos_site_id
 _symmetry_equiv_pos_as_xyz
  1  'x, y, z'
loop_
 _atom_site_type_symbol
 _atom_site_label
 _atom_site_symmetry_multiplicity
 _atom_site_fract_x
 _atom_site_fract_y
 _atom_site_fract_z
 _atom_site_occupancy
  Cs  Cs0  1  0.09208594  0.59208594  0.90791406  1.0
  Cs  Cs1  1  0.59208594  0.90791406  0.09208594  1.0
  Cs  Cs2  1  0.90791406  0.09208594  0.59208594  1.0
  Cs  Cs3  1  0.40791406  0.40791406  0.40791406  1.0
  Cu  Cu4  1  0.85116898  0.35116898  0.14883102  1.0
  Cu  Cu5  1  0.35116898  0.14883102  0.85116898  1.0
  Cu  Cu6  1  0.14883102  0.85116898  0.35116898  1.0
  Cu  Cu7  1  0.64883102  0.64883102  0.64883102  1.0
  Te  Te8  1  0.43040595  0.93040595  0.56959405  1.0
  Te  Te9  1  0.93040595  0.56959405  0.43040595  1.0
  Te  Te10  1  0.56959405  0.43040595  0.93040595  1.0
  Te  Te11  1  0.06959405  0.06959405  0.06959405  1.0
  S  S12  1  0.47684236  0.64200587  0.81461865  1.0
  S  S13  1  0.97684236  0.85799413  0.18538135  1.0
  S  S14  1  0.14200587  0.68538135  0.52315764  1.0
  S  S15  1  0.64200587  0.81461865  0.47684236  1.0
  S  S16  1  0.18538135  0.97684236  0.85799413  1.0
  S  S17  1  0.68538135  0.52315764  0.14200587  1.0
  S  S18  1  0.52315764  0.14200587  0.68538135  1.0
  S  S19  1  0.02315764  0.35799413  0.31461865  1.0
  S  S20  1  0.85799413  0.18538135  0.97684236  1.0
  S  S21  1  0.35799413  0.31461865  0.02315764  1.0
  S  S22  1  0.81461865  0.47684236  0.64200587  1.0
  S  S23  1  0.31461865  0.02315764  0.35799413  1.0
