# generated using pymatgen
data_AlPd
_symmetry_space_group_name_H-M   'P 1'
_cell_length_a   4.90016348
_cell_length_b   4.90016348
_cell_length_c   4.90016348
_cell_angle_alpha   90.00000000
_cell_angle_beta   90.00000000
_cell_angle_gamma   90.00000000
_symmetry_Int_Tables_number   1
_chemical_formula_structural   AlPd
_chemical_formula_sum   'Al4 Pd4'
_cell_volume   117.66077569
_cell_formula_units_Z   4
loop_
 _symmetry_equiv_pos_site_id
 _symmetry_equiv_pos_as_xyz
  1  'x, y, z'
loop_
 _atom_site_type_symbol
 _atom_site_label
 _atom_site_symmetry_multiplicity
 _atom_site_fract_x
 _atom_site_fract_y
 _atom_site_fract_z
 _atom_site_occupancy
  Al  Al0  1  0.40555747  0.90555747  0.59444253  1.0
  Al  Al1  1  0.90555747  0.59444253  0.40555747  1.0
  Al  Al2  1  0.59444253  0.40555747  0.90555747  1.0
  Al  Al3  1  0.09444253  0.09444253  0.09444253  1.0
  Pd  Pd4  1  0.10236451  0.60236451  0.89763549  1.0
  Pd  Pd5  1  0.60236451  0.89763549  0.10236451  1.0
  Pd  Pd6  1  0.89763549  0.10236451  0.60236451  1.0
  Pd  Pd7  1  0.39763549  0.39763549  0.39763549  1.0
