# generated using pymatgen
data_RbSi
_symmetry_space_group_name_H-M   'P 1'
_cell_length_a   11.90707596
_cell_length_b   11.90707596
_cell_length_c   11.90707596
_cell_angle_alpha   124.73284684
_cell_angle_beta   124.73284684
_cell_angle_gamma   81.98099840
_symmetry_Int_Tables_number   1
_chemical_formula_structural   RbSi
_chemical_formula_sum   'Rb16 Si16'
_cell_volume   1096.49824532
_cell_formula_units_Z   16
loop_
 _symmetry_equiv_pos_site_id
 _symmetry_equiv_pos_as_xyz
  1  'x, y, z'
loop_
 _atom_site_type_symbol
 _atom_site_label
 _atom_site_symmetry_multiplicity
 _atom_site_fract_x
 _atom_site_fract_y
 _atom_site_fract_z
 _atom_site_occupancy
  Rb  Rb0  1  0.76713187  1.37500000  0.89213187  1.0
  Rb  Rb1  1  1.26713187  1.37500000  1.39213187  1.0
  Rb  Rb2  1  1.62500000  1.51713187  1.39213187  1.0
  Rb  Rb3  1  1.12500000  1.73286813  1.10786813  1.0
  Rb  Rb4  1  0.98286813  0.87500000  0.60786813  1.0
  Rb  Rb5  1  1.48286813  0.87500000  1.10786813  1.0
  Rb  Rb6  1  1.62500000  1.01713187  0.89213187  1.0
  Rb  Rb7  1  1.12500000  1.23286813  0.60786813  1.0
  Rb  Rb8  1  0.87177463  0.87177463  0.24354926  1.0
  Rb  Rb9  1  1.37177463  1.12822537  1.00000000  1.0
  Rb  Rb10  1  0.12177463  0.62177463  0.74354926  1.0
  Rb  Rb11  1  0.62177463  0.87822537  1.50000000  1.0
  Rb  Rb12  1  0.87822537  0.37822537  1.25645074  1.0
  Rb  Rb13  1  0.37822537  0.12177463  0.50000000  1.0
  Rb  Rb14  1  1.62822537  1.62822537  1.75645074  1.0
  Rb  Rb15  1  1.12822537  1.37177463  1.00000000  1.0
  Si  Si16  1  1.51124923  1.35873388  0.96627086  1.0
  Si  Si17  1  1.01124923  1.04497837  0.15251535  1.0
  Si  Si18  1  1.60873388  1.26124923  1.46627086  1.0
  Si  Si19  1  1.10873388  1.64246302  1.34748465  1.0
  Si  Si20  1  1.23875077  0.89126612  0.53372914  1.0
  Si  Si21  1  1.73875077  1.20502163  1.34748465  1.0
  Si  Si22  1  0.14126612  0.98875077  1.03372914  1.0
  Si  Si23  1  0.64126612  0.60753698  1.15251535  1.0
  Si  Si24  1  1.89246302  1.85873388  1.84748465  1.0
  Si  Si25  1  1.39246302  1.54497837  1.03372914  1.0
  Si  Si26  1  1.29497837  0.76124923  0.65251535  1.0
  Si  Si27  1  0.79497837  1.14246302  0.53372914  1.0
  Si  Si28  1  0.85753698  1.39126612  0.65251535  1.0
  Si  Si29  1  1.35753698  1.70502163  1.46627086  1.0
  Si  Si30  1  0.45502163  0.48875077  0.84748465  1.0
  Si  Si31  1  0.95502163  0.10753698  0.96627086  1.0
