# generated using pymatgen
data_FeCoBO4
_symmetry_space_group_name_H-M   'P 1'
_cell_length_a   9.24980215
_cell_length_b   3.12049977
_cell_length_c   9.57684698
_cell_angle_alpha   90.00000000
_cell_angle_beta   90.00000000
_cell_angle_gamma   90.00000000
_symmetry_Int_Tables_number   1
_chemical_formula_structural   FeCoBO4
_chemical_formula_sum   'Fe4 Co4 B4 O16'
_cell_volume   276.42616425
_cell_formula_units_Z   4
loop_
 _symmetry_equiv_pos_site_id
 _symmetry_equiv_pos_as_xyz
  1  'x, y, z'
loop_
 _atom_site_type_symbol
 _atom_site_label
 _atom_site_symmetry_multiplicity
 _atom_site_fract_x
 _atom_site_fract_y
 _atom_site_fract_z
 _atom_site_occupancy
  Fe  Fe0  1  0.88236660  0.75000000  0.06802601  1.0
  Fe  Fe1  1  0.38236660  0.75000000  0.43197399  1.0
  Fe  Fe2  1  0.11763340  0.25000000  0.93197399  1.0
  Fe  Fe3  1  0.61763340  0.25000000  0.56802601  1.0
  Co  Co4  1  0.89559542  0.75000000  0.69127875  1.0
  Co  Co5  1  0.39559542  0.75000000  0.80872125  1.0
  Co  Co6  1  0.10440458  0.25000000  0.30872125  1.0
  Co  Co7  1  0.60440458  0.25000000  0.19127875  1.0
  B  B8  1  0.83677103  0.75000000  0.37580405  1.0
  B  B9  1  0.33677103  0.75000000  0.12419595  1.0
  B  B10  1  0.16322897  0.25000000  0.62419595  1.0
  B  B11  1  0.66322897  0.25000000  0.87580405  1.0
  O  O12  1  0.98500798  0.75000000  0.37071192  1.0
  O  O13  1  0.48500798  0.75000000  0.12928808  1.0
  O  O14  1  0.01499202  0.25000000  0.62928808  1.0
  O  O15  1  0.51499202  0.25000000  0.87071192  1.0
  O  O16  1  0.76674831  0.75000000  0.50472848  1.0
  O  O17  1  0.26674831  0.75000000  0.99527152  1.0
  O  O18  1  0.23325169  0.25000000  0.49527152  1.0
  O  O19  1  0.73325169  0.25000000  0.00472848  1.0
  O  O20  1  0.75854686  0.75000000  0.25168076  1.0
  O  O21  1  0.25854686  0.75000000  0.24831924  1.0
  O  O22  1  0.24145314  0.25000000  0.74831924  1.0
  O  O23  1  0.74145314  0.25000000  0.75168076  1.0
  O  O24  1  0.48772057  0.75000000  0.61916983  1.0
  O  O25  1  0.98772057  0.75000000  0.88083017  1.0
  O  O26  1  0.51227943  0.25000000  0.38083017  1.0
  O  O27  1  0.01227943  0.25000000  0.11916983  1.0
