# generated using pymatgen
data_H6Pt(NO)4
_symmetry_space_group_name_H-M   'P 1'
_cell_length_a   6.98968404
_cell_length_b   13.10135393
_cell_length_c   7.23575383
_cell_angle_alpha   90.00000000
_cell_angle_beta   107.06305020
_cell_angle_gamma   90.00000000
_symmetry_Int_Tables_number   1
_chemical_formula_structural   H6Pt(NO)4
_chemical_formula_sum   'H24 Pt4 N16 O16'
_cell_volume   633.44282605
_cell_formula_units_Z   4
loop_
 _symmetry_equiv_pos_site_id
 _symmetry_equiv_pos_as_xyz
  1  'x, y, z'
loop_
 _atom_site_type_symbol
 _atom_site_label
 _atom_site_symmetry_multiplicity
 _atom_site_fract_x
 _atom_site_fract_y
 _atom_site_fract_z
 _atom_site_occupancy
  H  H0  1  0.35274723  0.62520298  1.01954229  1.0
  H  H1  1  0.64725277  0.12520298  0.48045771  1.0
  H  H2  1  0.64725277  0.37479702  -0.01954229  1.0
  H  H3  1  0.35274723  0.87479702  0.51954229  1.0
  H  H4  1  0.35909751  0.63808459  0.25137738  1.0
  H  H5  1  0.64090249  0.13808459  0.24862262  1.0
  H  H6  1  0.64090249  0.36191541  0.74862262  1.0
  H  H7  1  0.35909751  0.86191541  0.75137738  1.0
  H  H8  1  0.23832886  0.72210193  0.08940977  1.0
  H  H9  1  0.76167114  0.22210193  0.41059023  1.0
  H  H10  1  0.76167114  0.27789807  0.91059023  1.0
  H  H11  1  0.23832886  0.77789807  0.58940977  1.0
  H  H12  1  0.90923301  0.62715247  0.33813604  1.0
  H  H13  1  0.09076699  0.12715247  0.16186396  1.0
  H  H14  1  0.09076699  0.37284753  0.66186396  1.0
  H  H15  1  0.90923301  0.87284753  0.83813604  1.0
  H  H16  1  0.70342708  0.56189130  0.23118081  1.0
  H  H17  1  0.29657292  0.06189130  0.26881919  1.0
  H  H18  1  0.29657292  0.43810870  0.76881919  1.0
  H  H19  1  0.70342708  0.93810870  0.73118081  1.0
  H  H20  1  0.83599065  0.61251321  0.09730016  1.0
  H  H21  1  0.16400935  0.11251321  0.40269984  1.0
  H  H22  1  0.16400935  0.38748679  0.90269984  1.0
  H  H23  1  0.83599065  0.88748679  0.59730016  1.0
  Pt  Pt24  1  0.62745171  0.76102516  0.18628335  1.0
  Pt  Pt25  1  0.37254829  0.26102516  0.31371665  1.0
  Pt  Pt26  1  0.37254829  0.23897484  0.81371665  1.0
  Pt  Pt27  1  0.62745171  0.73897484  0.68628335  1.0
  N  N28  1  0.88831117  0.83668068  0.24489493  1.0
  N  N29  1  0.11168883  0.33668068  0.25510507  1.0
  N  N30  1  0.11168883  0.16331932  0.75510507  1.0
  N  N31  1  0.88831117  0.66331932  0.74489493  1.0
  N  N32  1  0.46497662  0.88968181  0.15660872  1.0
  N  N33  1  0.53502338  0.38968181  0.34339128  1.0
  N  N34  1  0.53502338  0.11031819  0.84339128  1.0
  N  N35  1  0.46497662  0.61031819  0.65660872  1.0
  N  N36  1  0.36348443  0.67698092  0.12839298  1.0
  N  N37  1  0.63651557  0.17698092  0.37160702  1.0
  N  N38  1  0.63651557  0.32301908  0.87160702  1.0
  N  N39  1  0.36348443  0.82301908  0.62839298  1.0
  N  N40  1  0.78763436  0.62477961  0.21744178  1.0
  N  N41  1  0.21236564  0.12477961  0.28255822  1.0
  N  N42  1  0.21236564  0.37522039  0.78255822  1.0
  N  N43  1  0.78763436  0.87522039  0.71744178  1.0
  O  O44  1  0.93403357  0.90347348  0.37247507  1.0
  O  O45  1  0.06596643  0.40347348  0.12752493  1.0
  O  O46  1  0.06596643  0.09652652  0.62752493  1.0
  O  O47  1  0.93403357  0.59652652  0.87247507  1.0
  O  O48  1  0.00939330  0.81342569  0.15383483  1.0
  O  O49  1  0.99060670  0.31342569  0.34616517  1.0
  O  O50  1  0.99060670  0.18657431  0.84616517  1.0
  O  O51  1  0.00939330  0.68657431  0.65383483  1.0
  O  O52  1  0.48030167  0.94603640  0.29972655  1.0
  O  O53  1  0.51969833  0.44603640  0.20027345  1.0
  O  O54  1  0.51969833  0.05396360  0.70027345  1.0
  O  O55  1  0.48030167  0.55396360  0.79972655  1.0
  O  O56  1  0.34224423  0.91175332  0.99811369  1.0
  O  O57  1  0.65775577  0.41175332  0.50188631  1.0
  O  O58  1  0.65775577  0.08824668  0.00188631  1.0
  O  O59  1  0.34224423  0.58824668  0.49811369  1.0
