# generated using pymatgen
data_HIO3
_symmetry_space_group_name_H-M   'P 1'
_cell_length_a   5.66951963
_cell_length_b   5.82781547
_cell_length_c   8.20098968
_cell_angle_alpha   90.00000000
_cell_angle_beta   90.00000000
_cell_angle_gamma   90.00000000
_symmetry_Int_Tables_number   1
_chemical_formula_structural   HIO3
_chemical_formula_sum   'H4 I4 O12'
_cell_volume   270.96819643
_cell_formula_units_Z   4
loop_
 _symmetry_equiv_pos_site_id
 _symmetry_equiv_pos_as_xyz
  1  'x, y, z'
loop_
 _atom_site_type_symbol
 _atom_site_label
 _atom_site_symmetry_multiplicity
 _atom_site_fract_x
 _atom_site_fract_y
 _atom_site_fract_z
 _atom_site_occupancy
  H  H0  1  0.22941646  0.80227371  0.13722394  1.0
  H  H1  1  0.72941646  0.69772629  0.86277606  1.0
  H  H2  1  0.77058354  0.30227371  0.36277606  1.0
  H  H3  1  0.27058354  0.19772629  0.63722394  1.0
  I  I4  1  0.30292802  0.61927173  0.65422177  1.0
  I  I5  1  0.80292802  0.88072827  0.34577823  1.0
  I  I6  1  0.69707198  0.11927173  0.84577823  1.0
  I  I7  1  0.19707198  0.38072827  0.15422177  1.0
  O  O8  1  0.43079467  0.99159514  0.73455759  1.0
  O  O9  1  0.93079467  0.50840486  0.26544241  1.0
  O  O10  1  0.56920533  0.49159514  0.76544241  1.0
  O  O11  1  0.06920533  0.00840486  0.23455759  1.0
  O  O12  1  0.33447976  0.67994940  0.08930362  1.0
  O  O13  1  0.83447976  0.82005060  0.91069638  1.0
  O  O14  1  0.66552024  0.17994940  0.41069638  1.0
  O  O15  1  0.16552024  0.32005060  0.58930362  1.0
  O  O16  1  0.93215749  0.82279695  0.55113350  1.0
  O  O17  1  0.43215749  0.67720305  0.44886650  1.0
  O  O18  1  0.06784251  0.32279695  0.94886650  1.0
  O  O19  1  0.56784251  0.17720305  0.05113350  1.0
