# generated using pymatgen
data_CsBO6
_symmetry_space_group_name_H-M   'P 1'
_cell_length_a   5.62778711
_cell_length_b   5.62778711
_cell_length_c   5.62778711
_cell_angle_alpha   120.79325706
_cell_angle_beta   120.79325706
_cell_angle_gamma   88.63144345
_symmetry_Int_Tables_number   1
_chemical_formula_structural   CsBO6
_chemical_formula_sum   'Cs1 B1 O6'
_cell_volume   124.48725709
_cell_formula_units_Z   1
loop_
 _symmetry_equiv_pos_site_id
 _symmetry_equiv_pos_as_xyz
  1  'x, y, z'
loop_
 _atom_site_type_symbol
 _atom_site_label
 _atom_site_symmetry_multiplicity
 _atom_site_fract_x
 _atom_site_fract_y
 _atom_site_fract_z
 _atom_site_occupancy
  Cs  Cs0  1  0.00000000  0.00000000  0.00000000  1.0
  B  B1  1  0.50000000  0.50000000  0.00000000  1.0
  O  O2  1  1.25000000  0.75000000  0.50000000  1.0
  O  O3  1  0.75000000  1.25000000  0.50000000  1.0
  O  O4  1  0.52306391  1.24245459  1.00000000  1.0
  O  O5  1  1.24245459  0.52306391  1.00000000  1.0
  O  O6  1  0.47693609  0.47693609  0.71939067  1.0
  O  O7  1  0.75754541  0.75754541  0.28060933  1.0
