# generated using pymatgen
data_Li2ZnGeS4
_symmetry_space_group_name_H-M   'P 1'
_cell_length_a   7.51650490
_cell_length_b   6.88840784
_cell_length_c   6.30707129
_cell_angle_alpha   90.00000000
_cell_angle_beta   90.00000000
_cell_angle_gamma   90.00000000
_symmetry_Int_Tables_number   1
_chemical_formula_structural   Li2ZnGeS4
_chemical_formula_sum   'Li4 Zn2 Ge2 S8'
_cell_volume   326.55966126
_cell_formula_units_Z   2
loop_
 _symmetry_equiv_pos_site_id
 _symmetry_equiv_pos_as_xyz
  1  'x, y, z'
loop_
 _atom_site_type_symbol
 _atom_site_label
 _atom_site_symmetry_multiplicity
 _atom_site_fract_x
 _atom_site_fract_y
 _atom_site_fract_z
 _atom_site_occupancy
  Li  Li0  1  0.24703861  0.16898746  0.00649248  1.0
  Li  Li1  1  0.74703861  0.83101254  0.50649248  1.0
  Li  Li2  1  0.75296139  0.16898746  0.00649248  1.0
  Li  Li3  1  0.25296139  0.83101254  0.50649248  1.0
  Zn  Zn4  1  0.50000000  0.64762440  0.00369964  1.0
  Zn  Zn5  1  -0.00000000  0.35237560  0.50369964  1.0
  Ge  Ge6  1  0.50000000  0.33763013  0.50650727  1.0
  Ge  Ge7  1  0.00000000  0.66236987  0.00650727  1.0
  S  S8  1  0.50000000  0.64056530  0.37939772  1.0
  S  S9  1  0.00000000  0.35943470  0.87939772  1.0
  S  S10  1  0.25753014  0.17430363  0.39364008  1.0
  S  S11  1  0.75753014  0.82569637  0.89364008  1.0
  S  S12  1  0.74246986  0.17430363  0.39364008  1.0
  S  S13  1  0.24246986  0.82569637  0.89364008  1.0
  S  S14  1  0.50000000  0.33404660  0.86263025  1.0
  S  S15  1  0.00000000  0.66595340  0.36263025  1.0
