# generated using pymatgen
data_CsGa9Au5
_symmetry_space_group_name_H-M   'P 1'
_cell_length_a   7.77816816
_cell_length_b   7.77816816
_cell_length_c   12.45777748
_cell_angle_alpha   90.00000000
_cell_angle_beta   90.00000000
_cell_angle_gamma   120.00000000
_symmetry_Int_Tables_number   1
_chemical_formula_structural   CsGa9Au5
_chemical_formula_sum   'Cs2 Ga18 Au10'
_cell_volume   652.71840313
_cell_formula_units_Z   2
loop_
 _symmetry_equiv_pos_site_id
 _symmetry_equiv_pos_as_xyz
  1  'x, y, z'
loop_
 _atom_site_type_symbol
 _atom_site_label
 _atom_site_symmetry_multiplicity
 _atom_site_fract_x
 _atom_site_fract_y
 _atom_site_fract_z
 _atom_site_occupancy
  Cs  Cs0  1  0.00000000  0.00000000  0.50000000  1.0
  Cs  Cs1  1  0.00000000  0.00000000  0.00000000  1.0
  Ga  Ga2  1  0.53895109  0.46104891  0.40357910  1.0
  Ga  Ga3  1  0.53895109  0.46104891  0.09642090  1.0
  Ga  Ga4  1  0.53895109  0.07790217  0.40357910  1.0
  Ga  Ga5  1  0.53895109  0.07790217  0.09642090  1.0
  Ga  Ga6  1  0.46104891  0.53895109  0.90357910  1.0
  Ga  Ga7  1  0.46104891  0.53895109  0.59642090  1.0
  Ga  Ga8  1  0.46104891  0.92209783  0.90357910  1.0
  Ga  Ga9  1  0.46104891  0.92209783  0.59642090  1.0
  Ga  Ga10  1  0.92209783  0.46104891  0.40357910  1.0
  Ga  Ga11  1  0.92209783  0.46104891  0.09642090  1.0
  Ga  Ga12  1  0.07790217  0.53895109  0.90357910  1.0
  Ga  Ga13  1  0.07790217  0.53895109  0.59642090  1.0
  Ga  Ga14  1  0.19474071  0.80525929  0.25000000  1.0
  Ga  Ga15  1  0.19474071  0.38948142  0.25000000  1.0
  Ga  Ga16  1  0.80525929  0.19474071  0.75000000  1.0
  Ga  Ga17  1  0.80525929  0.61051858  0.75000000  1.0
  Ga  Ga18  1  0.61051858  0.80525929  0.25000000  1.0
  Ga  Ga19  1  0.38948142  0.19474071  0.75000000  1.0
  Au  Au20  1  0.80978662  0.19021338  0.25000000  1.0
  Au  Au21  1  0.80978662  0.61957324  0.25000000  1.0
  Au  Au22  1  0.19021338  0.80978662  0.75000000  1.0
  Au  Au23  1  0.19021338  0.38042676  0.75000000  1.0
  Au  Au24  1  0.38042676  0.19021338  0.25000000  1.0
  Au  Au25  1  0.61957324  0.80978662  0.75000000  1.0
  Au  Au26  1  0.33333333  0.66666667  0.41442935  1.0
  Au  Au27  1  0.33333333  0.66666667  0.08557065  1.0
  Au  Au28  1  0.66666667  0.33333333  0.91442935  1.0
  Au  Au29  1  0.66666667  0.33333333  0.58557065  1.0
