# generated using pymatgen
data_BeF2
_symmetry_space_group_name_H-M   'P 1'
_cell_length_a   4.86019293
_cell_length_b   4.86019293
_cell_length_c   5.31584293
_cell_angle_alpha   90.00000000
_cell_angle_beta   90.00000000
_cell_angle_gamma   120.00000000
_symmetry_Int_Tables_number   1
_chemical_formula_structural   BeF2
_chemical_formula_sum   'Be3 F6'
_cell_volume   108.74512333
_cell_formula_units_Z   3
loop_
 _symmetry_equiv_pos_site_id
 _symmetry_equiv_pos_as_xyz
  1  'x, y, z'
loop_
 _atom_site_type_symbol
 _atom_site_label
 _atom_site_symmetry_multiplicity
 _atom_site_fract_x
 _atom_site_fract_y
 _atom_site_fract_z
 _atom_site_occupancy
  Be  Be0  1  0.47750213  0.47750213  -0.00000000  1.0
  Be  Be1  1  0.00000000  0.52249787  0.66666667  1.0
  Be  Be2  1  0.52249787  -0.00000000  0.33333333  1.0
  F  F3  1  0.74595727  0.58154574  0.79771232  1.0
  F  F4  1  0.58154574  0.74595727  0.20228768  1.0
  F  F5  1  0.83558847  0.25404273  0.46437899  1.0
  F  F6  1  0.41845426  0.16441153  0.13104566  1.0
  F  F7  1  0.25404273  0.83558847  0.53562101  1.0
  F  F8  1  0.16441153  0.41845426  0.86895434  1.0
