# generated using pymatgen
data_Li4CO4
_symmetry_space_group_name_H-M   'P 1'
_cell_length_a   5.99696220
_cell_length_b   5.99696220
_cell_length_c   4.85340950
_cell_angle_alpha   90.00000000
_cell_angle_beta   90.00000000
_cell_angle_gamma   95.69600378
_symmetry_Int_Tables_number   1
_chemical_formula_structural   Li4CO4
_chemical_formula_sum   'Li8 C2 O8'
_cell_volume   173.68404131
_cell_formula_units_Z   2
loop_
 _symmetry_equiv_pos_site_id
 _symmetry_equiv_pos_as_xyz
  1  'x, y, z'
loop_
 _atom_site_type_symbol
 _atom_site_label
 _atom_site_symmetry_multiplicity
 _atom_site_fract_x
 _atom_site_fract_y
 _atom_site_fract_z
 _atom_site_occupancy
  Li  Li0  1  -0.06140322  1.39930140  0.42124866  1.0
  Li  Li1  1  -0.39930140  1.06140322  0.42124866  1.0
  Li  Li2  1  0.06140322  0.60069860  0.92124866  1.0
  Li  Li3  1  0.39930140  0.93859678  0.92124866  1.0
  Li  Li4  1  0.51478292  0.48521708  0.07417157  1.0
  Li  Li5  1  -0.51478292  1.51478292  0.57417157  1.0
  Li  Li6  1  -0.05024678  1.05024678  1.04844072  1.0
  Li  Li7  1  0.05024678  0.94975322  0.54844072  1.0
  C  C8  1  0.27919935  0.72080065  0.33008698  1.0
  C  C9  1  -0.27919935  1.27919935  0.83008698  1.0
  O  O10  1  0.50256071  0.77914814  0.25137000  1.0
  O  O11  1  0.22085186  0.49743929  0.25137000  1.0
  O  O12  1  -0.50256071  1.22085186  0.75137000  1.0
  O  O13  1  -0.22085186  1.50256071  0.75137000  1.0
  O  O14  1  0.13617216  0.86382784  0.19416621  1.0
  O  O15  1  -0.13617216  1.13617216  0.69416621  1.0
  O  O16  1  0.25790539  0.74209461  0.62247719  1.0
  O  O17  1  -0.25790539  1.25790539  0.12247719  1.0
