# generated using pymatgen
data_Mg3(Al9W)2
_symmetry_space_group_name_H-M   'P 1'
_cell_length_a   10.38359325
_cell_length_b   10.38359325
_cell_length_c   10.38359325
_cell_angle_alpha   60.00000000
_cell_angle_beta   60.00000000
_cell_angle_gamma   60.00000000
_symmetry_Int_Tables_number   1
_chemical_formula_structural   Mg3(Al9W)2
_chemical_formula_sum   'Mg6 Al36 W4'
_cell_volume   791.64050079
_cell_formula_units_Z   2
loop_
 _symmetry_equiv_pos_site_id
 _symmetry_equiv_pos_as_xyz
  1  'x, y, z'
loop_
 _atom_site_type_symbol
 _atom_site_label
 _atom_site_symmetry_multiplicity
 _atom_site_fract_x
 _atom_site_fract_y
 _atom_site_fract_z
 _atom_site_occupancy
  Mg  Mg0  1  1.12500000  0.62500000  0.62500000  1.0
  Mg  Mg1  1  0.62500000  1.12500000  -0.37500000  1.0
  Mg  Mg2  1  -0.37500000  0.62500000  1.12500000  1.0
  Mg  Mg3  1  -0.37500000  0.62500000  0.62500000  1.0
  Mg  Mg4  1  0.50000000  -0.50000000  0.50000000  1.0
  Mg  Mg5  1  0.75000000  0.75000000  0.75000000  1.0
  Al  Al6  1  0.85737319  0.85737319  -0.85737319  1.0
  Al  Al7  1  0.14262681  1.14262681  -0.14262681  1.0
  Al  Al8  1  0.85737319  -0.85737319  0.85737319  1.0
  Al  Al9  1  0.14262681  -0.14262681  0.14262681  1.0
  Al  Al10  1  -0.85737319  0.85737319  0.85737319  1.0
  Al  Al11  1  -0.14262681  0.14262681  0.14262681  1.0
  Al  Al12  1  0.39262681  1.39262681  0.10737319  1.0
  Al  Al13  1  0.10737319  0.10737319  0.39262681  1.0
  Al  Al14  1  0.39262681  1.10737319  0.39262681  1.0
  Al  Al15  1  0.10737319  1.39262681  0.10737319  1.0
  Al  Al16  1  0.10737319  1.39262681  0.39262681  1.0
  Al  Al17  1  0.39262681  1.10737319  0.10737319  1.0
  Al  Al18  1  0.56591855  1.30215029  0.30215029  1.0
  Al  Al19  1  0.30215029  1.56591855  -0.17021913  1.0
  Al  Al20  1  0.30215029  -0.17021913  0.56591855  1.0
  Al  Al21  1  -0.17021913  0.30215029  0.30215029  1.0
  Al  Al22  1  0.30215029  1.30215029  0.56591855  1.0
  Al  Al23  1  0.56591855  0.82978087  0.30215029  1.0
  Al  Al24  1  -0.17021913  1.56591855  0.30215029  1.0
  Al  Al25  1  0.30215029  1.30215029  -0.17021913  1.0
  Al  Al26  1  0.30215029  1.56591855  0.30215029  1.0
  Al  Al27  1  -0.17021913  0.30215029  0.56591855  1.0
  Al  Al28  1  0.56591855  1.30215029  -0.17021913  1.0
  Al  Al29  1  0.30215029  -0.17021913  0.30215029  1.0
  Al  Al30  1  0.68408145  0.94784971  0.94784971  1.0
  Al  Al31  1  0.94784971  0.68408145  -0.57978087  1.0
  Al  Al32  1  0.94784971  0.42021913  0.68408145  1.0
  Al  Al33  1  0.42021913  0.94784971  -0.05215029  1.0
  Al  Al34  1  0.94784971  0.94784971  0.68408145  1.0
  Al  Al35  1  0.68408145  -0.57978087  0.94784971  1.0
  Al  Al36  1  -0.57978087  0.68408145  0.94784971  1.0
  Al  Al37  1  0.94784971  0.94784971  -0.57978087  1.0
  Al  Al38  1  0.94784971  0.68408145  0.94784971  1.0
  Al  Al39  1  0.42021913  0.94784971  -0.31591855  1.0
  Al  Al40  1  0.68408145  0.94784971  -0.57978087  1.0
  Al  Al41  1  0.94784971  0.42021913  0.94784971  1.0
  W  W42  1  0.62500000  1.12500000  0.12500000  1.0
  W  W43  1  0.12500000  1.62500000  0.12500000  1.0
  W  W44  1  0.12500000  0.12500000  1.62500000  1.0
  W  W45  1  0.12500000  0.12500000  0.12500000  1.0
