# generated using pymatgen
data_NbCuN2
_symmetry_space_group_name_H-M   'P 1'
_cell_length_a   6.11006904
_cell_length_b   6.11006904
_cell_length_c   6.11006904
_cell_angle_alpha   29.90260849
_cell_angle_beta   29.90260849
_cell_angle_gamma   29.90260849
_symmetry_Int_Tables_number   1
_chemical_formula_structural   NbCuN2
_chemical_formula_sum   'Nb1 Cu1 N2'
_cell_volume   50.20885396
_cell_formula_units_Z   1
loop_
 _symmetry_equiv_pos_site_id
 _symmetry_equiv_pos_as_xyz
  1  'x, y, z'
loop_
 _atom_site_type_symbol
 _atom_site_label
 _atom_site_symmetry_multiplicity
 _atom_site_fract_x
 _atom_site_fract_y
 _atom_site_fract_z
 _atom_site_occupancy
  Nb  Nb0  1  1.50000000  0.50000000  0.50000000  1.0
  Cu  Cu1  1  0.00000000  0.00000000  0.00000000  1.0
  N  N2  1  0.89435029  0.89435029  0.89435029  1.0
  N  N3  1  1.10564971  1.10564971  0.10564971  1.0
