# generated using pymatgen
data_TlCdBr3
_symmetry_space_group_name_H-M   'P 1'
_cell_length_a   9.72095525
_cell_length_b   4.21692914
_cell_length_c   15.66946267
_cell_angle_alpha   90.00000000
_cell_angle_beta   90.00000000
_cell_angle_gamma   90.00000000
_symmetry_Int_Tables_number   1
_chemical_formula_structural   TlCdBr3
_chemical_formula_sum   'Tl4 Cd4 Br12'
_cell_volume   642.33169282
_cell_formula_units_Z   4
loop_
 _symmetry_equiv_pos_site_id
 _symmetry_equiv_pos_as_xyz
  1  'x, y, z'
loop_
 _atom_site_type_symbol
 _atom_site_label
 _atom_site_symmetry_multiplicity
 _atom_site_fract_x
 _atom_site_fract_y
 _atom_site_fract_z
 _atom_site_occupancy
  Tl  Tl0  1  0.54387157  0.75000000  0.67742343  1.0
  Tl  Tl1  1  0.04387157  0.75000000  0.82257657  1.0
  Tl  Tl2  1  0.45612843  0.25000000  0.32257657  1.0
  Tl  Tl3  1  0.95612843  0.25000000  0.17742343  1.0
  Cd  Cd4  1  0.83219538  0.75000000  0.44712882  1.0
  Cd  Cd5  1  0.33219538  0.75000000  0.05287118  1.0
  Cd  Cd6  1  0.16780462  0.25000000  0.55287118  1.0
  Cd  Cd7  1  0.66780462  0.25000000  0.94712882  1.0
  Br  Br8  1  0.98081936  0.75000000  0.60233407  1.0
  Br  Br9  1  0.48081936  0.75000000  0.89766593  1.0
  Br  Br10  1  0.01918064  0.25000000  0.39766593  1.0
  Br  Br11  1  0.51918064  0.25000000  0.10233407  1.0
  Br  Br12  1  0.83346082  0.75000000  0.00821271  1.0
  Br  Br13  1  0.33346082  0.75000000  0.49178729  1.0
  Br  Br14  1  0.16653918  0.25000000  0.99178729  1.0
  Br  Br15  1  0.66653918  0.25000000  0.50821271  1.0
  Br  Br16  1  0.71811788  0.75000000  0.28910713  1.0
  Br  Br17  1  0.21811788  0.75000000  0.21089287  1.0
  Br  Br18  1  0.28188212  0.25000000  0.71089287  1.0
  Br  Br19  1  0.78188212  0.25000000  0.78910713  1.0
