# generated using pymatgen
data_Rb3Ge2Br7
_symmetry_space_group_name_H-M   'P 1'
_cell_length_a   10.43311645
_cell_length_b   13.06609815
_cell_length_c   13.47920084
_cell_angle_alpha   90.00000000
_cell_angle_beta   101.76845047
_cell_angle_gamma   90.00000000
_symmetry_Int_Tables_number   1
_chemical_formula_structural   Rb3Ge2Br7
_chemical_formula_sum   'Rb12 Ge8 Br28'
_cell_volume   1798.86207577
_cell_formula_units_Z   4
loop_
 _symmetry_equiv_pos_site_id
 _symmetry_equiv_pos_as_xyz
  1  'x, y, z'
loop_
 _atom_site_type_symbol
 _atom_site_label
 _atom_site_symmetry_multiplicity
 _atom_site_fract_x
 _atom_site_fract_y
 _atom_site_fract_z
 _atom_site_occupancy
  Rb  Rb0  1  0.94658445  0.82406137  0.53490557  1.0
  Rb  Rb1  1  0.94658445  0.67593863  0.03490557  1.0
  Rb  Rb2  1  0.05341555  0.32406137  0.96509443  1.0
  Rb  Rb3  1  0.05341555  0.17593863  0.46509443  1.0
  Rb  Rb4  1  0.60828978  0.68981036  0.69574445  1.0
  Rb  Rb5  1  0.60828978  0.81018964  0.19574445  1.0
  Rb  Rb6  1  0.39171022  0.18981036  0.80425555  1.0
  Rb  Rb7  1  0.39171022  0.31018964  0.30425555  1.0
  Rb  Rb8  1  0.26611859  0.81866883  0.85808490  1.0
  Rb  Rb9  1  0.26611859  0.68133117  0.35808490  1.0
  Rb  Rb10  1  0.73388141  0.31866883  0.64191510  1.0
  Rb  Rb11  1  0.73388141  0.18133117  0.14191510  1.0
  Ge  Ge12  1  0.80717046  0.98803202  0.85594761  1.0
  Ge  Ge13  1  0.80717046  0.51196798  0.35594761  1.0
  Ge  Ge14  1  0.19282954  0.48803202  0.64405239  1.0
  Ge  Ge15  1  0.19282954  0.01196798  0.14405239  1.0
  Ge  Ge16  1  0.64587609  0.44692437  0.93394220  1.0
  Ge  Ge17  1  0.64587609  0.05307563  0.43394220  1.0
  Ge  Ge18  1  0.35412391  0.94692437  0.56605780  1.0
  Ge  Ge19  1  0.35412391  0.55307563  0.06605780  1.0
  Br  Br20  1  0.90400708  0.81540333  0.80161903  1.0
  Br  Br21  1  0.90400708  0.68459667  0.30161903  1.0
  Br  Br22  1  0.09599292  0.31540333  0.69838097  1.0
  Br  Br23  1  0.09599292  0.18459667  0.19838097  1.0
  Br  Br24  1  0.83032332  0.56116946  0.54268905  1.0
  Br  Br25  1  0.83032332  0.93883054  0.04268905  1.0
  Br  Br26  1  0.16967668  0.06116946  0.95731095  1.0
  Br  Br27  1  0.16967668  0.43883054  0.45731095  1.0
  Br  Br28  1  0.81852380  0.50493363  0.83101982  1.0
  Br  Br29  1  0.81852380  0.99506637  0.33101982  1.0
  Br  Br30  1  0.18147620  0.00493363  0.66898018  1.0
  Br  Br31  1  0.18147620  0.49506637  0.16898018  1.0
  Br  Br32  1  0.72373710  0.22517367  0.88762131  1.0
  Br  Br33  1  0.72373710  0.27482633  0.38762131  1.0
  Br  Br34  1  0.27626290  0.72517367  0.61237869  1.0
  Br  Br35  1  0.27626290  0.77482633  0.11237869  1.0
  Br  Br36  1  0.58282204  0.64609097  0.96130195  1.0
  Br  Br37  1  0.58282204  0.85390903  0.46130195  1.0
  Br  Br38  1  0.41717796  0.14609097  0.53869805  1.0
  Br  Br39  1  0.41717796  0.35390903  0.03869805  1.0
  Br  Br40  1  0.56449710  0.93892497  0.80364317  1.0
  Br  Br41  1  0.56449710  0.56107503  0.30364317  1.0
  Br  Br42  1  0.43550290  0.43892497  0.69635683  1.0
  Br  Br43  1  0.43550290  0.06107503  0.19635683  1.0
  Br  Br44  1  0.19109570  0.56261177  0.89732354  1.0
  Br  Br45  1  0.19109570  0.93738823  0.39732354  1.0
  Br  Br46  1  0.80890430  0.06261177  0.60267646  1.0
  Br  Br47  1  0.80890430  0.43738823  0.10267646  1.0
