# generated using pymatgen
data_Rb2LaBr5
_symmetry_space_group_name_H-M   'P 1'
_cell_length_a   14.14234273
_cell_length_b   9.52418604
_cell_length_c   8.86682756
_cell_angle_alpha   90.00000000
_cell_angle_beta   90.00000000
_cell_angle_gamma   90.00000000
_symmetry_Int_Tables_number   1
_chemical_formula_structural   Rb2LaBr5
_chemical_formula_sum   'Rb8 La4 Br20'
_cell_volume   1194.31116014
_cell_formula_units_Z   4
loop_
 _symmetry_equiv_pos_site_id
 _symmetry_equiv_pos_as_xyz
  1  'x, y, z'
loop_
 _atom_site_type_symbol
 _atom_site_label
 _atom_site_symmetry_multiplicity
 _atom_site_fract_x
 _atom_site_fract_y
 _atom_site_fract_z
 _atom_site_occupancy
  Rb  Rb0  1  0.67177503  0.99530955  0.44359094  1.0
  Rb  Rb1  1  0.67177503  0.50469045  0.44359094  1.0
  Rb  Rb2  1  0.17177503  0.99530955  0.05640906  1.0
  Rb  Rb3  1  0.17177503  0.50469045  0.05640906  1.0
  Rb  Rb4  1  0.32822497  0.49530955  0.55640906  1.0
  Rb  Rb5  1  0.32822497  0.00469045  0.55640906  1.0
  Rb  Rb6  1  0.82822497  0.49530955  0.94359094  1.0
  Rb  Rb7  1  0.82822497  0.00469045  0.94359094  1.0
  La  La8  1  0.99530890  0.25000000  0.42712142  1.0
  La  La9  1  0.49530890  0.25000000  0.07287858  1.0
  La  La10  1  0.00469110  0.75000000  0.57287858  1.0
  La  La11  1  0.50469110  0.75000000  0.92712142  1.0
  Br  Br12  1  0.70025394  0.25000000  0.15685276  1.0
  Br  Br13  1  0.20025394  0.25000000  0.34314724  1.0
  Br  Br14  1  0.29974606  0.75000000  0.84314724  1.0
  Br  Br15  1  0.79974606  0.75000000  0.65685276  1.0
  Br  Br16  1  0.82217840  0.25000000  0.62001499  1.0
  Br  Br17  1  0.32217840  0.25000000  0.87998501  1.0
  Br  Br18  1  0.17782160  0.75000000  0.37998501  1.0
  Br  Br19  1  0.67782160  0.75000000  0.12001499  1.0
  Br  Br20  1  0.99011619  0.25000000  0.08646197  1.0
  Br  Br21  1  0.49011619  0.25000000  0.41353803  1.0
  Br  Br22  1  0.00988381  0.75000000  0.91353803  1.0
  Br  Br23  1  0.50988381  0.75000000  0.58646197  1.0
  Br  Br24  1  0.92612691  0.95661607  0.33641689  1.0
  Br  Br25  1  0.92612691  0.54338393  0.33641689  1.0
  Br  Br26  1  0.42612691  0.95661607  0.16358311  1.0
  Br  Br27  1  0.42612691  0.54338393  0.16358311  1.0
  Br  Br28  1  0.07387309  0.45661607  0.66358311  1.0
  Br  Br29  1  0.07387309  0.04338393  0.66358311  1.0
  Br  Br30  1  0.57387309  0.45661607  0.83641689  1.0
  Br  Br31  1  0.57387309  0.04338393  0.83641689  1.0
