# generated using pymatgen
data_Rb2NiP2
_symmetry_space_group_name_H-M   'P 1'
_cell_length_a   7.89204485
_cell_length_b   7.89204485
_cell_length_c   5.77975836
_cell_angle_alpha   90.00000000
_cell_angle_beta   90.00000000
_cell_angle_gamma   129.60364761
_symmetry_Int_Tables_number   1
_chemical_formula_structural   Rb2NiP2
_chemical_formula_sum   'Rb4 Ni2 P4'
_cell_volume   277.36138924
_cell_formula_units_Z   2
loop_
 _symmetry_equiv_pos_site_id
 _symmetry_equiv_pos_as_xyz
  1  'x, y, z'
loop_
 _atom_site_type_symbol
 _atom_site_label
 _atom_site_symmetry_multiplicity
 _atom_site_fract_x
 _atom_site_fract_y
 _atom_site_fract_z
 _atom_site_occupancy
  Rb  Rb0  1  0.21339639  0.78660361  0.75000000  1.0
  Rb  Rb1  1  -0.21339639  0.21339639  0.25000000  1.0
  Rb  Rb2  1  -0.41541599  0.41541599  0.75000000  1.0
  Rb  Rb3  1  0.41541599  0.58458401  0.25000000  1.0
  Ni  Ni4  1  0.00000000  0.00000000  0.00000000  1.0
  Ni  Ni5  1  0.00000000  0.00000000  0.50000000  1.0
  P  P6  1  0.06838013  0.25763454  0.75000000  1.0
  P  P7  1  0.25763454  1.06838013  0.25000000  1.0
  P  P8  1  0.74236546  0.93161987  0.75000000  1.0
  P  P9  1  -0.06838013  0.74236546  0.25000000  1.0
