# generated using pymatgen
data_Ba4Ru3O10
_symmetry_space_group_name_H-M   'P 1'
_cell_length_a   7.27337948
_cell_length_b   7.27337948
_cell_length_c   13.26030671
_cell_angle_alpha   90.00000000
_cell_angle_beta   90.00000000
_cell_angle_gamma   132.58381952
_symmetry_Int_Tables_number   1
_chemical_formula_structural   Ba4Ru3O10
_chemical_formula_sum   'Ba8 Ru6 O20'
_cell_volume   516.50426168
_cell_formula_units_Z   2
loop_
 _symmetry_equiv_pos_site_id
 _symmetry_equiv_pos_as_xyz
  1  'x, y, z'
loop_
 _atom_site_type_symbol
 _atom_site_label
 _atom_site_symmetry_multiplicity
 _atom_site_fract_x
 _atom_site_fract_y
 _atom_site_fract_z
 _atom_site_occupancy
  O  O0  1  -0.12084154  0.65936932  0.96443772  1.0
  O  O1  1  0.37915846  1.15936932  0.53556228  1.0
  O  O2  1  0.65936932  0.87915846  0.03556228  1.0
  O  O3  1  0.15936932  0.37915846  0.46443772  1.0
  O  O4  1  0.34063068  1.12084154  0.96443772  1.0
  O  O5  1  -0.15936932  0.62084154  0.53556228  1.0
  O  O6  1  0.12084154  0.34063068  0.03556228  1.0
  O  O7  1  0.62084154  0.84063068  0.46443772  1.0
  O  O8  1  0.46487775  0.53512225  0.64984819  1.0
  O  O9  1  -0.03512225  0.03512225  0.85015181  1.0
  O  O10  1  -0.46487775  0.46487775  0.35015181  1.0
  O  O11  1  0.03512225  0.96487775  0.14984819  1.0
  O  O12  1  -0.13080616  0.63080616  0.75000000  1.0
  O  O13  1  0.36919384  1.13080616  0.75000000  1.0
  O  O14  1  0.63080616  0.86919384  0.25000000  1.0
  O  O15  1  0.13080616  0.36919384  0.25000000  1.0
  O  O16  1  0.26896887  0.73103113  0.84976251  1.0
  O  O17  1  -0.23103113  0.23103113  0.65023749  1.0
  O  O18  1  -0.26896887  0.26896887  0.15023749  1.0
  O  O19  1  0.23103113  0.76896887  0.34976251  1.0
  Ba  Ba20  1  0.25945120  0.74054880  0.61293689  1.0
  Ba  Ba21  1  -0.24054880  0.24054880  0.88706311  1.0
  Ba  Ba22  1  -0.25945120  0.25945120  0.38706311  1.0
  Ba  Ba23  1  0.24054880  0.75945120  0.11293689  1.0
  Ba  Ba24  1  0.46528291  0.53471709  0.86056423  1.0
  Ba  Ba25  1  -0.03471709  0.03471709  0.63943577  1.0
  Ba  Ba26  1  -0.46528291  0.46528291  0.13943577  1.0
  Ba  Ba27  1  0.03471709  0.96528291  0.36056423  1.0
  Ru  Ru28  1  0.12388365  0.87611635  0.85095752  1.0
  Ru  Ru29  1  -0.37611635  0.37611635  0.64904248  1.0
  Ru  Ru30  1  -0.12388365  0.12388365  0.14904248  1.0
  Ru  Ru31  1  0.37611635  0.62388365  0.35095752  1.0
  Ru  Ru32  1  0.00000000  0.00000000  0.00000000  1.0
  Ru  Ru33  1  0.50000000  0.50000000  0.50000000  1.0
