# generated using pymatgen
data_Nb6V(InCl9)2
_symmetry_space_group_name_H-M   'P 1'
_cell_length_a   10.02712724
_cell_length_b   10.02712724
_cell_length_c   10.02712724
_cell_angle_alpha   55.20833421
_cell_angle_beta   55.20833421
_cell_angle_gamma   55.20833421
_symmetry_Int_Tables_number   1
_chemical_formula_structural   Nb6V(InCl9)2
_chemical_formula_sum   'Nb6 V1 In2 Cl18'
_cell_volume   633.46845365
_cell_formula_units_Z   1
loop_
 _symmetry_equiv_pos_site_id
 _symmetry_equiv_pos_as_xyz
  1  'x, y, z'
loop_
 _atom_site_type_symbol
 _atom_site_label
 _atom_site_symmetry_multiplicity
 _atom_site_fract_x
 _atom_site_fract_y
 _atom_site_fract_z
 _atom_site_occupancy
  Nb  Nb0  1  0.65436565  0.40609466  -0.70200894  1.0
  Nb  Nb1  1  0.70200894  0.34563435  -0.40609466  1.0
  Nb  Nb2  1  0.59390534  0.70200894  -0.65436565  1.0
  Nb  Nb3  1  0.34563435  0.59390534  -0.29799106  1.0
  Nb  Nb4  1  0.29799106  0.65436565  -0.59390534  1.0
  Nb  Nb5  1  0.40609466  0.29799106  -0.34563435  1.0
  V  V6  1  0.00000000  0.00000000  0.00000000  1.0
  In  In7  1  0.27812717  0.27812717  0.27812717  1.0
  In  In8  1  0.72187283  -0.27812717  -0.27812717  1.0
  Cl  Cl9  1  0.57059198  0.15349732  -0.55721025  1.0
  Cl  Cl10  1  0.55721025  0.42940802  -0.15349732  1.0
  Cl  Cl11  1  0.84650268  0.55721025  -0.57059198  1.0
  Cl  Cl12  1  0.42940802  0.84650268  -0.44278975  1.0
  Cl  Cl13  1  0.44278975  0.57059198  -0.84650268  1.0
  Cl  Cl14  1  0.15349732  0.44278975  -0.42940802  1.0
  Cl  Cl15  1  0.36945607  0.91933087  -0.78564219  1.0
  Cl  Cl16  1  0.78564219  -0.36945607  0.08066913  1.0
  Cl  Cl17  1  1.08066913  -0.21435781  -0.36945607  1.0
  Cl  Cl18  1  0.63054393  0.08066913  -0.21435781  1.0
  Cl  Cl19  1  0.21435781  0.36945607  -0.08066913  1.0
  Cl  Cl20  1  0.91933087  0.21435781  -0.63054393  1.0
  Cl  Cl21  1  0.29170163  0.03435075  -0.15368574  1.0
  Cl  Cl22  1  1.15368574  -0.29170163  -0.03435075  1.0
  Cl  Cl23  1  0.96564925  0.15368574  -0.29170163  1.0
  Cl  Cl24  1  0.70829837  -0.03435075  0.15368574  1.0
  Cl  Cl25  1  0.84631426  -0.70829837  0.03435075  1.0
  Cl  Cl26  1  1.03435075  -0.15368574  -0.70829837  1.0
