# generated using pymatgen
data_Hf6Ga16Ru7
_symmetry_space_group_name_H-M   'P 1'
_cell_length_a   8.73928290
_cell_length_b   8.73928290
_cell_length_c   8.73928290
_cell_angle_alpha   60.00000000
_cell_angle_beta   60.00000000
_cell_angle_gamma   60.00000000
_symmetry_Int_Tables_number   1
_chemical_formula_structural   Hf6Ga16Ru7
_chemical_formula_sum   'Hf6 Ga16 Ru7'
_cell_volume   471.96782872
_cell_formula_units_Z   1
loop_
 _symmetry_equiv_pos_site_id
 _symmetry_equiv_pos_as_xyz
  1  'x, y, z'
loop_
 _atom_site_type_symbol
 _atom_site_label
 _atom_site_symmetry_multiplicity
 _atom_site_fract_x
 _atom_site_fract_y
 _atom_site_fract_z
 _atom_site_occupancy
  Hf  Hf0  1  -0.71463189  0.71463189  0.71463189  1.0
  Hf  Hf1  1  -0.28536811  0.28536811  0.71463189  1.0
  Hf  Hf2  1  0.71463189  0.71463189  -0.71463189  1.0
  Hf  Hf3  1  0.28536811  1.28536811  -0.28536811  1.0
  Hf  Hf4  1  0.28536811  -0.28536811  1.28536811  1.0
  Hf  Hf5  1  -0.28536811  0.28536811  0.28536811  1.0
  Ga  Ga6  1  0.87684641  0.87684641  -0.12315359  1.0
  Ga  Ga7  1  1.12315359  0.12315359  0.63053924  1.0
  Ga  Ga8  1  1.12315359  0.63053924  0.12315359  1.0
  Ga  Ga9  1  0.36946076  0.87684641  -0.12315359  1.0
  Ga  Ga10  1  1.63053924  0.12315359  0.12315359  1.0
  Ga  Ga11  1  0.87684641  0.36946076  -0.12315359  1.0
  Ga  Ga12  1  0.87684641  0.87684641  -0.63053924  1.0
  Ga  Ga13  1  1.12315359  0.12315359  0.12315359  1.0
  Ga  Ga14  1  0.65486229  0.65486229  -0.34513771  1.0
  Ga  Ga15  1  1.34513771  0.34513771  -0.03541313  1.0
  Ga  Ga16  1  1.34513771  -0.03541313  0.34513771  1.0
  Ga  Ga17  1  1.03541313  0.65486229  -0.34513771  1.0
  Ga  Ga18  1  0.96458687  0.34513771  0.34513771  1.0
  Ga  Ga19  1  0.65486229  1.03541313  -0.34513771  1.0
  Ga  Ga20  1  0.65486229  0.65486229  0.03541313  1.0
  Ga  Ga21  1  1.34513771  0.34513771  0.34513771  1.0
  Ru  Ru22  1  1.50000000  0.00000000  0.00000000  1.0
  Ru  Ru23  1  1.00000000  0.50000000  -0.50000000  1.0
  Ru  Ru24  1  0.00000000  1.50000000  0.00000000  1.0
  Ru  Ru25  1  0.50000000  1.00000000  -0.50000000  1.0
  Ru  Ru26  1  0.00000000  0.00000000  0.50000000  1.0
  Ru  Ru27  1  0.50000000  -0.50000000  1.00000000  1.0
  Ru  Ru28  1  0.00000000  0.00000000  0.00000000  1.0
