# generated using pymatgen
data_NiP3W2
_symmetry_space_group_name_H-M   'P 1'
_cell_length_a   6.53571520
_cell_length_b   6.53571520
_cell_length_c   8.53078545
_cell_angle_alpha   75.45563999
_cell_angle_beta   104.54436001
_cell_angle_gamma   151.16306217
_symmetry_Int_Tables_number   1
_chemical_formula_structural   NiP3W2
_chemical_formula_sum   'Ni2 P6 W4'
_cell_volume   169.74437117
_cell_formula_units_Z   2
loop_
 _symmetry_equiv_pos_site_id
 _symmetry_equiv_pos_as_xyz
  1  'x, y, z'
loop_
 _atom_site_type_symbol
 _atom_site_label
 _atom_site_symmetry_multiplicity
 _atom_site_fract_x
 _atom_site_fract_y
 _atom_site_fract_z
 _atom_site_occupancy
  Ni  Ni0  1  -0.00000000  0.00000000  0.50000000  1.0
  Ni  Ni1  1  0.50000000  0.50000000  -0.00000000  1.0
  P  P2  1  0.87391522  0.12608478  0.93429903  1.0
  P  P3  1  0.12608478  -0.12608478  0.06570097  1.0
  P  P4  1  0.48104284  -0.48104284  0.69325079  1.0
  P  P5  1  0.51895716  0.48104284  0.30674921  1.0
  P  P6  1  0.81969059  0.18030941  0.34516752  1.0
  P  P7  1  0.18030941  -0.18030941  0.65483248  1.0
  W  W8  1  0.67443897  0.32556103  0.87527699  1.0
  W  W9  1  0.32556103  -0.32556103  0.12472301  1.0
  W  W10  1  0.82293125  0.17706875  0.63162272  1.0
  W  W11  1  0.17706875  -0.17706875  0.36837728  1.0
