# generated using pymatgen
data_PO2
_symmetry_space_group_name_H-M   'P 1'
_cell_length_a   7.14601503
_cell_length_b   7.14601503
_cell_length_c   8.51250626
_cell_angle_alpha   85.00779901
_cell_angle_beta   94.99220099
_cell_angle_gamma   89.44943185
_symmetry_Int_Tables_number   1
_chemical_formula_structural   PO2
_chemical_formula_sum   'P8 O16'
_cell_volume   431.33925936
_cell_formula_units_Z   8
loop_
 _symmetry_equiv_pos_site_id
 _symmetry_equiv_pos_as_xyz
  1  'x, y, z'
loop_
 _atom_site_type_symbol
 _atom_site_label
 _atom_site_symmetry_multiplicity
 _atom_site_fract_x
 _atom_site_fract_y
 _atom_site_fract_z
 _atom_site_occupancy
  P  P0  1  0.63985010  -0.27931017  0.41323228  1.0
  P  P1  1  1.27931017  0.36014990  0.91323228  1.0
  P  P2  1  0.72068983  -0.36014990  0.08676772  1.0
  P  P3  1  1.36014990  0.27931017  0.58676772  1.0
  P  P4  1  1.74696847  0.02159046  0.18577307  1.0
  P  P5  1  0.97840954  -0.74696847  0.68577307  1.0
  P  P6  1  1.02159046  0.74696847  0.31422693  1.0
  P  P7  1  0.25303153  -0.02159046  0.81422693  1.0
  O  O8  1  0.69956550  -0.12155299  0.05323349  1.0
  O  O9  1  1.12155299  0.30043450  0.55323349  1.0
  O  O10  1  0.87844701  -0.30043450  0.44676651  1.0
  O  O11  1  1.30043450  0.12155299  0.94676651  1.0
  O  O12  1  0.62998855  -0.05325694  0.33057821  1.0
  O  O13  1  1.05325694  0.37001145  0.83057821  1.0
  O  O14  1  0.94674306  -0.37001145  0.16942179  1.0
  O  O15  1  1.37001145  0.05325694  0.66942179  1.0
  O  O16  1  1.72098889  0.22105551  0.13147253  1.0
  O  O17  1  0.77894449  -0.72098889  0.63147253  1.0
  O  O18  1  1.22105551  0.72098889  0.36852747  1.0
  O  O19  1  0.27901111  -0.22105551  0.86852747  1.0
  O  O20  1  0.96372230  -0.03627770  0.25000000  1.0
  O  O21  1  1.03627770  0.03627770  0.75000000  1.0
  O  O22  1  0.61042382  -0.38957618  0.25000000  1.0
  O  O23  1  1.38957618  0.38957618  0.75000000  1.0
