# generated using pymatgen
data_ZnCl2
_symmetry_space_group_name_H-M   'P 1'
_cell_length_a   6.49857352
_cell_length_b   6.49857352
_cell_length_c   6.49857352
_cell_angle_alpha   126.53909556
_cell_angle_beta   126.53909556
_cell_angle_gamma   79.00389206
_symmetry_Int_Tables_number   1
_chemical_formula_structural   ZnCl2
_chemical_formula_sum   'Zn2 Cl4'
_cell_volume   171.37001665
_cell_formula_units_Z   2
loop_
 _symmetry_equiv_pos_site_id
 _symmetry_equiv_pos_as_xyz
  1  'x, y, z'
loop_
 _atom_site_type_symbol
 _atom_site_label
 _atom_site_symmetry_multiplicity
 _atom_site_fract_x
 _atom_site_fract_y
 _atom_site_fract_z
 _atom_site_occupancy
  Zn  Zn0  1  0.75000000  0.25000000  0.50000000  1.0
  Zn  Zn1  1  1.00000000  1.00000000  1.00000000  1.0
  Cl  Cl2  1  1.09014166  1.12500000  1.46514166  1.0
  Cl  Cl3  1  1.37500000  0.90985834  1.03485834  1.0
  Cl  Cl4  1  0.87500000  1.34014166  0.96514166  1.0
  Cl  Cl5  1  0.65985834  0.62500000  0.53485834  1.0
