# generated using pymatgen
data_Rb2PtC4N4O
_symmetry_space_group_name_H-M   'P 1'
_cell_length_a   7.65380685
_cell_length_b   9.68210960
_cell_length_c   14.05866687
_cell_angle_alpha   90.00000000
_cell_angle_beta   90.00000000
_cell_angle_gamma   90.00000000
_symmetry_Int_Tables_number   1
_chemical_formula_structural   Rb2PtC4N4O
_chemical_formula_sum   'Rb8 Pt4 C16 N16 O4'
_cell_volume   1041.81746377
_cell_formula_units_Z   4
loop_
 _symmetry_equiv_pos_site_id
 _symmetry_equiv_pos_as_xyz
  1  'x, y, z'
loop_
 _atom_site_type_symbol
 _atom_site_label
 _atom_site_symmetry_multiplicity
 _atom_site_fract_x
 _atom_site_fract_y
 _atom_site_fract_z
 _atom_site_occupancy
  Rb  Rb0  1  0.19798794  0.75000000  0.25000000  1.0
  Rb  Rb1  1  0.69798794  0.75000000  0.75000000  1.0
  Rb  Rb2  1  0.80201206  0.25000000  0.75000000  1.0
  Rb  Rb3  1  0.30201206  0.25000000  0.25000000  1.0
  Rb  Rb4  1  0.25000000  0.00000000  0.60310055  1.0
  Rb  Rb5  1  0.25000000  0.50000000  0.89689945  1.0
  Rb  Rb6  1  0.75000000  0.00000000  0.39689945  1.0
  Rb  Rb7  1  0.75000000  0.50000000  0.10310055  1.0
  Pt  Pt8  1  0.50000000  0.00000000  0.00000000  1.0
  Pt  Pt9  1  0.50000000  0.50000000  0.50000000  1.0
  Pt  Pt10  1  0.00000000  0.00000000  0.00000000  1.0
  Pt  Pt11  1  0.00000000  0.50000000  0.50000000  1.0
  C  C12  1  0.50536425  0.96527195  0.13867389  1.0
  C  C13  1  0.50536425  0.53472805  0.36132611  1.0
  C  C14  1  1.00536425  0.96527195  0.86132611  1.0
  C  C15  1  1.00536425  0.53472805  0.63867389  1.0
  C  C16  1  0.49463575  0.46527195  0.63867389  1.0
  C  C17  1  0.49463575  0.03472805  0.86132611  1.0
  C  C18  1  -0.00536425  0.46527195  0.36132611  1.0
  C  C19  1  -0.00536425  0.03472805  0.13867389  1.0
  C  C20  1  0.03611496  0.80055656  0.02695233  1.0
  C  C21  1  0.03611496  0.69944344  0.47304767  1.0
  C  C22  1  0.53611496  0.80055656  0.97304767  1.0
  C  C23  1  0.53611496  0.69944344  0.52695233  1.0
  C  C24  1  0.96388504  0.30055656  0.52695233  1.0
  C  C25  1  0.96388504  0.19944344  0.97304767  1.0
  C  C26  1  0.46388504  0.30055656  0.47304767  1.0
  C  C27  1  0.46388504  0.19944344  0.02695233  1.0
  N  N28  1  0.50017316  0.95033100  0.22172366  1.0
  N  N29  1  0.50017316  0.54966900  0.27827634  1.0
  N  N30  1  1.00017316  0.95033100  0.77827634  1.0
  N  N31  1  1.00017316  0.54966900  0.72172366  1.0
  N  N32  1  0.49982684  0.45033100  0.72172366  1.0
  N  N33  1  0.49982684  0.04966900  0.77827634  1.0
  N  N34  1  -0.00017316  0.45033100  0.27827634  1.0
  N  N35  1  -0.00017316  0.04966900  0.22172366  1.0
  N  N36  1  0.05943789  0.68430223  0.04665270  1.0
  N  N37  1  0.05943789  0.81569777  0.45334730  1.0
  N  N38  1  0.55943789  0.68430223  0.95334730  1.0
  N  N39  1  0.55943789  0.81569777  0.54665270  1.0
  N  N40  1  0.94056211  0.18430223  0.54665270  1.0
  N  N41  1  0.94056211  0.31569777  0.95334730  1.0
  N  N42  1  0.44056211  0.18430223  0.45334730  1.0
  N  N43  1  0.44056211  0.31569777  0.04665270  1.0
  O  O44  1  0.70412985  0.75000000  0.25000000  1.0
  O  O45  1  0.20412985  0.75000000  0.75000000  1.0
  O  O46  1  0.29587015  0.25000000  0.75000000  1.0
  O  O47  1  0.79587015  0.25000000  0.25000000  1.0
