# generated using pymatgen
data_Eu2(Ga3Ir)3
_symmetry_space_group_name_H-M   'P 1'
_cell_length_a   7.60480675
_cell_length_b   7.60480675
_cell_length_c   9.71165673
_cell_angle_alpha   90.00000000
_cell_angle_beta   90.00000000
_cell_angle_gamma   60.39663556
_symmetry_Int_Tables_number   1
_chemical_formula_structural   Eu2(Ga3Ir)3
_chemical_formula_sum   'Eu4 Ga18 Ir6'
_cell_volume   488.33994896
_cell_formula_units_Z   2
loop_
 _symmetry_equiv_pos_site_id
 _symmetry_equiv_pos_as_xyz
  1  'x, y, z'
loop_
 _atom_site_type_symbol
 _atom_site_label
 _atom_site_symmetry_multiplicity
 _atom_site_fract_x
 _atom_site_fract_y
 _atom_site_fract_z
 _atom_site_occupancy
  Eu  Eu0  1  -0.00239652  1.33077825  0.25000000  1.0
  Eu  Eu1  1  0.33077825  0.99760348  0.75000000  1.0
  Eu  Eu2  1  -0.33077825  1.00239652  0.25000000  1.0
  Eu  Eu3  1  0.00239652  0.66922175  0.75000000  1.0
  Ga  Ga4  1  0.00155052  0.66517349  0.42374307  1.0
  Ga  Ga5  1  0.00155052  0.66517349  0.07625693  1.0
  Ga  Ga6  1  -0.33482651  1.00155052  0.92374307  1.0
  Ga  Ga7  1  -0.33482651  1.00155052  0.57625693  1.0
  Ga  Ga8  1  0.33482651  0.99844948  0.42374307  1.0
  Ga  Ga9  1  0.33482651  0.99844948  0.07625693  1.0
  Ga  Ga10  1  -0.00155052  1.33482651  0.92374307  1.0
  Ga  Ga11  1  -0.00155052  1.33482651  0.57625693  1.0
  Ga  Ga12  1  0.33748330  0.45512094  0.25000000  1.0
  Ga  Ga13  1  -0.54487906  1.33748330  0.75000000  1.0
  Ga  Ga14  1  0.54487906  0.66251670  0.25000000  1.0
  Ga  Ga15  1  -0.33748330  1.54487906  0.75000000  1.0
  Ga  Ga16  1  0.33373918  0.66626082  0.93961932  1.0
  Ga  Ga17  1  0.33373918  0.66626082  0.56038068  1.0
  Ga  Ga18  1  -0.33373918  1.33373918  0.43961932  1.0
  Ga  Ga19  1  -0.33373918  1.33373918  0.06038068  1.0
  Ga  Ga20  1  0.12894115  0.87105885  0.25000000  1.0
  Ga  Ga21  1  -0.12894115  1.12894115  0.75000000  1.0
  Ir  Ir22  1  0.67030663  0.67030663  0.50000000  1.0
  Ir  Ir23  1  0.67030663  0.67030663  0.00000000  1.0
  Ir  Ir24  1  0.32969337  0.32969337  0.50000000  1.0
  Ir  Ir25  1  0.32969337  0.32969337  0.00000000  1.0
  Ir  Ir26  1  0.00000000  0.00000000  0.50000000  1.0
  Ir  Ir27  1  0.00000000  0.00000000  0.00000000  1.0
