# generated using pymatgen
data_H2Os3C8(SO4)2
_symmetry_space_group_name_H-M   'P 1'
_cell_length_a   9.03866228
_cell_length_b   9.03866228
_cell_length_c   11.94397081
_cell_angle_alpha   74.58329262
_cell_angle_beta   105.41670738
_cell_angle_gamma   87.13599282
_symmetry_Int_Tables_number   1
_chemical_formula_structural   H2Os3C8(SO4)2
_chemical_formula_sum   'H4 Os6 C16 S4 O16'
_cell_volume   899.16027716
_cell_formula_units_Z   2
loop_
 _symmetry_equiv_pos_site_id
 _symmetry_equiv_pos_as_xyz
  1  'x, y, z'
loop_
 _atom_site_type_symbol
 _atom_site_label
 _atom_site_symmetry_multiplicity
 _atom_site_fract_x
 _atom_site_fract_y
 _atom_site_fract_z
 _atom_site_occupancy
  H  H0  1  0.93095193  -0.29572422  0.19689436  1.0
  H  H1  1  0.70427578  -0.06904807  0.30310564  1.0
  H  H2  1  1.06904807  0.29572422  0.80310564  1.0
  H  H3  1  1.29572422  0.06904807  0.69689436  1.0
  Os  Os4  1  0.82615860  -0.17384140  0.25000000  1.0
  Os  Os5  1  1.17384140  0.17384140  0.75000000  1.0
  Os  Os6  1  0.78756189  -0.45621106  0.19428336  1.0
  Os  Os7  1  0.54378894  -0.21243811  0.30571664  1.0
  Os  Os8  1  1.21243811  0.45621106  0.80571664  1.0
  Os  Os9  1  1.45621106  0.21243811  0.69428336  1.0
  C  C10  1  1.00592449  0.84518563  0.36595475  1.0
  C  C11  1  1.84518563  0.00592449  0.13404525  1.0
  C  C12  1  0.99407551  -0.84518563  0.63404525  1.0
  C  C13  1  0.15481437  -0.00592449  0.86595475  1.0
  C  C14  1  0.96684977  -0.60891457  0.27493590  1.0
  C  C15  1  0.39108543  -0.03315023  0.22506410  1.0
  C  C16  1  1.03315023  0.60891457  0.72506410  1.0
  C  C17  1  1.60891457  0.03315023  0.77493590  1.0
  C  C18  1  0.65381874  -0.60980328  0.19078434  1.0
  C  C19  1  0.39019672  -0.34618126  0.30921566  1.0
  C  C20  1  1.34618126  0.60980328  0.80921566  1.0
  C  C21  1  1.60980328  0.34618126  0.69078434  1.0
  C  C22  1  0.80790324  -0.44754045  0.03671509  1.0
  C  C23  1  0.55245955  -0.19209676  0.46328491  1.0
  C  C24  1  1.19209676  0.44754045  0.96328491  1.0
  C  C25  1  1.44754045  0.19209676  0.53671509  1.0
  S  S26  1  0.77052846  -0.40893149  0.38264479  1.0
  S  S27  1  0.59106851  -0.22947154  0.11735521  1.0
  S  S28  1  1.22947154  0.40893149  0.61735521  1.0
  S  S29  1  1.40893149  0.22947154  0.88264479  1.0
  O  O30  1  0.11827659  -0.14322938  0.43664619  1.0
  O  O31  1  0.85677062  -0.88172341  0.06335381  1.0
  O  O32  1  1.88172341  0.14322938  0.56335381  1.0
  O  O33  1  1.14322938  0.88172341  0.93664619  1.0
  O  O34  1  1.07183823  0.29689123  0.32463371  1.0
  O  O35  1  1.29689123  0.07183823  0.17536629  1.0
  O  O36  1  0.92816177  -0.29689123  0.67536629  1.0
  O  O37  1  0.70310877  -0.07183823  0.82463371  1.0
  O  O38  1  1.56990222  0.29787678  0.18955772  1.0
  O  O39  1  1.29787678  0.56990222  0.31044228  1.0
  O  O40  1  0.43009778  -0.29787678  0.81044228  1.0
  O  O41  1  0.70212322  -0.56990222  0.68955772  1.0
  O  O42  1  0.81823705  -0.44309819  0.94168243  1.0
  O  O43  1  0.55690181  -0.18176295  0.55831757  1.0
  O  O44  1  1.18176295  0.44309819  0.05831757  1.0
  O  O45  1  1.44309819  0.18176295  0.44168243  1.0
