# generated using pymatgen
data_NiH6(CO3)2
_symmetry_space_group_name_H-M   'P 1'
_cell_length_a   8.67860294
_cell_length_b   7.06151681
_cell_length_c   9.30604847
_cell_angle_alpha   90.00000000
_cell_angle_beta   97.77271016
_cell_angle_gamma   90.00000000
_symmetry_Int_Tables_number   1
_chemical_formula_structural   NiH6(CO3)2
_chemical_formula_sum   'Ni4 H24 C8 O24'
_cell_volume   565.07298614
_cell_formula_units_Z   4
loop_
 _symmetry_equiv_pos_site_id
 _symmetry_equiv_pos_as_xyz
  1  'x, y, z'
loop_
 _atom_site_type_symbol
 _atom_site_label
 _atom_site_symmetry_multiplicity
 _atom_site_fract_x
 _atom_site_fract_y
 _atom_site_fract_z
 _atom_site_occupancy
  Ni  Ni0  1  0.50000000  -0.00000000  0.50000000  1.0
  Ni  Ni1  1  0.50000000  0.50000000  -0.00000000  1.0
  Ni  Ni2  1  0.00000000  -0.00000000  0.00000000  1.0
  Ni  Ni3  1  -0.00000000  0.50000000  0.50000000  1.0
  H  H4  1  0.19521306  0.89768982  0.23240560  1.0
  H  H5  1  0.80478694  0.39768982  0.26759440  1.0
  H  H6  1  0.80478694  0.10231018  0.76759440  1.0
  H  H7  1  0.19521306  0.60231018  0.73240560  1.0
  H  H8  1  0.02737820  0.84025384  0.26998438  1.0
  H  H9  1  0.97262180  0.34025384  0.23001562  1.0
  H  H10  1  0.97262180  0.15974616  0.73001562  1.0
  H  H11  1  0.02737820  0.65974616  0.76998438  1.0
  H  H12  1  0.26195971  0.39668014  0.45087202  1.0
  H  H13  1  0.73804029  0.89668014  0.04912798  1.0
  H  H14  1  0.73804029  0.60331986  0.54912798  1.0
  H  H15  1  0.26195971  0.10331986  0.95087202  1.0
  H  H16  1  0.28302603  0.88394819  -0.01093277  1.0
  H  H17  1  0.71697397  0.38394819  0.51093277  1.0
  H  H18  1  0.71697397  0.11605181  1.01093277  1.0
  H  H19  1  0.28302603  0.61605181  0.48906723  1.0
  H  H20  1  0.57079342  0.70522444  0.27790226  1.0
  H  H21  1  0.42920658  0.20522444  0.22209774  1.0
  H  H22  1  0.42920658  0.29477556  0.72209774  1.0
  H  H23  1  0.57079342  0.79477556  0.77790226  1.0
  H  H24  1  0.17837084  0.52421137  0.11891264  1.0
  H  H25  1  0.82162916  0.02421137  0.38108736  1.0
  H  H26  1  0.82162916  0.47578863  0.88108736  1.0
  H  H27  1  0.17837084  0.97578863  0.61891264  1.0
  C  C28  1  0.46405514  0.77525265  0.22673497  1.0
  C  C29  1  0.53594486  0.27525265  0.27326503  1.0
  C  C30  1  0.53594486  0.22474735  0.77326503  1.0
  C  C31  1  0.46405514  0.72474735  0.72673497  1.0
  C  C32  1  0.17905030  0.38160402  0.07011234  1.0
  C  C33  1  0.82094970  0.88160402  0.42988766  1.0
  C  C34  1  0.82094970  0.61839598  0.92988766  1.0
  C  C35  1  0.17905030  0.11839598  0.57011234  1.0
  O  O36  1  0.41034985  0.72782635  0.09785841  1.0
  O  O37  1  0.58965015  0.22782635  0.40214159  1.0
  O  O38  1  0.58965015  0.27217365  0.90214159  1.0
  O  O39  1  0.41034985  0.77217365  0.59785841  1.0
  O  O40  1  0.40021761  0.89809826  0.29882849  1.0
  O  O41  1  0.59978239  0.39809826  0.20117151  1.0
  O  O42  1  0.59978239  0.10190174  0.70117151  1.0
  O  O43  1  0.40021761  0.60190174  0.79882849  1.0
  O  O44  1  0.29182274  0.16231544  0.50188821  1.0
  O  O45  1  0.70817726  0.66231544  -0.00188821  1.0
  O  O46  1  0.70817726  0.83768456  0.49811179  1.0
  O  O47  1  0.29182274  0.33768456  0.00188821  1.0
  O  O48  1  0.06679641  0.27268442  0.08813881  1.0
  O  O49  1  0.93320359  0.77268442  0.41186119  1.0
  O  O50  1  0.93320359  0.72731558  0.91186119  1.0
  O  O51  1  0.06679641  0.22731558  0.58813881  1.0
  O  O52  1  0.08797265  0.86719587  0.18869159  1.0
  O  O53  1  0.91202735  0.36719587  0.31130841  1.0
  O  O54  1  0.91202735  0.13280413  0.81130841  1.0
  O  O55  1  0.08797265  0.63280413  0.68869159  1.0
  O  O56  1  0.21634872  0.52463289  0.42790325  1.0
  O  O57  1  0.78365128  0.02463289  0.07209675  1.0
  O  O58  1  0.78365128  0.47536711  0.57209675  1.0
  O  O59  1  0.21634872  0.97536711  0.92790325  1.0
