# generated using pymatgen
data_SrLi(BS2)3
_symmetry_space_group_name_H-M   'P 1'
_cell_length_a   8.71174217
_cell_length_b   8.71174217
_cell_length_c   8.12931859
_cell_angle_alpha   67.06744112
_cell_angle_beta   112.93255888
_cell_angle_gamma   119.52011035
_symmetry_Int_Tables_number   1
_chemical_formula_structural   SrLi(BS2)3
_chemical_formula_sum   'Sr2 Li2 B6 S12'
_cell_volume   479.16988435
_cell_formula_units_Z   2
loop_
 _symmetry_equiv_pos_site_id
 _symmetry_equiv_pos_as_xyz
  1  'x, y, z'
loop_
 _atom_site_type_symbol
 _atom_site_label
 _atom_site_symmetry_multiplicity
 _atom_site_fract_x
 _atom_site_fract_y
 _atom_site_fract_z
 _atom_site_occupancy
  Sr  Sr0  1  1.66575788  0.10202654  0.54204633  1.0
  Sr  Sr1  1  0.89797346  -0.66575788  0.04204633  1.0
  Li  Li2  1  1.33855106  0.45415660  0.50138378  1.0
  Li  Li3  1  0.54584340  -0.33855106  0.00138378  1.0
  B  B4  1  1.01487082  0.97456822  0.50619686  1.0
  B  B5  1  0.02543178  -0.01487082  0.00619686  1.0
  B  B6  1  0.80053055  -0.43450241  0.59921691  1.0
  B  B7  1  1.43450241  0.19946945  0.09921691  1.0
  B  B8  1  1.20694026  0.72188278  0.61431484  1.0
  B  B9  1  0.27811722  -0.20694026  0.11431484  1.0
  S  S10  1  0.79100969  -0.21189938  0.50574145  1.0
  S  S11  1  1.21189938  0.20899031  0.00574145  1.0
  S  S12  1  1.60642795  0.36609342  0.65845534  1.0
  S  S13  1  0.63390658  -0.60642795  0.15845534  1.0
  S  S14  1  1.04514488  0.77220045  0.05295665  1.0
  S  S15  1  0.22779955  -0.04514488  0.55295665  1.0
  S  S16  1  0.99832122  -0.48255067  0.64794575  1.0
  S  S17  1  1.48255067  0.00167878  0.14794575  1.0
  S  S18  1  1.30357045  0.59130132  0.14844001  1.0
  S  S19  1  0.40869868  -0.30357045  0.64844001  1.0
  S  S20  1  0.80320133  -0.02115079  0.95920207  1.0
  S  S21  1  1.02115079  0.19679867  0.45920207  1.0
