# generated using pymatgen
data_TiPO4
_symmetry_space_group_name_H-M   'P 1'
_cell_length_a   6.01115337
_cell_length_b   5.47989523
_cell_length_c   8.12551352
_cell_angle_alpha   90.00000000
_cell_angle_beta   89.99467131
_cell_angle_gamma   90.00000000
_symmetry_Int_Tables_number   1
_chemical_formula_structural   TiPO4
_chemical_formula_sum   'Ti4 P4 O16'
_cell_volume   267.65840147
_cell_formula_units_Z   4
loop_
 _symmetry_equiv_pos_site_id
 _symmetry_equiv_pos_as_xyz
  1  'x, y, z'
loop_
 _atom_site_type_symbol
 _atom_site_label
 _atom_site_symmetry_multiplicity
 _atom_site_fract_x
 _atom_site_fract_y
 _atom_site_fract_z
 _atom_site_occupancy
  Ti  Ti0  1  0.47825520  0.75000000  0.25551519  1.0
  Ti  Ti1  1  0.52174480  0.25000000  0.74448481  1.0
  Ti  Ti2  1  0.02185704  0.75000000  0.25546044  1.0
  Ti  Ti3  1  0.97814296  0.25000000  0.74453956  1.0
  P  P4  1  0.24999900  0.75000000  0.60448462  1.0
  P  P5  1  0.75000100  0.25000000  0.39551538  1.0
  P  P6  1  0.25000317  0.25000000  0.08915577  1.0
  P  P7  1  0.74999683  0.75000000  0.91084423  1.0
  O  O8  1  1.04002173  0.75000000  0.49455084  1.0
  O  O9  1  -0.04002173  0.25000000  0.50544916  1.0
  O  O10  1  0.46005996  0.75000000  0.49459907  1.0
  O  O11  1  0.53994004  0.25000000  0.50540093  1.0
  O  O12  1  0.25004425  0.48036960  0.20813467  1.0
  O  O13  1  0.74995575  0.98036960  0.79186533  1.0
  O  O14  1  0.74995575  0.51963040  0.79186533  1.0
  O  O15  1  0.25004425  0.01963040  0.20813467  1.0
  O  O16  1  0.46122127  0.25000000  0.98512661  1.0
  O  O17  1  0.53877873  0.75000000  0.01487339  1.0
  O  O18  1  0.03871823  0.25000000  0.98522720  1.0
  O  O19  1  0.96128177  0.75000000  0.01477280  1.0
  O  O20  1  0.24995116  0.98792989  0.71370430  1.0
  O  O21  1  0.75004884  0.48792989  0.28629570  1.0
  O  O22  1  0.75004884  0.01207011  0.28629570  1.0
  O  O23  1  0.24995116  0.51207011  0.71370430  1.0
