# generated using pymatgen
data_TiI4
_symmetry_space_group_name_H-M   'P 1'
_cell_length_a   12.93608058
_cell_length_b   12.93608058
_cell_length_c   12.93608058
_cell_angle_alpha   90.00000000
_cell_angle_beta   90.00000000
_cell_angle_gamma   90.00000000
_symmetry_Int_Tables_number   1
_chemical_formula_structural   TiI4
_chemical_formula_sum   'Ti8 I32'
_cell_volume   2164.75193636
_cell_formula_units_Z   8
loop_
 _symmetry_equiv_pos_site_id
 _symmetry_equiv_pos_as_xyz
  1  'x, y, z'
loop_
 _atom_site_type_symbol
 _atom_site_label
 _atom_site_symmetry_multiplicity
 _atom_site_fract_x
 _atom_site_fract_y
 _atom_site_fract_z
 _atom_site_occupancy
  Ti  Ti0  1  0.37194482  0.87194482  0.62805518  1.0
  Ti  Ti1  1  0.37194482  0.62805518  0.12805518  1.0
  Ti  Ti2  1  0.87194482  0.87194482  0.87194482  1.0
  Ti  Ti3  1  0.87194482  0.62805518  0.37194482  1.0
  Ti  Ti4  1  0.62805518  0.37194482  0.87194482  1.0
  Ti  Ti5  1  0.62805518  0.12805518  0.37194482  1.0
  Ti  Ti6  1  0.12805518  0.37194482  0.62805518  1.0
  Ti  Ti7  1  0.12805518  0.12805518  0.12805518  1.0
  I  I8  1  0.51583572  0.48821594  0.75792488  1.0
  I  I9  1  0.51583572  1.01178406  0.25792488  1.0
  I  I10  1  1.01583572  0.48821594  0.74207512  1.0
  I  I11  1  1.01583572  1.01178406  0.24207512  1.0
  I  I12  1  -0.01178406  0.74207512  0.48416428  1.0
  I  I13  1  -0.01178406  0.75792488  -0.01583572  1.0
  I  I14  1  0.48821594  0.74207512  1.01583572  1.0
  I  I15  1  0.48821594  0.75792488  0.51583572  1.0
  I  I16  1  0.24207512  1.01583572  1.01178406  1.0
  I  I17  1  0.24207512  0.48416428  0.51178406  1.0
  I  I18  1  0.74207512  1.01583572  0.48821594  1.0
  I  I19  1  0.74207512  0.48416428  -0.01178406  1.0
  I  I20  1  0.48416428  -0.01178406  0.74207512  1.0
  I  I21  1  0.48416428  0.51178406  0.24207512  1.0
  I  I22  1  -0.01583572  -0.01178406  0.75792488  1.0
  I  I23  1  -0.01583572  0.51178406  0.25792488  1.0
  I  I24  1  1.01178406  0.24207512  1.01583572  1.0
  I  I25  1  1.01178406  0.25792488  0.51583572  1.0
  I  I26  1  0.51178406  0.24207512  0.48416428  1.0
  I  I27  1  0.51178406  0.25792488  -0.01583572  1.0
  I  I28  1  0.75792488  0.51583572  0.48821594  1.0
  I  I29  1  0.75792488  -0.01583572  -0.01178406  1.0
  I  I30  1  0.25792488  0.51583572  1.01178406  1.0
  I  I31  1  0.25792488  -0.01583572  0.51178406  1.0
  I  I32  1  0.25787804  0.75787804  0.74212196  1.0
  I  I33  1  0.25787804  0.74212196  0.24212196  1.0
  I  I34  1  0.75787804  0.75787804  0.75787804  1.0
  I  I35  1  0.75787804  0.74212196  0.25787804  1.0
  I  I36  1  0.74212196  0.25787804  0.75787804  1.0
  I  I37  1  0.74212196  0.24212196  0.25787804  1.0
  I  I38  1  0.24212196  0.25787804  0.74212196  1.0
  I  I39  1  0.24212196  0.24212196  0.24212196  1.0
