# generated using pymatgen
data_CsCrF5
_symmetry_space_group_name_H-M   'P 1'
_cell_length_a   11.17336833
_cell_length_b   5.71788364
_cell_length_c   8.14626644
_cell_angle_alpha   90.00000000
_cell_angle_beta   90.00000000
_cell_angle_gamma   90.00000000
_symmetry_Int_Tables_number   1
_chemical_formula_structural   CsCrF5
_chemical_formula_sum   'Cs4 Cr4 F20'
_cell_volume   520.44883280
_cell_formula_units_Z   4
loop_
 _symmetry_equiv_pos_site_id
 _symmetry_equiv_pos_as_xyz
  1  'x, y, z'
loop_
 _atom_site_type_symbol
 _atom_site_label
 _atom_site_symmetry_multiplicity
 _atom_site_fract_x
 _atom_site_fract_y
 _atom_site_fract_z
 _atom_site_occupancy
  Cs  Cs0  1  0.31519187  0.75000000  0.13999908  1.0
  Cs  Cs1  1  0.81519187  0.75000000  0.36000092  1.0
  Cs  Cs2  1  0.68480813  0.25000000  0.86000092  1.0
  Cs  Cs3  1  0.18480813  0.25000000  0.63999908  1.0
  Cr  Cr4  1  0.45599861  0.75000000  0.65504244  1.0
  Cr  Cr5  1  0.95599861  0.75000000  0.84495756  1.0
  Cr  Cr6  1  0.54400139  0.25000000  0.34495756  1.0
  Cr  Cr7  1  0.04400139  0.25000000  0.15504244  1.0
  F  F8  1  0.41510306  0.97214066  0.80079382  1.0
  F  F9  1  0.41510306  0.52785934  0.80079382  1.0
  F  F10  1  0.91510306  0.97214066  0.69920618  1.0
  F  F11  1  0.91510306  0.52785934  0.69920618  1.0
  F  F12  1  0.58489694  0.47214066  0.19920618  1.0
  F  F13  1  0.58489694  0.02785934  0.19920618  1.0
  F  F14  1  0.08489694  0.47214066  0.30079382  1.0
  F  F15  1  0.08489694  0.02785934  0.30079382  1.0
  F  F16  1  0.31471437  0.75000000  0.54881986  1.0
  F  F17  1  0.81471437  0.75000000  0.95118014  1.0
  F  F18  1  0.68528563  0.25000000  0.45118014  1.0
  F  F19  1  0.18528563  0.25000000  0.04881986  1.0
  F  F20  1  0.11227505  0.75000000  0.79201420  1.0
  F  F21  1  0.61227505  0.75000000  0.70798580  1.0
  F  F22  1  0.88772495  0.25000000  0.20798580  1.0
  F  F23  1  0.38772495  0.25000000  0.29201420  1.0
  F  F24  1  0.50000000  0.00000000  0.50000000  1.0
  F  F25  1  0.50000000  0.50000000  0.50000000  1.0
  F  F26  1  -0.00000000  -0.00000000  0.00000000  1.0
  F  F27  1  0.00000000  0.50000000  -0.00000000  1.0
