# generated using pymatgen
data_KNb(PO4)2
_symmetry_space_group_name_H-M   'P 1'
_cell_length_a   6.47023247
_cell_length_b   6.47023247
_cell_length_c   9.17354706
_cell_angle_alpha   74.31599124
_cell_angle_beta   105.68400876
_cell_angle_gamma   88.40011567
_symmetry_Int_Tables_number   1
_chemical_formula_structural   KNb(PO4)2
_chemical_formula_sum   'K2 Nb2 P4 O16'
_cell_volume   353.85564107
_cell_formula_units_Z   2
loop_
 _symmetry_equiv_pos_site_id
 _symmetry_equiv_pos_as_xyz
  1  'x, y, z'
loop_
 _atom_site_type_symbol
 _atom_site_label
 _atom_site_symmetry_multiplicity
 _atom_site_fract_x
 _atom_site_fract_y
 _atom_site_fract_z
 _atom_site_occupancy
  K  K0  1  0.74070812  -0.25929188  0.25000000  1.0
  K  K1  1  1.25929188  0.25929188  0.75000000  1.0
  Nb  Nb2  1  1.15565044  0.15565044  0.25000000  1.0
  Nb  Nb3  1  0.84434956  -0.15565044  0.75000000  1.0
  P  P4  1  1.69661975  0.17302112  0.37148994  1.0
  P  P5  1  0.82697888  -0.69661975  0.87148994  1.0
  P  P6  1  1.17302112  0.69661975  0.12851006  1.0
  P  P7  1  0.30338025  -0.17302112  0.62851006  1.0
  O  O8  1  0.75274740  -0.04210173  0.51422425  1.0
  O  O9  1  1.04210173  0.24725260  1.01422425  1.0
  O  O10  1  0.95789827  -0.24725260  -0.01422425  1.0
  O  O11  1  1.24725260  0.04210173  0.48577575  1.0
  O  O12  1  0.15014061  -0.14379665  0.22881175  1.0
  O  O13  1  1.14379665  0.84985939  0.72881175  1.0
  O  O14  1  0.85620335  -0.84985939  0.27118825  1.0
  O  O15  1  1.84985939  0.14379665  0.77118825  1.0
  O  O16  1  1.46675491  0.14703096  0.26364998  1.0
  O  O17  1  0.85296904  -0.46675491  0.76364998  1.0
  O  O18  1  1.14703096  0.46675491  0.23635002  1.0
  O  O19  1  0.53324509  -0.14703096  0.73635002  1.0
  O  O20  1  1.70864932  0.37281991  0.42224873  1.0
  O  O21  1  0.62718009  -0.70864932  0.92224873  1.0
  O  O22  1  1.37281991  0.70864932  0.07775127  1.0
  O  O23  1  0.29135068  -0.37281991  0.57775127  1.0
