# generated using pymatgen
data_NbSiPt
_symmetry_space_group_name_H-M   'P 1'
_cell_length_a   6.46729893
_cell_length_b   3.84533819
_cell_length_c   7.41668216
_cell_angle_alpha   90.00000000
_cell_angle_beta   90.00000000
_cell_angle_gamma   90.00000000
_symmetry_Int_Tables_number   1
_chemical_formula_structural   NbSiPt
_chemical_formula_sum   'Nb4 Si4 Pt4'
_cell_volume   184.44510960
_cell_formula_units_Z   4
loop_
 _symmetry_equiv_pos_site_id
 _symmetry_equiv_pos_as_xyz
  1  'x, y, z'
loop_
 _atom_site_type_symbol
 _atom_site_label
 _atom_site_symmetry_multiplicity
 _atom_site_fract_x
 _atom_site_fract_y
 _atom_site_fract_z
 _atom_site_occupancy
  Nb  Nb0  1  0.97311706  0.75000000  0.66524263  1.0
  Nb  Nb1  1  0.47311706  0.75000000  0.83475737  1.0
  Nb  Nb2  1  0.02688294  0.25000000  0.33475737  1.0
  Nb  Nb3  1  0.52688294  0.25000000  0.16524263  1.0
  Si  Si4  1  0.73163821  0.75000000  0.37413833  1.0
  Si  Si5  1  0.23163821  0.75000000  0.12586167  1.0
  Si  Si6  1  0.26836179  0.25000000  0.62586167  1.0
  Si  Si7  1  0.76836179  0.25000000  0.87413833  1.0
  Pt  Pt8  1  0.84808632  0.75000000  0.06531907  1.0
  Pt  Pt9  1  0.34808632  0.75000000  0.43468093  1.0
  Pt  Pt10  1  0.15191368  0.25000000  0.93468093  1.0
  Pt  Pt11  1  0.65191368  0.25000000  0.56531907  1.0
