# generated using pymatgen
data_BaAl2(SiO4)2
_symmetry_space_group_name_H-M   'P 1'
_cell_length_a   5.33870353
_cell_length_b   5.33870353
_cell_length_c   7.95886650
_cell_angle_alpha   90.00000000
_cell_angle_beta   90.00000000
_cell_angle_gamma   120.00000000
_symmetry_Int_Tables_number   1
_chemical_formula_structural   BaAl2(SiO4)2
_chemical_formula_sum   'Ba1 Al2 Si2 O8'
_cell_volume   196.45064576
_cell_formula_units_Z   1
loop_
 _symmetry_equiv_pos_site_id
 _symmetry_equiv_pos_as_xyz
  1  'x, y, z'
loop_
 _atom_site_type_symbol
 _atom_site_label
 _atom_site_symmetry_multiplicity
 _atom_site_fract_x
 _atom_site_fract_y
 _atom_site_fract_z
 _atom_site_occupancy
  Ba  Ba0  1  0.00000000  0.00000000  0.00000000  1.0
  Al  Al1  1  0.33333333  0.66666667  0.70313023  1.0
  Al  Al2  1  0.66666667  0.33333333  0.29686977  1.0
  Si  Si3  1  0.33333333  0.66666667  0.28583890  1.0
  Si  Si4  1  0.66666667  0.33333333  0.71416110  1.0
  O  O5  1  0.42295757  0.98859491  0.20920604  1.0
  O  O6  1  0.98859491  0.56563734  0.79079396  1.0
  O  O7  1  0.56563734  0.57704243  0.20920604  1.0
  O  O8  1  0.01140509  0.43436266  0.20920604  1.0
  O  O9  1  0.57704243  0.01140509  0.79079396  1.0
  O  O10  1  0.43436266  0.42295757  0.79079396  1.0
  O  O11  1  0.33333333  0.66666667  0.48701285  1.0
  O  O12  1  0.66666667  0.33333333  0.51298715  1.0
