# generated using pymatgen
data_CaCu(Si2O5)2
_symmetry_space_group_name_H-M   'P 1'
_cell_length_a   7.37386431
_cell_length_b   7.37386431
_cell_length_c   15.42904389
_cell_angle_alpha   90.00000000
_cell_angle_beta   90.00000000
_cell_angle_gamma   90.00000000
_symmetry_Int_Tables_number   1
_chemical_formula_structural   CaCu(Si2O5)2
_chemical_formula_sum   'Ca4 Cu4 Si16 O40'
_cell_volume   838.93690161
_cell_formula_units_Z   4
loop_
 _symmetry_equiv_pos_site_id
 _symmetry_equiv_pos_as_xyz
  1  'x, y, z'
loop_
 _atom_site_type_symbol
 _atom_site_label
 _atom_site_symmetry_multiplicity
 _atom_site_fract_x
 _atom_site_fract_y
 _atom_site_fract_z
 _atom_site_occupancy
  Ca  Ca0  1  0.50000000  0.50000000  0.50000000  1.0
  Ca  Ca1  1  0.50000000  0.50000000  0.00000000  1.0
  Ca  Ca2  1  0.00000000  0.00000000  0.50000000  1.0
  Ca  Ca3  1  0.00000000  0.00000000  0.00000000  1.0
  Cu  Cu4  1  0.00000000  0.50000000  0.58392346  1.0
  Cu  Cu5  1  0.00000000  0.50000000  0.08392346  1.0
  Cu  Cu6  1  0.50000000  0.00000000  0.41607654  1.0
  Cu  Cu7  1  0.50000000  0.00000000  0.91607654  1.0
  Si  Si8  1  0.67596755  0.75174142  0.64789956  1.0
  Si  Si9  1  0.67596755  0.24825858  0.14789956  1.0
  Si  Si10  1  0.82403245  0.74825858  0.35210044  1.0
  Si  Si11  1  0.17596755  0.74825858  0.85210044  1.0
  Si  Si12  1  0.32403245  0.24825858  0.64789956  1.0
  Si  Si13  1  0.32403245  0.75174142  0.14789956  1.0
  Si  Si14  1  0.17596755  0.25174142  0.35210044  1.0
  Si  Si15  1  0.82403245  0.25174142  0.85210044  1.0
  Si  Si16  1  0.75174142  0.32403245  0.35210044  1.0
  Si  Si17  1  0.24825858  0.32403245  0.85210044  1.0
  Si  Si18  1  0.25174142  0.82403245  0.64789956  1.0
  Si  Si19  1  0.74825858  0.82403245  0.14789956  1.0
  Si  Si20  1  0.24825858  0.67596755  0.35210044  1.0
  Si  Si21  1  0.75174142  0.67596755  0.85210044  1.0
  Si  Si22  1  0.74825858  0.17596755  0.64789956  1.0
  Si  Si23  1  0.25174142  0.17596755  0.14789956  1.0
  O  O24  1  0.71001399  0.71001399  0.75000000  1.0
  O  O25  1  0.71001399  0.28998601  0.25000000  1.0
  O  O26  1  0.78998601  0.78998601  0.25000000  1.0
  O  O27  1  0.21001399  0.78998601  0.75000000  1.0
  O  O28  1  0.28998601  0.28998601  0.75000000  1.0
  O  O29  1  0.28998601  0.71001399  0.25000000  1.0
  O  O30  1  0.21001399  0.21001399  0.25000000  1.0
  O  O31  1  0.78998601  0.21001399  0.75000000  1.0
  O  O32  1  0.75299136  0.95631431  0.62672195  1.0
  O  O33  1  0.75299136  0.04368569  0.12672195  1.0
  O  O34  1  0.74700864  0.54368569  0.37327805  1.0
  O  O35  1  0.25299136  0.54368569  0.87327805  1.0
  O  O36  1  0.24700864  0.04368569  0.62672195  1.0
  O  O37  1  0.24700864  0.95631431  0.12672195  1.0
  O  O38  1  0.25299136  0.45631431  0.37327805  1.0
  O  O39  1  0.74700864  0.45631431  0.87327805  1.0
  O  O40  1  0.95631431  0.24700864  0.37327805  1.0
  O  O41  1  0.04368569  0.24700864  0.87327805  1.0
  O  O42  1  0.45631431  0.74700864  0.62672195  1.0
  O  O43  1  0.54368569  0.74700864  0.12672195  1.0
  O  O44  1  0.04368569  0.75299136  0.37327805  1.0
  O  O45  1  0.95631431  0.75299136  0.87327805  1.0
  O  O46  1  0.54368569  0.25299136  0.62672195  1.0
  O  O47  1  0.45631431  0.25299136  0.12672195  1.0
  O  O48  1  0.75468511  0.60081644  0.58258466  1.0
  O  O49  1  0.75468511  0.39918356  0.08258466  1.0
  O  O50  1  0.74531489  0.89918356  0.41741534  1.0
  O  O51  1  0.25468511  0.89918356  0.91741534  1.0
  O  O52  1  0.24531489  0.39918356  0.58258466  1.0
  O  O53  1  0.24531489  0.60081644  0.08258466  1.0
  O  O54  1  0.25468511  0.10081644  0.41741534  1.0
  O  O55  1  0.74531489  0.10081644  0.91741534  1.0
  O  O56  1  0.60081644  0.24531489  0.41741534  1.0
  O  O57  1  0.39918356  0.24531489  0.91741534  1.0
  O  O58  1  0.10081644  0.74531489  0.58258466  1.0
  O  O59  1  0.89918356  0.74531489  0.08258466  1.0
  O  O60  1  0.39918356  0.75468511  0.41741534  1.0
  O  O61  1  0.60081644  0.75468511  0.91741534  1.0
  O  O62  1  0.89918356  0.25468511  0.58258466  1.0
  O  O63  1  0.10081644  0.25468511  0.08258466  1.0
