# generated using pymatgen
data_K2Li(H2N)3
_symmetry_space_group_name_H-M   'P 1'
_cell_length_a   6.95655150
_cell_length_b   6.95655150
_cell_length_c   11.91851903
_cell_angle_alpha   90.00000000
_cell_angle_beta   90.00000000
_cell_angle_gamma   90.00000000
_symmetry_Int_Tables_number   1
_chemical_formula_structural   K2Li(H2N)3
_chemical_formula_sum   'K8 Li4 H24 N12'
_cell_volume   576.78014723
_cell_formula_units_Z   4
loop_
 _symmetry_equiv_pos_site_id
 _symmetry_equiv_pos_as_xyz
  1  'x, y, z'
loop_
 _atom_site_type_symbol
 _atom_site_label
 _atom_site_symmetry_multiplicity
 _atom_site_fract_x
 _atom_site_fract_y
 _atom_site_fract_z
 _atom_site_occupancy
  K  K0  1  0.00000000  0.50000000  0.84948537  1.0
  K  K1  1  0.00000000  0.50000000  0.15051463  1.0
  K  K2  1  0.50000000  0.00000000  0.34948537  1.0
  K  K3  1  0.50000000  0.00000000  0.65051463  1.0
  K  K4  1  0.50000000  0.50000000  0.75000000  1.0
  K  K5  1  0.50000000  0.50000000  0.25000000  1.0
  K  K6  1  0.00000000  0.00000000  0.00000000  1.0
  K  K7  1  0.00000000  0.00000000  0.50000000  1.0
  Li  Li8  1  0.64069927  0.64627097  0.00000000  1.0
  Li  Li9  1  0.64627097  0.35930073  0.50000000  1.0
  Li  Li10  1  0.35930073  0.35372903  0.00000000  1.0
  Li  Li11  1  0.35372903  0.64069927  0.50000000  1.0
  H  H12  1  0.81260841  0.83626295  0.79271360  1.0
  H  H13  1  0.81260841  0.83626295  0.20728640  1.0
  H  H14  1  0.83626295  0.18739159  0.29271360  1.0
  H  H15  1  0.83626295  0.18739159  0.70728640  1.0
  H  H16  1  0.18739159  0.16373705  0.79271360  1.0
  H  H17  1  0.18739159  0.16373705  0.20728640  1.0
  H  H18  1  0.16373705  0.81260841  0.29271360  1.0
  H  H19  1  0.16373705  0.81260841  0.70728640  1.0
  H  H20  1  0.73152500  0.67628650  0.56709754  1.0
  H  H21  1  0.73152500  0.67628650  0.43290246  1.0
  H  H22  1  0.67628650  0.26847500  0.06709754  1.0
  H  H23  1  0.67628650  0.26847500  0.93290246  1.0
  H  H24  1  0.26847500  0.32371350  0.56709754  1.0
  H  H25  1  0.26847500  0.32371350  0.43290246  1.0
  H  H26  1  0.32371350  0.73152500  0.06709754  1.0
  H  H27  1  0.32371350  0.73152500  0.93290246  1.0
  H  H28  1  0.65426176  0.93063759  0.87414817  1.0
  H  H29  1  0.65426176  0.93063759  0.12585183  1.0
  H  H30  1  0.93063759  0.34573824  0.37414817  1.0
  H  H31  1  0.93063759  0.34573824  0.62585183  1.0
  H  H32  1  0.34573824  0.06936241  0.87414817  1.0
  H  H33  1  0.34573824  0.06936241  0.12585183  1.0
  H  H34  1  0.06936241  0.65426176  0.37414817  1.0
  H  H35  1  0.06936241  0.65426176  0.62585183  1.0
  N  N36  1  0.71312172  0.79973814  0.85306626  1.0
  N  N37  1  0.71312172  0.79973814  0.14693374  1.0
  N  N38  1  0.79973814  0.28687828  0.35306626  1.0
  N  N39  1  0.79973814  0.28687828  0.64693374  1.0
  N  N40  1  0.28687828  0.20026186  0.85306626  1.0
  N  N41  1  0.28687828  0.20026186  0.14693374  1.0
  N  N42  1  0.20026186  0.71312172  0.35306626  1.0
  N  N43  1  0.20026186  0.71312172  0.64693374  1.0
  N  N44  1  0.70652879  0.35666277  0.00000000  1.0
  N  N45  1  0.35666277  0.29347121  0.50000000  1.0
  N  N46  1  0.29347121  0.64333723  0.00000000  1.0
  N  N47  1  0.64333723  0.70652879  0.50000000  1.0
