# generated using pymatgen
data_Mg2Zn11
_symmetry_space_group_name_H-M   'P 1'
_cell_length_a   8.53170473
_cell_length_b   8.53170473
_cell_length_c   8.53170473
_cell_angle_alpha   90.00000000
_cell_angle_beta   90.00000000
_cell_angle_gamma   90.00000000
_symmetry_Int_Tables_number   1
_chemical_formula_structural   Mg2Zn11
_chemical_formula_sum   'Mg6 Zn33'
_cell_volume   621.02266544
_cell_formula_units_Z   3
loop_
 _symmetry_equiv_pos_site_id
 _symmetry_equiv_pos_as_xyz
  1  'x, y, z'
loop_
 _atom_site_type_symbol
 _atom_site_label
 _atom_site_symmetry_multiplicity
 _atom_site_fract_x
 _atom_site_fract_y
 _atom_site_fract_z
 _atom_site_occupancy
  Mg  Mg0  1  0.80172227  0.00000000  0.50000000  1.0
  Mg  Mg1  1  0.00000000  0.50000000  0.80172227  1.0
  Mg  Mg2  1  0.00000000  0.50000000  0.19827773  1.0
  Mg  Mg3  1  0.50000000  0.80172227  0.00000000  1.0
  Mg  Mg4  1  0.50000000  0.19827773  0.00000000  1.0
  Mg  Mg5  1  0.19827773  0.00000000  0.50000000  1.0
  Zn  Zn6  1  0.00000000  0.84296338  0.73442117  1.0
  Zn  Zn7  1  0.00000000  0.84296338  0.26557883  1.0
  Zn  Zn8  1  0.00000000  0.15703662  0.73442117  1.0
  Zn  Zn9  1  0.00000000  0.15703662  0.26557883  1.0
  Zn  Zn10  1  0.84296338  0.73442117  0.00000000  1.0
  Zn  Zn11  1  0.84296338  0.26557883  0.00000000  1.0
  Zn  Zn12  1  0.73442117  0.00000000  0.84296338  1.0
  Zn  Zn13  1  0.73442117  0.00000000  0.15703662  1.0
  Zn  Zn14  1  0.15703662  0.73442117  0.00000000  1.0
  Zn  Zn15  1  0.15703662  0.26557883  0.00000000  1.0
  Zn  Zn16  1  0.26557883  0.00000000  0.84296338  1.0
  Zn  Zn17  1  0.26557883  0.00000000  0.15703662  1.0
  Zn  Zn18  1  0.71837210  0.71837210  0.71837210  1.0
  Zn  Zn19  1  0.71837210  0.71837210  0.28162790  1.0
  Zn  Zn20  1  0.71837210  0.28162790  0.71837210  1.0
  Zn  Zn21  1  0.71837210  0.28162790  0.28162790  1.0
  Zn  Zn22  1  0.28162790  0.71837210  0.71837210  1.0
  Zn  Zn23  1  0.28162790  0.71837210  0.28162790  1.0
  Zn  Zn24  1  0.28162790  0.28162790  0.71837210  1.0
  Zn  Zn25  1  0.28162790  0.28162790  0.28162790  1.0
  Zn  Zn26  1  0.73035517  0.50000000  0.50000000  1.0
  Zn  Zn27  1  0.50000000  0.50000000  0.73035517  1.0
  Zn  Zn28  1  0.50000000  0.50000000  0.26964483  1.0
  Zn  Zn29  1  0.50000000  0.73035517  0.50000000  1.0
  Zn  Zn30  1  0.50000000  0.26964483  0.50000000  1.0
  Zn  Zn31  1  0.26964483  0.50000000  0.50000000  1.0
  Zn  Zn32  1  0.66028223  0.50000000  0.00000000  1.0
  Zn  Zn33  1  0.50000000  0.00000000  0.66028223  1.0
  Zn  Zn34  1  0.50000000  0.00000000  0.33971777  1.0
  Zn  Zn35  1  0.00000000  0.66028223  0.50000000  1.0
  Zn  Zn36  1  0.00000000  0.33971777  0.50000000  1.0
  Zn  Zn37  1  0.33971777  0.50000000  0.00000000  1.0
  Zn  Zn38  1  0.00000000  0.00000000  0.00000000  1.0
