# generated using pymatgen
data_Ag2Pt(C2O5)2
_symmetry_space_group_name_H-M   'P 1'
_cell_length_a   6.60898218
_cell_length_b   6.60898218
_cell_length_c   6.49421147
_cell_angle_alpha   67.52942285
_cell_angle_beta   112.47057715
_cell_angle_gamma   90.77420504
_symmetry_Int_Tables_number   1
_chemical_formula_structural   Ag2Pt(C2O5)2
_chemical_formula_sum   'Ag2 Pt1 C4 O10'
_cell_volume   239.28358047
_cell_formula_units_Z   1
loop_
 _symmetry_equiv_pos_site_id
 _symmetry_equiv_pos_as_xyz
  1  'x, y, z'
loop_
 _atom_site_type_symbol
 _atom_site_label
 _atom_site_symmetry_multiplicity
 _atom_site_fract_x
 _atom_site_fract_y
 _atom_site_fract_z
 _atom_site_occupancy
  Ag  Ag0  1  0.68897690  0.31102310  0.54065206  1.0
  Ag  Ag1  1  1.31102310  -0.31102310  0.45934794  1.0
  O  O2  1  1.04679914  -0.75996659  0.12595767  1.0
  O  O3  1  1.75996659  -0.04679914  0.12595767  1.0
  O  O4  1  0.95320086  0.75996659  0.87404233  1.0
  O  O5  1  0.24003341  0.04679914  0.87404233  1.0
  O  O6  1  0.92514636  0.37190429  0.33636085  1.0
  O  O7  1  0.62809571  0.07485364  0.33636085  1.0
  O  O8  1  1.07485364  -0.37190429  0.66363915  1.0
  O  O9  1  1.37190429  -0.07485364  0.66363915  1.0
  O  O10  1  0.57143617  0.42856383  0.72417254  1.0
  O  O11  1  1.42856383  -0.42856383  0.27582746  1.0
  C  C12  1  0.91669254  0.24931798  0.22992910  1.0
  C  C13  1  0.75068202  0.08330746  0.22992910  1.0
  C  C14  1  1.08330746  -0.24931798  0.77007090  1.0
  C  C15  1  1.24931798  -0.08330746  0.77007090  1.0
  Pt  Pt16  1  0.00000000  0.00000000  0.00000000  1.0
