# generated using pymatgen
data_FePO4
_symmetry_space_group_name_H-M   'P 1'
_cell_length_a   4.77640167
_cell_length_b   4.77640167
_cell_length_c   6.47878007
_cell_angle_alpha   90.00000000
_cell_angle_beta   90.00000000
_cell_angle_gamma   112.40675626
_symmetry_Int_Tables_number   1
_chemical_formula_structural   FePO4
_chemical_formula_sum   'Fe2 P2 O8'
_cell_volume   136.64770692
_cell_formula_units_Z   2
loop_
 _symmetry_equiv_pos_site_id
 _symmetry_equiv_pos_as_xyz
  1  'x, y, z'
loop_
 _atom_site_type_symbol
 _atom_site_label
 _atom_site_symmetry_multiplicity
 _atom_site_fract_x
 _atom_site_fract_y
 _atom_site_fract_z
 _atom_site_occupancy
  Fe  Fe0  1  0.00000000  0.00000000  0.50000000  1.0
  Fe  Fe1  1  0.00000000  0.00000000  0.00000000  1.0
  P  P2  1  0.34652009  0.65347991  0.25000000  1.0
  P  P3  1  -0.34652009  1.34652009  0.75000000  1.0
  O  O4  1  0.22144674  0.29644431  0.25000000  1.0
  O  O5  1  -0.70355569  1.22144674  0.75000000  1.0
  O  O6  1  0.70355569  0.77855326  0.25000000  1.0
  O  O7  1  -0.22144674  1.70355569  0.75000000  1.0
  O  O8  1  0.23749132  0.76250868  0.44653913  1.0
  O  O9  1  0.23749132  0.76250868  0.05346087  1.0
  O  O10  1  -0.23749132  1.23749132  0.94653913  1.0
  O  O11  1  -0.23749132  1.23749132  0.55346087  1.0
