# generated using pymatgen
data_GaBi2B3Pb2O11
_symmetry_space_group_name_H-M   'P 1'
_cell_length_a   9.97528759
_cell_length_b   9.97528759
_cell_length_c   7.00205783
_cell_angle_alpha   88.42213044
_cell_angle_beta   91.57786956
_cell_angle_gamma   126.67956821
_symmetry_Int_Tables_number   1
_chemical_formula_structural   GaBi2B3Pb2O11
_chemical_formula_sum   'Ga2 Bi4 B6 Pb4 O22'
_cell_volume   558.51977371
_cell_formula_units_Z   2
loop_
 _symmetry_equiv_pos_site_id
 _symmetry_equiv_pos_as_xyz
  1  'x, y, z'
loop_
 _atom_site_type_symbol
 _atom_site_label
 _atom_site_symmetry_multiplicity
 _atom_site_fract_x
 _atom_site_fract_y
 _atom_site_fract_z
 _atom_site_occupancy
  Ga  Ga0  1  0.50000000  0.00000000  -0.00000000  1.0
  Ga  Ga1  1  1.00000000  0.50000000  0.50000000  1.0
  Bi  Bi2  1  0.72585177  -0.13404597  0.99906416  1.0
  Bi  Bi3  1  0.86595403  0.72585177  0.50093584  1.0
  Bi  Bi4  1  0.27414823  0.13404597  0.00093584  1.0
  Bi  Bi5  1  1.13404597  0.27414823  0.49906416  1.0
  B  B6  1  0.51374405  0.51374405  0.25000000  1.0
  B  B7  1  0.48625595  0.48625595  0.75000000  1.0
  B  B8  1  0.83597329  0.18613688  0.23484120  1.0
  B  B9  1  0.18613688  -0.16402671  0.26515880  1.0
  B  B10  1  1.16402671  0.81386312  0.76515880  1.0
  B  B11  1  0.81386312  0.16402671  0.73484120  1.0
  Pb  Pb12  1  0.74827790  0.43443851  0.05897476  1.0
  Pb  Pb13  1  0.43443851  -0.25172210  0.44102524  1.0
  Pb  Pb14  1  1.25172210  0.56556149  0.94102524  1.0
  Pb  Pb15  1  0.56556149  0.25172210  0.55897476  1.0
  O  O16  1  0.49995536  0.37624247  0.18600909  1.0
  O  O17  1  1.37624247  0.49995536  0.31399091  1.0
  O  O18  1  0.50004464  -0.37624247  0.81399091  1.0
  O  O19  1  0.62375753  0.50004464  0.68600909  1.0
  O  O20  1  0.33241951  -0.02685985  0.18203942  1.0
  O  O21  1  0.97314015  0.33241951  0.31796058  1.0
  O  O22  1  0.66758049  0.02685985  0.81796058  1.0
  O  O23  1  1.02685985  0.66758049  0.68203942  1.0
  O  O24  1  0.69882242  0.17843261  0.17282219  1.0
  O  O25  1  1.17843261  0.69882242  0.32717781  1.0
  O  O26  1  0.30117758  -0.17843261  0.82717781  1.0
  O  O27  1  0.82156739  0.30117758  0.67282219  1.0
  O  O28  1  0.85119912  0.05857197  0.22199301  1.0
  O  O29  1  1.05857197  0.85119912  0.27800699  1.0
  O  O30  1  0.14880088  -0.05857197  0.77800699  1.0
  O  O31  1  0.94142803  0.14880088  0.72199301  1.0
  O  O32  1  0.67039896  0.67039896  0.25000000  1.0
  O  O33  1  0.32960104  0.32960104  0.75000000  1.0
  O  O34  1  0.49717273  -0.18547930  0.10033573  1.0
  O  O35  1  0.81452070  0.49717273  0.39966427  1.0
  O  O36  1  0.50282727  0.18547930  0.89966427  1.0
  O  O37  1  1.18547930  0.50282727  0.60033573  1.0
