# generated using pymatgen
data_Na2OsO4
_symmetry_space_group_name_H-M   'P 1'
_cell_length_a   9.70882323
_cell_length_b   9.70882323
_cell_length_c   3.19276294
_cell_angle_alpha   90.00000000
_cell_angle_beta   90.00000000
_cell_angle_gamma   120.00000000
_symmetry_Int_Tables_number   1
_chemical_formula_structural   Na2OsO4
_chemical_formula_sum   'Na6 Os3 O12'
_cell_volume   260.63365370
_cell_formula_units_Z   3
loop_
 _symmetry_equiv_pos_site_id
 _symmetry_equiv_pos_as_xyz
  1  'x, y, z'
loop_
 _atom_site_type_symbol
 _atom_site_label
 _atom_site_symmetry_multiplicity
 _atom_site_fract_x
 _atom_site_fract_y
 _atom_site_fract_z
 _atom_site_occupancy
  Na  Na0  1  0.31008351  0.31008351  0.50000000  1.0
  Na  Na1  1  0.00000000  0.68991649  0.50000000  1.0
  Na  Na2  1  0.68991649  0.00000000  0.50000000  1.0
  Na  Na3  1  0.33333333  0.66666667  0.50000000  1.0
  Na  Na4  1  0.66666667  0.33333333  0.50000000  1.0
  Na  Na5  1  0.00000000  0.00000000  0.00000000  1.0
  Os  Os6  1  0.67250014  0.67250014  0.00000000  1.0
  Os  Os7  1  0.00000000  0.32749986  0.00000000  1.0
  Os  Os8  1  0.32749986  0.00000000  0.00000000  1.0
  O  O9  1  0.21701737  0.78603895  0.00000000  1.0
  O  O10  1  0.78603895  0.21701737  0.00000000  1.0
  O  O11  1  0.56902159  0.78298263  0.00000000  1.0
  O  O12  1  0.21396105  0.43097841  0.00000000  1.0
  O  O13  1  0.78298263  0.56902159  0.00000000  1.0
  O  O14  1  0.43097841  0.21396105  0.00000000  1.0
  O  O15  1  0.80571878  0.80571878  0.50000000  1.0
  O  O16  1  -0.00000000  0.19428122  0.50000000  1.0
  O  O17  1  0.19428122  0.00000000  0.50000000  1.0
  O  O18  1  0.54666046  0.54666046  0.50000000  1.0
  O  O19  1  0.00000000  0.45333954  0.50000000  1.0
  O  O20  1  0.45333954  0.00000000  0.50000000  1.0
