# generated using pymatgen
data_Sn2SbS2I3
_symmetry_space_group_name_H-M   'P 1'
_cell_length_a   7.65198954
_cell_length_b   7.65198954
_cell_length_c   16.12281613
_cell_angle_alpha   90.00000000
_cell_angle_beta   90.00000000
_cell_angle_gamma   147.16226409
_symmetry_Int_Tables_number   1
_chemical_formula_structural   Sn2SbS2I3
_chemical_formula_sum   'Sn4 Sb2 S4 I6'
_cell_volume   511.91584303
_cell_formula_units_Z   2
loop_
 _symmetry_equiv_pos_site_id
 _symmetry_equiv_pos_as_xyz
  1  'x, y, z'
loop_
 _atom_site_type_symbol
 _atom_site_label
 _atom_site_symmetry_multiplicity
 _atom_site_fract_x
 _atom_site_fract_y
 _atom_site_fract_z
 _atom_site_occupancy
  Sn  Sn0  1  0.36473972  0.63526028  0.97866051  1.0
  Sn  Sn1  1  0.36473972  0.63526028  0.52133949  1.0
  Sn  Sn2  1  -0.36473972  0.36473972  0.47866051  1.0
  Sn  Sn3  1  -0.36473972  0.36473972  0.02133949  1.0
  Sb  Sb4  1  -0.29655421  0.29655421  0.75000000  1.0
  Sb  Sb5  1  0.29655421  0.70344579  0.25000000  1.0
  S  S6  1  0.22954000  0.77046000  0.41493266  1.0
  S  S7  1  0.22954000  0.77046000  0.08506734  1.0
  S  S8  1  -0.22954000  0.22954000  0.91493266  1.0
  S  S9  1  -0.22954000  0.22954000  0.58506734  1.0
  I  I10  1  0.07203443  0.92796557  0.86625178  1.0
  I  I11  1  0.07203443  0.92796557  0.63374822  1.0
  I  I12  1  -0.07203443  0.07203443  0.36625178  1.0
  I  I13  1  -0.07203443  0.07203443  0.13374822  1.0
  I  I14  1  0.34936108  0.65063892  0.75000000  1.0
  I  I15  1  -0.34936108  0.34936108  0.25000000  1.0
