# generated using pymatgen
data_La2C3
_symmetry_space_group_name_H-M   'P 1'
_cell_length_a   7.64712030
_cell_length_b   7.64712030
_cell_length_c   7.64712030
_cell_angle_alpha   109.47122063
_cell_angle_beta   109.47122063
_cell_angle_gamma   109.47122063
_symmetry_Int_Tables_number   1
_chemical_formula_structural   La2C3
_chemical_formula_sum   'La8 C12'
_cell_volume   344.24835697
_cell_formula_units_Z   4
loop_
 _symmetry_equiv_pos_site_id
 _symmetry_equiv_pos_as_xyz
  1  'x, y, z'
loop_
 _atom_site_type_symbol
 _atom_site_label
 _atom_site_symmetry_multiplicity
 _atom_site_fract_x
 _atom_site_fract_y
 _atom_site_fract_z
 _atom_site_occupancy
  La  La0  1  1.39512942  1.39512942  1.39512942  1.0
  La  La1  1  1.50000000  1.00000000  1.10487058  1.0
  La  La2  1  0.89512942  0.89512942  0.89512942  1.0
  La  La3  1  0.50000000  1.00000000  0.60487058  1.0
  La  La4  1  1.00000000  1.10487058  1.50000000  1.0
  La  La5  1  1.10487058  0.50000000  1.00000000  1.0
  La  La6  1  1.00000000  0.60487058  1.50000000  1.0
  La  La7  1  0.60487058  1.50000000  1.00000000  1.0
  C  C8  1  1.20016019  0.95016019  1.25000000  1.0
  C  C9  1  0.45016019  0.70016019  0.75000000  1.0
  C  C10  1  0.25000000  1.20016019  0.95016019  1.0
  C  C11  1  0.75000000  1.29983981  0.54983981  1.0
  C  C12  1  0.70016019  0.75000000  0.45016019  1.0
  C  C13  1  0.79983981  0.25000000  1.04983981  1.0
  C  C14  1  0.95016019  0.25000000  1.20016019  1.0
  C  C15  1  0.54983981  0.75000000  0.29983981  1.0
  C  C16  1  0.75000000  1.45016019  0.70016019  1.0
  C  C17  1  0.25000000  1.04983981  0.79983981  1.0
  C  C18  1  0.29983981  0.54983981  0.75000000  1.0
  C  C19  1  1.04983981  0.79983981  1.25000000  1.0
