# generated using pymatgen
data_Ba3(AlP2)2
_symmetry_space_group_name_H-M   'P 1'
_cell_length_a   7.33661119
_cell_length_b   11.65723000
_cell_length_c   11.64498268
_cell_angle_alpha   90.00000000
_cell_angle_beta   90.00000000
_cell_angle_gamma   90.00000000
_symmetry_Int_Tables_number   1
_chemical_formula_structural   Ba3(AlP2)2
_chemical_formula_sum   'Ba12 Al8 P16'
_cell_volume   995.93206626
_cell_formula_units_Z   4
loop_
 _symmetry_equiv_pos_site_id
 _symmetry_equiv_pos_as_xyz
  1  'x, y, z'
loop_
 _atom_site_type_symbol
 _atom_site_label
 _atom_site_symmetry_multiplicity
 _atom_site_fract_x
 _atom_site_fract_y
 _atom_site_fract_z
 _atom_site_occupancy
  Ba  Ba0  1  0.42221809  0.92094320  0.64017838  1.0
  Ba  Ba1  1  0.42221809  0.57905680  0.64017838  1.0
  Ba  Ba2  1  0.92221809  0.92094320  0.85982162  1.0
  Ba  Ba3  1  0.92221809  0.57905680  0.85982162  1.0
  Ba  Ba4  1  0.57778191  0.42094320  0.35982162  1.0
  Ba  Ba5  1  0.57778191  0.07905680  0.35982162  1.0
  Ba  Ba6  1  0.07778191  0.42094320  0.14017838  1.0
  Ba  Ba7  1  0.07778191  0.07905680  0.14017838  1.0
  Ba  Ba8  1  0.40197384  0.75000000  0.26718063  1.0
  Ba  Ba9  1  0.90197384  0.75000000  0.23281937  1.0
  Ba  Ba10  1  0.59802616  0.25000000  0.73281937  1.0
  Ba  Ba11  1  0.09802616  0.25000000  0.76718063  1.0
  Al  Al12  1  0.44222198  0.87519935  0.96474017  1.0
  Al  Al13  1  0.44222198  0.62480065  0.96474017  1.0
  Al  Al14  1  0.94222198  0.87519935  0.53525983  1.0
  Al  Al15  1  0.94222198  0.62480065  0.53525983  1.0
  Al  Al16  1  0.55777802  0.37519935  0.03525983  1.0
  Al  Al17  1  0.55777802  0.12480065  0.03525983  1.0
  Al  Al18  1  0.05777802  0.37519935  0.46474017  1.0
  Al  Al19  1  0.05777802  0.12480065  0.46474017  1.0
  P  P20  1  0.34561062  0.44382071  0.88735940  1.0
  P  P21  1  0.34561062  0.05617929  0.88735940  1.0
  P  P22  1  0.84561062  0.44382071  0.61264060  1.0
  P  P23  1  0.84561062  0.05617929  0.61264060  1.0
  P  P24  1  0.65438938  0.94382071  0.11264060  1.0
  P  P25  1  0.65438938  0.55617929  0.11264060  1.0
  P  P26  1  0.15438938  0.94382071  0.38735940  1.0
  P  P27  1  0.15438938  0.55617929  0.38735940  1.0
  P  P28  1  0.19443298  0.75000000  0.02812696  1.0
  P  P29  1  0.69443298  0.75000000  0.47187304  1.0
  P  P30  1  0.80556702  0.25000000  0.97187304  1.0
  P  P31  1  0.30556702  0.25000000  0.52812696  1.0
  P  P32  1  0.09096204  0.75000000  0.66849373  1.0
  P  P33  1  0.59096204  0.75000000  0.83150627  1.0
  P  P34  1  0.90903796  0.25000000  0.33150627  1.0
  P  P35  1  0.40903796  0.25000000  0.16849373  1.0
