# generated using pymatgen
data_BHNF
_symmetry_space_group_name_H-M   'P 1'
_cell_length_a   7.10960497
_cell_length_b   7.10960497
_cell_length_c   7.10960497
_cell_angle_alpha   106.91139359
_cell_angle_beta   106.91139359
_cell_angle_gamma   106.91139359
_symmetry_Int_Tables_number   1
_chemical_formula_structural   BHNF
_chemical_formula_sum   'B6 H6 N6 F6'
_cell_volume   300.00350093
_cell_formula_units_Z   6
loop_
 _symmetry_equiv_pos_site_id
 _symmetry_equiv_pos_as_xyz
  1  'x, y, z'
loop_
 _atom_site_type_symbol
 _atom_site_label
 _atom_site_symmetry_multiplicity
 _atom_site_fract_x
 _atom_site_fract_y
 _atom_site_fract_z
 _atom_site_occupancy
  B  B0  1  0.62469613  0.75000000  -0.12469613  1.0
  B  B1  1  1.12469613  0.37530387  0.25000000  1.0
  B  B2  1  1.25000000  1.12469613  0.37530387  1.0
  B  B3  1  0.75000000  0.87530387  0.62469613  1.0
  B  B4  1  0.37530387  0.25000000  0.12469613  1.0
  B  B5  1  0.87530387  -0.37530387  -0.25000000  1.0
  H  H6  1  0.96356237  0.75000000  0.53643763  1.0
  H  H7  1  1.46356237  0.03643763  0.25000000  1.0
  H  H8  1  0.25000000  0.46356237  0.03643763  1.0
  H  H9  1  0.75000000  0.53643763  -0.03643763  1.0
  H  H10  1  1.03643763  1.25000000  0.46356237  1.0
  H  H11  1  0.53643763  -0.03643763  -0.25000000  1.0
  N  N12  1  0.87454356  0.75000000  0.62545644  1.0
  N  N13  1  1.37454356  0.12545644  0.25000000  1.0
  N  N14  1  0.25000000  0.37454356  0.12545644  1.0
  N  N15  1  0.75000000  0.62545644  -0.12545644  1.0
  N  N16  1  1.12545644  1.25000000  0.37454356  1.0
  N  N17  1  0.62545644  -0.12545644  -0.25000000  1.0
  F  F18  1  0.50546078  0.75000000  -0.00546078  1.0
  F  F19  1  1.00546078  0.49453922  0.25000000  1.0
  F  F20  1  1.25000000  1.00546078  0.49453922  1.0
  F  F21  1  0.75000000  0.99453922  0.50546078  1.0
  F  F22  1  0.49453922  0.25000000  0.00546078  1.0
  F  F23  1  0.99453922  -0.49453922  -0.25000000  1.0
