# generated using pymatgen
data_GdZnRh
_symmetry_space_group_name_H-M   'P 1'
_cell_length_a   6.98280440
_cell_length_b   4.08853334
_cell_length_c   8.14413882
_cell_angle_alpha   90.00000000
_cell_angle_beta   90.00000000
_cell_angle_gamma   90.00000000
_symmetry_Int_Tables_number   1
_chemical_formula_structural   GdZnRh
_chemical_formula_sum   'Gd4 Zn4 Rh4'
_cell_volume   232.51050991
_cell_formula_units_Z   4
loop_
 _symmetry_equiv_pos_site_id
 _symmetry_equiv_pos_as_xyz
  1  'x, y, z'
loop_
 _atom_site_type_symbol
 _atom_site_label
 _atom_site_symmetry_multiplicity
 _atom_site_fract_x
 _atom_site_fract_y
 _atom_site_fract_z
 _atom_site_occupancy
  Gd  Gd0  1  0.96375199  0.75000000  0.68504955  1.0
  Gd  Gd1  1  0.46375199  0.75000000  0.81495045  1.0
  Gd  Gd2  1  0.03624801  0.25000000  0.31495045  1.0
  Gd  Gd3  1  0.53624801  0.25000000  0.18504955  1.0
  Zn  Zn4  1  0.86153606  0.75000000  0.06365270  1.0
  Zn  Zn5  1  0.36153606  0.75000000  0.43634730  1.0
  Zn  Zn6  1  0.13846394  0.25000000  0.93634730  1.0
  Zn  Zn7  1  0.63846394  0.25000000  0.56365270  1.0
  Rh  Rh8  1  0.74201771  0.75000000  0.37753498  1.0
  Rh  Rh9  1  0.24201771  0.75000000  0.12246502  1.0
  Rh  Rh10  1  0.25798229  0.25000000  0.62246502  1.0
  Rh  Rh11  1  0.75798229  0.25000000  0.87753498  1.0
