# generated using pymatgen
data_Li6Cu(B2O5)2
_symmetry_space_group_name_H-M   'P 1'
_cell_length_a   3.36681223
_cell_length_b   9.33461591
_cell_length_c   6.81212268
_cell_angle_alpha   101.60912163
_cell_angle_beta   96.09002540
_cell_angle_gamma   89.13693252
_symmetry_Int_Tables_number   1
_chemical_formula_structural   Li6Cu(B2O5)2
_chemical_formula_sum   'Li6 Cu1 B4 O10'
_cell_volume   208.52323551
_cell_formula_units_Z   1
loop_
 _symmetry_equiv_pos_site_id
 _symmetry_equiv_pos_as_xyz
  1  'x, y, z'
loop_
 _atom_site_type_symbol
 _atom_site_label
 _atom_site_symmetry_multiplicity
 _atom_site_fract_x
 _atom_site_fract_y
 _atom_site_fract_z
 _atom_site_occupancy
  Li  Li0  1  0.98781531  0.12401512  -0.65573366  1.0
  Li  Li1  1  0.01218469  0.87598488  -0.34426634  1.0
  Li  Li2  1  0.91065223  0.53079259  -0.78537017  1.0
  Li  Li3  1  0.08934777  0.46920741  -0.21462983  1.0
  Li  Li4  1  0.46676356  0.64678056  -0.51749311  1.0
  Li  Li5  1  0.53323644  0.35321944  -0.48250689  1.0
  Cu  Cu6  1  0.50000000  -0.00000000  -0.00000000  1.0
  B  B7  1  0.86175352  0.78866385  -0.77134351  1.0
  B  B8  1  0.13824648  0.21133615  -0.22865649  1.0
  B  B9  1  0.36850553  0.31450143  -0.85461909  1.0
  B  B10  1  0.63149447  0.68549857  -0.14538091  1.0
  O  O11  1  0.95313981  0.73212061  -0.60130552  1.0
  O  O12  1  0.04686019  0.26787939  -0.39869448  1.0
  O  O13  1  0.81151766  0.93130445  -0.77760484  1.0
  O  O14  1  0.18848234  0.06869555  -0.22239516  1.0
  O  O15  1  0.81275343  0.67671078  -0.95178111  1.0
  O  O16  1  0.18724657  0.32328922  -0.04821889  1.0
  O  O17  1  0.53706061  0.81577420  -0.20125683  1.0
  O  O18  1  0.46293939  0.18422580  -0.79874317  1.0
  O  O19  1  0.43061700  0.44456867  -0.72063280  1.0
  O  O20  1  0.56938300  0.55543133  -0.27936720  1.0
