# generated using pymatgen
data_Fe2BO4
_symmetry_space_group_name_H-M   'P 1'
_cell_length_a   3.13298345
_cell_length_b   9.62395865
_cell_length_c   9.33309017
_cell_angle_alpha   90.00000000
_cell_angle_beta   89.98589423
_cell_angle_gamma   90.00000000
_symmetry_Int_Tables_number   1
_chemical_formula_structural   Fe2BO4
_chemical_formula_sum   'Fe8 B4 O16'
_cell_volume   281.40855568
_cell_formula_units_Z   4
loop_
 _symmetry_equiv_pos_site_id
 _symmetry_equiv_pos_as_xyz
  1  'x, y, z'
loop_
 _atom_site_type_symbol
 _atom_site_label
 _atom_site_symmetry_multiplicity
 _atom_site_fract_x
 _atom_site_fract_y
 _atom_site_fract_z
 _atom_site_occupancy
  Fe  Fe0  1  0.25153014  0.43434972  0.88736130  1.0
  Fe  Fe1  1  0.25153014  0.06565028  0.38736130  1.0
  Fe  Fe2  1  0.74846986  0.93434972  0.61263870  1.0
  Fe  Fe3  1  0.74846986  0.56565028  0.11263870  1.0
  Fe  Fe4  1  0.24916297  0.80716117  0.89254880  1.0
  Fe  Fe5  1  0.24916297  0.69283883  0.39254880  1.0
  Fe  Fe6  1  0.75083703  0.30716117  0.60745120  1.0
  Fe  Fe7  1  0.75083703  0.19283883  0.10745120  1.0
  B  B8  1  0.25057846  0.12251765  0.83611461  1.0
  B  B9  1  0.25057846  0.37748235  0.33611461  1.0
  B  B10  1  0.74942154  0.62251765  0.66388539  1.0
  B  B11  1  0.74942154  0.87748235  0.16388539  1.0
  O  O12  1  0.24857738  0.62289759  0.99007589  1.0
  O  O13  1  0.24857738  0.87710241  0.49007589  1.0
  O  O14  1  0.75142262  0.12289759  0.50992411  1.0
  O  O15  1  0.75142262  0.37710241  0.00992411  1.0
  O  O16  1  0.25090928  0.24621385  0.75751540  1.0
  O  O17  1  0.25090928  0.25378615  0.25751540  1.0
  O  O18  1  0.74909072  0.74621385  0.74248460  1.0
  O  O19  1  0.74909072  0.75378615  0.24248460  1.0
  O  O20  1  0.25064658  0.12834035  0.98276437  1.0
  O  O21  1  0.25064658  0.37165965  0.48276437  1.0
  O  O22  1  0.74935342  0.62834035  0.51723563  1.0
  O  O23  1  0.74935342  0.87165965  0.01723563  1.0
  O  O24  1  0.25017382  0.99376424  0.76728734  1.0
  O  O25  1  0.25017382  0.50623576  0.26728734  1.0
  O  O26  1  0.74982618  0.49376424  0.73271266  1.0
  O  O27  1  0.74982618  0.00623576  0.23271266  1.0
