# generated using pymatgen
data_CeGa6
_symmetry_space_group_name_H-M   'P 1'
_cell_length_a   6.00561602
_cell_length_b   6.00561602
_cell_length_c   7.70535097
_cell_angle_alpha   90.00000000
_cell_angle_beta   90.00000000
_cell_angle_gamma   90.00000000
_symmetry_Int_Tables_number   1
_chemical_formula_structural   CeGa6
_chemical_formula_sum   'Ce2 Ga12'
_cell_volume   277.91215861
_cell_formula_units_Z   2
loop_
 _symmetry_equiv_pos_site_id
 _symmetry_equiv_pos_as_xyz
  1  'x, y, z'
loop_
 _atom_site_type_symbol
 _atom_site_label
 _atom_site_symmetry_multiplicity
 _atom_site_fract_x
 _atom_site_fract_y
 _atom_site_fract_z
 _atom_site_occupancy
  Ce  Ce0  1  0.50000000  0.00000000  0.00000000  1.0
  Ce  Ce1  1  0.00000000  0.50000000  0.00000000  1.0
  Ga  Ga2  1  0.81710025  0.68289975  0.35193226  1.0
  Ga  Ga3  1  0.81710025  0.31710025  0.64806774  1.0
  Ga  Ga4  1  0.31710025  0.18289975  0.64806774  1.0
  Ga  Ga5  1  0.31710025  0.81710025  0.35193226  1.0
  Ga  Ga6  1  0.68289975  0.81710025  0.64806774  1.0
  Ga  Ga7  1  0.68289975  0.18289975  0.35193226  1.0
  Ga  Ga8  1  0.18289975  0.31710025  0.35193226  1.0
  Ga  Ga9  1  0.18289975  0.68289975  0.64806774  1.0
  Ga  Ga10  1  0.00000000  0.00000000  0.16133194  1.0
  Ga  Ga11  1  0.00000000  0.00000000  0.83866806  1.0
  Ga  Ga12  1  0.50000000  0.50000000  0.83866806  1.0
  Ga  Ga13  1  0.50000000  0.50000000  0.16133194  1.0
