# generated using pymatgen
data_Lu2Ge4Mo3
_symmetry_space_group_name_H-M   'P 1'
_cell_length_a   6.83923145
_cell_length_b   13.04815268
_cell_length_c   7.01348033
_cell_angle_alpha   90.00000000
_cell_angle_beta   90.00000000
_cell_angle_gamma   90.00000000
_symmetry_Int_Tables_number   1
_chemical_formula_structural   Lu2Ge4Mo3
_chemical_formula_sum   'Lu8 Ge16 Mo12'
_cell_volume   625.87832871
_cell_formula_units_Z   4
loop_
 _symmetry_equiv_pos_site_id
 _symmetry_equiv_pos_as_xyz
  1  'x, y, z'
loop_
 _atom_site_type_symbol
 _atom_site_label
 _atom_site_symmetry_multiplicity
 _atom_site_fract_x
 _atom_site_fract_y
 _atom_site_fract_z
 _atom_site_occupancy
  Lu  Lu0  1  0.01058679  0.40882957  0.82875244  1.0
  Lu  Lu1  1  0.01058679  0.09117043  0.82875244  1.0
  Lu  Lu2  1  0.51058679  0.40882957  0.67124756  1.0
  Lu  Lu3  1  0.51058679  0.09117043  0.67124756  1.0
  Lu  Lu4  1  0.98941321  0.90882957  0.17124756  1.0
  Lu  Lu5  1  0.98941321  0.59117043  0.17124756  1.0
  Lu  Lu6  1  0.48941321  0.90882957  0.32875244  1.0
  Lu  Lu7  1  0.48941321  0.59117043  0.32875244  1.0
  Ge  Ge8  1  0.17181558  0.45263048  0.45488065  1.0
  Ge  Ge9  1  0.17181558  0.04736952  0.45488065  1.0
  Ge  Ge10  1  0.67181558  0.45263048  1.04511935  1.0
  Ge  Ge11  1  0.67181558  0.04736952  1.04511935  1.0
  Ge  Ge12  1  0.82818442  0.95263048  0.54511935  1.0
  Ge  Ge13  1  0.82818442  0.54736952  0.54511935  1.0
  Ge  Ge14  1  0.32818442  0.95263048  -0.04511935  1.0
  Ge  Ge15  1  0.32818442  0.54736952  -0.04511935  1.0
  Ge  Ge16  1  0.30948187  0.25000000  0.85186549  1.0
  Ge  Ge17  1  0.80948187  0.25000000  0.64813451  1.0
  Ge  Ge18  1  0.69051813  0.75000000  0.14813451  1.0
  Ge  Ge19  1  0.19051813  0.75000000  0.35186549  1.0
  Ge  Ge20  1  0.02867648  0.25000000  0.12990312  1.0
  Ge  Ge21  1  0.52867648  0.25000000  0.37009688  1.0
  Ge  Ge22  1  0.97132352  0.75000000  0.87009688  1.0
  Ge  Ge23  1  0.47132352  0.75000000  0.62990312  1.0
  Mo  Mo24  1  0.16507944  0.25000000  0.49594431  1.0
  Mo  Mo25  1  0.66507944  0.25000000  1.00405569  1.0
  Mo  Mo26  1  0.83492056  0.75000000  0.50405569  1.0
  Mo  Mo27  1  0.33492056  0.75000000  -0.00405569  1.0
  Mo  Mo28  1  0.32925500  0.37382278  0.15557461  1.0
  Mo  Mo29  1  0.32925500  0.12617722  0.15557461  1.0
  Mo  Mo30  1  0.82925500  0.37382278  0.34442539  1.0
  Mo  Mo31  1  0.82925500  0.12617722  0.34442539  1.0
  Mo  Mo32  1  0.67074500  0.87382278  0.84442539  1.0
  Mo  Mo33  1  0.67074500  0.62617722  0.84442539  1.0
  Mo  Mo34  1  0.17074500  0.87382278  0.65557461  1.0
  Mo  Mo35  1  0.17074500  0.62617722  0.65557461  1.0
