# generated using pymatgen
data_LuPPd
_symmetry_space_group_name_H-M   'P 1'
_cell_length_a   6.79752456
_cell_length_b   3.93728268
_cell_length_c   7.71478332
_cell_angle_alpha   90.00000000
_cell_angle_beta   90.00000000
_cell_angle_gamma   90.00000000
_symmetry_Int_Tables_number   1
_chemical_formula_structural   LuPPd
_chemical_formula_sum   'Lu4 P4 Pd4'
_cell_volume   206.47673082
_cell_formula_units_Z   4
loop_
 _symmetry_equiv_pos_site_id
 _symmetry_equiv_pos_as_xyz
  1  'x, y, z'
loop_
 _atom_site_type_symbol
 _atom_site_label
 _atom_site_symmetry_multiplicity
 _atom_site_fract_x
 _atom_site_fract_y
 _atom_site_fract_z
 _atom_site_occupancy
  Lu  Lu0  1  0.96613133  0.75000000  0.68524799  1.0
  Lu  Lu1  1  0.46613133  0.75000000  0.81475201  1.0
  Lu  Lu2  1  0.03386867  0.25000000  0.31475201  1.0
  Lu  Lu3  1  0.53386867  0.25000000  0.18524799  1.0
  P  P4  1  0.75345966  0.75000000  0.37481788  1.0
  P  P5  1  0.25345966  0.75000000  0.12518212  1.0
  P  P6  1  0.24654034  0.25000000  0.62518212  1.0
  P  P7  1  0.74654034  0.25000000  0.87481788  1.0
  Pd  Pd8  1  0.85451445  0.75000000  0.06076585  1.0
  Pd  Pd9  1  0.35451445  0.75000000  0.43923415  1.0
  Pd  Pd10  1  0.14548555  0.25000000  0.93923415  1.0
  Pd  Pd11  1  0.64548555  0.25000000  0.56076585  1.0
