# generated using pymatgen
data_LaZnSbO
_symmetry_space_group_name_H-M   'P 1'
_cell_length_a   4.24705061
_cell_length_b   4.24705061
_cell_length_c   9.64151165
_cell_angle_alpha   90.00000000
_cell_angle_beta   90.00000000
_cell_angle_gamma   90.00000000
_symmetry_Int_Tables_number   1
_chemical_formula_structural   LaZnSbO
_chemical_formula_sum   'La2 Zn2 Sb2 O2'
_cell_volume   173.90817707
_cell_formula_units_Z   2
loop_
 _symmetry_equiv_pos_site_id
 _symmetry_equiv_pos_as_xyz
  1  'x, y, z'
loop_
 _atom_site_type_symbol
 _atom_site_label
 _atom_site_symmetry_multiplicity
 _atom_site_fract_x
 _atom_site_fract_y
 _atom_site_fract_z
 _atom_site_occupancy
  La  La0  1  0.50000000  0.00000000  0.62007845  1.0
  La  La1  1  0.00000000  0.50000000  0.37992155  1.0
  Zn  Zn2  1  0.00000000  0.00000000  0.00000000  1.0
  Zn  Zn3  1  0.50000000  0.50000000  0.00000000  1.0
  Sb  Sb4  1  0.50000000  0.00000000  0.17987616  1.0
  Sb  Sb5  1  0.00000000  0.50000000  0.82012384  1.0
  O  O6  1  0.00000000  0.00000000  0.50000000  1.0
  O  O7  1  0.50000000  0.50000000  0.50000000  1.0
