# generated using pymatgen
data_Gd2(Al3Co)3
_symmetry_space_group_name_H-M   'P 1'
_cell_length_a   7.39354795
_cell_length_b   7.39354795
_cell_length_c   9.34205129
_cell_angle_alpha   90.00000000
_cell_angle_beta   90.00000000
_cell_angle_gamma   60.80720832
_symmetry_Int_Tables_number   1
_chemical_formula_structural   Gd2(Al3Co)3
_chemical_formula_sum   'Gd4 Al18 Co6'
_cell_volume   445.81435038
_cell_formula_units_Z   2
loop_
 _symmetry_equiv_pos_site_id
 _symmetry_equiv_pos_as_xyz
  1  'x, y, z'
loop_
 _atom_site_type_symbol
 _atom_site_label
 _atom_site_symmetry_multiplicity
 _atom_site_fract_x
 _atom_site_fract_y
 _atom_site_fract_z
 _atom_site_occupancy
  Gd  Gd0  1  -0.00680116  1.32781577  0.25000000  1.0
  Gd  Gd1  1  0.32781577  0.99319884  0.75000000  1.0
  Gd  Gd2  1  -0.32781577  1.00680116  0.25000000  1.0
  Gd  Gd3  1  0.00680116  0.67218423  0.75000000  1.0
  Al  Al4  1  -0.00160318  0.66463506  0.42886010  1.0
  Al  Al5  1  -0.00160318  0.66463506  0.07113990  1.0
  Al  Al6  1  -0.33536494  0.99839682  0.92886010  1.0
  Al  Al7  1  -0.33536494  0.99839682  0.57113990  1.0
  Al  Al8  1  0.33536494  1.00160318  0.42886010  1.0
  Al  Al9  1  0.33536494  1.00160318  0.07113990  1.0
  Al  Al10  1  0.00160318  1.33536494  0.92886010  1.0
  Al  Al11  1  0.00160318  1.33536494  0.57113990  1.0
  Al  Al12  1  0.33857924  0.44692843  0.25000000  1.0
  Al  Al13  1  -0.55307157  1.33857924  0.75000000  1.0
  Al  Al14  1  0.55307157  0.66142076  0.25000000  1.0
  Al  Al15  1  -0.33857924  1.55307157  0.75000000  1.0
  Al  Al16  1  0.33238113  0.66761887  0.95937508  1.0
  Al  Al17  1  0.33238113  0.66761887  0.54062492  1.0
  Al  Al18  1  -0.33238113  1.33238113  0.45937508  1.0
  Al  Al19  1  -0.33238113  1.33238113  0.04062492  1.0
  Al  Al20  1  0.12580623  0.87419377  0.25000000  1.0
  Al  Al21  1  -0.12580623  1.12580623  0.75000000  1.0
  Co  Co22  1  0.67064922  0.67064922  0.50000000  1.0
  Co  Co23  1  0.67064922  0.67064922  0.00000000  1.0
  Co  Co24  1  0.32935078  0.32935078  0.50000000  1.0
  Co  Co25  1  0.32935078  0.32935078  0.00000000  1.0
  Co  Co26  1  0.00000000  0.00000000  0.50000000  1.0
  Co  Co27  1  0.00000000  0.00000000  0.00000000  1.0
