# generated using pymatgen
data_LaSiRh
_symmetry_space_group_name_H-M   'P 1'
_cell_length_a   6.40787613
_cell_length_b   6.40787613
_cell_length_c   6.40787613
_cell_angle_alpha   90.00000000
_cell_angle_beta   90.00000000
_cell_angle_gamma   90.00000000
_symmetry_Int_Tables_number   1
_chemical_formula_structural   LaSiRh
_chemical_formula_sum   'La4 Si4 Rh4'
_cell_volume   263.11301087
_cell_formula_units_Z   4
loop_
 _symmetry_equiv_pos_site_id
 _symmetry_equiv_pos_as_xyz
  1  'x, y, z'
loop_
 _atom_site_type_symbol
 _atom_site_label
 _atom_site_symmetry_multiplicity
 _atom_site_fract_x
 _atom_site_fract_y
 _atom_site_fract_z
 _atom_site_occupancy
  La  La0  1  0.61409130  1.11409130  0.38590870  1.0
  La  La1  1  1.11409130  0.38590870  0.61409130  1.0
  La  La2  1  0.38590870  0.61409130  1.11409130  1.0
  La  La3  1  -0.11409130  -0.11409130  -0.11409130  1.0
  Si  Si4  1  0.91158269  0.41158269  0.08841731  1.0
  Si  Si5  1  0.41158269  0.08841731  0.91158269  1.0
  Si  Si6  1  0.08841731  0.91158269  0.41158269  1.0
  Si  Si7  1  0.58841731  0.58841731  0.58841731  1.0
  Rh  Rh8  1  0.32793926  0.82793926  0.67206074  1.0
  Rh  Rh9  1  0.82793926  0.67206074  0.32793926  1.0
  Rh  Rh10  1  0.67206074  0.32793926  0.82793926  1.0
  Rh  Rh11  1  0.17206074  0.17206074  0.17206074  1.0
