# generated using pymatgen
data_LuAsPd
_symmetry_space_group_name_H-M   'P 1'
_cell_length_a   7.02675949
_cell_length_b   7.02675949
_cell_length_c   3.94072576
_cell_angle_alpha   90.00000000
_cell_angle_beta   90.00000000
_cell_angle_gamma   120.00000000
_symmetry_Int_Tables_number   1
_chemical_formula_structural   LuAsPd
_chemical_formula_sum   'Lu3 As3 Pd3'
_cell_volume   168.50664120
_cell_formula_units_Z   3
loop_
 _symmetry_equiv_pos_site_id
 _symmetry_equiv_pos_as_xyz
  1  'x, y, z'
loop_
 _atom_site_type_symbol
 _atom_site_label
 _atom_site_symmetry_multiplicity
 _atom_site_fract_x
 _atom_site_fract_y
 _atom_site_fract_z
 _atom_site_occupancy
  Lu  Lu0  1  0.40396778  0.40396778  0.00000000  1.0
  Lu  Lu1  1  0.00000000  0.59603222  0.00000000  1.0
  Lu  Lu2  1  0.59603222  -0.00000000  -0.00000000  1.0
  As  As3  1  0.33333333  0.66666667  0.50000000  1.0
  As  As4  1  0.66666667  0.33333333  0.50000000  1.0
  As  As5  1  0.00000000  0.00000000  0.00000000  1.0
  Pd  Pd6  1  0.73583956  0.73583956  0.50000000  1.0
  Pd  Pd7  1  0.00000000  0.26416044  0.50000000  1.0
  Pd  Pd8  1  0.26416044  -0.00000000  0.50000000  1.0
