# generated using pymatgen
data_Sr6(RhO3)5
_symmetry_space_group_name_H-M   'P 1'
_cell_length_a   7.15313058
_cell_length_b   7.15313058
_cell_length_c   7.15313058
_cell_angle_alpha   85.85967463
_cell_angle_beta   85.85967463
_cell_angle_gamma   85.85967463
_symmetry_Int_Tables_number   1
_chemical_formula_structural   Sr6(RhO3)5
_chemical_formula_sum   'Sr6 Rh5 O15'
_cell_volume   363.27189660
_cell_formula_units_Z   1
loop_
 _symmetry_equiv_pos_site_id
 _symmetry_equiv_pos_as_xyz
  1  'x, y, z'
loop_
 _atom_site_type_symbol
 _atom_site_label
 _atom_site_symmetry_multiplicity
 _atom_site_fract_x
 _atom_site_fract_y
 _atom_site_fract_z
 _atom_site_occupancy
  O  O0  1  0.51920386  0.84770048  -0.28843274  1.0
  O  O1  1  1.28843274  1.15229952  0.48079614  1.0
  O  O2  1  1.15229952  1.48079614  0.28843274  1.0
  O  O3  1  1.48079614  1.28843274  0.15229952  1.0
  O  O4  1  0.71156726  0.51920386  -0.15229952  1.0
  O  O5  1  0.84770048  0.71156726  -0.48079614  1.0
  O  O6  1  0.77089659  -0.15447281  0.06664898  1.0
  O  O7  1  0.93335102  0.15447281  -0.77089659  1.0
  O  O8  1  0.15447281  0.22910341  -0.06664898  1.0
  O  O9  1  0.22910341  0.93335102  -0.84552719  1.0
  O  O10  1  1.06664898  -0.22910341  -0.15447281  1.0
  O  O11  1  0.84552719  0.06664898  -0.22910341  1.0
  O  O12  1  0.33552930  0.50000000  -0.33552930  1.0
  O  O13  1  0.50000000  0.66447070  -0.66447070  1.0
  O  O14  1  0.66447070  0.33552930  -0.50000000  1.0
  Sr  Sr15  1  0.81701901  0.50000000  -0.81701901  1.0
  Sr  Sr16  1  0.50000000  0.18298099  -0.18298099  1.0
  Sr  Sr17  1  0.18298099  0.81701901  -0.50000000  1.0
  Sr  Sr18  1  0.64640522  1.00000000  -0.64640522  1.0
  Sr  Sr19  1  0.00000000  0.35359478  -0.35359478  1.0
  Sr  Sr20  1  0.35359478  -0.35359478  -0.00000000  1.0
  Rh  Rh21  1  0.79311523  0.79311523  -0.20688477  1.0
  Rh  Rh22  1  1.20688477  1.20688477  0.20688477  1.0
  Rh  Rh23  1  0.59675409  0.59675409  -0.40324591  1.0
  Rh  Rh24  1  0.40324591  0.40324591  -0.59675409  1.0
  Rh  Rh25  1  0.00000000  0.00000000  0.00000000  1.0
