# generated using pymatgen
data_RbPPbS4
_symmetry_space_group_name_H-M   'P 1'
_cell_length_a   6.72700503
_cell_length_b   6.87175826
_cell_length_c   17.47839409
_cell_angle_alpha   90.00000000
_cell_angle_beta   90.00000000
_cell_angle_gamma   90.00000000
_symmetry_Int_Tables_number   1
_chemical_formula_structural   RbPPbS4
_chemical_formula_sum   'Rb4 P4 Pb4 S16'
_cell_volume   807.96240458
_cell_formula_units_Z   4
loop_
 _symmetry_equiv_pos_site_id
 _symmetry_equiv_pos_as_xyz
  1  'x, y, z'
loop_
 _atom_site_type_symbol
 _atom_site_label
 _atom_site_symmetry_multiplicity
 _atom_site_fract_x
 _atom_site_fract_y
 _atom_site_fract_z
 _atom_site_occupancy
  Rb  Rb0  1  0.47936062  0.49716139  0.53827052  1.0
  Rb  Rb1  1  -0.02063938  0.00283861  0.46172948  1.0
  Rb  Rb2  1  0.52063938  0.99716139  0.96172948  1.0
  Rb  Rb3  1  1.02063938  0.50283861  0.03827052  1.0
  P  P4  1  0.27848791  0.98610036  0.65644693  1.0
  P  P5  1  0.77848791  0.51389964  0.34355307  1.0
  P  P6  1  0.72151209  0.48610036  0.84355307  1.0
  P  P7  1  0.22151209  0.01389964  0.15644693  1.0
  Pb  Pb8  1  0.22035694  0.53573109  0.77198866  1.0
  Pb  Pb9  1  0.72035694  0.96426891  0.22801134  1.0
  Pb  Pb10  1  0.77964306  0.03573109  0.72801134  1.0
  Pb  Pb11  1  0.27964306  0.46426891  0.27198866  1.0
  S  S12  1  0.47252930  0.49637313  0.91154740  1.0
  S  S13  1  0.97252930  0.00362687  0.08845260  1.0
  S  S14  1  0.52747070  0.99637313  0.58845260  1.0
  S  S15  1  0.02747070  0.50362687  0.41154740  1.0
  S  S16  1  0.38708576  0.76499560  0.13995869  1.0
  S  S17  1  0.88708576  0.73500440  0.86004131  1.0
  S  S18  1  0.61291424  0.26499560  0.36004131  1.0
  S  S19  1  0.11291424  0.23500440  0.63995869  1.0
  S  S20  1  0.35717209  0.95416049  0.77084789  1.0
  S  S21  1  0.85717209  0.54583951  0.22915211  1.0
  S  S22  1  0.64282791  0.45416049  0.72915211  1.0
  S  S23  1  0.14282791  0.04583951  0.27084789  1.0
  S  S24  1  0.09932438  0.75386657  0.62927149  1.0
  S  S25  1  0.59932438  0.74613343  0.37072851  1.0
  S  S26  1  0.90067562  0.25386657  0.87072851  1.0
  S  S27  1  0.40067562  0.24613343  0.12927149  1.0
