# generated using pymatgen
data_B2Mo3
_symmetry_space_group_name_H-M   'P 1'
_cell_length_a   6.02572880
_cell_length_b   6.02572880
_cell_length_c   3.15267061
_cell_angle_alpha   90.00000000
_cell_angle_beta   90.00000000
_cell_angle_gamma   90.00000000
_symmetry_Int_Tables_number   1
_chemical_formula_structural   B2Mo3
_chemical_formula_sum   'B4 Mo6'
_cell_volume   114.47160224
_cell_formula_units_Z   2
loop_
 _symmetry_equiv_pos_site_id
 _symmetry_equiv_pos_as_xyz
  1  'x, y, z'
loop_
 _atom_site_type_symbol
 _atom_site_label
 _atom_site_symmetry_multiplicity
 _atom_site_fract_x
 _atom_site_fract_y
 _atom_site_fract_z
 _atom_site_occupancy
  B  B0  1  0.88712643  0.61287357  0.00000000  1.0
  B  B1  1  0.38712643  0.88712643  0.00000000  1.0
  B  B2  1  0.11287357  0.38712643  0.00000000  1.0
  B  B3  1  0.61287357  0.11287357  0.00000000  1.0
  Mo  Mo4  1  0.32760350  0.17239650  0.50000000  1.0
  Mo  Mo5  1  0.82760350  0.32760350  0.50000000  1.0
  Mo  Mo6  1  0.67239650  0.82760350  0.50000000  1.0
  Mo  Mo7  1  0.17239650  0.67239650  0.50000000  1.0
  Mo  Mo8  1  0.50000000  0.50000000  0.00000000  1.0
  Mo  Mo9  1  0.00000000  0.00000000  0.00000000  1.0
