# generated using pymatgen
data_CaNi3(P2O7)2
_symmetry_space_group_name_H-M   'P 1'
_cell_length_a   7.40798682
_cell_length_b   7.68990740
_cell_length_c   9.47447218
_cell_angle_alpha   90.00000000
_cell_angle_beta   112.02478503
_cell_angle_gamma   90.00000000
_symmetry_Int_Tables_number   1
_chemical_formula_structural   CaNi3(P2O7)2
_chemical_formula_sum   'Ca2 Ni6 P8 O28'
_cell_volume   500.34117693
_cell_formula_units_Z   2
loop_
 _symmetry_equiv_pos_site_id
 _symmetry_equiv_pos_as_xyz
  1  'x, y, z'
loop_
 _atom_site_type_symbol
 _atom_site_label
 _atom_site_symmetry_multiplicity
 _atom_site_fract_x
 _atom_site_fract_y
 _atom_site_fract_z
 _atom_site_occupancy
  Ni  Ni0  1  0.81582350  0.37211766  0.97706016  1.0
  Ni  Ni1  1  0.81582350  0.12788234  0.47706016  1.0
  Ni  Ni2  1  0.18417650  0.87211766  0.52293984  1.0
  Ni  Ni3  1  0.18417650  0.62788234  0.02293984  1.0
  Ni  Ni4  1  0.00000000  0.00000000  0.00000000  1.0
  Ni  Ni5  1  -0.00000000  0.50000000  0.50000000  1.0
  O  O6  1  0.83173988  0.62249324  0.60631888  1.0
  O  O7  1  0.83173988  0.87750676  0.10631888  1.0
  O  O8  1  0.16826012  0.12249324  0.89368112  1.0
  O  O9  1  0.16826012  0.37750676  0.39368112  1.0
  O  O10  1  0.67511071  0.87683511  0.67522762  1.0
  O  O11  1  0.67511071  0.62316489  0.17522762  1.0
  O  O12  1  0.32488929  0.37683511  0.82477238  1.0
  O  O13  1  0.32488929  0.12316489  0.32477238  1.0
  O  O14  1  0.60842155  0.52307113  0.80462505  1.0
  O  O15  1  0.60842155  0.97692887  0.30462505  1.0
  O  O16  1  0.39157845  0.02307113  0.69537495  1.0
  O  O17  1  0.39157845  0.47692887  0.19537495  1.0
  O  O18  1  0.37907921  0.69280903  0.91239318  1.0
  O  O19  1  0.37907921  0.80719097  0.41239318  1.0
  O  O20  1  0.62092079  0.19280903  0.58760682  1.0
  O  O21  1  0.62092079  0.30719097  0.08760682  1.0
  O  O22  1  0.27419135  0.61777685  0.62842755  1.0
  O  O23  1  0.27419135  0.88222315  0.12842755  1.0
  O  O24  1  0.72580865  0.11777685  0.87157245  1.0
  O  O25  1  0.72580865  0.38222315  0.37157245  1.0
  O  O26  1  0.99392546  0.78863681  0.86486045  1.0
  O  O27  1  0.99392546  0.71136319  0.36486045  1.0
  O  O28  1  0.00607454  0.28863681  0.63513955  1.0
  O  O29  1  0.00607454  0.21136319  0.13513955  1.0
  O  O30  1  0.97293562  0.92520722  0.61120715  1.0
  O  O31  1  0.97293562  0.57479278  0.11120715  1.0
  O  O32  1  0.02706438  0.42520722  0.88879285  1.0
  O  O33  1  0.02706438  0.07479278  0.38879285  1.0
  Ca  Ca34  1  0.50000000  0.00000000  -0.00000000  1.0
  Ca  Ca35  1  0.50000000  0.50000000  0.50000000  1.0
  P  P36  1  0.88228576  0.79646516  0.69091745  1.0
  P  P37  1  0.88228576  0.70353484  0.19091745  1.0
  P  P38  1  0.11771424  0.29646516  0.80908255  1.0
  P  P39  1  0.11771424  0.20353484  0.30908255  1.0
  P  P40  1  0.40256314  0.56501792  0.79656230  1.0
  P  P41  1  0.40256314  0.93498208  0.29656230  1.0
  P  P42  1  0.59743686  0.06501792  0.70343770  1.0
  P  P43  1  0.59743686  0.43498208  0.20343770  1.0
