# generated using pymatgen
data_KVP2O7
_symmetry_space_group_name_H-M   'P 1'
_cell_length_a   7.48976649
_cell_length_b   10.19005169
_cell_length_c   8.27875900
_cell_angle_alpha   90.00000000
_cell_angle_beta   106.79725789
_cell_angle_gamma   90.00000000
_symmetry_Int_Tables_number   1
_chemical_formula_structural   KVP2O7
_chemical_formula_sum   'K4 V4 P8 O28'
_cell_volume   604.88537452
_cell_formula_units_Z   4
loop_
 _symmetry_equiv_pos_site_id
 _symmetry_equiv_pos_as_xyz
  1  'x, y, z'
loop_
 _atom_site_type_symbol
 _atom_site_label
 _atom_site_symmetry_multiplicity
 _atom_site_fract_x
 _atom_site_fract_y
 _atom_site_fract_z
 _atom_site_occupancy
  K  K0  1  0.82204058  0.82480665  0.44425988  1.0
  K  K1  1  0.82204058  0.67519335  0.94425988  1.0
  K  K2  1  0.17795942  0.32480665  0.05574012  1.0
  K  K3  1  0.17795942  0.17519335  0.55574012  1.0
  V  V4  1  0.76330171  0.39906174  0.23839163  1.0
  V  V5  1  0.76330171  0.10093826  0.73839163  1.0
  V  V6  1  0.23669829  0.89906174  0.26160837  1.0
  V  V7  1  0.23669829  0.60093826  0.76160837  1.0
  P  P8  1  0.86584709  0.09758796  0.16892288  1.0
  P  P9  1  0.86584709  0.40241204  0.66892288  1.0
  P  P10  1  0.13415291  0.59758796  0.33107712  1.0
  P  P11  1  0.13415291  0.90241204  0.83107712  1.0
  P  P12  1  0.55791953  0.13662552  0.30814178  1.0
  P  P13  1  0.55791953  0.36337448  0.80814178  1.0
  P  P14  1  0.44208047  0.63662552  0.19185822  1.0
  P  P15  1  0.44208047  0.86337448  0.69185822  1.0
  O  O16  1  -0.00017632  0.49718137  0.22221846  1.0
  O  O17  1  -0.00017632  0.00281863  0.72221846  1.0
  O  O18  1  1.00017632  0.99718137  0.27778154  1.0
  O  O19  1  1.00017632  0.50281863  0.77778154  1.0
  O  O20  1  0.91656554  0.23681902  0.24253714  1.0
  O  O21  1  0.91656554  0.26318098  0.74253714  1.0
  O  O22  1  0.08343446  0.73681902  0.25746286  1.0
  O  O23  1  0.08343446  0.76318098  0.75746286  1.0
  O  O24  1  0.85445567  0.40802451  0.48289949  1.0
  O  O25  1  0.85445567  0.09197549  0.98289949  1.0
  O  O26  1  0.14554433  0.90802451  0.01710051  1.0
  O  O27  1  0.14554433  0.59197549  0.51710051  1.0
  O  O28  1  0.68045762  0.10690768  0.48776231  1.0
  O  O29  1  0.68045762  0.39309232  0.98776231  1.0
  O  O30  1  0.31954238  0.60690768  0.01223769  1.0
  O  O31  1  0.31954238  0.89309232  0.51223769  1.0
  O  O32  1  0.65992757  0.05983269  0.18446894  1.0
  O  O33  1  0.65992757  0.44016731  0.68446894  1.0
  O  O34  1  0.34007243  0.55983269  0.31553106  1.0
  O  O35  1  0.34007243  0.94016731  0.81553106  1.0
  O  O36  1  0.54440808  0.28233493  0.25728407  1.0
  O  O37  1  0.54440808  0.21766507  0.75728407  1.0
  O  O38  1  0.45559192  0.78233493  0.24271593  1.0
  O  O39  1  0.45559192  0.71766507  0.74271593  1.0
  O  O40  1  0.36174399  0.07689791  0.26827246  1.0
  O  O41  1  0.36174399  0.42310209  0.76827246  1.0
  O  O42  1  0.63825601  0.57689791  0.23172754  1.0
  O  O43  1  0.63825601  0.92310209  0.73172754  1.0
