# generated using pymatgen
data_Ca3AsI3
_symmetry_space_group_name_H-M   'P 1'
_cell_length_a   10.87210834
_cell_length_b   10.87210834
_cell_length_c   10.87210834
_cell_angle_alpha   109.47122063
_cell_angle_beta   109.47122063
_cell_angle_gamma   109.47122063
_symmetry_Int_Tables_number   1
_chemical_formula_structural   Ca3AsI3
_chemical_formula_sum   'Ca12 As4 I12'
_cell_volume   989.28044184
_cell_formula_units_Z   4
loop_
 _symmetry_equiv_pos_site_id
 _symmetry_equiv_pos_as_xyz
  1  'x, y, z'
loop_
 _atom_site_type_symbol
 _atom_site_label
 _atom_site_symmetry_multiplicity
 _atom_site_fract_x
 _atom_site_fract_y
 _atom_site_fract_z
 _atom_site_occupancy
  Ca  Ca0  1  1.75000000  1.23381835  1.26618165  1.0
  Ca  Ca1  1  0.75000000  1.01618165  0.48381835  1.0
  Ca  Ca2  1  1.03236331  0.26618165  1.01618165  1.0
  Ca  Ca3  1  0.46763669  0.48381835  0.23381835  1.0
  Ca  Ca4  1  1.26618165  1.01618165  1.03236331  1.0
  Ca  Ca5  1  1.23381835  1.26618165  0.75000000  1.0
  Ca  Ca6  1  1.01618165  1.03236331  0.26618165  1.0
  Ca  Ca7  1  1.48381835  0.75000000  1.01618165  1.0
  Ca  Ca8  1  1.01618165  1.48381835  0.75000000  1.0
  Ca  Ca9  1  1.48381835  1.23381835  1.46763669  1.0
  Ca  Ca10  1  0.23381835  0.46763669  0.48381835  1.0
  Ca  Ca11  1  1.26618165  0.75000000  1.23381835  1.0
  As  As12  1  1.50000000  1.00000000  1.25000000  1.0
  As  As13  1  1.00000000  1.25000000  0.50000000  1.0
  As  As14  1  0.25000000  0.25000000  0.25000000  1.0
  As  As15  1  1.25000000  0.50000000  1.00000000  1.0
  I  I16  1  0.50356419  0.50178209  0.75178209  1.0
  I  I17  1  0.99643581  0.74821791  0.99821791  1.0
  I  I18  1  1.25000000  0.75178209  0.74821791  1.0
  I  I19  1  1.25000000  0.99821791  0.50178209  1.0
  I  I20  1  0.99821791  1.50178209  1.25000000  1.0
  I  I21  1  1.50178209  1.75178209  1.50356419  1.0
  I  I22  1  0.74821791  0.25000000  0.75178209  1.0
  I  I23  1  0.75178209  0.50356419  0.50178209  1.0
  I  I24  1  0.99821791  0.99643581  0.74821791  1.0
  I  I25  1  1.50178209  1.25000000  0.99821791  1.0
  I  I26  1  0.75178209  0.74821791  0.25000000  1.0
  I  I27  1  1.74821791  0.99821791  0.99643581  1.0
