# generated using pymatgen
data_N2
_symmetry_space_group_name_H-M   'P 1'
_cell_length_a   7.94522877
_cell_length_b   3.88992449
_cell_length_c   7.94371989
_cell_angle_alpha   90.00000000
_cell_angle_beta   90.00000000
_cell_angle_gamma   90.00000000
_symmetry_Int_Tables_number   1
_chemical_formula_structural   N2
_chemical_formula_sum   N16
_cell_volume   245.51130739
_cell_formula_units_Z   8
loop_
 _symmetry_equiv_pos_site_id
 _symmetry_equiv_pos_as_xyz
  1  'x, y, z'
loop_
 _atom_site_type_symbol
 _atom_site_label
 _atom_site_symmetry_multiplicity
 _atom_site_fract_x
 _atom_site_fract_y
 _atom_site_fract_z
 _atom_site_occupancy
  N  N0  1  0.50000000  0.00000000  0.50000000  1.0
  N  N1  1  0.00000000  0.00000000  0.00000000  1.0
  N  N2  1  0.00000000  0.00000000  0.50000000  1.0
  N  N3  1  0.50000000  0.00000000  0.00000000  1.0
  N  N4  1  0.25000000  0.00365379  0.75000000  1.0
  N  N5  1  0.25000000  0.99634621  0.25000000  1.0
  N  N6  1  0.75000000  0.99634621  0.25000000  1.0
  N  N7  1  0.75000000  0.00365379  0.75000000  1.0
  N  N8  1  0.35039823  0.00000000  0.50000000  1.0
  N  N9  1  0.14960177  0.00000000  0.00000000  1.0
  N  N10  1  0.64960177  0.00000000  0.50000000  1.0
  N  N11  1  0.85039823  0.00000000  -0.00000000  1.0
  N  N12  1  0.00000000  1.00326422  0.64962230  1.0
  N  N13  1  -0.00000000  -0.00326422  0.35037770  1.0
  N  N14  1  0.50000000  1.00326422  0.85037770  1.0
  N  N15  1  0.50000000  -0.00326422  0.14962230  1.0
