# generated using pymatgen
data_CuAu(CN)2
_symmetry_space_group_name_H-M   'P 1'
_cell_length_a   6.33056161
_cell_length_b   6.33056161
_cell_length_c   9.87255815
_cell_angle_alpha   90.00000000
_cell_angle_beta   90.00000000
_cell_angle_gamma   120.00000000
_symmetry_Int_Tables_number   1
_chemical_formula_structural   CuAu(CN)2
_chemical_formula_sum   'Cu3 Au3 C6 N6'
_cell_volume   342.64532558
_cell_formula_units_Z   3
loop_
 _symmetry_equiv_pos_site_id
 _symmetry_equiv_pos_as_xyz
  1  'x, y, z'
loop_
 _atom_site_type_symbol
 _atom_site_label
 _atom_site_symmetry_multiplicity
 _atom_site_fract_x
 _atom_site_fract_y
 _atom_site_fract_z
 _atom_site_occupancy
  Cu  Cu0  1  0.33333333  0.66666667  0.50000000  1.0
  Cu  Cu1  1  0.66666667  0.33333333  0.50000000  1.0
  Cu  Cu2  1  0.00000000  0.00000000  0.00000000  1.0
  Au  Au3  1  0.33333333  0.66666667  0.00000000  1.0
  Au  Au4  1  0.66666667  0.33333333  0.00000000  1.0
  Au  Au5  1  0.00000000  0.00000000  0.50000000  1.0
  C  C6  1  0.33333333  0.66666667  0.80043977  1.0
  C  C7  1  0.33333333  0.66666667  0.19956023  1.0
  C  C8  1  0.66666667  0.33333333  0.80043977  1.0
  C  C9  1  0.66666667  0.33333333  0.19956023  1.0
  C  C10  1  0.00000000  0.00000000  0.69937565  1.0
  C  C11  1  0.00000000  0.00000000  0.30062435  1.0
  N  N12  1  0.33333333  0.66666667  0.68224889  1.0
  N  N13  1  0.33333333  0.66666667  0.31775111  1.0
  N  N14  1  0.66666667  0.33333333  0.68224889  1.0
  N  N15  1  0.66666667  0.33333333  0.31775111  1.0
  N  N16  1  0.00000000  0.00000000  0.81753863  1.0
  N  N17  1  0.00000000  0.00000000  0.18246137  1.0
