# generated using pymatgen
data_Cd(BiO3)2
_symmetry_space_group_name_H-M   'P 1'
_cell_length_a   9.47872945
_cell_length_b   9.47872945
_cell_length_c   5.03450210
_cell_angle_alpha   90.00000000
_cell_angle_beta   90.00000000
_cell_angle_gamma   120.00000000
_symmetry_Int_Tables_number   1
_chemical_formula_structural   Cd(BiO3)2
_chemical_formula_sum   'Cd3 Bi6 O18'
_cell_volume   391.73052295
_cell_formula_units_Z   3
loop_
 _symmetry_equiv_pos_site_id
 _symmetry_equiv_pos_as_xyz
  1  'x, y, z'
loop_
 _atom_site_type_symbol
 _atom_site_label
 _atom_site_symmetry_multiplicity
 _atom_site_fract_x
 _atom_site_fract_y
 _atom_site_fract_z
 _atom_site_occupancy
  Cd  Cd0  1  0.36860219  0.00000000  0.00000000  1.0
  Cd  Cd1  1  0.00000000  0.36860219  0.00000000  1.0
  Cd  Cd2  1  0.63139781  0.63139781  0.00000000  1.0
  Bi  Bi3  1  0.00000000  0.00000000  0.00000000  1.0
  Bi  Bi4  1  0.33333333  0.66666667  0.50547249  1.0
  Bi  Bi5  1  0.66666667  0.33333333  0.49452751  1.0
  Bi  Bi6  1  0.30173729  0.30173729  0.50000000  1.0
  Bi  Bi7  1  0.69826271  0.00000000  0.50000000  1.0
  Bi  Bi8  1  -0.00000000  0.69826271  0.50000000  1.0
  O  O9  1  0.11704766  0.90282090  0.76164438  1.0
  O  O10  1  0.09717910  0.21422676  0.76164438  1.0
  O  O11  1  0.78577324  0.88295234  0.76164438  1.0
  O  O12  1  0.90282090  0.11704766  0.23835562  1.0
  O  O13  1  0.21422676  0.09717910  0.23835562  1.0
  O  O14  1  0.88295234  0.78577324  0.23835562  1.0
  O  O15  1  0.40873005  0.52628520  0.73186766  1.0
  O  O16  1  0.47371480  0.88244485  0.73186766  1.0
  O  O17  1  0.11755515  0.59126995  0.73186766  1.0
  O  O18  1  0.52628520  0.40873005  0.26813234  1.0
  O  O19  1  0.88244485  0.47371480  0.26813234  1.0
  O  O20  1  0.59126995  0.11755515  0.26813234  1.0
  O  O21  1  0.21946278  0.77384910  0.27481261  1.0
  O  O22  1  0.22615090  0.44561368  0.27481261  1.0
  O  O23  1  0.55438632  0.78053722  0.27481261  1.0
  O  O24  1  0.77384910  0.21946278  0.72518739  1.0
  O  O25  1  0.44561368  0.22615090  0.72518739  1.0
  O  O26  1  0.78053722  0.55438632  0.72518739  1.0
