# generated using pymatgen
data_W2N3
_symmetry_space_group_name_H-M   'P 1'
_cell_length_a   2.91211853
_cell_length_b   2.91211853
_cell_length_c   16.70110117
_cell_angle_alpha   90.00000000
_cell_angle_beta   90.00000000
_cell_angle_gamma   120.00000000
_symmetry_Int_Tables_number   1
_chemical_formula_structural   W2N3
_chemical_formula_sum   'W4 N6'
_cell_volume   122.65742252
_cell_formula_units_Z   2
loop_
 _symmetry_equiv_pos_site_id
 _symmetry_equiv_pos_as_xyz
  1  'x, y, z'
loop_
 _atom_site_type_symbol
 _atom_site_label
 _atom_site_symmetry_multiplicity
 _atom_site_fract_x
 _atom_site_fract_y
 _atom_site_fract_z
 _atom_site_occupancy
  W  W0  1  0.33333333  0.66666667  0.83794432  1.0
  W  W1  1  0.33333333  0.66666667  0.66205568  1.0
  W  W2  1  0.66666667  0.33333333  0.33794432  1.0
  W  W3  1  0.66666667  0.33333333  0.16205568  1.0
  N  N4  1  0.33333333  0.66666667  0.40466953  1.0
  N  N5  1  0.33333333  0.66666667  0.09533047  1.0
  N  N6  1  0.66666667  0.33333333  0.90466953  1.0
  N  N7  1  0.66666667  0.33333333  0.59533047  1.0
  N  N8  1  0.33333333  0.66666667  0.25000000  1.0
  N  N9  1  0.66666667  0.33333333  0.75000000  1.0
