# generated using pymatgen
data_Cs2(PSe2)3
_symmetry_space_group_name_H-M   'P 1'
_cell_length_a   11.01635279
_cell_length_b   10.92009430
_cell_length_c   15.77935433
_cell_angle_alpha   90.00000000
_cell_angle_beta   124.89140184
_cell_angle_gamma   90.00000000
_symmetry_Int_Tables_number   1
_chemical_formula_structural   Cs2(PSe2)3
_chemical_formula_sum   'Cs8 P12 Se24'
_cell_volume   1557.01642222
_cell_formula_units_Z   4
loop_
 _symmetry_equiv_pos_site_id
 _symmetry_equiv_pos_as_xyz
  1  'x, y, z'
loop_
 _atom_site_type_symbol
 _atom_site_label
 _atom_site_symmetry_multiplicity
 _atom_site_fract_x
 _atom_site_fract_y
 _atom_site_fract_z
 _atom_site_occupancy
  Cs  Cs0  1  0.75382931  0.49488695  0.24308502  1.0
  Cs  Cs1  1  0.75382931  0.00511305  0.74308502  1.0
  Cs  Cs2  1  0.24617069  0.99488695  0.25691498  1.0
  Cs  Cs3  1  0.24617069  0.50511305  0.75691498  1.0
  Cs  Cs4  1  0.33887296  0.49544741  0.32131095  1.0
  Cs  Cs5  1  0.33887296  0.00455259  0.82131095  1.0
  Cs  Cs6  1  0.66112704  0.99544741  0.17868905  1.0
  Cs  Cs7  1  0.66112704  0.50455259  0.67868905  1.0
  P  P8  1  0.99768778  0.44987670  0.06128365  1.0
  P  P9  1  0.99768778  0.05012330  0.56128365  1.0
  P  P10  1  0.00231222  0.94987670  0.43871635  1.0
  P  P11  1  0.00231222  0.55012330  0.93871635  1.0
  P  P12  1  0.85368813  0.18312139  0.05281642  1.0
  P  P13  1  0.85368813  0.31687861  0.55281642  1.0
  P  P14  1  0.14631187  0.68312139  0.44718358  1.0
  P  P15  1  0.14631187  0.81687861  0.94718358  1.0
  P  P16  1  0.64350983  0.19976887  0.44754645  1.0
  P  P17  1  0.64350983  0.30023113  0.94754645  1.0
  P  P18  1  0.35649017  0.69976887  0.05245355  1.0
  P  P19  1  0.35649017  0.80023113  0.55245355  1.0
  Se  Se20  1  0.98800845  0.24009469  0.49306529  1.0
  Se  Se21  1  0.98800845  0.25990531  0.99306529  1.0
  Se  Se22  1  0.01199155  0.74009469  0.00693471  1.0
  Se  Se23  1  0.01199155  0.75990531  0.50693471  1.0
  Se  Se24  1  0.95625706  0.23228008  0.21217863  1.0
  Se  Se25  1  0.95625706  0.26771992  0.71217863  1.0
  Se  Se26  1  0.04374294  0.73228008  0.28782137  1.0
  Se  Se27  1  0.04374294  0.76771992  0.78782137  1.0
  Se  Se28  1  0.79990370  0.99485784  0.00544888  1.0
  Se  Se29  1  0.79990370  0.50514216  0.50544888  1.0
  Se  Se30  1  0.20009630  0.49485784  0.49455112  1.0
  Se  Se31  1  0.20009630  0.00514216  0.99455112  1.0
  Se  Se32  1  0.75021267  0.00423350  0.49165967  1.0
  Se  Se33  1  0.75021267  0.49576650  0.99165967  1.0
  Se  Se34  1  0.24978733  0.50423350  0.00834033  1.0
  Se  Se35  1  0.24978733  0.99576650  0.50834033  1.0
  Se  Se36  1  0.53946004  0.23828521  0.28562026  1.0
  Se  Se37  1  0.53946004  0.26171479  0.78562026  1.0
  Se  Se38  1  0.46053996  0.73828521  0.21437974  1.0
  Se  Se39  1  0.46053996  0.76171479  0.71437974  1.0
  Se  Se40  1  0.50264182  0.28434445  0.00165810  1.0
  Se  Se41  1  0.50264182  0.21565555  0.50165810  1.0
  Se  Se42  1  0.49735818  0.78434445  0.49834190  1.0
  Se  Se43  1  0.49735818  0.71565555  0.99834190  1.0
