# generated using pymatgen
data_H4Pb(CO3)2
_symmetry_space_group_name_H-M   'P 1'
_cell_length_a   9.44924291
_cell_length_b   7.84868330
_cell_length_c   8.01975801
_cell_angle_alpha   90.00000000
_cell_angle_beta   90.00000000
_cell_angle_gamma   90.00000000
_symmetry_Int_Tables_number   1
_chemical_formula_structural   H4Pb(CO3)2
_chemical_formula_sum   'H16 Pb4 C8 O24'
_cell_volume   594.77825543
_cell_formula_units_Z   4
loop_
 _symmetry_equiv_pos_site_id
 _symmetry_equiv_pos_as_xyz
  1  'x, y, z'
loop_
 _atom_site_type_symbol
 _atom_site_label
 _atom_site_symmetry_multiplicity
 _atom_site_fract_x
 _atom_site_fract_y
 _atom_site_fract_z
 _atom_site_occupancy
  H  H0  1  0.41281631  0.65315359  0.33051245  1.0
  H  H1  1  0.91281631  0.84684641  0.16948755  1.0
  H  H2  1  0.58718369  0.15315359  0.66948755  1.0
  H  H3  1  0.08718369  0.34684641  0.83051245  1.0
  H  H4  1  0.58718369  0.34684641  0.66948755  1.0
  H  H5  1  0.08718369  0.15315359  0.83051245  1.0
  H  H6  1  0.41281631  0.84684641  0.33051245  1.0
  H  H7  1  0.91281631  0.65315359  0.16948755  1.0
  H  H8  1  0.17277231  0.84954412  0.06247892  1.0
  H  H9  1  0.67277231  0.65045588  0.43752108  1.0
  H  H10  1  0.82722769  0.34954412  0.93752108  1.0
  H  H11  1  0.32722769  0.15045588  0.56247892  1.0
  H  H12  1  0.82722769  0.15045588  0.93752108  1.0
  H  H13  1  0.32722769  0.34954412  0.56247892  1.0
  H  H14  1  0.17277231  0.65045588  0.06247892  1.0
  H  H15  1  0.67277231  0.84954412  0.43752108  1.0
  Pb  Pb16  1  0.10324501  0.75000000  0.47087406  1.0
  Pb  Pb17  1  0.60324501  0.75000000  0.02912594  1.0
  Pb  Pb18  1  0.89675499  0.25000000  0.52912594  1.0
  Pb  Pb19  1  0.39675499  0.25000000  0.97087406  1.0
  C  C20  1  0.36362445  0.84962824  0.73480877  1.0
  C  C21  1  0.86362445  0.65037176  0.76519123  1.0
  C  C22  1  0.63637555  0.34962824  0.26519123  1.0
  C  C23  1  0.13637555  0.15037176  0.23480877  1.0
  C  C24  1  0.63637555  0.15037176  0.26519123  1.0
  C  C25  1  0.13637555  0.34962824  0.23480877  1.0
  C  C26  1  0.36362445  0.65037176  0.73480877  1.0
  C  C27  1  0.86362445  0.84962824  0.76519123  1.0
  O  O28  1  0.28303479  0.92414027  0.63250541  1.0
  O  O29  1  0.78303479  0.57585973  0.86749459  1.0
  O  O30  1  0.71696521  0.42414027  0.36749459  1.0
  O  O31  1  0.21696521  0.07585973  0.13250541  1.0
  O  O32  1  0.71696521  0.07585973  0.36749459  1.0
  O  O33  1  0.21696521  0.42414027  0.13250541  1.0
  O  O34  1  0.28303479  0.57585973  0.63250541  1.0
  O  O35  1  0.78303479  0.92414027  0.86749459  1.0
  O  O36  1  0.44556474  0.92457689  0.83638705  1.0
  O  O37  1  0.94556474  0.57542311  0.66361295  1.0
  O  O38  1  0.55443526  0.42457689  0.16361295  1.0
  O  O39  1  0.05443526  0.07542311  0.33638705  1.0
  O  O40  1  0.55443526  0.07542311  0.16361295  1.0
  O  O41  1  0.05443526  0.42457689  0.33638705  1.0
  O  O42  1  0.44556474  0.57542311  0.83638705  1.0
  O  O43  1  0.94556474  0.92457689  0.66361295  1.0
  O  O44  1  0.36519285  0.75000000  0.27871175  1.0
  O  O45  1  0.86519285  0.75000000  0.22128825  1.0
  O  O46  1  0.63480715  0.25000000  0.72128825  1.0
  O  O47  1  0.13480715  0.25000000  0.77871175  1.0
  O  O48  1  0.12409695  0.75000000  0.01517554  1.0
  O  O49  1  0.62409695  0.75000000  0.48482446  1.0
  O  O50  1  0.87590305  0.25000000  0.98482446  1.0
  O  O51  1  0.37590305  0.25000000  0.51517554  1.0
