# generated using pymatgen
data_LiAlGeO5
_symmetry_space_group_name_H-M   'P 1'
_cell_length_a   10.29548913
_cell_length_b   8.04289579
_cell_length_c   5.12930137
_cell_angle_alpha   90.00000000
_cell_angle_beta   90.00000000
_cell_angle_gamma   90.00000000
_symmetry_Int_Tables_number   1
_chemical_formula_structural   LiAlGeO5
_chemical_formula_sum   'Li4 Al4 Ge4 O20'
_cell_volume   424.73460137
_cell_formula_units_Z   4
loop_
 _symmetry_equiv_pos_site_id
 _symmetry_equiv_pos_as_xyz
  1  'x, y, z'
loop_
 _atom_site_type_symbol
 _atom_site_label
 _atom_site_symmetry_multiplicity
 _atom_site_fract_x
 _atom_site_fract_y
 _atom_site_fract_z
 _atom_site_occupancy
  Al  Al0  1  0.32126742  0.46635788  0.39150337  1.0
  Al  Al1  1  0.82126742  0.03364212  0.39150337  1.0
  Al  Al2  1  0.67873258  0.53364212  0.89150337  1.0
  Al  Al3  1  0.17873258  0.96635788  0.89150337  1.0
  Li  Li4  1  0.36412155  0.89800989  0.40868153  1.0
  Li  Li5  1  0.86412155  0.60199011  0.40868153  1.0
  Li  Li6  1  0.63587845  0.10199011  0.90868153  1.0
  Li  Li7  1  0.13587845  0.39800989  0.90868153  1.0
  O  O8  1  0.29646087  0.50673524  0.05621005  1.0
  O  O9  1  0.79646087  -0.00673524  0.05621005  1.0
  O  O10  1  0.70353913  0.49326476  0.55621005  1.0
  O  O11  1  0.20353913  1.00673524  0.55621005  1.0
  O  O12  1  0.18362689  0.35957231  0.52354933  1.0
  O  O13  1  0.68362689  0.14042769  0.52354933  1.0
  O  O14  1  0.81637311  0.64042769  0.02354933  1.0
  O  O15  1  0.31637311  0.85957231  0.02354933  1.0
  O  O16  1  0.15848694  0.15848423  0.05580272  1.0
  O  O17  1  0.65848694  0.34151577  0.05580272  1.0
  O  O18  1  0.84151306  0.84151577  0.55580272  1.0
  O  O19  1  0.34151306  0.65848423  0.55580272  1.0
  O  O20  1  0.50102398  1.06774088  0.25884593  1.0
  O  O21  1  1.00102398  0.43225912  0.25884593  1.0
  O  O22  1  0.49897602  -0.06774088  0.75884593  1.0
  O  O23  1  -0.00102398  0.56774088  0.75884593  1.0
  O  O24  1  0.45511740  0.33569949  0.46502689  1.0
  O  O25  1  0.95511740  0.16430051  0.46502689  1.0
  O  O26  1  0.54488260  0.66430051  0.96502689  1.0
  O  O27  1  0.04488260  0.83569949  0.96502689  1.0
  Ge  Ge28  1  0.12152849  0.17007591  0.39098019  1.0
  Ge  Ge29  1  0.62152849  0.32992409  0.39098019  1.0
  Ge  Ge30  1  0.87847151  0.82992409  0.89098019  1.0
  Ge  Ge31  1  0.37847151  0.67007591  0.89098019  1.0
