# generated using pymatgen
data_La(Mo3Se4)2
_symmetry_space_group_name_H-M   'P 1'
_cell_length_a   6.83905201
_cell_length_b   6.83905201
_cell_length_c   6.83905201
_cell_angle_alpha   88.72147773
_cell_angle_beta   88.72147773
_cell_angle_gamma   88.72147774
_symmetry_Int_Tables_number   1
_chemical_formula_structural   La(Mo3Se4)2
_chemical_formula_sum   'La1 Mo6 Se8'
_cell_volume   319.64505344
_cell_formula_units_Z   1
loop_
 _symmetry_equiv_pos_site_id
 _symmetry_equiv_pos_as_xyz
  1  'x, y, z'
loop_
 _atom_site_type_symbol
 _atom_site_label
 _atom_site_symmetry_multiplicity
 _atom_site_fract_x
 _atom_site_fract_y
 _atom_site_fract_z
 _atom_site_occupancy
  La  La0  1  0.00000000  0.00000000  0.00000000  1.0
  Mo  Mo1  1  0.43886766  0.57647362  -0.23824853  1.0
  Mo  Mo2  1  0.42352638  0.23824853  -0.43886766  1.0
  Mo  Mo3  1  0.23824853  0.56113234  -0.57647362  1.0
  Mo  Mo4  1  0.56113234  0.42352638  -0.76175147  1.0
  Mo  Mo5  1  0.57647362  0.76175147  -0.56113234  1.0
  Mo  Mo6  1  0.76175147  0.43886766  -0.42352638  1.0
  Se  Se7  1  0.87831596  0.62272972  -0.75141488  1.0
  Se  Se8  1  0.37727028  0.75141488  -0.87831596  1.0
  Se  Se9  1  0.75141488  0.12168404  -0.62272972  1.0
  Se  Se10  1  0.12168404  0.37727028  -0.24858512  1.0
  Se  Se11  1  0.62272972  0.24858512  -0.12168404  1.0
  Se  Se12  1  0.24858512  0.87831596  -0.37727028  1.0
  Se  Se13  1  0.75698677  0.75698677  -0.24301323  1.0
  Se  Se14  1  1.24301323  1.24301323  0.24301323  1.0
