# generated using pymatgen
data_Tl4V2O7
_symmetry_space_group_name_H-M   'P 1'
_cell_length_a   6.07345841
_cell_length_b   6.07345841
_cell_length_c   7.90159558
_cell_angle_alpha   90.00000000
_cell_angle_beta   90.00000000
_cell_angle_gamma   120.00000000
_symmetry_Int_Tables_number   1
_chemical_formula_structural   Tl4V2O7
_chemical_formula_sum   'Tl4 V2 O7'
_cell_volume   252.41639138
_cell_formula_units_Z   1
loop_
 _symmetry_equiv_pos_site_id
 _symmetry_equiv_pos_as_xyz
  1  'x, y, z'
loop_
 _atom_site_type_symbol
 _atom_site_label
 _atom_site_symmetry_multiplicity
 _atom_site_fract_x
 _atom_site_fract_y
 _atom_site_fract_z
 _atom_site_occupancy
  Tl  Tl0  1  0.33333333  0.66666667  0.09045896  1.0
  Tl  Tl1  1  0.66666667  0.33333333  0.90954104  1.0
  Tl  Tl2  1  0.33333333  0.66666667  0.57508721  1.0
  Tl  Tl3  1  0.66666667  0.33333333  0.42491279  1.0
  V  V4  1  0.00000000  0.00000000  0.22950251  1.0
  V  V5  1  0.00000000  0.00000000  0.77049749  1.0
  O  O6  1  0.69295003  0.84647502  0.29823043  1.0
  O  O7  1  0.84647502  0.69295003  0.70176957  1.0
  O  O8  1  0.84647502  0.15352498  0.70176957  1.0
  O  O9  1  0.15352498  0.84647502  0.29823043  1.0
  O  O10  1  0.15352498  0.30704997  0.29823043  1.0
  O  O11  1  0.30704997  0.15352498  0.70176957  1.0
  O  O12  1  0.00000000  0.00000000  0.00000000  1.0
