# generated using pymatgen
data_MgH6(CO3)2
_symmetry_space_group_name_H-M   'P 1'
_cell_length_a   7.56061830
_cell_length_b   8.72895288
_cell_length_c   8.51700268
_cell_angle_alpha   90.00000000
_cell_angle_beta   90.00000000
_cell_angle_gamma   90.00000000
_symmetry_Int_Tables_number   1
_chemical_formula_structural   MgH6(CO3)2
_chemical_formula_sum   'Mg4 H24 C8 O24'
_cell_volume   562.09050113
_cell_formula_units_Z   4
loop_
 _symmetry_equiv_pos_site_id
 _symmetry_equiv_pos_as_xyz
  1  'x, y, z'
loop_
 _atom_site_type_symbol
 _atom_site_label
 _atom_site_symmetry_multiplicity
 _atom_site_fract_x
 _atom_site_fract_y
 _atom_site_fract_z
 _atom_site_occupancy
  Mg  Mg0  1  0.50000000  0.50000000  0.00000000  1.0
  Mg  Mg1  1  0.50000000  0.00000000  0.50000000  1.0
  Mg  Mg2  1  0.00000000  0.50000000  0.50000000  1.0
  Mg  Mg3  1  0.00000000  0.00000000  0.00000000  1.0
  H  H4  1  0.83729695  0.38156176  0.98512192  1.0
  H  H5  1  0.16270305  0.88156176  0.51487808  1.0
  H  H6  1  0.66270305  0.61843824  0.48512192  1.0
  H  H7  1  0.33729695  0.11843824  0.01487808  1.0
  H  H8  1  0.16270305  0.61843824  0.01487808  1.0
  H  H9  1  0.83729695  0.11843824  0.48512192  1.0
  H  H10  1  0.33729695  0.38156176  0.51487808  1.0
  H  H11  1  0.66270305  0.88156176  0.98512192  1.0
  H  H12  1  0.84384399  0.50542656  0.12190490  1.0
  H  H13  1  0.15615601  0.00542656  0.37809510  1.0
  H  H14  1  0.65615601  0.49457344  0.62190490  1.0
  H  H15  1  0.34384399  0.99457344  0.87809510  1.0
  H  H16  1  0.15615601  0.49457344  0.87809510  1.0
  H  H17  1  0.84384399  0.99457344  0.62190490  1.0
  H  H18  1  0.34384399  0.50542656  0.37809510  1.0
  H  H19  1  0.65615601  0.00542656  0.12190490  1.0
  H  H20  1  0.43087575  0.67289431  0.68975745  1.0
  H  H21  1  0.56912425  0.17289431  0.81024255  1.0
  H  H22  1  0.06912425  0.32710569  0.18975745  1.0
  H  H23  1  0.93087575  0.82710570  0.31024255  1.0
  H  H24  1  0.56912425  0.32710569  0.31024255  1.0
  H  H25  1  0.43087575  0.82710570  0.18975745  1.0
  H  H26  1  0.93087575  0.67289431  0.81024255  1.0
  H  H27  1  0.06912425  0.17289431  0.68975745  1.0
  C  C28  1  0.48467568  0.76250027  0.76839367  1.0
  C  C29  1  0.51532432  0.26250027  0.73160633  1.0
  C  C30  1  0.01532432  0.23749973  0.26839367  1.0
  C  C31  1  0.98467568  0.73749973  0.23160633  1.0
  C  C32  1  0.51532432  0.23749973  0.23160633  1.0
  C  C33  1  0.48467568  0.73749973  0.26839367  1.0
  C  C34  1  0.98467568  0.76250027  0.73160633  1.0
  C  C35  1  0.01532432  0.26250027  0.76839367  1.0
  O  O36  1  0.54574317  0.72117479  0.90026810  1.0
  O  O37  1  0.45425683  0.22117479  0.59973190  1.0
  O  O38  1  0.95425683  0.27882521  0.40026810  1.0
  O  O39  1  0.04574317  0.77882521  0.09973190  1.0
  O  O40  1  0.45425683  0.27882521  0.09973190  1.0
  O  O41  1  0.54574317  0.77882521  0.40026810  1.0
  O  O42  1  0.04574317  0.72117479  0.59973190  1.0
  O  O43  1  0.95425683  0.22117479  0.90026810  1.0
  O  O44  1  0.52069338  0.40064203  0.77801682  1.0
  O  O45  1  0.47930662  0.90064203  0.72198318  1.0
  O  O46  1  0.97930662  0.59935797  0.27801682  1.0
  O  O47  1  0.02069338  0.09935797  0.22198318  1.0
  O  O48  1  0.47930662  0.59935797  0.22198318  1.0
  O  O49  1  0.52069338  0.09935797  0.27801682  1.0
  O  O50  1  0.02069338  0.40064203  0.72198318  1.0
  O  O51  1  0.97930662  0.90064203  0.77801682  1.0
  O  O52  1  0.77010661  0.46574256  0.03592396  1.0
  O  O53  1  0.22989339  0.96574256  0.46407604  1.0
  O  O54  1  0.72989339  0.53425744  0.53592396  1.0
  O  O55  1  0.27010661  0.03425744  0.96407604  1.0
  O  O56  1  0.22989339  0.53425744  0.96407604  1.0
  O  O57  1  0.77010661  0.03425744  0.53592396  1.0
  O  O58  1  0.27010661  0.46574256  0.46407604  1.0
  O  O59  1  0.72989339  0.96574256  0.03592396  1.0
