# generated using pymatgen
data_Al2CdTe4
_symmetry_space_group_name_H-M   'P 1'
_cell_length_a   7.44575562
_cell_length_b   7.44575562
_cell_length_c   7.44575562
_cell_angle_alpha   130.28244624
_cell_angle_beta   130.28244624
_cell_angle_gamma   72.95563014
_symmetry_Int_Tables_number   1
_chemical_formula_structural   Al2CdTe4
_chemical_formula_sum   'Al2 Cd1 Te4'
_cell_volume   234.62805267
_cell_formula_units_Z   1
loop_
 _symmetry_equiv_pos_site_id
 _symmetry_equiv_pos_as_xyz
  1  'x, y, z'
loop_
 _atom_site_type_symbol
 _atom_site_label
 _atom_site_symmetry_multiplicity
 _atom_site_fract_x
 _atom_site_fract_y
 _atom_site_fract_z
 _atom_site_occupancy
  Al  Al0  1  0.25000000  0.75000000  0.50000000  1.0
  Al  Al1  1  0.50000000  0.50000000  1.00000000  1.0
  Cd  Cd2  1  0.00000000  0.00000000  0.00000000  1.0
  Te  Te3  1  0.41192466  0.88246800  1.01877545  1.0
  Te  Te4  1  1.11753200  1.13630745  1.52945666  1.0
  Te  Te5  1  0.86369255  0.39314921  0.98122455  1.0
  Te  Te6  1  0.60685079  0.58807534  0.47054334  1.0
