# generated using pymatgen
data_Sn2Sb2S5
_symmetry_space_group_name_H-M   'P 1'
_cell_length_a   20.65204754
_cell_length_b   3.96747243
_cell_length_c   11.52544798
_cell_angle_alpha   90.00000000
_cell_angle_beta   90.00000000
_cell_angle_gamma   90.00000000
_symmetry_Int_Tables_number   1
_chemical_formula_structural   Sn2Sb2S5
_chemical_formula_sum   'Sn8 Sb8 S20'
_cell_volume   944.35405383
_cell_formula_units_Z   4
loop_
 _symmetry_equiv_pos_site_id
 _symmetry_equiv_pos_as_xyz
  1  'x, y, z'
loop_
 _atom_site_type_symbol
 _atom_site_label
 _atom_site_symmetry_multiplicity
 _atom_site_fract_x
 _atom_site_fract_y
 _atom_site_fract_z
 _atom_site_occupancy
  Sn  Sn0  1  0.20065264  0.75000000  0.83672111  1.0
  Sn  Sn1  1  0.70065264  0.75000000  0.66327889  1.0
  Sn  Sn2  1  0.79934736  0.25000000  0.16327889  1.0
  Sn  Sn3  1  0.29934736  0.25000000  0.33672111  1.0
  Sn  Sn4  1  0.08844126  0.75000000  0.50310061  1.0
  Sn  Sn5  1  0.58844126  0.75000000  0.99689939  1.0
  Sn  Sn6  1  0.91155874  0.25000000  0.49689939  1.0
  Sn  Sn7  1  0.41155874  0.25000000  0.00310061  1.0
  Sb  Sb8  1  0.46941849  0.75000000  0.29082166  1.0
  Sb  Sb9  1  0.96941849  0.75000000  0.20917834  1.0
  Sb  Sb10  1  0.53058151  0.25000000  0.70917834  1.0
  Sb  Sb11  1  0.03058151  0.25000000  0.79082166  1.0
  Sb  Sb12  1  0.36797707  0.75000000  0.62443502  1.0
  Sb  Sb13  1  0.86797707  0.75000000  0.87556498  1.0
  Sb  Sb14  1  0.63202293  0.25000000  0.37556498  1.0
  Sb  Sb15  1  0.13202293  0.25000000  0.12443502  1.0
  S  S16  1  0.07828570  0.75000000  0.92520138  1.0
  S  S17  1  0.57828570  0.75000000  0.57479862  1.0
  S  S18  1  0.92171430  0.25000000  0.07479862  1.0
  S  S19  1  0.42171430  0.25000000  0.42520138  1.0
  S  S20  1  0.37031592  0.75000000  0.17512942  1.0
  S  S21  1  0.87031592  0.75000000  0.32487058  1.0
  S  S22  1  0.62968408  0.25000000  0.82487058  1.0
  S  S23  1  0.12968408  0.25000000  0.67512942  1.0
  S  S24  1  0.17154813  0.75000000  0.24764411  1.0
  S  S25  1  0.67154813  0.75000000  0.25235589  1.0
  S  S26  1  0.82845187  0.25000000  0.75235589  1.0
  S  S27  1  0.32845187  0.25000000  0.74764411  1.0
  S  S28  1  0.48040171  0.75000000  0.86889393  1.0
  S  S29  1  0.98040171  0.75000000  0.63110607  1.0
  S  S30  1  0.51959829  0.25000000  0.13110607  1.0
  S  S31  1  0.01959829  0.25000000  0.36889393  1.0
  S  S32  1  0.27276190  0.75000000  0.49682425  1.0
  S  S33  1  0.77276190  0.75000000  1.00317575  1.0
  S  S34  1  0.72723810  0.25000000  0.50317575  1.0
  S  S35  1  0.22723810  0.25000000  -0.00317575  1.0
