# generated using pymatgen
data_Nd6Zn4Pd13
_symmetry_space_group_name_H-M   'P 1'
_cell_length_a   8.37991588
_cell_length_b   8.37991588
_cell_length_c   8.37991588
_cell_angle_alpha   109.47122063
_cell_angle_beta   109.47122063
_cell_angle_gamma   109.47122063
_symmetry_Int_Tables_number   1
_chemical_formula_structural   Nd6Zn4Pd13
_chemical_formula_sum   'Nd6 Zn4 Pd13'
_cell_volume   452.99883680
_cell_formula_units_Z   1
loop_
 _symmetry_equiv_pos_site_id
 _symmetry_equiv_pos_as_xyz
  1  'x, y, z'
loop_
 _atom_site_type_symbol
 _atom_site_label
 _atom_site_symmetry_multiplicity
 _atom_site_fract_x
 _atom_site_fract_y
 _atom_site_fract_z
 _atom_site_occupancy
  Nd  Nd0  1  0.00000000  0.69685300  0.69685300  1.0
  Nd  Nd1  1  0.69685300  0.00000000  0.69685300  1.0
  Nd  Nd2  1  0.69685300  0.69685300  0.00000000  1.0
  Nd  Nd3  1  0.30314700  0.30314700  -0.00000000  1.0
  Nd  Nd4  1  0.30314700  0.00000000  0.30314700  1.0
  Nd  Nd5  1  0.00000000  0.30314700  0.30314700  1.0
  Zn  Zn6  1  0.50000000  0.50000000  0.50000000  1.0
  Zn  Zn7  1  1.00000000  1.00000000  0.50000000  1.0
  Zn  Zn8  1  1.00000000  1.50000000  1.00000000  1.0
  Zn  Zn9  1  1.50000000  1.00000000  1.00000000  1.0
  Pd  Pd10  1  0.33888468  0.66944234  0.66944234  1.0
  Pd  Pd11  1  1.00000000  1.33055766  0.66944234  1.0
  Pd  Pd12  1  1.00000000  0.66944234  0.33055766  1.0
  Pd  Pd13  1  1.66111532  1.33055766  1.33055766  1.0
  Pd  Pd14  1  0.66944234  0.33888468  0.66944234  1.0
  Pd  Pd15  1  1.33055766  1.00000000  0.66944234  1.0
  Pd  Pd16  1  0.66944234  0.66944234  0.33888468  1.0
  Pd  Pd17  1  1.33055766  0.66944234  1.00000000  1.0
  Pd  Pd18  1  0.66944234  1.00000000  0.33055766  1.0
  Pd  Pd19  1  1.33055766  1.66111532  1.33055766  1.0
  Pd  Pd20  1  0.66944234  1.33055766  1.00000000  1.0
  Pd  Pd21  1  0.33055766  0.33055766  0.66111532  1.0
  Pd  Pd22  1  0.00000000  0.00000000  0.00000000  1.0
