# generated using pymatgen
data_MgSi(HO2)2
_symmetry_space_group_name_H-M   'P 1'
_cell_length_a   4.27689414
_cell_length_b   2.85407119
_cell_length_c   4.77124060
_cell_angle_alpha   90.00000000
_cell_angle_beta   93.03480651
_cell_angle_gamma   90.00000000
_symmetry_Int_Tables_number   1
_chemical_formula_structural   MgSi(HO2)2
_chemical_formula_sum   'Mg1 Si1 H2 O4'
_cell_volume   58.15875755
_cell_formula_units_Z   1
loop_
 _symmetry_equiv_pos_site_id
 _symmetry_equiv_pos_as_xyz
  1  'x, y, z'
loop_
 _atom_site_type_symbol
 _atom_site_label
 _atom_site_symmetry_multiplicity
 _atom_site_fract_x
 _atom_site_fract_y
 _atom_site_fract_z
 _atom_site_occupancy
  Mg  Mg0  1  0.50000000  0.50000000  0.50000000  1.0
  Si  Si1  1  0.00000000  0.00000000  0.00000000  1.0
  H  H2  1  -0.00000000  0.00000000  0.50000000  1.0
  H  H3  1  0.50000000  0.50000000  0.00000000  1.0
  O  O4  1  0.20417079  0.00000000  0.33008806  1.0
  O  O5  1  0.79582921  0.00000000  0.66991194  1.0
  O  O6  1  0.24438943  0.50000000  0.88059032  1.0
  O  O7  1  0.75561057  0.50000000  0.11940968  1.0
