# generated using pymatgen
data_SrTl2O4
_symmetry_space_group_name_H-M   'P 1'
_cell_length_a   10.20855098
_cell_length_b   3.48271286
_cell_length_c   11.89871519
_cell_angle_alpha   90.00000000
_cell_angle_beta   90.00000000
_cell_angle_gamma   90.00000000
_symmetry_Int_Tables_number   1
_chemical_formula_structural   SrTl2O4
_chemical_formula_sum   'Sr4 Tl8 O16'
_cell_volume   423.04039615
_cell_formula_units_Z   4
loop_
 _symmetry_equiv_pos_site_id
 _symmetry_equiv_pos_as_xyz
  1  'x, y, z'
loop_
 _atom_site_type_symbol
 _atom_site_label
 _atom_site_symmetry_multiplicity
 _atom_site_fract_x
 _atom_site_fract_y
 _atom_site_fract_z
 _atom_site_occupancy
  Sr  Sr0  1  0.75451969  0.75000000  0.65112953  1.0
  Sr  Sr1  1  0.25451969  0.75000000  0.84887047  1.0
  Sr  Sr2  1  0.24548031  0.25000000  0.34887047  1.0
  Sr  Sr3  1  0.74548031  0.25000000  0.15112953  1.0
  Tl  Tl4  1  0.92092479  0.75000000  0.39193020  1.0
  Tl  Tl5  1  0.42092479  0.75000000  0.10806980  1.0
  Tl  Tl6  1  0.07907521  0.25000000  0.60806980  1.0
  Tl  Tl7  1  0.57907521  0.25000000  0.89193020  1.0
  Tl  Tl8  1  0.42403429  0.75000000  0.60958645  1.0
  Tl  Tl9  1  0.92403429  0.75000000  0.89041355  1.0
  Tl  Tl10  1  0.57596571  0.25000000  0.39041355  1.0
  Tl  Tl11  1  0.07596571  0.25000000  0.10958645  1.0
  O  O12  1  0.91099824  0.75000000  0.07331465  1.0
  O  O13  1  0.41099824  0.75000000  0.42668535  1.0
  O  O14  1  0.08900176  0.25000000  0.92668535  1.0
  O  O15  1  0.58900176  0.25000000  0.57331465  1.0
  O  O16  1  0.71297191  0.75000000  0.32027741  1.0
  O  O17  1  0.21297191  0.75000000  0.17972259  1.0
  O  O18  1  0.28702809  0.25000000  0.67972259  1.0
  O  O19  1  0.78702809  0.25000000  0.82027741  1.0
  O  O20  1  0.62419455  0.75000000  0.02588033  1.0
  O  O21  1  0.12419455  0.75000000  0.47411967  1.0
  O  O22  1  0.37580545  0.25000000  0.97411967  1.0
  O  O23  1  0.87580545  0.25000000  0.52588033  1.0
  O  O24  1  0.51876599  0.75000000  0.77856292  1.0
  O  O25  1  0.01876599  0.75000000  0.72143708  1.0
  O  O26  1  0.48123401  0.25000000  0.22143708  1.0
  O  O27  1  0.98123401  0.25000000  0.27856292  1.0
