# generated using pymatgen
data_Y4NiB13
_symmetry_space_group_name_H-M   'P 1'
_cell_length_a   7.31996682
_cell_length_b   7.31996682
_cell_length_c   6.89785216
_cell_angle_alpha   90.00000000
_cell_angle_beta   90.00000000
_cell_angle_gamma   90.00000000
_symmetry_Int_Tables_number   1
_chemical_formula_structural   Y4NiB13
_chemical_formula_sum   'Y8 Ni2 B26'
_cell_volume   369.60012245
_cell_formula_units_Z   2
loop_
 _symmetry_equiv_pos_site_id
 _symmetry_equiv_pos_as_xyz
  1  'x, y, z'
loop_
 _atom_site_type_symbol
 _atom_site_label
 _atom_site_symmetry_multiplicity
 _atom_site_fract_x
 _atom_site_fract_y
 _atom_site_fract_z
 _atom_site_occupancy
  Y  Y0  1  0.32033628  0.81536493  0.50000000  1.0
  Y  Y1  1  0.82033628  0.68463507  -0.00000000  1.0
  Y  Y2  1  0.18463507  0.32033628  0.50000000  1.0
  Y  Y3  1  0.68463507  0.17966372  -0.00000000  1.0
  Y  Y4  1  0.67966372  0.18463507  0.50000000  1.0
  Y  Y5  1  0.17966372  0.31536493  0.00000000  1.0
  Y  Y6  1  0.81536493  0.67966372  0.50000000  1.0
  Y  Y7  1  0.31536493  0.82033628  -0.00000000  1.0
  Ni  Ni8  1  0.50000000  0.50000000  0.00000000  1.0
  Ni  Ni9  1  0.00000000  0.00000000  0.50000000  1.0
  B  B10  1  0.33007800  0.53993890  0.25689661  1.0
  B  B11  1  0.33007800  0.53993890  0.74310339  1.0
  B  B12  1  0.83007800  0.96006110  0.75689661  1.0
  B  B13  1  0.83007800  0.96006110  0.24310339  1.0
  B  B14  1  0.46006110  0.33007800  0.25689661  1.0
  B  B15  1  0.46006110  0.33007800  0.74310339  1.0
  B  B16  1  0.96006110  0.16992200  0.75689661  1.0
  B  B17  1  0.96006110  0.16992200  0.24310339  1.0
  B  B18  1  0.66992200  0.46006110  0.25689661  1.0
  B  B19  1  0.66992200  0.46006110  0.74310339  1.0
  B  B20  1  0.16992200  0.03993890  0.75689661  1.0
  B  B21  1  0.16992200  0.03993890  0.24310339  1.0
  B  B22  1  0.53993890  0.66992200  0.25689661  1.0
  B  B23  1  0.53993890  0.66992200  0.74310339  1.0
  B  B24  1  0.03993890  0.83007800  0.75689661  1.0
  B  B25  1  0.03993890  0.83007800  0.24310339  1.0
  B  B26  1  0.40762628  0.09237372  0.25000000  1.0
  B  B27  1  0.40762628  0.09237372  0.75000000  1.0
  B  B28  1  0.90762628  0.40762628  0.75000000  1.0
  B  B29  1  0.90762628  0.40762628  0.25000000  1.0
  B  B30  1  0.59237372  0.90762628  0.25000000  1.0
  B  B31  1  0.59237372  0.90762628  0.75000000  1.0
  B  B32  1  0.09237372  0.59237372  0.75000000  1.0
  B  B33  1  0.09237372  0.59237372  0.25000000  1.0
  B  B34  1  0.50000000  0.50000000  0.50000000  1.0
  B  B35  1  0.00000000  0.00000000  0.00000000  1.0
