# generated using pymatgen
data_AlPd
_symmetry_space_group_name_H-M   'P 1'
_cell_length_a   9.26835196
_cell_length_b   9.26835196
_cell_length_c   9.26835196
_cell_angle_alpha   116.43700044
_cell_angle_beta   116.43700044
_cell_angle_gamma   116.43700044
_symmetry_Int_Tables_number   1
_chemical_formula_structural   AlPd
_chemical_formula_sum   'Al13 Pd13'
_cell_volume   380.88271931
_cell_formula_units_Z   13
loop_
 _symmetry_equiv_pos_site_id
 _symmetry_equiv_pos_as_xyz
  1  'x, y, z'
loop_
 _atom_site_type_symbol
 _atom_site_label
 _atom_site_symmetry_multiplicity
 _atom_site_fract_x
 _atom_site_fract_y
 _atom_site_fract_z
 _atom_site_occupancy
  Al  Al0  1  1.15266361  0.44346299  0.40141410  1.0
  Al  Al1  1  0.59858590  0.84733639  -0.44346299  1.0
  Al  Al2  1  0.55653701  -0.40141410  -0.15266361  1.0
  Al  Al3  1  0.84733639  0.55653701  0.59858590  1.0
  Al  Al4  1  1.40141410  1.15266361  0.44346299  1.0
  Al  Al5  1  0.44346299  0.40141410  0.15266361  1.0
  Al  Al6  1  0.65361362  0.25212160  0.09705006  1.0
  Al  Al7  1  0.90294994  1.34638638  -0.25212160  1.0
  Al  Al8  1  0.74787840  0.90294994  -0.65361362  1.0
  Al  Al9  1  0.34638638  -0.25212160  -0.09705006  1.0
  Al  Al10  1  1.09705006  0.65361362  0.25212160  1.0
  Al  Al11  1  0.25212160  0.09705006  -0.34638638  1.0
  Al  Al12  1  -0.00000000  -0.00000000  -0.00000000  1.0
  Pd  Pd13  1  1.05549172  0.09765460  0.34418963  1.0
  Pd  Pd14  1  0.65581037  -0.05549172  -0.09765460  1.0
  Pd  Pd15  1  0.90234540  0.65581037  -0.05549172  1.0
  Pd  Pd16  1  0.94450828  0.90234540  0.65581037  1.0
  Pd  Pd17  1  0.34418963  0.05549172  0.09765460  1.0
  Pd  Pd18  1  1.09765460  1.34418963  0.05549172  1.0
  Pd  Pd19  1  0.84491768  0.24873128  0.40198226  1.0
  Pd  Pd20  1  0.59801774  0.15508232  -0.24873128  1.0
  Pd  Pd21  1  0.75126872  0.59801774  0.15508231  1.0
  Pd  Pd22  1  1.15508231  0.75126872  0.59801774  1.0
  Pd  Pd23  1  0.40198226  0.84491768  -0.75126872  1.0
  Pd  Pd24  1  1.24873128  1.40198225  -0.15508232  1.0
  Pd  Pd25  1  0.50000000  0.50000000  0.50000000  1.0
