# generated using pymatgen
data_Hf2Al3
_symmetry_space_group_name_H-M   'P 1'
_cell_length_a   7.43826967
_cell_length_b   5.51277792
_cell_length_c   8.39323322
_cell_angle_alpha   60.54244430
_cell_angle_beta   40.18990548
_cell_angle_gamma   79.26765022
_symmetry_Int_Tables_number   1
_chemical_formula_structural   Hf2Al3
_chemical_formula_sum   'Hf4 Al6'
_cell_volume   182.06327044
_cell_formula_units_Z   2
loop_
 _symmetry_equiv_pos_site_id
 _symmetry_equiv_pos_as_xyz
  1  'x, y, z'
loop_
 _atom_site_type_symbol
 _atom_site_label
 _atom_site_symmetry_multiplicity
 _atom_site_fract_x
 _atom_site_fract_y
 _atom_site_fract_z
 _atom_site_occupancy
  Hf  Hf0  1  1.24804031  0.51147671  -0.14216616  1.0
  Hf  Hf1  1  0.39216616  0.86735086  1.00195969  1.0
  Hf  Hf2  1  0.51147671  0.24804031  1.38264914  1.0
  Hf  Hf3  1  0.86735086  -0.60783384  0.73852329  1.0
  Al  Al4  1  -0.19724122  0.43908822  1.42564001  1.0
  Al  Al5  1  0.82435999  -0.08251299  0.44724122  1.0
  Al  Al6  1  1.43908822  -0.19724122  0.33251299  1.0
  Al  Al7  1  0.91748701  -0.17564001  0.81091178  1.0
  Al  Al8  1  0.99863599  -0.00136401  0.00136401  1.0
  Al  Al9  1  0.24863599  0.24863599  1.25136401  1.0
