# generated using pymatgen
data_Zr2Ga3
_symmetry_space_group_name_H-M   'P 1'
_cell_length_a   7.44191318
_cell_length_b   5.51030603
_cell_length_c   8.38833854
_cell_angle_alpha   60.62545739
_cell_angle_beta   40.18403567
_cell_angle_gamma   79.19050694
_symmetry_Int_Tables_number   1
_chemical_formula_structural   Zr2Ga3
_chemical_formula_sum   'Zr4 Ga6'
_cell_volume   182.38310122
_cell_formula_units_Z   2
loop_
 _symmetry_equiv_pos_site_id
 _symmetry_equiv_pos_as_xyz
  1  'x, y, z'
loop_
 _atom_site_type_symbol
 _atom_site_label
 _atom_site_symmetry_multiplicity
 _atom_site_fract_x
 _atom_site_fract_y
 _atom_site_fract_z
 _atom_site_occupancy
  Zr  Zr0  1  1.25564491  0.51351106  -0.15121341  1.0
  Zr  Zr1  1  0.40121341  -0.13205744  0.99435509  1.0
  Zr  Zr2  1  0.51351106  0.25564491  1.38205744  1.0
  Zr  Zr3  1  0.86794256  -0.59878659  0.73648894  1.0
  Ga  Ga4  1  -0.19153552  0.43942909  1.42174541  1.0
  Ga  Ga5  1  0.82825459  -0.08036102  0.44153552  1.0
  Ga  Ga6  1  1.43942909  -0.19153552  0.33036102  1.0
  Ga  Ga7  1  0.91963898  -0.17174541  0.81057091  1.0
  Ga  Ga8  1  1.00295045  0.00295045  -0.00295045  1.0
  Ga  Ga9  1  0.25295045  0.25295045  1.24704955  1.0
