# generated using pymatgen
data_BiI3
_symmetry_space_group_name_H-M   'P 1'
_cell_length_a   7.81632149
_cell_length_b   7.81632149
_cell_length_c   7.76561276
_cell_angle_alpha   90.00000000
_cell_angle_beta   90.00000000
_cell_angle_gamma   120.00000000
_symmetry_Int_Tables_number   1
_chemical_formula_structural   BiI3
_chemical_formula_sum   'Bi2 I6'
_cell_volume   410.87639321
_cell_formula_units_Z   2
loop_
 _symmetry_equiv_pos_site_id
 _symmetry_equiv_pos_as_xyz
  1  'x, y, z'
loop_
 _atom_site_type_symbol
 _atom_site_label
 _atom_site_symmetry_multiplicity
 _atom_site_fract_x
 _atom_site_fract_y
 _atom_site_fract_z
 _atom_site_occupancy
  Bi  Bi0  1  0.33333333  0.66666667  0.00000000  1.0
  Bi  Bi1  1  0.66666667  0.33333333  0.00000000  1.0
  I  I2  1  0.64675570  0.64675570  0.23432388  1.0
  I  I3  1  0.64675570  0.00000000  0.76567612  1.0
  I  I4  1  -0.00000000  0.64675570  0.76567612  1.0
  I  I5  1  0.00000000  0.35324430  0.23432388  1.0
  I  I6  1  0.35324430  0.35324430  0.76567612  1.0
  I  I7  1  0.35324430  0.00000000  0.23432388  1.0
