# generated using pymatgen
data_HfAl5Ni2
_symmetry_space_group_name_H-M   'P 1'
_cell_length_a   7.80734047
_cell_length_b   7.80734047
_cell_length_c   7.80734047
_cell_angle_alpha   150.22334784
_cell_angle_beta   150.22334784
_cell_angle_gamma   42.61365135
_symmetry_Int_Tables_number   1
_chemical_formula_structural   HfAl5Ni2
_chemical_formula_sum   'Hf1 Al5 Ni2'
_cell_volume   117.07676839
_cell_formula_units_Z   1
loop_
 _symmetry_equiv_pos_site_id
 _symmetry_equiv_pos_as_xyz
  1  'x, y, z'
loop_
 _atom_site_type_symbol
 _atom_site_label
 _atom_site_symmetry_multiplicity
 _atom_site_fract_x
 _atom_site_fract_y
 _atom_site_fract_z
 _atom_site_occupancy
  Hf  Hf0  1  0.00000000  0.00000000  0.00000000  1.0
  Al  Al1  1  0.50000000  0.50000000  1.00000000  1.0
  Al  Al2  1  0.35302487  0.85302487  0.50000000  1.0
  Al  Al3  1  0.64697513  0.14697513  0.50000000  1.0
  Al  Al4  1  0.85302487  0.35302487  0.50000000  1.0
  Al  Al5  1  0.14697513  0.64697513  0.50000000  1.0
  Ni  Ni6  1  0.75965061  0.75965061  1.00000000  1.0
  Ni  Ni7  1  0.24034939  0.24034939  0.00000000  1.0
