# generated using pymatgen
data_ScNiGe
_symmetry_space_group_name_H-M   'P 1'
_cell_length_a   6.48581514
_cell_length_b   4.09761200
_cell_length_c   7.09271913
_cell_angle_alpha   90.00000000
_cell_angle_beta   90.00000000
_cell_angle_gamma   90.00000000
_symmetry_Int_Tables_number   1
_chemical_formula_structural   ScNiGe
_chemical_formula_sum   'Sc4 Ni4 Ge4'
_cell_volume   188.49861400
_cell_formula_units_Z   4
loop_
 _symmetry_equiv_pos_site_id
 _symmetry_equiv_pos_as_xyz
  1  'x, y, z'
loop_
 _atom_site_type_symbol
 _atom_site_label
 _atom_site_symmetry_multiplicity
 _atom_site_fract_x
 _atom_site_fract_y
 _atom_site_fract_z
 _atom_site_occupancy
  Sc  Sc0  1  -0.00577362  0.75000000  0.70733520  1.0
  Sc  Sc1  1  0.49422638  0.75000000  0.79266480  1.0
  Sc  Sc2  1  1.00577362  0.25000000  0.29266480  1.0
  Sc  Sc3  1  0.50577362  0.25000000  0.20733520  1.0
  Ni  Ni4  1  0.68971014  0.75000000  0.42046291  1.0
  Ni  Ni5  1  0.18971014  0.75000000  0.07953709  1.0
  Ni  Ni6  1  0.31028986  0.25000000  0.57953709  1.0
  Ni  Ni7  1  0.81028986  0.25000000  0.92046291  1.0
  Ge  Ge8  1  0.79594185  0.75000000  0.09251974  1.0
  Ge  Ge9  1  0.29594185  0.75000000  0.40748026  1.0
  Ge  Ge10  1  0.20405815  0.25000000  0.90748026  1.0
  Ge  Ge11  1  0.70405815  0.25000000  0.59251974  1.0
