# generated using pymatgen
data_Ba3SiO5
_symmetry_space_group_name_H-M   'P 1'
_cell_length_a   7.71392680
_cell_length_b   7.71392680
_cell_length_c   7.71392680
_cell_angle_alpha   122.80929055
_cell_angle_beta   122.80929055
_cell_angle_gamma   85.19935834
_symmetry_Int_Tables_number   1
_chemical_formula_structural   Ba3SiO5
_chemical_formula_sum   'Ba6 Si2 O10'
_cell_volume   309.60415018
_cell_formula_units_Z   2
loop_
 _symmetry_equiv_pos_site_id
 _symmetry_equiv_pos_as_xyz
  1  'x, y, z'
loop_
 _atom_site_type_symbol
 _atom_site_label
 _atom_site_symmetry_multiplicity
 _atom_site_fract_x
 _atom_site_fract_y
 _atom_site_fract_z
 _atom_site_occupancy
  Ba  Ba0  1  0.81645573  0.31645573  1.13291146  1.0
  Ba  Ba1  1  0.68354427  0.81645573  1.50000000  1.0
  Ba  Ba2  1  0.31645573  0.18354427  0.50000000  1.0
  Ba  Ba3  1  0.18354427  0.68354427  0.86708854  1.0
  Ba  Ba4  1  0.75000000  0.75000000  1.00000000  1.0
  Ba  Ba5  1  0.25000000  0.25000000  -0.00000000  1.0
  Si  Si6  1  0.25000000  0.75000000  0.50000000  1.0
  Si  Si7  1  0.75000000  0.25000000  0.50000000  1.0
  O  O8  1  1.21085775  0.71085775  1.24611094  1.0
  O  O9  1  0.53525319  1.03525319  1.24611094  1.0
  O  O10  1  0.96474681  1.21085775  1.50000000  1.0
  O  O11  1  0.28914225  0.53525319  0.50000000  1.0
  O  O12  1  0.71085775  0.46474681  0.50000000  1.0
  O  O13  1  1.03525319  0.78914225  1.50000000  1.0
  O  O14  1  0.46474681  0.96474681  0.75388906  1.0
  O  O15  1  0.78914225  0.28914225  0.75388906  1.0
  O  O16  1  0.00000000  0.00000000  0.00000000  1.0
  O  O17  1  0.50000000  0.50000000  1.00000000  1.0
