# generated using pymatgen
data_Mg2ClO3
_symmetry_space_group_name_H-M   'P 1'
_cell_length_a   6.83144523
_cell_length_b   6.56332308
_cell_length_c   9.38560366
_cell_angle_alpha   90.00000000
_cell_angle_beta   90.00000000
_cell_angle_gamma   90.00000000
_symmetry_Int_Tables_number   1
_chemical_formula_structural   Mg2ClO3
_chemical_formula_sum   'Mg8 Cl4 O12'
_cell_volume   420.82214388
_cell_formula_units_Z   4
loop_
 _symmetry_equiv_pos_site_id
 _symmetry_equiv_pos_as_xyz
  1  'x, y, z'
loop_
 _atom_site_type_symbol
 _atom_site_label
 _atom_site_symmetry_multiplicity
 _atom_site_fract_x
 _atom_site_fract_y
 _atom_site_fract_z
 _atom_site_occupancy
  Mg  Mg0  1  0.26511605  0.75000000  0.23322432  1.0
  Mg  Mg1  1  0.76511605  0.75000000  0.26677568  1.0
  Mg  Mg2  1  0.73488395  0.25000000  0.76677568  1.0
  Mg  Mg3  1  0.23488395  0.25000000  0.73322432  1.0
  Mg  Mg4  1  0.50000000  0.00000000  0.50000000  1.0
  Mg  Mg5  1  0.50000000  0.50000000  0.50000000  1.0
  Mg  Mg6  1  0.00000000  0.00000000  0.00000000  1.0
  Mg  Mg7  1  0.00000000  0.50000000  0.00000000  1.0
  Cl  Cl8  1  0.28146010  0.75000000  0.96414156  1.0
  Cl  Cl9  1  0.78146010  0.75000000  0.53585844  1.0
  Cl  Cl10  1  0.71853990  0.25000000  0.03585844  1.0
  Cl  Cl11  1  0.21853990  0.25000000  0.46414156  1.0
  O  O12  1  0.49355183  0.41903662  0.71382241  1.0
  O  O13  1  0.49355183  0.08096338  0.71382241  1.0
  O  O14  1  0.99355183  0.41903662  0.78617759  1.0
  O  O15  1  0.99355183  0.08096338  0.78617759  1.0
  O  O16  1  0.50644817  0.91903662  0.28617759  1.0
  O  O17  1  0.50644817  0.58096338  0.28617759  1.0
  O  O18  1  0.00644817  0.91903662  0.21382241  1.0
  O  O19  1  0.00644817  0.58096338  0.21382241  1.0
  O  O20  1  0.32753966  0.75000000  0.44810140  1.0
  O  O21  1  0.82753966  0.75000000  0.05189860  1.0
  O  O22  1  0.67246034  0.25000000  0.55189860  1.0
  O  O23  1  0.17246034  0.25000000  0.94810140  1.0
