# generated using pymatgen
data_BaMnS2
_symmetry_space_group_name_H-M   'P 1'
_cell_length_a   7.19796742
_cell_length_b   4.15094649
_cell_length_c   13.97904115
_cell_angle_alpha   90.00000000
_cell_angle_beta   90.00000000
_cell_angle_gamma   90.00000000
_symmetry_Int_Tables_number   1
_chemical_formula_structural   BaMnS2
_chemical_formula_sum   'Ba4 Mn4 S8'
_cell_volume   417.67107041
_cell_formula_units_Z   4
loop_
 _symmetry_equiv_pos_site_id
 _symmetry_equiv_pos_as_xyz
  1  'x, y, z'
loop_
 _atom_site_type_symbol
 _atom_site_label
 _atom_site_symmetry_multiplicity
 _atom_site_fract_x
 _atom_site_fract_y
 _atom_site_fract_z
 _atom_site_occupancy
  Ba  Ba0  1  0.79695411  0.75000000  0.87124302  1.0
  Ba  Ba1  1  0.29695411  0.75000000  0.62875698  1.0
  Ba  Ba2  1  0.20304589  0.25000000  0.12875698  1.0
  Ba  Ba3  1  0.70304589  0.25000000  0.37124302  1.0
  Mn  Mn4  1  0.72916056  0.75000000  0.13590835  1.0
  Mn  Mn5  1  0.22916056  0.75000000  0.36409165  1.0
  Mn  Mn6  1  0.27083944  0.25000000  0.86409165  1.0
  Mn  Mn7  1  0.77083944  0.25000000  0.63590835  1.0
  S  S8  1  0.73749258  0.75000000  0.54755236  1.0
  S  S9  1  0.23749258  0.75000000  0.95244764  1.0
  S  S10  1  0.26250742  0.25000000  0.45244764  1.0
  S  S11  1  0.76250742  0.25000000  0.04755236  1.0
  S  S12  1  0.96563294  0.75000000  0.25938798  1.0
  S  S13  1  0.46563294  0.75000000  0.24061202  1.0
  S  S14  1  0.03436706  0.25000000  0.74061202  1.0
  S  S15  1  0.53436706  0.25000000  0.75938798  1.0
