# generated using pymatgen
data_C
_symmetry_space_group_name_H-M   'P 1'
_cell_length_a   2.52227155
_cell_length_b   2.52227155
_cell_length_c   16.55688032
_cell_angle_alpha   90.00000000
_cell_angle_beta   90.00000000
_cell_angle_gamma   120.00000000
_symmetry_Int_Tables_number   1
_chemical_formula_structural   C
_chemical_formula_sum   C16
_cell_volume   91.22057896
_cell_formula_units_Z   16
loop_
 _symmetry_equiv_pos_site_id
 _symmetry_equiv_pos_as_xyz
  1  'x, y, z'
loop_
 _atom_site_type_symbol
 _atom_site_label
 _atom_site_symmetry_multiplicity
 _atom_site_fract_x
 _atom_site_fract_y
 _atom_site_fract_z
 _atom_site_occupancy
  C  C0  1  0.33333333  0.66666667  0.42212482  1.0
  C  C1  1  0.33333333  0.66666667  0.07787518  1.0
  C  C2  1  0.66666667  0.33333333  0.92212482  1.0
  C  C3  1  0.66666667  0.33333333  0.57787518  1.0
  C  C4  1  0.33333333  0.66666667  0.32876640  1.0
  C  C5  1  0.33333333  0.66666667  0.17123360  1.0
  C  C6  1  0.66666667  0.33333333  0.82876640  1.0
  C  C7  1  0.66666667  0.33333333  0.67123360  1.0
  C  C8  1  0.33333333  0.66666667  0.79741564  1.0
  C  C9  1  0.33333333  0.66666667  0.70258436  1.0
  C  C10  1  0.66666667  0.33333333  0.29741564  1.0
  C  C11  1  0.66666667  0.33333333  0.20258436  1.0
  C  C12  1  0.00000000  0.00000000  0.45329018  1.0
  C  C13  1  0.00000000  0.00000000  0.04670982  1.0
  C  C14  1  0.00000000  0.00000000  0.95329018  1.0
  C  C15  1  0.00000000  0.00000000  0.54670982  1.0
