# generated using pymatgen
data_Zr6CI14
_symmetry_space_group_name_H-M   'P 1'
_cell_length_a   11.19959115
_cell_length_b   11.19959115
_cell_length_c   13.18648094
_cell_angle_alpha   90.00000000
_cell_angle_beta   90.00000000
_cell_angle_gamma   89.89577928
_symmetry_Int_Tables_number   1
_chemical_formula_structural   Zr6CI14
_chemical_formula_sum   'Zr12 C2 I28'
_cell_volume   1653.98866837
_cell_formula_units_Z   2
loop_
 _symmetry_equiv_pos_site_id
 _symmetry_equiv_pos_as_xyz
  1  'x, y, z'
loop_
 _atom_site_type_symbol
 _atom_site_label
 _atom_site_symmetry_multiplicity
 _atom_site_fract_x
 _atom_site_fract_y
 _atom_site_fract_z
 _atom_site_occupancy
  Zr  Zr0  1  0.44766981  1.33958402  0.39023131  1.0
  Zr  Zr1  1  -0.05233019  0.83958402  0.10976869  1.0
  Zr  Zr2  1  0.33958402  1.44766981  0.60976869  1.0
  Zr  Zr3  1  -0.16041598  0.94766981  0.89023131  1.0
  Zr  Zr4  1  -0.33958402  0.55233019  0.39023131  1.0
  Zr  Zr5  1  0.16041598  1.05233019  0.10976869  1.0
  Zr  Zr6  1  -0.44766981  0.66041598  0.60976869  1.0
  Zr  Zr7  1  0.05233019  1.16041598  0.89023131  1.0
  Zr  Zr8  1  -0.12326546  1.12326546  0.08648794  1.0
  Zr  Zr9  1  0.37673454  0.62326546  0.41351206  1.0
  Zr  Zr10  1  0.12326546  0.87673454  0.91351206  1.0
  Zr  Zr11  1  -0.37673454  1.37673454  0.58648794  1.0
  C  C12  1  -0.50000000  0.50000000  0.50000000  1.0
  C  C13  1  -0.00000000  1.00000000  0.00000000  1.0
  I  I14  1  -0.40363991  1.15450740  0.48128199  1.0
  I  I15  1  0.09636009  0.65450740  0.01871801  1.0
  I  I16  1  0.15450740  0.59636009  0.51871801  1.0
  I  I17  1  -0.34549260  1.09636009  0.98128199  1.0
  I  I18  1  -0.15450740  1.40363991  0.48128199  1.0
  I  I19  1  0.34549260  0.90363991  0.01871801  1.0
  I  I20  1  0.40363991  0.84549260  0.51871801  1.0
  I  I21  1  -0.09636009  1.34549260  0.98128199  1.0
  I  I22  1  -0.21659234  0.96872038  0.24033022  1.0
  I  I23  1  0.28340766  1.46872038  0.25966978  1.0
  I  I24  1  -0.03127962  0.78340766  0.75966978  1.0
  I  I25  1  0.46872038  1.28340766  0.74033022  1.0
  I  I26  1  0.03127962  1.21659234  0.24033022  1.0
  I  I27  1  -0.46872038  0.71659234  0.25966978  1.0
  I  I28  1  0.21659234  1.03127962  0.75966978  1.0
  I  I29  1  -0.28340766  0.53127962  0.74033022  1.0
  I  I30  1  -0.37043084  1.37043084  0.23542029  1.0
  I  I31  1  0.12956916  0.87043084  0.26457971  1.0
  I  I32  1  0.37043084  0.62956916  0.76457971  1.0
  I  I33  1  -0.12956916  1.12956916  0.73542029  1.0
  I  I34  1  0.38266408  1.11733592  0.25000000  1.0
  I  I35  1  -0.11733592  0.61733592  0.25000000  1.0
  I  I36  1  0.11733592  1.38266408  0.75000000  1.0
  I  I37  1  -0.38266408  0.88266408  0.75000000  1.0
  I  I38  1  0.24652856  1.24652856  0.50000000  1.0
  I  I39  1  -0.25347144  0.74652856  -0.00000000  1.0
  I  I40  1  -0.24652856  0.75347144  0.50000000  1.0
  I  I41  1  0.25347144  1.25347144  -0.00000000  1.0
