# generated using pymatgen
data_Y3AlC3
_symmetry_space_group_name_H-M   'P 1'
_cell_length_a   7.05922739
_cell_length_b   3.57431818
_cell_length_c   9.97987788
_cell_angle_alpha   90.00000000
_cell_angle_beta   90.00000000
_cell_angle_gamma   90.00000000
_symmetry_Int_Tables_number   1
_chemical_formula_structural   Y3AlC3
_chemical_formula_sum   'Y6 Al2 C6'
_cell_volume   251.81152825
_cell_formula_units_Z   2
loop_
 _symmetry_equiv_pos_site_id
 _symmetry_equiv_pos_as_xyz
  1  'x, y, z'
loop_
 _atom_site_type_symbol
 _atom_site_label
 _atom_site_symmetry_multiplicity
 _atom_site_fract_x
 _atom_site_fract_y
 _atom_site_fract_z
 _atom_site_occupancy
  Y  Y0  1  0.99012549  0.50000000  0.19896489  1.0
  Y  Y1  1  0.49012549  0.50000000  0.80103511  1.0
  Y  Y2  1  0.00987451  0.50000000  0.80103511  1.0
  Y  Y3  1  0.50987451  0.50000000  0.19896489  1.0
  Y  Y4  1  0.75000000  0.00000000  0.45690511  1.0
  Y  Y5  1  0.25000000  0.00000000  0.54309489  1.0
  Al  Al6  1  0.75000000  0.00000000  0.00579666  1.0
  Al  Al7  1  0.25000000  0.00000000  0.99420334  1.0
  C  C8  1  0.99151662  0.50000000  0.56599074  1.0
  C  C9  1  0.49151662  0.50000000  0.43400926  1.0
  C  C10  1  0.00848338  0.50000000  0.43400926  1.0
  C  C11  1  0.50848338  0.50000000  0.56599074  1.0
  C  C12  1  0.75000000  0.00000000  0.20849408  1.0
  C  C13  1  0.25000000  0.00000000  0.79150592  1.0
