# generated using pymatgen
data_In2Si2O7
_symmetry_space_group_name_H-M   'P 1'
_cell_length_a   6.74859948
_cell_length_b   6.74859948
_cell_length_c   6.74859948
_cell_angle_alpha   60.00000000
_cell_angle_beta   60.00000000
_cell_angle_gamma   60.00000000
_symmetry_Int_Tables_number   1
_chemical_formula_structural   In2Si2O7
_chemical_formula_sum   'In4 Si4 O14'
_cell_volume   217.33314522
_cell_formula_units_Z   2
loop_
 _symmetry_equiv_pos_site_id
 _symmetry_equiv_pos_as_xyz
  1  'x, y, z'
loop_
 _atom_site_type_symbol
 _atom_site_label
 _atom_site_symmetry_multiplicity
 _atom_site_fract_x
 _atom_site_fract_y
 _atom_site_fract_z
 _atom_site_occupancy
  In  In0  1  1.12500000  0.62500000  0.62500000  1.0
  In  In1  1  0.62500000  1.12500000  -0.37500000  1.0
  In  In2  1  -0.37500000  0.62500000  1.12500000  1.0
  In  In3  1  -0.37500000  0.62500000  0.62500000  1.0
  Si  Si4  1  0.62500000  1.12500000  0.12500000  1.0
  Si  Si5  1  0.12500000  1.62500000  0.12500000  1.0
  Si  Si6  1  0.12500000  0.12500000  1.62500000  1.0
  Si  Si7  1  0.12500000  0.12500000  0.12500000  1.0
  O  O8  1  0.50000000  -0.50000000  0.50000000  1.0
  O  O9  1  0.75000000  0.75000000  0.75000000  1.0
  O  O10  1  0.80393726  0.80393726  -0.80393726  1.0
  O  O11  1  0.19606274  1.19606274  -0.19606274  1.0
  O  O12  1  0.80393726  -0.80393726  0.80393726  1.0
  O  O13  1  0.19606274  -0.19606274  0.19606274  1.0
  O  O14  1  -0.80393726  0.80393726  0.80393726  1.0
  O  O15  1  -0.19606274  0.19606274  0.19606274  1.0
  O  O16  1  0.44606274  1.44606274  0.05393726  1.0
  O  O17  1  0.05393726  0.05393726  0.44606274  1.0
  O  O18  1  0.44606274  1.05393726  0.44606274  1.0
  O  O19  1  0.05393726  1.44606274  0.05393726  1.0
  O  O20  1  0.05393726  1.44606274  0.44606274  1.0
  O  O21  1  0.44606274  1.05393726  0.05393726  1.0
