# generated using pymatgen
data_ZnS
_symmetry_space_group_name_H-M   'P 1'
_cell_length_a   3.84940786
_cell_length_b   3.84940786
_cell_length_c   75.51838800
_cell_angle_alpha   90.00000000
_cell_angle_beta   90.00000000
_cell_angle_gamma   120.00000000
_symmetry_Int_Tables_number   1
_chemical_formula_structural   ZnS
_chemical_formula_sum   'Zn24 S24'
_cell_volume   969.10581708
_cell_formula_units_Z   24
loop_
 _symmetry_equiv_pos_site_id
 _symmetry_equiv_pos_as_xyz
  1  'x, y, z'
loop_
 _atom_site_type_symbol
 _atom_site_label
 _atom_site_symmetry_multiplicity
 _atom_site_fract_x
 _atom_site_fract_y
 _atom_site_fract_z
 _atom_site_occupancy
  Zn  Zn0  1  0.00000000  0.00000000  0.04165824  1.0
  Zn  Zn1  1  0.00000000  0.00000000  0.20835602  1.0
  Zn  Zn2  1  0.00000000  0.00000000  0.33329236  1.0
  Zn  Zn3  1  0.00000000  0.00000000  0.41670819  1.0
  Zn  Zn4  1  0.00000000  0.00000000  0.54162641  1.0
  Zn  Zn5  1  0.00000000  0.00000000  0.62502359  1.0
  Zn  Zn6  1  0.00000000  0.00000000  0.79168632  1.0
  Zn  Zn7  1  0.00000000  0.00000000  0.91666636  1.0
  Zn  Zn8  1  0.66666667  0.33333333  0.12502367  1.0
  Zn  Zn9  1  0.66666667  0.33333333  0.25000495  1.0
  Zn  Zn10  1  0.66666667  0.33333333  0.37500330  1.0
  Zn  Zn11  1  0.66666667  0.33333333  0.49999016  1.0
  Zn  Zn12  1  0.66666667  0.33333333  0.66664617  1.0
  Zn  Zn13  1  0.66666667  0.33333333  0.75004207  1.0
  Zn  Zn14  1  0.66666667  0.33333333  0.87496036  1.0
  Zn  Zn15  1  0.66666667  0.33333333  0.95835607  1.0
  Zn  Zn16  1  0.33333333  0.66666667  -0.00002534  1.0
  Zn  Zn17  1  0.33333333  0.66666667  0.08333208  1.0
  Zn  Zn18  1  0.33333333  0.66666667  0.16671378  1.0
  Zn  Zn19  1  0.33333333  0.66666667  0.29165414  1.0
  Zn  Zn20  1  0.33333333  0.66666667  0.45835131  1.0
  Zn  Zn21  1  0.33333333  0.66666667  0.58333116  1.0
  Zn  Zn22  1  0.33333333  0.66666667  0.70834106  1.0
  Zn  Zn23  1  0.33333333  0.66666667  0.83332365  1.0
  S  S24  1  0.00000000  0.00000000  0.01038435  1.0
  S  S25  1  0.00000000  0.00000000  0.17712591  1.0
  S  S26  1  0.00000000  0.00000000  0.30206898  1.0
  S  S27  1  0.00000000  0.00000000  0.38547794  1.0
  S  S28  1  0.00000000  0.00000000  0.51040369  1.0
  S  S29  1  0.00000000  0.00000000  0.59379985  1.0
  S  S30  1  0.00000000  0.00000000  0.76045516  1.0
  S  S31  1  0.00000000  0.00000000  0.88538360  1.0
  S  S32  1  0.66666667  0.33333333  0.09374628  1.0
  S  S33  1  0.66666667  0.33333333  0.21877368  1.0
  S  S34  1  0.66666667  0.33333333  0.34371913  1.0
  S  S35  1  0.66666667  0.33333333  0.46876244  1.0
  S  S36  1  0.66666667  0.33333333  0.63542811  1.0
  S  S37  1  0.66666667  0.33333333  0.71881437  1.0
  S  S38  1  0.66666667  0.33333333  0.84373869  1.0
  S  S39  1  0.66666667  0.33333333  0.92713299  1.0
  S  S40  1  0.33333333  0.66666667  0.05211992  1.0
  S  S41  1  0.33333333  0.66666667  0.13548813  1.0
  S  S42  1  0.33333333  0.66666667  0.26042101  1.0
  S  S43  1  0.33333333  0.66666667  0.42712146  1.0
  S  S44  1  0.33333333  0.66666667  0.55204968  1.0
  S  S45  1  0.33333333  0.66666667  0.67706236  1.0
  S  S46  1  0.33333333  0.66666667  0.80209594  1.0
  S  S47  1  0.33333333  0.66666667  0.96876024  1.0
