# generated using pymatgen
data_BaYbSi4N7
_symmetry_space_group_name_H-M   'P 1'
_cell_length_a   6.07414019
_cell_length_b   6.07414019
_cell_length_c   9.91666610
_cell_angle_alpha   90.00000000
_cell_angle_beta   90.00000000
_cell_angle_gamma   120.00000000
_symmetry_Int_Tables_number   1
_chemical_formula_structural   BaYbSi4N7
_chemical_formula_sum   'Ba2 Yb2 Si8 N14'
_cell_volume   316.85892503
_cell_formula_units_Z   2
loop_
 _symmetry_equiv_pos_site_id
 _symmetry_equiv_pos_as_xyz
  1  'x, y, z'
loop_
 _atom_site_type_symbol
 _atom_site_label
 _atom_site_symmetry_multiplicity
 _atom_site_fract_x
 _atom_site_fract_y
 _atom_site_fract_z
 _atom_site_occupancy
  Ba  Ba0  1  0.33333333  0.66666667  0.45117911  1.0
  Ba  Ba1  1  0.66666667  0.33333333  0.95117911  1.0
  Yb  Yb2  1  0.33333333  0.66666667  0.07806679  1.0
  Yb  Yb3  1  0.66666667  0.33333333  0.57806679  1.0
  Si  Si4  1  0.34811058  0.17405529  0.26758836  1.0
  Si  Si5  1  0.17405529  0.34811058  0.76758836  1.0
  Si  Si6  1  0.17405529  0.82594471  0.76758836  1.0
  Si  Si7  1  0.82594471  0.17405529  0.26758836  1.0
  Si  Si8  1  0.82594471  0.65188942  0.26758836  1.0
  Si  Si9  1  0.65188942  0.82594471  0.76758836  1.0
  Si  Si10  1  0.00000000  0.00000000  0.00016272  1.0
  Si  Si11  1  0.00000000  0.00000000  0.50016272  1.0
  N  N12  1  0.97650173  0.48825086  0.21425887  1.0
  N  N13  1  0.48825086  0.97650173  0.71425887  1.0
  N  N14  1  0.48825086  0.51174914  0.71425887  1.0
  N  N15  1  0.51174914  0.48825086  0.21425887  1.0
  N  N16  1  0.51174914  0.02349827  0.21425887  1.0
  N  N17  1  0.02349827  0.51174914  0.71425887  1.0
  N  N18  1  0.30662128  0.15331064  0.44027830  1.0
  N  N19  1  0.15331064  0.30662128  0.94027830  1.0
  N  N20  1  0.15331064  0.84668936  0.94027830  1.0
  N  N21  1  0.84668936  0.15331064  0.44027830  1.0
  N  N22  1  0.84668936  0.69337872  0.44027830  1.0
  N  N23  1  0.69337872  0.84668936  0.94027830  1.0
  N  N24  1  0.00000000  0.00000000  0.19091477  1.0
  N  N25  1  -0.00000000  -0.00000000  0.69091477  1.0
