# generated using pymatgen
data_PtSO4
_symmetry_space_group_name_H-M   'P 1'
_cell_length_a   4.47665430
_cell_length_b   4.47665430
_cell_length_c   8.84880328
_cell_angle_alpha   90.00000000
_cell_angle_beta   90.00000000
_cell_angle_gamma   90.00000000
_symmetry_Int_Tables_number   1
_chemical_formula_structural   PtSO4
_chemical_formula_sum   'Pt2 S2 O8'
_cell_volume   177.33385584
_cell_formula_units_Z   2
loop_
 _symmetry_equiv_pos_site_id
 _symmetry_equiv_pos_as_xyz
  1  'x, y, z'
loop_
 _atom_site_type_symbol
 _atom_site_label
 _atom_site_symmetry_multiplicity
 _atom_site_fract_x
 _atom_site_fract_y
 _atom_site_fract_z
 _atom_site_occupancy
  Pt  Pt0  1  0.50000000  0.00000000  0.50000000  1.0
  Pt  Pt1  1  0.00000000  0.50000000  0.00000000  1.0
  S  S2  1  0.00000000  0.00000000  0.25000000  1.0
  S  S3  1  0.00000000  0.00000000  0.75000000  1.0
  O  O4  1  0.22009355  0.17578769  0.34279173  1.0
  O  O5  1  0.77990645  0.82421231  0.34279173  1.0
  O  O6  1  0.17578769  0.77990645  0.84279173  1.0
  O  O7  1  0.82421231  0.22009355  0.84279173  1.0
  O  O8  1  0.77990645  0.82421231  0.65720827  1.0
  O  O9  1  0.22009355  0.17578769  0.65720827  1.0
  O  O10  1  0.82421231  0.22009355  0.15720827  1.0
  O  O11  1  0.17578769  0.77990645  0.15720827  1.0
