# generated using pymatgen
data_ZnAu2(CN)4
_symmetry_space_group_name_H-M   'P 1'
_cell_length_a   8.84000154
_cell_length_b   8.84000154
_cell_length_c   13.71530313
_cell_angle_alpha   83.29292100
_cell_angle_beta   96.70707900
_cell_angle_gamma   88.18842882
_symmetry_Int_Tables_number   1
_chemical_formula_structural   ZnAu2(CN)4
_chemical_formula_sum   'Zn4 Au8 C16 N16'
_cell_volume   1056.05777391
_cell_formula_units_Z   4
loop_
 _symmetry_equiv_pos_site_id
 _symmetry_equiv_pos_as_xyz
  1  'x, y, z'
loop_
 _atom_site_type_symbol
 _atom_site_label
 _atom_site_symmetry_multiplicity
 _atom_site_fract_x
 _atom_site_fract_y
 _atom_site_fract_z
 _atom_site_occupancy
  Zn  Zn0  1  0.30668233  -0.22785106  0.25630347  1.0
  Zn  Zn1  1  1.22785106  0.69331767  0.75630347  1.0
  Zn  Zn2  1  0.77214894  -0.69331767  0.24369653  1.0
  Zn  Zn3  1  1.69331767  0.22785106  0.74369653  1.0
  Au  Au4  1  0.64256375  -0.23142982  0.99332622  1.0
  Au  Au5  1  1.23142982  0.35743625  0.49332622  1.0
  Au  Au6  1  0.76857018  -0.35743625  0.50667378  1.0
  Au  Au7  1  1.35743625  0.23142982  0.00667378  1.0
  Au  Au8  1  1.50000000  -0.00000000  0.50000000  1.0
  Au  Au9  1  1.00000000  -0.50000000  -0.00000000  1.0
  Au  Au10  1  0.00000000  -0.00000000  0.50000000  1.0
  Au  Au11  1  0.00000000  0.00000000  0.00000000  1.0
  C  C12  1  0.59308415  -0.33857111  0.40257896  1.0
  C  C13  1  1.33857111  0.40691585  0.90257896  1.0
  C  C14  1  0.66142889  -0.40691585  0.09742104  1.0
  C  C15  1  1.40691585  0.33857111  0.59742104  1.0
  C  C16  1  1.90489003  0.10329048  0.09898900  1.0
  C  C17  1  0.89670952  -0.90489003  0.59898900  1.0
  C  C18  1  1.10329048  0.90489003  0.40101100  1.0
  C  C19  1  0.09510997  -0.10329048  0.90101100  1.0
  C  C20  1  1.58484760  0.12620654  0.39289727  1.0
  C  C21  1  0.87379346  -0.58484760  0.89289727  1.0
  C  C22  1  1.12620654  0.58484760  0.10710273  1.0
  C  C23  1  0.41515240  -0.12620654  0.60710273  1.0
  C  C24  1  1.36666725  0.05591405  0.11031419  1.0
  C  C25  1  0.94408595  -0.36666725  0.61031419  1.0
  C  C26  1  1.05591405  0.36666725  0.38968581  1.0
  C  C27  1  0.63333275  -0.05591405  0.88968581  1.0
  N  N28  1  0.48774343  -0.31909872  0.34211424  1.0
  N  N29  1  1.31909872  0.51225657  0.84211424  1.0
  N  N30  1  0.68090128  -0.51225657  0.15788576  1.0
  N  N31  1  1.51225657  0.31909872  0.65788576  1.0
  N  N32  1  1.84910084  0.16824055  0.15592569  1.0
  N  N33  1  0.83175945  -0.84910084  0.65592569  1.0
  N  N34  1  1.16824055  0.84910084  0.34407431  1.0
  N  N35  1  0.15089916  -0.16824055  0.84407431  1.0
  N  N36  1  1.63942022  0.20015996  0.33131818  1.0
  N  N37  1  0.79984004  -0.63942022  0.83131818  1.0
  N  N38  1  1.20015996  0.63942022  0.16868182  1.0
  N  N39  1  0.36057978  -0.20015996  0.66868182  1.0
  N  N40  1  0.36370473  -0.04953742  0.16958906  1.0
  N  N41  1  1.04953742  0.63629527  0.66958906  1.0
  N  N42  1  0.95046258  -0.63629527  0.33041094  1.0
  N  N43  1  1.63629527  0.04953742  0.83041094  1.0
