# generated using pymatgen
data_VCl3O
_symmetry_space_group_name_H-M   'P 1'
_cell_length_a   5.39847644
_cell_length_b   10.33183514
_cell_length_c   12.29867801
_cell_angle_alpha   90.00000000
_cell_angle_beta   90.00000000
_cell_angle_gamma   90.00000000
_symmetry_Int_Tables_number   1
_chemical_formula_structural   VCl3O
_chemical_formula_sum   'V4 Cl12 O4'
_cell_volume   685.97313769
_cell_formula_units_Z   4
loop_
 _symmetry_equiv_pos_site_id
 _symmetry_equiv_pos_as_xyz
  1  'x, y, z'
loop_
 _atom_site_type_symbol
 _atom_site_label
 _atom_site_symmetry_multiplicity
 _atom_site_fract_x
 _atom_site_fract_y
 _atom_site_fract_z
 _atom_site_occupancy
  V  V0  1  0.15204606  0.75000000  0.96049026  1.0
  V  V1  1  0.65204606  0.75000000  0.53950974  1.0
  V  V2  1  0.84795394  0.25000000  0.03950974  1.0
  V  V3  1  0.34795394  0.25000000  0.46049026  1.0
  Cl  Cl4  1  0.27432752  0.92129960  0.87758559  1.0
  Cl  Cl5  1  0.27432752  0.57870040  0.87758559  1.0
  Cl  Cl6  1  0.77432752  0.92129960  0.62241441  1.0
  Cl  Cl7  1  0.77432752  0.57870040  0.62241441  1.0
  Cl  Cl8  1  0.72567248  0.42129960  0.12241441  1.0
  Cl  Cl9  1  0.72567248  0.07870040  0.12241441  1.0
  Cl  Cl10  1  0.22567248  0.42129960  0.37758559  1.0
  Cl  Cl11  1  0.22567248  0.07870040  0.37758559  1.0
  Cl  Cl12  1  0.27209291  0.75000000  0.12695099  1.0
  Cl  Cl13  1  0.77209291  0.75000000  0.37304901  1.0
  Cl  Cl14  1  0.72790709  0.25000000  0.87304901  1.0
  Cl  Cl15  1  0.22790709  0.25000000  0.62695099  1.0
  O  O16  1  0.36029670  0.75000000  0.54007962  1.0
  O  O17  1  0.86029670  0.75000000  0.95992038  1.0
  O  O18  1  0.63970330  0.25000000  0.45992038  1.0
  O  O19  1  0.13970330  0.25000000  0.04007962  1.0
