# generated using pymatgen
data_K(Zr3I7)2
_symmetry_space_group_name_H-M   'P 1'
_cell_length_a   11.01461709
_cell_length_b   11.01461709
_cell_length_c   14.44821679
_cell_angle_alpha   90.00000000
_cell_angle_beta   90.00000000
_cell_angle_gamma   82.79716256
_symmetry_Int_Tables_number   1
_chemical_formula_structural   K(Zr3I7)2
_chemical_formula_sum   'K2 Zr12 I28'
_cell_volume   1739.05062652
_cell_formula_units_Z   2
loop_
 _symmetry_equiv_pos_site_id
 _symmetry_equiv_pos_as_xyz
  1  'x, y, z'
loop_
 _atom_site_type_symbol
 _atom_site_label
 _atom_site_symmetry_multiplicity
 _atom_site_fract_x
 _atom_site_fract_y
 _atom_site_fract_z
 _atom_site_occupancy
  K  K0  1  0.00000000  1.00000000  0.50000000  1.0
  K  K1  1  -0.50000000  0.50000000  0.00000000  1.0
  Zr  Zr2  1  -0.32483672  0.54833181  0.84620979  1.0
  Zr  Zr3  1  -0.45166819  0.67516328  0.15379021  1.0
  Zr  Zr4  1  0.04833181  1.17516328  0.34620979  1.0
  Zr  Zr5  1  0.17516328  1.04833181  0.65379021  1.0
  Zr  Zr6  1  0.32483672  1.45166819  0.15379021  1.0
  Zr  Zr7  1  0.45166819  1.32483672  0.84620979  1.0
  Zr  Zr8  1  -0.04833181  0.82483672  0.65379021  1.0
  Zr  Zr9  1  -0.17516328  0.95166819  0.34620979  1.0
  Zr  Zr10  1  0.37260836  0.62739164  0.84945542  1.0
  Zr  Zr11  1  -0.37260836  1.37260836  0.15054458  1.0
  Zr  Zr12  1  0.12739164  0.87260836  0.34945542  1.0
  Zr  Zr13  1  -0.12739164  1.12739164  0.65054458  1.0
  I  I14  1  -0.03872146  0.78234420  0.22273488  1.0
  I  I15  1  -0.21765580  0.96127854  0.77726512  1.0
  I  I16  1  0.28234420  1.46127854  0.72273488  1.0
  I  I17  1  0.46127854  1.28234420  0.27726512  1.0
  I  I18  1  0.03872146  1.21765580  0.77726512  1.0
  I  I19  1  0.21765580  1.03872146  0.22273488  1.0
  I  I20  1  -0.28234420  0.53872146  0.27726512  1.0
  I  I21  1  -0.46127854  0.71765580  0.72273488  1.0
  I  I22  1  0.17981562  0.60127053  0.00267451  1.0
  I  I23  1  -0.39872947  1.17981562  0.99732549  1.0
  I  I24  1  0.10127053  0.67981562  0.50267451  1.0
  I  I25  1  -0.32018438  1.10127053  0.49732549  1.0
  I  I26  1  -0.17981562  1.39872947  0.99732549  1.0
  I  I27  1  0.39872947  0.82018438  0.00267451  1.0
  I  I28  1  -0.10127053  1.32018438  0.49732549  1.0
  I  I29  1  0.32018438  0.89872947  0.50267451  1.0
  I  I30  1  0.10012893  1.39987107  0.25000000  1.0
  I  I31  1  0.39987107  1.10012893  0.75000000  1.0
  I  I32  1  -0.10012893  0.60012893  0.75000000  1.0
  I  I33  1  -0.39987107  0.89987107  0.25000000  1.0
  I  I34  1  0.17074907  0.82925093  0.76983643  1.0
  I  I35  1  -0.17074907  1.17074907  0.23016357  1.0
  I  I36  1  0.32925093  0.67074907  0.26983643  1.0
  I  I37  1  -0.32925093  1.32925093  0.73016357  1.0
  I  I38  1  -0.27646570  0.72353430  0.00000000  1.0
  I  I39  1  0.22353430  1.22353430  0.50000000  1.0
  I  I40  1  0.27646570  1.27646570  0.00000000  1.0
  I  I41  1  -0.22353430  0.77646570  0.50000000  1.0
