# generated using pymatgen
data_Hg3AsClO4
_symmetry_space_group_name_H-M   'P 1'
_cell_length_a   8.63498710
_cell_length_b   8.63498710
_cell_length_c   8.63498710
_cell_angle_alpha   90.00000000
_cell_angle_beta   90.00000000
_cell_angle_gamma   90.00000000
_symmetry_Int_Tables_number   1
_chemical_formula_structural   Hg3AsClO4
_chemical_formula_sum   'Hg12 As4 Cl4 O16'
_cell_volume   643.85056171
_cell_formula_units_Z   4
loop_
 _symmetry_equiv_pos_site_id
 _symmetry_equiv_pos_as_xyz
  1  'x, y, z'
loop_
 _atom_site_type_symbol
 _atom_site_label
 _atom_site_symmetry_multiplicity
 _atom_site_fract_x
 _atom_site_fract_y
 _atom_site_fract_z
 _atom_site_occupancy
  Hg  Hg0  1  0.39576617  0.35143561  0.69881525  1.0
  Hg  Hg1  1  0.89576617  0.14856439  0.30118475  1.0
  Hg  Hg2  1  0.85143561  0.80118475  0.60423383  1.0
  Hg  Hg3  1  0.35143561  0.69881525  0.39576617  1.0
  Hg  Hg4  1  0.30118475  0.89576617  0.14856439  1.0
  Hg  Hg5  1  0.80118475  0.60423383  0.85143561  1.0
  Hg  Hg6  1  0.60423383  0.85143561  0.80118475  1.0
  Hg  Hg7  1  0.10423383  0.64856439  0.19881525  1.0
  Hg  Hg8  1  0.14856439  0.30118475  0.89576617  1.0
  Hg  Hg9  1  0.64856439  0.19881525  0.10423383  1.0
  Hg  Hg10  1  0.69881525  0.39576617  0.35143561  1.0
  Hg  Hg11  1  0.19881525  0.10423383  0.64856439  1.0
  As  As12  1  0.23000535  0.73000535  0.76999465  1.0
  As  As13  1  0.73000535  0.76999465  0.23000535  1.0
  As  As14  1  0.76999465  0.23000535  0.73000535  1.0
  As  As15  1  0.26999465  0.26999465  0.26999465  1.0
  Cl  Cl16  1  0.47618709  0.97618709  0.52381291  1.0
  Cl  Cl17  1  0.97618709  0.52381291  0.47618709  1.0
  Cl  Cl18  1  0.52381291  0.47618709  0.97618709  1.0
  Cl  Cl19  1  0.02381291  0.02381291  0.02381291  1.0
  O  O20  1  0.34996687  0.62090652  0.64590136  1.0
  O  O21  1  0.84996687  0.87909348  0.35409864  1.0
  O  O22  1  0.12090652  0.85409864  0.65003313  1.0
  O  O23  1  0.62090652  0.64590136  0.34996687  1.0
  O  O24  1  0.35409864  0.84996687  0.87909348  1.0
  O  O25  1  0.85409864  0.65003313  0.12090652  1.0
  O  O26  1  0.65003313  0.12090652  0.85409864  1.0
  O  O27  1  0.15003313  0.37909348  0.14590136  1.0
  O  O28  1  0.87909348  0.35409864  0.84996687  1.0
  O  O29  1  0.37909348  0.14590136  0.15003313  1.0
  O  O30  1  0.64590136  0.34996687  0.62090652  1.0
  O  O31  1  0.14590136  0.15003313  0.37909348  1.0
  O  O32  1  0.11502958  0.61502958  0.88497042  1.0
  O  O33  1  0.61502958  0.88497042  0.11502958  1.0
  O  O34  1  0.88497042  0.11502958  0.61502958  1.0
  O  O35  1  0.38497042  0.38497042  0.38497042  1.0
