# generated using pymatgen
data_BaLiBS3
_symmetry_space_group_name_H-M   'P 1'
_cell_length_a   7.67339357
_cell_length_b   8.73702481
_cell_length_c   8.77263939
_cell_angle_alpha   90.00000000
_cell_angle_beta   116.28939295
_cell_angle_gamma   90.00000000
_symmetry_Int_Tables_number   1
_chemical_formula_structural   BaLiBS3
_chemical_formula_sum   'Ba4 Li4 B4 S12'
_cell_volume   527.30849507
_cell_formula_units_Z   4
loop_
 _symmetry_equiv_pos_site_id
 _symmetry_equiv_pos_as_xyz
  1  'x, y, z'
loop_
 _atom_site_type_symbol
 _atom_site_label
 _atom_site_symmetry_multiplicity
 _atom_site_fract_x
 _atom_site_fract_y
 _atom_site_fract_z
 _atom_site_occupancy
  Ba  Ba0  1  0.68477976  0.86916297  0.30908806  1.0
  Ba  Ba1  1  0.68477976  0.63083703  0.80908806  1.0
  Ba  Ba2  1  0.31522024  0.36916297  0.19091194  1.0
  Ba  Ba3  1  0.31522024  0.13083703  0.69091194  1.0
  Li  Li4  1  0.88540586  0.42470385  0.29339707  1.0
  Li  Li5  1  0.88540586  0.07529615  0.79339707  1.0
  Li  Li6  1  0.11459414  0.92470385  0.20660293  1.0
  Li  Li7  1  0.11459414  0.57529615  0.70660293  1.0
  B  B8  1  0.77227429  0.15874793  0.07983553  1.0
  B  B9  1  0.77227429  0.34125207  0.57983553  1.0
  B  B10  1  0.22772571  0.65874793  0.42016447  1.0
  B  B11  1  0.22772571  0.84125207  0.92016447  1.0
  S  S12  1  0.98715468  0.15574329  0.28764090  1.0
  S  S13  1  0.98715468  0.34425671  0.78764090  1.0
  S  S14  1  0.01284532  0.65574329  0.21235910  1.0
  S  S15  1  0.01284532  0.84425671  0.71235910  1.0
  S  S16  1  0.71423301  0.51548574  0.45231334  1.0
  S  S17  1  0.71423301  0.98451426  0.95231334  1.0
  S  S18  1  0.28576699  0.01548574  0.04768666  1.0
  S  S19  1  0.28576699  0.48451426  0.54768666  1.0
  S  S20  1  0.61752557  0.32768557  0.01116779  1.0
  S  S21  1  0.61752557  0.17231443  0.51116779  1.0
  S  S22  1  0.38247443  0.82768557  0.48883221  1.0
  S  S23  1  0.38247443  0.67231443  0.98883221  1.0
