# generated using pymatgen
data_GdMoC2
_symmetry_space_group_name_H-M   'P 1'
_cell_length_a   5.72267997
_cell_length_b   3.45210908
_cell_length_c   10.77697084
_cell_angle_alpha   90.00000000
_cell_angle_beta   90.00000000
_cell_angle_gamma   90.00000000
_symmetry_Int_Tables_number   1
_chemical_formula_structural   GdMoC2
_chemical_formula_sum   'Gd4 Mo4 C8'
_cell_volume   212.90245890
_cell_formula_units_Z   4
loop_
 _symmetry_equiv_pos_site_id
 _symmetry_equiv_pos_as_xyz
  1  'x, y, z'
loop_
 _atom_site_type_symbol
 _atom_site_label
 _atom_site_symmetry_multiplicity
 _atom_site_fract_x
 _atom_site_fract_y
 _atom_site_fract_z
 _atom_site_occupancy
  Mo  Mo0  1  0.59298616  0.75000000  0.60829123  1.0
  Mo  Mo1  1  0.09298616  0.75000000  0.89170877  1.0
  Mo  Mo2  1  0.40701384  0.25000000  0.39170877  1.0
  Mo  Mo3  1  0.90701384  0.25000000  0.10829123  1.0
  Gd  Gd4  1  0.91462057  0.75000000  0.36138423  1.0
  Gd  Gd5  1  0.41462057  0.75000000  0.13861577  1.0
  Gd  Gd6  1  0.08537943  0.25000000  0.63861577  1.0
  Gd  Gd7  1  0.58537943  0.25000000  0.86138423  1.0
  C  C8  1  0.78327714  0.75000000  0.01974204  1.0
  C  C9  1  0.28327714  0.75000000  0.48025796  1.0
  C  C10  1  0.21672286  0.25000000  0.98025796  1.0
  C  C11  1  0.71672286  0.25000000  0.51974204  1.0
  C  C12  1  0.84308315  0.75000000  0.74877989  1.0
  C  C13  1  0.34308315  0.75000000  0.75122011  1.0
  C  C14  1  0.15691685  0.25000000  0.25122011  1.0
  C  C15  1  0.65691685  0.25000000  0.24877989  1.0
