# generated using pymatgen
data_CaBeB2O5
_symmetry_space_group_name_H-M   'P 1'
_cell_length_a   5.18426347
_cell_length_b   3.90822005
_cell_length_c   17.74563724
_cell_angle_alpha   90.00000000
_cell_angle_beta   100.06665685
_cell_angle_gamma   90.00000000
_symmetry_Int_Tables_number   1
_chemical_formula_structural   CaBeB2O5
_chemical_formula_sum   'Ca4 Be4 B8 O20'
_cell_volume   354.01343129
_cell_formula_units_Z   4
loop_
 _symmetry_equiv_pos_site_id
 _symmetry_equiv_pos_as_xyz
  1  'x, y, z'
loop_
 _atom_site_type_symbol
 _atom_site_label
 _atom_site_symmetry_multiplicity
 _atom_site_fract_x
 _atom_site_fract_y
 _atom_site_fract_z
 _atom_site_occupancy
  Ca  Ca0  1  0.73039141  0.98088134  0.91789195  1.0
  Ca  Ca1  1  0.73039141  0.51911866  0.41789195  1.0
  Ca  Ca2  1  0.26960859  0.48088134  0.58210805  1.0
  Ca  Ca3  1  0.26960859  0.01911866  0.08210805  1.0
  Be  Be4  1  0.39520360  0.13294177  0.28807513  1.0
  Be  Be5  1  0.39520360  0.36705823  0.78807513  1.0
  Be  Be6  1  0.60479640  0.63294177  0.21192487  1.0
  Be  Be7  1  0.60479640  0.86705823  0.71192487  1.0
  B  B8  1  0.90378806  0.15162011  0.28531533  1.0
  B  B9  1  0.90378806  0.34837989  0.78531533  1.0
  B  B10  1  0.09621194  0.65162011  0.21468467  1.0
  B  B11  1  0.09621194  0.84837989  0.71468467  1.0
  B  B12  1  0.79298279  0.39189514  0.09757052  1.0
  B  B13  1  0.79298279  0.10810486  0.59757052  1.0
  B  B14  1  0.20701721  0.89189514  0.40242948  1.0
  B  B15  1  0.20701721  0.60810486  0.90242948  1.0
  O  O16  1  0.96008873  0.01068445  0.36438521  1.0
  O  O17  1  0.96008873  0.48931555  0.86438521  1.0
  O  O18  1  0.03991127  0.51068445  0.13561479  1.0
  O  O19  1  0.03991127  0.98931555  0.63561479  1.0
  O  O20  1  0.87253616  0.87307615  0.22639931  1.0
  O  O21  1  0.87253616  0.62692385  0.72639931  1.0
  O  O22  1  0.12746384  0.37307615  0.27360069  1.0
  O  O23  1  0.12746384  0.12692385  0.77360069  1.0
  O  O24  1  0.79564229  0.17824853  0.03802102  1.0
  O  O25  1  0.79564229  0.32175147  0.53802102  1.0
  O  O26  1  0.20435771  0.67824853  0.46197898  1.0
  O  O27  1  0.20435771  0.82175147  0.96197898  1.0
  O  O28  1  0.65849947  0.34191265  0.27909261  1.0
  O  O29  1  0.65849947  0.15808735  0.77909261  1.0
  O  O30  1  0.34150053  0.84191265  0.22090739  1.0
  O  O31  1  0.34150053  0.65808735  0.72090739  1.0
  O  O32  1  0.43095510  -0.01391806  0.37537437  1.0
  O  O33  1  0.43095510  0.51391806  0.87537437  1.0
  O  O34  1  0.56904490  0.48608194  0.12462563  1.0
  O  O35  1  0.56904490  1.01391806  0.62462563  1.0
