# generated using pymatgen
data_Cs2BrN3
_symmetry_space_group_name_H-M   'P 1'
_cell_length_a   6.44508619
_cell_length_b   6.44508619
_cell_length_c   8.40883453
_cell_angle_alpha   90.00000000
_cell_angle_beta   90.00000000
_cell_angle_gamma   90.00000000
_symmetry_Int_Tables_number   1
_chemical_formula_structural   Cs2BrN3
_chemical_formula_sum   'Cs4 Br2 N6'
_cell_volume   349.29572096
_cell_formula_units_Z   2
loop_
 _symmetry_equiv_pos_site_id
 _symmetry_equiv_pos_as_xyz
  1  'x, y, z'
loop_
 _atom_site_type_symbol
 _atom_site_label
 _atom_site_symmetry_multiplicity
 _atom_site_fract_x
 _atom_site_fract_y
 _atom_site_fract_z
 _atom_site_occupancy
  Cs  Cs0  1  0.50000000  0.50000000  0.74901016  1.0
  Cs  Cs1  1  0.50000000  0.50000000  0.25098984  1.0
  Cs  Cs2  1  0.00000000  0.00000000  0.74901016  1.0
  Cs  Cs3  1  0.00000000  0.00000000  0.25098984  1.0
  Br  Br4  1  0.50000000  0.00000000  0.50000000  1.0
  Br  Br5  1  0.00000000  0.50000000  0.50000000  1.0
  N  N6  1  0.36998397  0.13001603  0.00000000  1.0
  N  N7  1  0.86998397  0.36998397  0.00000000  1.0
  N  N8  1  0.63001603  0.86998397  0.00000000  1.0
  N  N9  1  0.13001603  0.63001603  0.00000000  1.0
  N  N10  1  0.50000000  0.00000000  0.00000000  1.0
  N  N11  1  0.00000000  0.50000000  0.00000000  1.0
