# generated using pymatgen
data_Tl2(IO3)3
_symmetry_space_group_name_H-M   'P 1'
_cell_length_a   10.68672720
_cell_length_b   7.26937395
_cell_length_c   7.23669446
_cell_angle_alpha   108.70251002
_cell_angle_beta   105.76557375
_cell_angle_gamma   87.14733237
_symmetry_Int_Tables_number   1
_chemical_formula_structural   Tl2(IO3)3
_chemical_formula_sum   'Tl4 I6 O18'
_cell_volume   512.04038092
_cell_formula_units_Z   2
loop_
 _symmetry_equiv_pos_site_id
 _symmetry_equiv_pos_as_xyz
  1  'x, y, z'
loop_
 _atom_site_type_symbol
 _atom_site_label
 _atom_site_symmetry_multiplicity
 _atom_site_fract_x
 _atom_site_fract_y
 _atom_site_fract_z
 _atom_site_occupancy
  Tl  Tl0  1  0.40754939  0.45477731  -0.83077864  1.0
  Tl  Tl1  1  0.59245061  0.54522269  -0.16922136  1.0
  Tl  Tl2  1  0.00000000  0.00000000  -0.50000000  1.0
  Tl  Tl3  1  -0.00000000  0.50000000  -0.00000000  1.0
  I  I4  1  0.36886447  0.95679141  -0.41477655  1.0
  I  I5  1  0.63113553  0.04320859  -0.58522345  1.0
  I  I6  1  0.18938674  0.97456892  -0.96947103  1.0
  I  I7  1  0.81061326  0.02543108  -0.03052897  1.0
  I  I8  1  0.80939827  0.53351579  -0.55003806  1.0
  I  I9  1  0.19060173  0.46648421  -0.44996194  1.0
  O  O10  1  0.67774535  0.94774164  -0.94249545  1.0
  O  O11  1  0.32225465  0.05225836  -0.05750455  1.0
  O  O12  1  0.81417610  0.29756995  -0.91549380  1.0
  O  O13  1  0.18582390  0.70243005  -0.08450620  1.0
  O  O14  1  0.95680733  0.95219946  -0.84488180  1.0
  O  O15  1  0.04319267  0.04780054  -0.15511820  1.0
  O  O16  1  0.67346362  0.66370978  -0.67608769  1.0
  O  O17  1  0.32653638  0.33629022  -0.32391231  1.0
  O  O18  1  0.39834578  0.94886538  -0.66960326  1.0
  O  O19  1  0.60165422  0.05113462  -0.33039674  1.0
  O  O20  1  0.95436308  0.66732441  -0.56929569  1.0
  O  O21  1  0.04563692  0.33267559  -0.43070431  1.0
  O  O22  1  0.18714259  0.88269835  -0.55408323  1.0
  O  O23  1  0.81285741  0.11730165  -0.44591677  1.0
  O  O24  1  0.40833958  0.70001242  -0.41834519  1.0
  O  O25  1  0.59166042  0.29998758  -0.58165481  1.0
  O  O26  1  0.81066304  0.64943069  -0.27519929  1.0
  O  O27  1  0.18933696  0.35056931  -0.72480071  1.0
