# generated using pymatgen
data_Na2H10SO5
_symmetry_space_group_name_H-M   'P 1'
_cell_length_a   7.12372541
_cell_length_b   7.12372541
_cell_length_c   8.70667839
_cell_angle_alpha   90.00000000
_cell_angle_beta   90.00000000
_cell_angle_gamma   125.79915057
_symmetry_Int_Tables_number   1
_chemical_formula_structural   Na2H10SO5
_chemical_formula_sum   'Na4 H20 S2 O10'
_cell_volume   358.36576660
_cell_formula_units_Z   2
loop_
 _symmetry_equiv_pos_site_id
 _symmetry_equiv_pos_as_xyz
  1  'x, y, z'
loop_
 _atom_site_type_symbol
 _atom_site_label
 _atom_site_symmetry_multiplicity
 _atom_site_fract_x
 _atom_site_fract_y
 _atom_site_fract_z
 _atom_site_occupancy
  Na  Na0  1  0.45464913  0.54535087  0.75000000  1.0
  Na  Na1  1  -0.45464913  0.45464913  0.25000000  1.0
  Na  Na2  1  0.00000000  0.00000000  0.00000000  1.0
  Na  Na3  1  0.00000000  0.00000000  0.50000000  1.0
  H  H4  1  0.01630221  0.73879033  0.75000000  1.0
  H  H5  1  0.73879033  1.01630221  0.25000000  1.0
  H  H6  1  0.26120967  0.98369779  0.75000000  1.0
  H  H7  1  -0.01630221  0.26120967  0.25000000  1.0
  H  H8  1  0.00261184  0.37152303  0.88042535  1.0
  H  H9  1  0.00261184  0.37152303  0.61957465  1.0
  H  H10  1  0.37152303  1.00261184  0.38042535  1.0
  H  H11  1  0.37152303  1.00261184  0.11957465  1.0
  H  H12  1  0.62847697  0.99738816  0.88042535  1.0
  H  H13  1  0.62847697  0.99738816  0.61957465  1.0
  H  H14  1  -0.00261184  0.62847697  0.38042535  1.0
  H  H15  1  -0.00261184  0.62847697  0.11957465  1.0
  H  H16  1  -0.17766408  0.52222934  0.97806435  1.0
  H  H17  1  -0.17766408  0.52222934  0.52193565  1.0
  H  H18  1  0.52222934  0.82233592  0.47806435  1.0
  H  H19  1  0.52222934  0.82233592  0.02193565  1.0
  H  H20  1  0.47777066  1.17766408  0.97806435  1.0
  H  H21  1  0.47777066  1.17766408  0.52193565  1.0
  H  H22  1  0.17766408  0.47777066  0.47806435  1.0
  H  H23  1  0.17766408  0.47777066  0.02193565  1.0
  S  S24  1  -0.31066627  0.31066627  0.75000000  1.0
  S  S25  1  0.31066627  0.68933373  0.25000000  1.0
  O  O26  1  0.13633390  0.38320194  0.92747376  1.0
  O  O27  1  0.13633390  0.38320194  0.57252624  1.0
  O  O28  1  0.38320194  1.13633390  0.42747376  1.0
  O  O29  1  0.38320194  1.13633390  0.07252624  1.0
  O  O30  1  0.61679806  0.86366610  0.92747376  1.0
  O  O31  1  0.61679806  0.86366610  0.57252624  1.0
  O  O32  1  -0.13633390  0.61679806  0.42747376  1.0
  O  O33  1  -0.13633390  0.61679806  0.07252624  1.0
  O  O34  1  0.09275845  0.90724155  0.75000000  1.0
  O  O35  1  -0.09275845  0.09275845  0.25000000  1.0
