# generated using pymatgen
data_La2NiGe3
_symmetry_space_group_name_H-M   'P 1'
_cell_length_a   8.43684601
_cell_length_b   8.43684601
_cell_length_c   8.73518989
_cell_angle_alpha   90.00000000
_cell_angle_beta   90.00000000
_cell_angle_gamma   120.00000000
_symmetry_Int_Tables_number   1
_chemical_formula_structural   La2NiGe3
_chemical_formula_sum   'La8 Ni4 Ge12'
_cell_volume   538.47212583
_cell_formula_units_Z   4
loop_
 _symmetry_equiv_pos_site_id
 _symmetry_equiv_pos_as_xyz
  1  'x, y, z'
loop_
 _atom_site_type_symbol
 _atom_site_label
 _atom_site_symmetry_multiplicity
 _atom_site_fract_x
 _atom_site_fract_y
 _atom_site_fract_z
 _atom_site_occupancy
  La  La0  1  0.00000000  0.00000000  0.25000000  1.0
  La  La1  1  0.00000000  0.00000000  0.75000000  1.0
  La  La2  1  0.50003169  0.99998066  0.25000000  1.0
  La  La3  1  0.99998066  0.50003169  0.75000000  1.0
  La  La4  1  0.49994897  0.49996831  0.25000000  1.0
  La  La5  1  0.00001934  0.50005103  0.25000000  1.0
  La  La6  1  0.49996831  0.49994897  0.75000000  1.0
  La  La7  1  0.50005103  0.00001934  0.75000000  1.0
  Ni  Ni8  1  0.33333333  0.66666667  0.49999899  1.0
  Ni  Ni9  1  0.33333333  0.66666667  0.00000101  1.0
  Ni  Ni10  1  0.66666667  0.33333333  0.99999899  1.0
  Ni  Ni11  1  0.66666667  0.33333333  0.50000101  1.0
  Ge  Ge12  1  0.17318427  0.82683837  0.49999349  1.0
  Ge  Ge13  1  0.17318427  0.82683837  0.00000651  1.0
  Ge  Ge14  1  0.82683837  0.17318427  0.99999349  1.0
  Ge  Ge15  1  0.82683837  0.17318427  0.50000651  1.0
  Ge  Ge16  1  0.65365410  0.82681573  0.49999349  1.0
  Ge  Ge17  1  0.65365410  0.82681573  0.00000651  1.0
  Ge  Ge18  1  0.17316163  0.34634590  0.49999349  1.0
  Ge  Ge19  1  0.17316163  0.34634590  0.00000651  1.0
  Ge  Ge20  1  0.82681573  0.65365410  0.99999349  1.0
  Ge  Ge21  1  0.82681573  0.65365410  0.50000651  1.0
  Ge  Ge22  1  0.34634590  0.17316163  0.99999349  1.0
  Ge  Ge23  1  0.34634590  0.17316163  0.50000651  1.0
