# generated using pymatgen
data_KAlCO6
_symmetry_space_group_name_H-M   'P 1'
_cell_length_a   8.89209530
_cell_length_b   10.50185608
_cell_length_c   5.84092705
_cell_angle_alpha   90.00000000
_cell_angle_beta   90.00000000
_cell_angle_gamma   90.00000000
_symmetry_Int_Tables_number   1
_chemical_formula_structural   KAlCO6
_chemical_formula_sum   'K4 Al4 C4 O24'
_cell_volume   545.44624077
_cell_formula_units_Z   4
loop_
 _symmetry_equiv_pos_site_id
 _symmetry_equiv_pos_as_xyz
  1  'x, y, z'
loop_
 _atom_site_type_symbol
 _atom_site_label
 _atom_site_symmetry_multiplicity
 _atom_site_fract_x
 _atom_site_fract_y
 _atom_site_fract_z
 _atom_site_occupancy
  O  O0  1  0.44259733  0.80547558  0.33986652  1.0
  O  O1  1  0.94259733  0.69452442  0.33986652  1.0
  O  O2  1  0.55740267  0.19452442  0.83986652  1.0
  O  O3  1  0.05740267  0.30547558  0.83986652  1.0
  O  O4  1  0.44653092  0.55709842  0.71285493  1.0
  O  O5  1  0.94653092  0.94290158  0.71285493  1.0
  O  O6  1  0.55346908  0.44290158  0.21285493  1.0
  O  O7  1  0.05346908  0.05709842  0.21285493  1.0
  O  O8  1  0.12589471  0.50173791  0.53480192  1.0
  O  O9  1  0.62589471  0.99826209  0.53480192  1.0
  O  O10  1  0.87410529  0.49826209  0.03480192  1.0
  O  O11  1  0.37410529  0.00173791  0.03480192  1.0
  O  O12  1  0.38603536  0.04834593  0.53705502  1.0
  O  O13  1  0.88603536  0.45165407  0.53705502  1.0
  O  O14  1  0.61396464  0.95165407  0.03705502  1.0
  O  O15  1  0.11396464  0.54834593  0.03705502  1.0
  O  O16  1  0.42682998  0.61876264  0.51714975  1.0
  O  O17  1  0.92682998  0.88123736  0.51714975  1.0
  O  O18  1  0.57317002  0.38123736  0.01714975  1.0
  O  O19  1  0.07317002  0.11876264  0.01714975  1.0
  O  O20  1  0.44899953  0.80388041  0.73159103  1.0
  O  O21  1  0.94899953  0.69611959  0.73159103  1.0
  O  O22  1  0.55100047  0.19611959  0.23159103  1.0
  O  O23  1  0.05100047  0.30388041  0.23159103  1.0
  C  C24  1  0.44092700  0.75883324  0.53619081  1.0
  C  C25  1  0.94092700  0.74116676  0.53619081  1.0
  C  C26  1  0.55907300  0.24116676  0.03619081  1.0
  C  C27  1  0.05907300  0.25883324  0.03619081  1.0
  Al  Al28  1  0.50108123  1.00026683  0.78603339  1.0
  Al  Al29  1  1.00108123  0.49973317  0.78603339  1.0
  Al  Al30  1  0.49891877  -0.00026683  0.28603339  1.0
  Al  Al31  1  -0.00108123  0.50026683  0.28603339  1.0
  K  K32  1  0.16813874  0.80961622  0.03645663  1.0
  K  K33  1  0.66813874  0.69038378  0.03645663  1.0
  K  K34  1  0.83186126  0.19038378  0.53645663  1.0
  K  K35  1  0.33186126  0.30961622  0.53645663  1.0
