# generated using pymatgen
data_Ba6TbIn(BO3)6
_symmetry_space_group_name_H-M   'P 1'
_cell_length_a   8.16788141
_cell_length_b   8.16788141
_cell_length_c   8.16788141
_cell_angle_alpha   105.81065929
_cell_angle_beta   105.81065929
_cell_angle_gamma   105.81065929
_symmetry_Int_Tables_number   1
_chemical_formula_structural   Ba6TbIn(BO3)6
_chemical_formula_sum   'Ba6 Tb1 In1 B6 O18'
_cell_volume   467.75317254
_cell_formula_units_Z   1
loop_
 _symmetry_equiv_pos_site_id
 _symmetry_equiv_pos_as_xyz
  1  'x, y, z'
loop_
 _atom_site_type_symbol
 _atom_site_label
 _atom_site_symmetry_multiplicity
 _atom_site_fract_x
 _atom_site_fract_y
 _atom_site_fract_z
 _atom_site_occupancy
  Ba  Ba0  1  0.76689430  0.66436403  0.15417352  1.0
  Ba  Ba1  1  1.33563597  -0.15417352  0.23310570  1.0
  Ba  Ba2  1  0.84582648  0.23310570  0.33563597  1.0
  Ba  Ba3  1  1.23310570  0.33563597  -0.15417352  1.0
  Ba  Ba4  1  0.66436403  1.15417352  -0.23310570  1.0
  Ba  Ba5  1  1.15417352  0.76689430  -0.33563597  1.0
  Tb  Tb6  1  0.50000000  0.50000000  0.50000000  1.0
  In  In7  1  0.00000000  0.00000000  0.00000000  1.0
  B  B8  1  1.54907809  0.79384541  -0.12459668  1.0
  B  B9  1  1.20615459  0.12459668  -0.54907809  1.0
  B  B10  1  1.12459668  -0.54907809  0.20615459  1.0
  B  B11  1  0.45092191  0.20615459  0.12459668  1.0
  B  B12  1  0.79384541  0.87540332  0.54907809  1.0
  B  B13  1  0.87540332  1.54907809  -0.20615459  1.0
  O  O14  1  0.72018036  0.92871578  -0.00136054  1.0
  O  O15  1  1.07128422  0.00136054  -0.72018036  1.0
  O  O16  1  1.00136054  -0.72018036  0.07128422  1.0
  O  O17  1  0.27981964  0.07128422  0.00136054  1.0
  O  O18  1  0.92871578  0.99863946  -0.27981964  1.0
  O  O19  1  0.99863946  0.72018036  -0.07128422  1.0
  O  O20  1  1.49302257  0.76718402  -0.31054659  1.0
  O  O21  1  1.23281598  0.31054659  -0.49302257  1.0
  O  O22  1  1.31054659  -0.49302257  0.23281598  1.0
  O  O23  1  0.50697743  0.23281598  0.31054659  1.0
  O  O24  1  0.76718402  0.68945341  0.49302257  1.0
  O  O25  1  0.68945341  1.49302257  -0.23281598  1.0
  O  O26  1  0.56556110  0.30132857  0.05761867  1.0
  O  O27  1  0.69867143  0.94238133  0.43443890  1.0
  O  O28  1  0.94238133  1.43443890  -0.30132857  1.0
  O  O29  1  1.43443890  0.69867143  -0.05761867  1.0
  O  O30  1  1.30132857  0.05761867  -0.43443890  1.0
  O  O31  1  1.05761867  -0.43443890  0.30132857  1.0
