# generated using pymatgen
data_Cs6Ni5F12
_symmetry_space_group_name_H-M   'P 1'
_cell_length_a   7.84987449
_cell_length_b   7.84987449
_cell_length_c   21.49199016
_cell_angle_alpha   90.00000000
_cell_angle_beta   90.00000000
_cell_angle_gamma   132.29292705
_symmetry_Int_Tables_number   1
_chemical_formula_structural   Cs6Ni5F12
_chemical_formula_sum   'Cs12 Ni10 F24'
_cell_volume   979.63884413
_cell_formula_units_Z   2
loop_
 _symmetry_equiv_pos_site_id
 _symmetry_equiv_pos_as_xyz
  1  'x, y, z'
loop_
 _atom_site_type_symbol
 _atom_site_label
 _atom_site_symmetry_multiplicity
 _atom_site_fract_x
 _atom_site_fract_y
 _atom_site_fract_z
 _atom_site_occupancy
  Cs  Cs0  1  -0.36604802  0.36604802  0.66511669  1.0
  Cs  Cs1  1  0.36604802  0.63395198  0.33488331  1.0
  Cs  Cs2  1  -0.13395198  0.13395198  0.16511669  1.0
  Cs  Cs3  1  0.13395198  0.86604802  0.83488331  1.0
  Cs  Cs4  1  -0.07192598  0.07192598  0.67349305  1.0
  Cs  Cs5  1  0.07192598  0.92807402  0.32650695  1.0
  Cs  Cs6  1  -0.42807402  0.42807402  0.17349305  1.0
  Cs  Cs7  1  0.42807402  0.57192598  0.82650695  1.0
  Cs  Cs8  1  -0.35916378  0.35916378  0.97766386  1.0
  Cs  Cs9  1  0.35916378  0.64083622  0.02233614  1.0
  Cs  Cs10  1  -0.14083622  0.14083622  0.47766386  1.0
  Cs  Cs11  1  0.14083622  0.85916378  0.52233614  1.0
  Ni  Ni12  1  -0.22614271  0.22614271  0.81747754  1.0
  Ni  Ni13  1  0.22614271  0.77385729  0.18252246  1.0
  Ni  Ni14  1  -0.27385729  0.27385729  0.31747754  1.0
  Ni  Ni15  1  0.27385729  0.72614271  0.68252246  1.0
  Ni  Ni16  1  -0.12291438  0.12291438  0.89943963  1.0
  Ni  Ni17  1  0.12291438  0.87708562  0.10056037  1.0
  Ni  Ni18  1  -0.37708562  0.37708562  0.39943963  1.0
  Ni  Ni19  1  0.37708562  0.62291438  0.60056037  1.0
  Ni  Ni20  1  0.00000000  0.00000000  0.00000000  1.0
  Ni  Ni21  1  0.50000000  0.50000000  0.50000000  1.0
  F  F22  1  0.51543742  0.98456258  0.75000000  1.0
  F  F23  1  -0.01543742  0.51543742  0.25000000  1.0
  F  F24  1  0.48456258  1.01543742  0.25000000  1.0
  F  F25  1  0.01543742  0.48456258  0.75000000  1.0
  F  F26  1  -0.35780363  0.35780363  0.83483159  1.0
  F  F27  1  0.35780363  0.64219637  0.16516841  1.0
  F  F28  1  -0.14219637  0.14219637  0.33483159  1.0
  F  F29  1  0.14219637  0.85780363  0.66516841  1.0
  F  F30  1  -0.08576281  0.08576281  0.81308570  1.0
  F  F31  1  0.08576281  0.91423719  0.18691430  1.0
  F  F32  1  -0.41423719  0.41423719  0.31308570  1.0
  F  F33  1  0.41423719  0.58576281  0.68691430  1.0
  F  F34  1  -0.14996965  0.14996965  -0.01239426  1.0
  F  F35  1  0.14996965  0.85003035  1.01239426  1.0
  F  F36  1  -0.35003035  0.35003035  0.48760574  1.0
  F  F37  1  0.35003035  0.64996965  0.51239426  1.0
  F  F38  1  0.77597882  0.78881893  0.93176547  1.0
  F  F39  1  -0.21118107  0.77597882  0.06823453  1.0
  F  F40  1  0.28881893  1.27597882  0.43176547  1.0
  F  F41  1  0.27597882  0.28881893  0.56823453  1.0
  F  F42  1  0.22402118  1.21118107  0.06823453  1.0
  F  F43  1  0.21118107  0.22402118  0.93176547  1.0
  F  F44  1  0.71118107  0.72402118  0.56823453  1.0
  F  F45  1  -0.27597882  0.71118107  0.43176547  1.0
