# generated using pymatgen
data_Cs2NaVO4
_symmetry_space_group_name_H-M   'P 1'
_cell_length_a   6.17941255
_cell_length_b   6.26188255
_cell_length_c   8.39701338
_cell_angle_alpha   90.00000000
_cell_angle_beta   93.46863136
_cell_angle_gamma   90.00000000
_symmetry_Int_Tables_number   1
_chemical_formula_structural   Cs2NaVO4
_chemical_formula_sum   'Cs4 Na2 V2 O8'
_cell_volume   324.32514934
_cell_formula_units_Z   2
loop_
 _symmetry_equiv_pos_site_id
 _symmetry_equiv_pos_as_xyz
  1  'x, y, z'
loop_
 _atom_site_type_symbol
 _atom_site_label
 _atom_site_symmetry_multiplicity
 _atom_site_fract_x
 _atom_site_fract_y
 _atom_site_fract_z
 _atom_site_occupancy
  Cs  Cs0  1  0.64176537  0.75000000  0.18003656  1.0
  Cs  Cs1  1  0.35823463  0.25000000  0.81996344  1.0
  Cs  Cs2  1  0.19982934  0.75000000  0.48310455  1.0
  Cs  Cs3  1  0.80017066  0.25000000  0.51689545  1.0
  Na  Na4  1  0.12413899  0.75000000  0.97057374  1.0
  Na  Na5  1  0.87586101  0.25000000  0.02942626  1.0
  V  V6  1  0.69801597  0.75000000  0.75852997  1.0
  V  V7  1  0.30198403  0.25000000  0.24147003  1.0
  O  O8  1  0.83175771  0.97349766  0.83640485  1.0
  O  O9  1  0.83175771  0.52650234  0.83640485  1.0
  O  O10  1  0.16824229  0.47349766  0.16359515  1.0
  O  O11  1  0.16824229  0.02650234  0.16359515  1.0
  O  O12  1  0.70016484  0.75000000  0.55334256  1.0
  O  O13  1  0.29983516  0.25000000  0.44665744  1.0
  O  O14  1  0.43200802  0.75000000  0.81396365  1.0
  O  O15  1  0.56799198  0.25000000  0.18603635  1.0
