# generated using pymatgen
data_INO4
_symmetry_space_group_name_H-M   'P 1'
_cell_length_a   9.91988322
_cell_length_b   9.91988322
_cell_length_c   9.91988322
_cell_angle_alpha   153.68508637
_cell_angle_beta   153.68508637
_cell_angle_gamma   37.55748735
_symmetry_Int_Tables_number   1
_chemical_formula_structural   INO4
_chemical_formula_sum   'I2 N2 O8'
_cell_volume   191.54666537
_cell_formula_units_Z   2
loop_
 _symmetry_equiv_pos_site_id
 _symmetry_equiv_pos_as_xyz
  1  'x, y, z'
loop_
 _atom_site_type_symbol
 _atom_site_label
 _atom_site_symmetry_multiplicity
 _atom_site_fract_x
 _atom_site_fract_y
 _atom_site_fract_z
 _atom_site_occupancy
  I  I0  1  0.75000000  0.25000000  0.50000000  1.0
  I  I1  1  1.00000000  1.00000000  1.00000000  1.0
  N  N2  1  0.50000000  0.50000000  0.00000000  1.0
  N  N3  1  0.25000000  0.75000000  0.50000000  1.0
  O  O4  1  1.11874498  0.62091784  1.15159363  1.0
  O  O5  1  0.46932421  0.96715135  0.84840637  1.0
  O  O6  1  0.71715135  1.36874498  0.99782714  1.0
  O  O7  1  1.37091784  0.71932421  1.00217286  1.0
  O  O8  1  0.63125502  0.62908216  0.34840637  1.0
  O  O9  1  1.28067579  1.28284865  1.65159363  1.0
  O  O10  1  1.03284865  0.88125502  1.50217286  1.0
  O  O11  1  0.37908216  0.53067579  0.49782714  1.0
