# generated using pymatgen
data_Zr9W4O3
_symmetry_space_group_name_H-M   'P 1'
_cell_length_a   8.67375841
_cell_length_b   8.67375841
_cell_length_c   8.55501659
_cell_angle_alpha   90.00000000
_cell_angle_beta   90.00000000
_cell_angle_gamma   120.00000000
_symmetry_Int_Tables_number   1
_chemical_formula_structural   Zr9W4O3
_chemical_formula_sum   'Zr18 W8 O6'
_cell_volume   557.39893008
_cell_formula_units_Z   2
loop_
 _symmetry_equiv_pos_site_id
 _symmetry_equiv_pos_as_xyz
  1  'x, y, z'
loop_
 _atom_site_type_symbol
 _atom_site_label
 _atom_site_symmetry_multiplicity
 _atom_site_fract_x
 _atom_site_fract_y
 _atom_site_fract_z
 _atom_site_occupancy
  Zr  Zr0  1  0.20402267  0.79597733  0.93810972  1.0
  Zr  Zr1  1  0.20402267  0.79597733  0.56189028  1.0
  Zr  Zr2  1  0.20402267  0.40804533  0.93810972  1.0
  Zr  Zr3  1  0.20402267  0.40804533  0.56189028  1.0
  Zr  Zr4  1  0.79597733  0.20402267  0.43810972  1.0
  Zr  Zr5  1  0.79597733  0.20402267  0.06189028  1.0
  Zr  Zr6  1  0.79597733  0.59195467  0.43810972  1.0
  Zr  Zr7  1  0.79597733  0.59195467  0.06189028  1.0
  Zr  Zr8  1  0.59195467  0.79597733  0.93810972  1.0
  Zr  Zr9  1  0.59195467  0.79597733  0.56189028  1.0
  Zr  Zr10  1  0.40804533  0.20402267  0.43810972  1.0
  Zr  Zr11  1  0.40804533  0.20402267  0.06189028  1.0
  Zr  Zr12  1  0.45387773  0.54612227  0.25000000  1.0
  Zr  Zr13  1  0.45387773  0.90775546  0.25000000  1.0
  Zr  Zr14  1  0.54612227  0.45387773  0.75000000  1.0
  Zr  Zr15  1  0.54612227  0.09224454  0.75000000  1.0
  Zr  Zr16  1  0.09224454  0.54612227  0.25000000  1.0
  Zr  Zr17  1  0.90775546  0.45387773  0.75000000  1.0
  W  W18  1  0.10874029  0.89125971  0.25000000  1.0
  W  W19  1  0.10874029  0.21748057  0.25000000  1.0
  W  W20  1  0.89125971  0.10874029  0.75000000  1.0
  W  W21  1  0.89125971  0.78251943  0.75000000  1.0
  W  W22  1  0.78251943  0.89125971  0.25000000  1.0
  W  W23  1  0.21748057  0.10874029  0.75000000  1.0
  W  W24  1  0.00000000  0.00000000  0.50000000  1.0
  W  W25  1  0.00000000  0.00000000  0.00000000  1.0
  O  O26  1  0.50000000  0.50000000  0.50000000  1.0
  O  O27  1  0.50000000  0.50000000  0.00000000  1.0
  O  O28  1  0.50000000  0.00000000  0.50000000  1.0
  O  O29  1  0.50000000  0.00000000  0.00000000  1.0
  O  O30  1  -0.00000000  0.50000000  0.50000000  1.0
  O  O31  1  -0.00000000  0.50000000  0.00000000  1.0
