# generated using pymatgen
data_ZnCu2GeSe4
_symmetry_space_group_name_H-M   'P 1'
_cell_length_a   6.91579621
_cell_length_b   6.91579621
_cell_length_c   6.91579621
_cell_angle_alpha   131.72953888
_cell_angle_beta   131.72953888
_cell_angle_gamma   70.65652769
_symmetry_Int_Tables_number   1
_chemical_formula_structural   ZnCu2GeSe4
_chemical_formula_sum   'Zn1 Cu2 Ge1 Se4'
_cell_volume   180.47402535
_cell_formula_units_Z   1
loop_
 _symmetry_equiv_pos_site_id
 _symmetry_equiv_pos_as_xyz
  1  'x, y, z'
loop_
 _atom_site_type_symbol
 _atom_site_label
 _atom_site_symmetry_multiplicity
 _atom_site_fract_x
 _atom_site_fract_y
 _atom_site_fract_z
 _atom_site_occupancy
  Zn  Zn0  1  0.00000000  0.00000000  0.00000000  1.0
  Cu  Cu1  1  0.25000000  0.75000000  0.50000000  1.0
  Cu  Cu2  1  0.75000000  0.25000000  0.50000000  1.0
  Ge  Ge3  1  0.50000000  0.50000000  1.00000000  1.0
  Se  Se4  1  0.38444477  0.87591198  1.00000000  1.0
  Se  Se5  1  1.12408802  1.12408802  1.50853279  1.0
  Se  Se6  1  0.61555523  0.61555523  0.49146721  1.0
  Se  Se7  1  0.87591198  0.38444477  1.00000000  1.0
