# generated using pymatgen
data_LiMnF4
_symmetry_space_group_name_H-M   'P 1'
_cell_length_a   5.50780411
_cell_length_b   4.72364594
_cell_length_c   5.81715593
_cell_angle_alpha   90.00000000
_cell_angle_beta   113.72504182
_cell_angle_gamma   90.00000000
_symmetry_Int_Tables_number   1
_chemical_formula_structural   LiMnF4
_chemical_formula_sum   'Li2 Mn2 F8'
_cell_volume   138.55386004
_cell_formula_units_Z   2
loop_
 _symmetry_equiv_pos_site_id
 _symmetry_equiv_pos_as_xyz
  1  'x, y, z'
loop_
 _atom_site_type_symbol
 _atom_site_label
 _atom_site_symmetry_multiplicity
 _atom_site_fract_x
 _atom_site_fract_y
 _atom_site_fract_z
 _atom_site_occupancy
  Li  Li0  1  0.00000000  0.50000000  0.50000000  1.0
  Li  Li1  1  0.00000000  -0.00000000  0.00000000  1.0
  Mn  Mn2  1  0.50000000  0.50000000  0.00000000  1.0
  Mn  Mn3  1  0.50000000  0.00000000  0.50000000  1.0
  F  F4  1  0.82472602  0.32178732  0.14425464  1.0
  F  F5  1  0.82472602  0.17821268  0.64425464  1.0
  F  F6  1  0.17527398  0.82178732  0.35574536  1.0
  F  F7  1  0.17527398  0.67821268  0.85574536  1.0
  F  F8  1  0.35205256  0.22054931  0.13701262  1.0
  F  F9  1  0.35205256  0.27945069  0.63701262  1.0
  F  F10  1  0.64794744  0.72054931  0.36298738  1.0
  F  F11  1  0.64794744  0.77945069  0.86298738  1.0
