# generated using pymatgen
data_GaPO4
_symmetry_space_group_name_H-M   'P 1'
_cell_length_a   9.55121977
_cell_length_b   9.55121977
_cell_length_c   9.55121977
_cell_angle_alpha   93.20341185
_cell_angle_beta   93.20341185
_cell_angle_gamma   93.20341185
_symmetry_Int_Tables_number   1
_chemical_formula_structural   GaPO4
_chemical_formula_sum   'Ga6 P6 O24'
_cell_volume   867.07400746
_cell_formula_units_Z   6
loop_
 _symmetry_equiv_pos_site_id
 _symmetry_equiv_pos_as_xyz
  1  'x, y, z'
loop_
 _atom_site_type_symbol
 _atom_site_label
 _atom_site_symmetry_multiplicity
 _atom_site_fract_x
 _atom_site_fract_y
 _atom_site_fract_z
 _atom_site_occupancy
  Ga  Ga0  1  0.67677452  0.91195404  0.12730467  1.0
  Ga  Ga1  1  1.08804596  -0.12730467  0.32322548  1.0
  Ga  Ga2  1  0.87269533  0.32322548  0.08804596  1.0
  Ga  Ga3  1  1.32322548  0.08804596  -0.12730467  1.0
  Ga  Ga4  1  0.91195404  1.12730467  -0.32322548  1.0
  Ga  Ga5  1  1.12730467  0.67677452  -0.08804596  1.0
  P  P6  1  0.89062151  0.67171113  0.12440050  1.0
  P  P7  1  1.32828887  -0.12440050  0.10937849  1.0
  P  P8  1  0.87559950  0.10937849  0.32828887  1.0
  P  P9  1  1.10937849  0.32828887  -0.12440050  1.0
  P  P10  1  0.67171113  1.12440050  -0.10937849  1.0
  P  P11  1  1.12440050  0.89062151  -0.32828887  1.0
  O  O12  1  0.98034597  0.71137472  0.26360053  1.0
  O  O13  1  1.28862528  -0.26360053  0.01965403  1.0
  O  O14  1  0.73639947  0.01965403  0.28862528  1.0
  O  O15  1  1.01965403  0.28862528  -0.26360053  1.0
  O  O16  1  0.71137472  1.26360053  -0.01965403  1.0
  O  O17  1  1.26360053  0.98034597  -0.28862528  1.0
  O  O18  1  0.74583422  0.73687938  0.12801470  1.0
  O  O19  1  1.26312062  -0.12801470  0.25416578  1.0
  O  O20  1  0.87198530  0.25416578  0.26312062  1.0
  O  O21  1  1.25416578  0.26312062  -0.12801470  1.0
  O  O22  1  0.73687938  1.12801470  -0.25416578  1.0
  O  O23  1  1.12801470  0.74583422  -0.26312062  1.0
  O  O24  1  1.72717357  0.99678616  -0.03292018  1.0
  O  O25  1  1.00321384  0.03292018  -0.72717357  1.0
  O  O26  1  1.03292018  -0.72717357  0.00321384  1.0
  O  O27  1  0.27282643  0.00321384  0.03292018  1.0
  O  O28  1  0.99678616  0.96707982  0.72717357  1.0
  O  O29  1  0.96707982  1.72717357  -0.00321384  1.0
  O  O30  1  0.51243854  1.11151633  -0.13782025  1.0
  O  O31  1  0.88848367  0.13782025  0.48756146  1.0
  O  O32  1  1.13782025  0.48756146  -0.11151633  1.0
  O  O33  1  1.48756146  -0.11151633  0.13782025  1.0
  O  O34  1  1.11151633  0.86217975  -0.48756146  1.0
  O  O35  1  0.86217975  0.51243854  0.11151633  1.0
