# generated using pymatgen
data_Tl3AgTe2
_symmetry_space_group_name_H-M   'P 1'
_cell_length_a   11.24007657
_cell_length_b   7.83448153
_cell_length_c   9.92165081
_cell_angle_alpha   90.00000000
_cell_angle_beta   115.90392971
_cell_angle_gamma   90.00000000
_symmetry_Int_Tables_number   1
_chemical_formula_structural   Tl3AgTe2
_chemical_formula_sum   'Tl12 Ag4 Te8'
_cell_volume   785.91950498
_cell_formula_units_Z   4
loop_
 _symmetry_equiv_pos_site_id
 _symmetry_equiv_pos_as_xyz
  1  'x, y, z'
loop_
 _atom_site_type_symbol
 _atom_site_label
 _atom_site_symmetry_multiplicity
 _atom_site_fract_x
 _atom_site_fract_y
 _atom_site_fract_z
 _atom_site_occupancy
  Tl  Tl0  1  0.79598218  0.99332509  0.98740287  1.0
  Tl  Tl1  1  0.79598218  0.50667491  0.48740287  1.0
  Tl  Tl2  1  0.20401782  0.49332509  0.51259713  1.0
  Tl  Tl3  1  0.20401782  0.00667491  0.01259713  1.0
  Tl  Tl4  1  0.76609417  0.99699525  0.53994640  1.0
  Tl  Tl5  1  0.76609417  0.50300475  0.03994640  1.0
  Tl  Tl6  1  0.23390583  0.49699525  0.96005360  1.0
  Tl  Tl7  1  0.23390583  0.00300475  0.46005360  1.0
  Tl  Tl8  1  0.58352331  0.70301529  0.66557042  1.0
  Tl  Tl9  1  0.58352331  0.79698471  0.16557042  1.0
  Tl  Tl10  1  0.41647669  0.20301529  0.83442958  1.0
  Tl  Tl11  1  0.41647669  0.29698471  0.33442958  1.0
  Ag  Ag12  1  0.90941336  0.33519974  0.82552330  1.0
  Ag  Ag13  1  0.90941336  0.16480026  0.32552330  1.0
  Ag  Ag14  1  0.09058664  0.83519974  0.67447670  1.0
  Ag  Ag15  1  0.09058664  0.66480026  0.17447670  1.0
  Te  Te16  1  0.95924188  0.72162516  0.85171052  1.0
  Te  Te17  1  0.95924188  0.77837484  0.35171052  1.0
  Te  Te18  1  0.04075812  0.22162516  0.64828948  1.0
  Te  Te19  1  0.04075812  0.27837484  0.14828948  1.0
  Te  Te20  1  0.36993152  0.77791727  0.80680814  1.0
  Te  Te21  1  0.36993152  0.72208273  0.30680814  1.0
  Te  Te22  1  0.63006848  0.27791727  0.69319186  1.0
  Te  Te23  1  0.63006848  0.22208273  0.19319186  1.0
