# generated using pymatgen
data_NaAlBP2H3O10
_symmetry_space_group_name_H-M   'P 1'
_cell_length_a   6.66113226
_cell_length_b   6.66113226
_cell_length_c   9.10062277
_cell_angle_alpha   69.03887465
_cell_angle_beta   110.96112535
_cell_angle_gamma   105.01484006
_symmetry_Int_Tables_number   1
_chemical_formula_structural   NaAlBP2H3O10
_chemical_formula_sum   'Na2 Al2 B2 P4 H6 O20'
_cell_volume   348.12305302
_cell_formula_units_Z   2
loop_
 _symmetry_equiv_pos_site_id
 _symmetry_equiv_pos_as_xyz
  1  'x, y, z'
loop_
 _atom_site_type_symbol
 _atom_site_label
 _atom_site_symmetry_multiplicity
 _atom_site_fract_x
 _atom_site_fract_y
 _atom_site_fract_z
 _atom_site_occupancy
  Na  Na0  1  0.86664940  -0.13335060  0.75000000  1.0
  Na  Na1  1  0.13335060  0.13335060  0.25000000  1.0
  Al  Al2  1  0.50000000  0.00000000  -0.00000000  1.0
  Al  Al3  1  1.00000000  -0.50000000  0.50000000  1.0
  B  B4  1  0.46480712  0.46480712  0.75000000  1.0
  B  B5  1  0.53519288  -0.46480712  0.25000000  1.0
  P  P6  1  1.29094507  -0.16310465  0.68175524  1.0
  P  P7  1  1.16310465  -0.29094507  0.18175524  1.0
  P  P8  1  0.83689535  -0.70905493  0.81824476  1.0
  P  P9  1  1.70905493  0.16310465  0.31824476  1.0
  H  H10  1  0.30855848  0.31575963  0.92954502  1.0
  H  H11  1  0.68424037  -0.30855848  0.42954502  1.0
  H  H12  1  1.31575963  -0.69144152  0.57045498  1.0
  H  H13  1  0.69144152  -0.31575963  0.07045498  1.0
  H  H14  1  1.50000000  -0.00000000  0.50000000  1.0
  H  H15  1  1.00000000  -0.50000000  -0.00000000  1.0
  O  O16  1  1.46916435  -0.31809751  0.75784332  1.0
  O  O17  1  1.31809751  0.53083565  0.25784332  1.0
  O  O18  1  0.68190249  0.46916435  0.74215668  1.0
  O  O19  1  1.53083565  0.31809751  0.24215668  1.0
  O  O20  1  0.63583035  -0.03407850  0.45526344  1.0
  O  O21  1  1.03407850  -0.63583035  0.95526344  1.0
  O  O22  1  0.96592150  -0.36416965  0.04473656  1.0
  O  O23  1  0.36416965  0.03407850  0.54473656  1.0
  O  O24  1  0.71189890  0.06782146  0.89028585  1.0
  O  O25  1  0.93217854  -0.71189890  0.39028585  1.0
  O  O26  1  1.06782146  -0.28810110  0.60971415  1.0
  O  O27  1  0.28810110  -0.06782146  0.10971415  1.0
  O  O28  1  1.27732589  -0.08467254  0.81673942  1.0
  O  O29  1  1.08467254  -0.27732589  0.31673942  1.0
  O  O30  1  0.91532746  -0.72267411  0.68326058  1.0
  O  O31  1  1.72267411  0.08467254  0.18326058  1.0
  O  O32  1  0.42911589  0.29478770  0.90085570  1.0
  O  O33  1  0.70521230  -0.42911589  0.40085570  1.0
  O  O34  1  1.29478770  -0.57088411  0.59914430  1.0
  O  O35  1  0.57088411  -0.29478770  0.09914430  1.0
