# generated using pymatgen
data_Ti(CrTe2)2
_symmetry_space_group_name_H-M   'P 1'
_cell_length_a   7.42472245
_cell_length_b   7.42472245
_cell_length_c   7.07771532
_cell_angle_alpha   62.21468985
_cell_angle_beta   117.78531015
_cell_angle_gamma   149.07960068
_symmetry_Int_Tables_number   1
_chemical_formula_structural   Ti(CrTe2)2
_chemical_formula_sum   'Ti1 Cr2 Te4'
_cell_volume   175.47773500
_cell_formula_units_Z   1
loop_
 _symmetry_equiv_pos_site_id
 _symmetry_equiv_pos_as_xyz
  1  'x, y, z'
loop_
 _atom_site_type_symbol
 _atom_site_label
 _atom_site_symmetry_multiplicity
 _atom_site_fract_x
 _atom_site_fract_y
 _atom_site_fract_z
 _atom_site_occupancy
  Ti  Ti0  1  0.00000000  0.00000000  0.00000000  1.0
  Cr  Cr1  1  0.74196719  -0.74196719  0.72416366  1.0
  Cr  Cr2  1  1.25803281  -0.25803281  0.27583634  1.0
  Te  Te3  1  0.87753760  -0.87753760  0.55028559  1.0
  Te  Te4  1  1.12246240  -0.12246240  0.44971441  1.0
  Te  Te5  1  0.63300980  -0.63300980  0.96719964  1.0
  Te  Te6  1  1.36699020  -0.36699020  0.03280036  1.0
