# generated using pymatgen
data_Zr2(V2Sb3)3
_symmetry_space_group_name_H-M   'P 1'
_cell_length_a   9.75713003
_cell_length_b   9.75713003
_cell_length_c   7.25274878
_cell_angle_alpha   90.00000000
_cell_angle_beta   90.00000000
_cell_angle_gamma   90.00000000
_symmetry_Int_Tables_number   1
_chemical_formula_structural   Zr2(V2Sb3)3
_chemical_formula_sum   'Zr4 V12 Sb18'
_cell_volume   690.47319069
_cell_formula_units_Z   2
loop_
 _symmetry_equiv_pos_site_id
 _symmetry_equiv_pos_as_xyz
  1  'x, y, z'
loop_
 _atom_site_type_symbol
 _atom_site_label
 _atom_site_symmetry_multiplicity
 _atom_site_fract_x
 _atom_site_fract_y
 _atom_site_fract_z
 _atom_site_occupancy
  V  V0  1  0.13685747  0.00000000  0.84342844  1.0
  V  V1  1  0.86314253  0.00000000  0.84342844  1.0
  V  V2  1  0.50000000  0.63685747  0.84342844  1.0
  V  V3  1  0.50000000  0.36314253  0.84342844  1.0
  V  V4  1  0.36314253  0.50000000  0.15657156  1.0
  V  V5  1  0.63685747  0.50000000  0.15657156  1.0
  V  V6  1  0.00000000  0.86314253  0.15657156  1.0
  V  V7  1  0.00000000  0.13685747  0.15657156  1.0
  V  V8  1  0.75000000  0.25000000  0.00000000  1.0
  V  V9  1  0.25000000  0.25000000  0.00000000  1.0
  V  V10  1  0.75000000  0.75000000  0.00000000  1.0
  V  V11  1  0.25000000  0.75000000  0.00000000  1.0
  Sb  Sb12  1  0.00000000  0.00000000  0.50000000  1.0
  Sb  Sb13  1  0.50000000  0.50000000  0.50000000  1.0
  Sb  Sb14  1  0.67236881  0.17236881  0.65591497  1.0
  Sb  Sb15  1  0.32763119  0.17236881  0.65591497  1.0
  Sb  Sb16  1  0.67236881  0.82763119  0.65591497  1.0
  Sb  Sb17  1  0.32763119  0.82763119  0.65591497  1.0
  Sb  Sb18  1  0.82763119  0.32763119  0.34408503  1.0
  Sb  Sb19  1  0.17236881  0.32763119  0.34408503  1.0
  Sb  Sb20  1  0.82763119  0.67236881  0.34408503  1.0
  Sb  Sb21  1  0.17236881  0.67236881  0.34408503  1.0
  Sb  Sb22  1  0.74688594  0.00000000  0.18349229  1.0
  Sb  Sb23  1  0.25311406  0.00000000  0.18349229  1.0
  Sb  Sb24  1  0.50000000  0.24688594  0.18349229  1.0
  Sb  Sb25  1  0.50000000  0.75311406  0.18349229  1.0
  Sb  Sb26  1  0.75311406  0.50000000  0.81650771  1.0
  Sb  Sb27  1  0.24688594  0.50000000  0.81650771  1.0
  Sb  Sb28  1  0.00000000  0.25311406  0.81650771  1.0
  Sb  Sb29  1  0.00000000  0.74688594  0.81650771  1.0
  Zr  Zr30  1  0.00000000  0.50000000  0.08355254  1.0
  Zr  Zr31  1  0.50000000  0.00000000  0.91644746  1.0
  Zr  Zr32  1  0.00000000  0.50000000  0.58422428  1.0
  Zr  Zr33  1  0.50000000  0.00000000  0.41577572  1.0
