# generated using pymatgen
data_Yb3Cu11Si4
_symmetry_space_group_name_H-M   'P 1'
_cell_length_a   8.37352027
_cell_length_b   8.37352027
_cell_length_c   8.65063408
_cell_angle_alpha   90.00000000
_cell_angle_beta   90.00000000
_cell_angle_gamma   120.00000000
_symmetry_Int_Tables_number   1
_chemical_formula_structural   Yb3Cu11Si4
_chemical_formula_sum   'Yb6 Cu22 Si8'
_cell_volume   525.28466948
_cell_formula_units_Z   2
loop_
 _symmetry_equiv_pos_site_id
 _symmetry_equiv_pos_as_xyz
  1  'x, y, z'
loop_
 _atom_site_type_symbol
 _atom_site_label
 _atom_site_symmetry_multiplicity
 _atom_site_fract_x
 _atom_site_fract_y
 _atom_site_fract_z
 _atom_site_occupancy
  Yb  Yb0  1  0.19861743  0.80138257  0.25000000  1.0
  Yb  Yb1  1  0.19861743  0.39723486  0.25000000  1.0
  Yb  Yb2  1  0.80138257  0.19861743  0.75000000  1.0
  Yb  Yb3  1  0.80138257  0.60276514  0.75000000  1.0
  Yb  Yb4  1  0.60276514  0.80138257  0.25000000  1.0
  Yb  Yb5  1  0.39723486  0.19861743  0.75000000  1.0
  Cu  Cu6  1  0.15051012  0.84948988  0.91009415  1.0
  Cu  Cu7  1  0.15051012  0.84948988  0.58990585  1.0
  Cu  Cu8  1  0.15051012  0.30102023  0.91009415  1.0
  Cu  Cu9  1  0.15051012  0.30102023  0.58990585  1.0
  Cu  Cu10  1  0.84948988  0.15051012  0.41009415  1.0
  Cu  Cu11  1  0.84948988  0.15051012  0.08990585  1.0
  Cu  Cu12  1  0.84948988  0.69897977  0.41009415  1.0
  Cu  Cu13  1  0.84948988  0.69897977  0.08990585  1.0
  Cu  Cu14  1  0.69897977  0.84948988  0.91009415  1.0
  Cu  Cu15  1  0.69897977  0.84948988  0.58990585  1.0
  Cu  Cu16  1  0.30102023  0.15051012  0.41009415  1.0
  Cu  Cu17  1  0.30102023  0.15051012  0.08990585  1.0
  Cu  Cu18  1  0.56507071  0.43492929  0.25000000  1.0
  Cu  Cu19  1  0.56507071  0.13014142  0.25000000  1.0
  Cu  Cu20  1  0.43492929  0.56507071  0.75000000  1.0
  Cu  Cu21  1  0.43492929  0.86985858  0.75000000  1.0
  Cu  Cu22  1  0.86985858  0.43492929  0.25000000  1.0
  Cu  Cu23  1  0.13014142  0.56507071  0.75000000  1.0
  Cu  Cu24  1  0.33333333  0.66666667  0.50906759  1.0
  Cu  Cu25  1  0.33333333  0.66666667  -0.00906759  1.0
  Cu  Cu26  1  0.66666667  0.33333333  1.00906759  1.0
  Cu  Cu27  1  0.66666667  0.33333333  0.49093241  1.0
  Si  Si28  1  0.50000000  0.50000000  0.50000000  1.0
  Si  Si29  1  0.50000000  0.50000000  -0.00000000  1.0
  Si  Si30  1  0.50000000  0.00000000  0.50000000  1.0
  Si  Si31  1  0.50000000  0.00000000  0.00000000  1.0
  Si  Si32  1  -0.00000000  0.50000000  0.50000000  1.0
  Si  Si33  1  -0.00000000  0.50000000  -0.00000000  1.0
  Si  Si34  1  -0.00000000  -0.00000000  0.25000000  1.0
  Si  Si35  1  0.00000000  0.00000000  0.75000000  1.0
