# generated using pymatgen
data_CaInPd
_symmetry_space_group_name_H-M   'P 1'
_cell_length_a   7.39278974
_cell_length_b   4.37618989
_cell_length_c   8.60958228
_cell_angle_alpha   90.00000000
_cell_angle_beta   90.00000000
_cell_angle_gamma   90.00000000
_symmetry_Int_Tables_number   1
_chemical_formula_structural   CaInPd
_chemical_formula_sum   'Ca4 In4 Pd4'
_cell_volume   278.53937314
_cell_formula_units_Z   4
loop_
 _symmetry_equiv_pos_site_id
 _symmetry_equiv_pos_as_xyz
  1  'x, y, z'
loop_
 _atom_site_type_symbol
 _atom_site_label
 _atom_site_symmetry_multiplicity
 _atom_site_fract_x
 _atom_site_fract_y
 _atom_site_fract_z
 _atom_site_occupancy
  Ca  Ca0  1  0.53233453  0.25000000  0.17908604  1.0
  Ca  Ca1  1  0.03233453  0.25000000  0.32091396  1.0
  Ca  Ca2  1  0.46766547  0.75000000  0.82091396  1.0
  Ca  Ca3  1  0.96766547  0.75000000  0.67908604  1.0
  In  In4  1  0.64766836  0.25000000  0.56318813  1.0
  In  In5  1  0.14766836  0.25000000  0.93681187  1.0
  In  In6  1  0.35233164  0.75000000  0.43681187  1.0
  In  In7  1  0.85233164  0.75000000  0.06318813  1.0
  Pd  Pd8  1  0.76706888  0.25000000  0.87237574  1.0
  Pd  Pd9  1  0.26706888  0.25000000  0.62762426  1.0
  Pd  Pd10  1  0.23293112  0.75000000  0.12762426  1.0
  Pd  Pd11  1  0.73293112  0.75000000  0.37237574  1.0
