# generated using pymatgen
data_Ba2ZnAs2
_symmetry_space_group_name_H-M   'P 1'
_cell_length_a   8.31036222
_cell_length_b   8.31036222
_cell_length_c   8.31036222
_cell_angle_alpha   130.52264387
_cell_angle_beta   70.65072743
_cell_angle_gamma   132.96702931
_symmetry_Int_Tables_number   1
_chemical_formula_structural   Ba2ZnAs2
_chemical_formula_sum   'Ba4 Zn2 As4'
_cell_volume   312.75840456
_cell_formula_units_Z   2
loop_
 _symmetry_equiv_pos_site_id
 _symmetry_equiv_pos_as_xyz
  1  'x, y, z'
loop_
 _atom_site_type_symbol
 _atom_site_label
 _atom_site_symmetry_multiplicity
 _atom_site_fract_x
 _atom_site_fract_y
 _atom_site_fract_z
 _atom_site_occupancy
  Ba  Ba0  1  0.13827623  0.30253861  0.44081484  1.0
  Ba  Ba1  1  0.36172377  0.80253861  1.16426238  1.0
  Ba  Ba2  1  0.63827623  1.19746139  0.83573762  1.0
  Ba  Ba3  1  0.86172377  0.69746139  0.55918516  1.0
  Zn  Zn4  1  0.25000000  0.25000000  0.00000000  1.0
  Zn  Zn5  1  0.75000000  0.75000000  0.00000000  1.0
  As  As6  1  0.39171822  0.29767654  0.68939477  1.0
  As  As7  1  0.10828178  0.79767654  0.90595832  1.0
  As  As8  1  0.89171822  1.20232346  1.09404168  1.0
  As  As9  1  0.60828178  0.70232346  0.31060523  1.0
