# generated using pymatgen
data_Nb3CrSe6
_symmetry_space_group_name_H-M   'P 1'
_cell_length_a   6.01329548
_cell_length_b   6.01329548
_cell_length_c   12.43328512
_cell_angle_alpha   90.00000000
_cell_angle_beta   90.00000000
_cell_angle_gamma   120.00000000
_symmetry_Int_Tables_number   1
_chemical_formula_structural   Nb3CrSe6
_chemical_formula_sum   'Nb6 Cr2 Se12'
_cell_volume   389.35128620
_cell_formula_units_Z   2
loop_
 _symmetry_equiv_pos_site_id
 _symmetry_equiv_pos_as_xyz
  1  'x, y, z'
loop_
 _atom_site_type_symbol
 _atom_site_label
 _atom_site_symmetry_multiplicity
 _atom_site_fract_x
 _atom_site_fract_y
 _atom_site_fract_z
 _atom_site_occupancy
  Nb  Nb0  1  0.33333333  0.66666667  0.50179618  1.0
  Nb  Nb1  1  0.33333333  0.66666667  0.99820382  1.0
  Nb  Nb2  1  0.66666667  0.33333333  0.49820382  1.0
  Nb  Nb3  1  0.66666667  0.33333333  0.00179618  1.0
  Nb  Nb4  1  0.00000000  0.00000000  0.00000000  1.0
  Nb  Nb5  1  0.00000000  0.00000000  0.50000000  1.0
  Cr  Cr6  1  0.33333333  0.66666667  0.25000000  1.0
  Cr  Cr7  1  0.66666667  0.33333333  0.75000000  1.0
  Se  Se8  1  0.66615550  0.66759200  0.13523800  1.0
  Se  Se9  1  0.66615550  -0.00143651  0.36476200  1.0
  Se  Se10  1  0.66759200  0.66615550  0.86476200  1.0
  Se  Se11  1  0.66759200  1.00143651  0.63523800  1.0
  Se  Se12  1  1.00143651  0.66759200  0.36476200  1.0
  Se  Se13  1  1.00143651  0.33384450  0.13523800  1.0
  Se  Se14  1  0.33240800  0.33384450  0.36476200  1.0
  Se  Se15  1  0.33240800  -0.00143651  0.13523800  1.0
  Se  Se16  1  0.33384450  1.00143651  0.86476200  1.0
  Se  Se17  1  0.33384450  0.33240800  0.63523800  1.0
  Se  Se18  1  -0.00143651  0.66615550  0.63523800  1.0
  Se  Se19  1  -0.00143651  0.33240800  0.86476200  1.0
