# generated using pymatgen
data_K4Mg(MoO4)3
_symmetry_space_group_name_H-M   'P 1'
_cell_length_a   10.10118289
_cell_length_b   10.13047800
_cell_length_c   8.00032481
_cell_angle_alpha   106.54412247
_cell_angle_beta   107.17658647
_cell_angle_gamma   93.39354193
_symmetry_Int_Tables_number   1
_chemical_formula_structural   K4Mg(MoO4)3
_chemical_formula_sum   'K8 Mg2 Mo6 O24'
_cell_volume   740.54430001
_cell_formula_units_Z   2
loop_
 _symmetry_equiv_pos_site_id
 _symmetry_equiv_pos_as_xyz
  1  'x, y, z'
loop_
 _atom_site_type_symbol
 _atom_site_label
 _atom_site_symmetry_multiplicity
 _atom_site_fract_x
 _atom_site_fract_y
 _atom_site_fract_z
 _atom_site_occupancy
  K  K0  1  -0.73859550  -0.27550055  -0.78064127  1.0
  K  K1  1  -0.26140450  -0.72449945  -0.21935873  1.0
  K  K2  1  -0.02936510  -0.97676320  -0.75001865  1.0
  K  K3  1  -0.97063490  -0.02323680  -0.24998135  1.0
  K  K4  1  -0.93259986  -0.61492687  -0.35281291  1.0
  K  K5  1  -0.06740014  -0.38507313  -0.64718709  1.0
  K  K6  1  -0.50000000  -0.50000000  -0.50000000  1.0
  K  K7  1  -0.50000000  -0.50000000  0.00000000  1.0
  Mg  Mg8  1  -0.62270503  -0.94619847  -0.83068537  1.0
  Mg  Mg9  1  -0.37729497  -0.05380153  -0.16931463  1.0
  Mo  Mo10  1  -0.85712471  -0.68586538  -0.87555369  1.0
  Mo  Mo11  1  -0.14287529  -0.31413462  -0.12444631  1.0
  Mo  Mo12  1  -0.31243334  -0.75504409  -0.76977979  1.0
  Mo  Mo13  1  -0.68756666  -0.24495591  -0.23022021  1.0
  Mo  Mo14  1  -0.65142927  -0.88442132  -0.38918631  1.0
  Mo  Mo15  1  -0.34857073  -0.11557868  -0.61081369  1.0
  O  O16  1  -0.27869964  -0.88255393  -0.95537651  1.0
  O  O17  1  -0.72130036  -0.11744607  -0.04462349  1.0
  O  O18  1  -0.79988899  -0.85254972  -0.88312158  1.0
  O  O19  1  -0.20011101  -0.14745028  -0.11687842  1.0
  O  O20  1  -0.71626925  -0.55344810  -0.83297008  1.0
  O  O21  1  -0.28373075  -0.44655190  -0.16702992  1.0
  O  O22  1  -0.28161867  -0.59195310  -0.80088448  1.0
  O  O23  1  -0.71838133  -0.40804690  -0.19911552  1.0
  O  O24  1  -0.49009513  -0.77023859  -0.76786508  1.0
  O  O25  1  -0.50990487  -0.22976141  -0.23213492  1.0
  O  O26  1  -0.93423177  -0.63714354  -0.69987637  1.0
  O  O27  1  -0.06576823  -0.36285646  -0.30012363  1.0
  O  O28  1  -0.65953685  -0.98950494  -0.61608322  1.0
  O  O29  1  -0.34046315  -0.01049506  -0.38391678  1.0
  O  O30  1  -0.19630143  -0.75464954  -0.55570872  1.0
  O  O31  1  -0.80369857  -0.24535046  -0.44429128  1.0
  O  O32  1  -0.82588129  -0.87062404  -0.39067344  1.0
  O  O33  1  -0.17411871  -0.12937596  -0.60932656  1.0
  O  O34  1  -0.55743969  -0.71593410  -0.33389055  1.0
  O  O35  1  -0.44256031  -0.28406590  -0.66610945  1.0
  O  O36  1  -0.56529209  -0.96211140  -0.22044334  1.0
  O  O37  1  -0.43470791  -0.03788860  -0.77955666  1.0
  O  O38  1  -0.98617127  -0.70937697  -0.09194878  1.0
  O  O39  1  -0.01382873  -0.29062303  -0.90805122  1.0
