# generated using pymatgen
data_KCu(CN)2
_symmetry_space_group_name_H-M   'P 1'
_cell_length_a   7.68946664
_cell_length_b   7.77754487
_cell_length_c   7.45469848
_cell_angle_alpha   90.00000000
_cell_angle_beta   99.61939141
_cell_angle_gamma   90.00000000
_symmetry_Int_Tables_number   1
_chemical_formula_structural   KCu(CN)2
_chemical_formula_sum   'K4 Cu4 C8 N8'
_cell_volume   439.56095469
_cell_formula_units_Z   4
loop_
 _symmetry_equiv_pos_site_id
 _symmetry_equiv_pos_as_xyz
  1  'x, y, z'
loop_
 _atom_site_type_symbol
 _atom_site_label
 _atom_site_symmetry_multiplicity
 _atom_site_fract_x
 _atom_site_fract_y
 _atom_site_fract_z
 _atom_site_occupancy
  K  K0  1  0.69072250  0.92189812  0.82358536  1.0
  K  K1  1  0.69072250  0.57810188  0.32358536  1.0
  K  K2  1  0.30927750  0.42189812  0.67641464  1.0
  K  K3  1  0.30927750  0.07810188  0.17641464  1.0
  Cu  Cu4  1  0.89791272  0.38345507  0.91498756  1.0
  Cu  Cu5  1  0.89791272  0.11654493  0.41498756  1.0
  Cu  Cu6  1  0.10208728  0.88345507  0.58501244  1.0
  Cu  Cu7  1  0.10208728  0.61654493  0.08501244  1.0
  C  C8  1  0.95204531  0.58613043  0.78891378  1.0
  C  C9  1  0.95204531  0.91386957  0.28891378  1.0
  C  C10  1  0.04795469  0.08613043  0.71108622  1.0
  C  C11  1  0.04795469  0.41386957  0.21108622  1.0
  C  C12  1  0.67370171  0.30527871  0.95671846  1.0
  C  C13  1  0.67370171  0.19472129  0.45671846  1.0
  C  C14  1  0.32629829  0.80527871  0.54328154  1.0
  C  C15  1  0.32629829  0.69472129  0.04328154  1.0
  N  N16  1  0.96884225  0.68890110  0.67596334  1.0
  N  N17  1  0.96884225  0.81109890  0.17596334  1.0
  N  N18  1  0.03115775  0.18890110  0.82403666  1.0
  N  N19  1  0.03115775  0.31109890  0.32403666  1.0
  N  N20  1  0.46483649  0.74913044  0.52658339  1.0
  N  N21  1  0.46483649  0.75086956  1.02658339  1.0
  N  N22  1  0.53516351  0.24913044  -0.02658339  1.0
  N  N23  1  0.53516351  0.25086956  0.47341661  1.0
