# generated using pymatgen
data_Li2ZnSiO4
_symmetry_space_group_name_H-M   'P 1'
_cell_length_a   5.10026716
_cell_length_b   10.72477094
_cell_length_c   8.06803751
_cell_angle_alpha   90.00000000
_cell_angle_beta   128.55894061
_cell_angle_gamma   90.00000000
_symmetry_Int_Tables_number   1
_chemical_formula_structural   Li2ZnSiO4
_chemical_formula_sum   'Li8 Zn4 Si4 O16'
_cell_volume   345.09405961
_cell_formula_units_Z   4
loop_
 _symmetry_equiv_pos_site_id
 _symmetry_equiv_pos_as_xyz
  1  'x, y, z'
loop_
 _atom_site_type_symbol
 _atom_site_label
 _atom_site_symmetry_multiplicity
 _atom_site_fract_x
 _atom_site_fract_y
 _atom_site_fract_z
 _atom_site_occupancy
  Li  Li0  1  0.68506424  0.33675055  0.49398486  1.0
  Li  Li1  1  0.68506424  0.16324945  0.99398486  1.0
  Li  Li2  1  0.31493576  0.83675055  0.00601514  1.0
  Li  Li3  1  0.31493576  0.66324945  0.50601514  1.0
  Li  Li4  1  0.53919843  0.07514289  0.24033756  1.0
  Li  Li5  1  0.53919843  0.42485711  0.74033756  1.0
  Li  Li6  1  0.46080157  0.57514289  0.25966244  1.0
  Li  Li7  1  0.46080157  0.92485711  0.75966244  1.0
  Zn  Zn8  1  0.19103325  0.16461472  0.49946186  1.0
  Zn  Zn9  1  0.19103325  0.33538528  0.99946186  1.0
  Zn  Zn10  1  0.80896675  0.66461472  0.00053814  1.0
  Zn  Zn11  1  0.80896675  0.83538528  0.50053814  1.0
  Si  Si12  1  0.93580565  0.41212657  0.24664055  1.0
  Si  Si13  1  0.93580565  0.08787343  0.74664055  1.0
  Si  Si14  1  0.06419435  0.91212657  0.25335945  1.0
  Si  Si15  1  0.06419435  0.58787343  0.75335945  1.0
  O  O16  1  0.94550332  0.05659123  0.24427425  1.0
  O  O17  1  0.94550332  0.44340877  0.74427425  1.0
  O  O18  1  0.05449668  0.55659123  0.25572575  1.0
  O  O19  1  0.05449668  0.94340877  0.75572575  1.0
  O  O20  1  0.82637499  0.33959203  0.03066995  1.0
  O  O21  1  0.82637499  0.16040797  0.53066995  1.0
  O  O22  1  0.17362501  0.83959203  0.46933005  1.0
  O  O23  1  0.17362501  0.66040797  0.96933005  1.0
  O  O24  1  0.61051202  0.41082793  0.24647557  1.0
  O  O25  1  0.61051202  0.08917207  0.74647557  1.0
  O  O26  1  0.38948798  0.91082793  0.25352443  1.0
  O  O27  1  0.38948798  0.58917207  0.75352443  1.0
  O  O28  1  0.25700995  0.33959648  0.46130569  1.0
  O  O29  1  0.25700995  0.16040352  0.96130569  1.0
  O  O30  1  0.74299005  0.83959648  0.03869431  1.0
  O  O31  1  0.74299005  0.66040352  0.53869431  1.0
