# generated using pymatgen
data_SbP(Cl2F3)2
_symmetry_space_group_name_H-M   'P 1'
_cell_length_a   9.16927802
_cell_length_b   9.16927802
_cell_length_c   6.74298733
_cell_angle_alpha   90.00000000
_cell_angle_beta   90.00000000
_cell_angle_gamma   90.00000000
_symmetry_Int_Tables_number   1
_chemical_formula_structural   SbP(Cl2F3)2
_chemical_formula_sum   'Sb2 P2 Cl8 F12'
_cell_volume   566.92110653
_cell_formula_units_Z   2
loop_
 _symmetry_equiv_pos_site_id
 _symmetry_equiv_pos_as_xyz
  1  'x, y, z'
loop_
 _atom_site_type_symbol
 _atom_site_label
 _atom_site_symmetry_multiplicity
 _atom_site_fract_x
 _atom_site_fract_y
 _atom_site_fract_z
 _atom_site_occupancy
  Sb  Sb0  1  0.00000000  0.50000000  0.85235446  1.0
  Sb  Sb1  1  0.50000000  0.00000000  0.14764554  1.0
  P  P2  1  0.50000000  0.50000000  0.50000000  1.0
  P  P3  1  0.00000000  0.00000000  0.50000000  1.0
  Cl  Cl4  1  0.32504137  0.49304000  0.33245452  1.0
  Cl  Cl5  1  0.00696000  0.82504137  0.33245452  1.0
  Cl  Cl6  1  0.67495863  0.50696000  0.33245452  1.0
  Cl  Cl7  1  0.99304000  0.17495863  0.33245452  1.0
  Cl  Cl8  1  0.17495863  0.00696000  0.66754548  1.0
  Cl  Cl9  1  0.49304000  0.67495863  0.66754548  1.0
  Cl  Cl10  1  0.82504137  0.99304000  0.66754548  1.0
  Cl  Cl11  1  0.50696000  0.32504137  0.66754548  1.0
  F  F12  1  0.21003875  0.48542400  0.85425258  1.0
  F  F13  1  0.01457600  0.71003875  0.85425258  1.0
  F  F14  1  0.78996125  0.51457600  0.85425258  1.0
  F  F15  1  0.98542400  0.28996125  0.85425258  1.0
  F  F16  1  0.28996125  0.01457600  0.14574742  1.0
  F  F17  1  0.48542400  0.78996125  0.14574742  1.0
  F  F18  1  0.71003875  0.98542400  0.14574742  1.0
  F  F19  1  0.51457600  0.21003875  0.14574742  1.0
  F  F20  1  0.00000000  0.50000000  0.56715653  1.0
  F  F21  1  0.50000000  0.00000000  0.43284347  1.0
  F  F22  1  0.00000000  0.50000000  0.13971322  1.0
  F  F23  1  0.50000000  0.00000000  0.86028678  1.0
