# generated using pymatgen
data_ZnP4H16(NO8)2
_symmetry_space_group_name_H-M   'P 1'
_cell_length_a   7.44121349
_cell_length_b   7.20389964
_cell_length_c   7.83017605
_cell_angle_alpha   108.66570440
_cell_angle_beta   98.92168002
_cell_angle_gamma   90.85894781
_symmetry_Int_Tables_number   1
_chemical_formula_structural   ZnP4H16(NO8)2
_chemical_formula_sum   'Zn1 P4 H16 N2 O16'
_cell_volume   391.91603019
_cell_formula_units_Z   1
loop_
 _symmetry_equiv_pos_site_id
 _symmetry_equiv_pos_as_xyz
  1  'x, y, z'
loop_
 _atom_site_type_symbol
 _atom_site_label
 _atom_site_symmetry_multiplicity
 _atom_site_fract_x
 _atom_site_fract_y
 _atom_site_fract_z
 _atom_site_occupancy
  Zn  Zn0  1  0.00000000  0.00000000  0.00000000  1.0
  P  P1  1  0.74942719  0.83112864  -0.74516356  1.0
  P  P2  1  0.25057281  0.16887136  -0.25483644  1.0
  P  P3  1  0.71884903  0.24025317  -0.74129299  1.0
  P  P4  1  0.28115097  0.75974683  -0.25870701  1.0
  H  H5  1  0.66748039  0.87836212  -0.20758029  1.0
  H  H6  1  0.33251961  0.12163788  -0.79241971  1.0
  H  H7  1  0.79926141  0.87689860  -0.35012590  1.0
  H  H8  1  0.20073859  0.12310140  -0.64987410  1.0
  H  H9  1  0.51791990  0.76051210  -0.97976814  1.0
  H  H10  1  0.48208010  0.23948790  -0.02023186  1.0
  H  H11  1  0.09665841  0.67679791  -0.82824820  1.0
  H  H12  1  0.90334159  0.32320209  -0.17175180  1.0
  H  H13  1  0.32467233  0.65567644  -0.81263081  1.0
  H  H14  1  0.67532767  0.34432356  -0.18736919  1.0
  H  H15  1  0.77305377  0.55677407  -0.57784310  1.0
  H  H16  1  0.22694623  0.44322593  -0.42215690  1.0
  H  H17  1  0.17916852  0.45218415  -0.90154614  1.0
  H  H18  1  0.82083148  0.54781585  -0.09845386  1.0
  H  H19  1  0.79044923  0.41962817  -0.32603986  1.0
  H  H20  1  0.20955077  0.58037183  -0.67396014  1.0
  N  N21  1  0.20246991  0.59079300  -0.80432295  1.0
  N  N22  1  0.79753009  0.40920700  -0.19567705  1.0
  O  O23  1  0.78276767  0.93915150  -0.22158265  1.0
  O  O24  1  0.21723233  0.06084850  -0.77841735  1.0
  O  O25  1  0.25959527  0.93353973  -0.35015151  1.0
  O  O26  1  0.74040473  0.06646027  -0.64984849  1.0
  O  O27  1  0.87994331  0.79425224  -0.88420417  1.0
  O  O28  1  0.12005669  0.20574776  -0.11579583  1.0
  O  O29  1  0.80024225  0.75623027  -0.58526185  1.0
  O  O30  1  0.19975775  0.24376973  -0.41473815  1.0
  O  O31  1  0.55015005  0.74736997  -0.84805203  1.0
  O  O32  1  0.44984995  0.25263003  -0.15194797  1.0
  O  O33  1  0.75589518  0.42162929  -0.55815774  1.0
  O  O34  1  0.24410482  0.57837071  -0.44184226  1.0
  O  O35  1  0.52153909  0.22676041  -0.83763645  1.0
  O  O36  1  0.47846091  0.77323959  -0.16236355  1.0
  O  O37  1  0.86207426  0.23503660  -0.86039798  1.0
  O  O38  1  0.13792574  0.76496340  -0.13960202  1.0
