# generated using pymatgen
data_Sb2C6Br6F11
_symmetry_space_group_name_H-M   'P 1'
_cell_length_a   9.85024800
_cell_length_b   8.06590768
_cell_length_c   9.56013045
_cell_angle_alpha   65.07134317
_cell_angle_beta   58.41975554
_cell_angle_gamma   73.38619798
_symmetry_Int_Tables_number   1
_chemical_formula_structural   Sb2C6Br6F11
_chemical_formula_sum   'Sb2 C6 Br6 F11'
_cell_volume   584.69915929
_cell_formula_units_Z   1
loop_
 _symmetry_equiv_pos_site_id
 _symmetry_equiv_pos_as_xyz
  1  'x, y, z'
loop_
 _atom_site_type_symbol
 _atom_site_label
 _atom_site_symmetry_multiplicity
 _atom_site_fract_x
 _atom_site_fract_y
 _atom_site_fract_z
 _atom_site_occupancy
  Br  Br0  1  0.38675798  0.95061404  0.74563787  1.0
  Br  Br1  1  0.61324202  0.04938596  0.25436213  1.0
  Br  Br2  1  0.13864985  0.73506458  0.76259979  1.0
  Br  Br3  1  0.86135015  0.26493542  0.23740021  1.0
  Br  Br4  1  0.75518473  0.76701840  1.03240409  1.0
  Br  Br5  1  0.24481527  0.23298160  -0.03240409  1.0
  Sb  Sb6  1  0.75592415  0.47322294  0.66447685  1.0
  Sb  Sb7  1  0.24407585  0.52677706  0.33552315  1.0
  C  C8  1  0.16597231  0.98202789  0.88773267  1.0
  C  C9  1  0.83402769  0.01797211  0.11226733  1.0
  C  C10  1  0.06032443  0.88493827  0.89873856  1.0
  C  C11  1  0.93967557  0.11506173  0.10126144  1.0
  C  C12  1  0.89415722  0.90147244  1.01270596  1.0
  C  C13  1  0.10584278  0.09852756  -0.01270596  1.0
  F  F14  1  0.73371360  0.73445467  0.60050495  1.0
  F  F15  1  0.26628640  0.26554533  0.39949505  1.0
  F  F16  1  0.74596293  0.49886495  0.46152203  1.0
  F  F17  1  0.25403707  0.50113505  0.53847797  1.0
  F  F18  1  0.53301941  0.44815220  0.81466313  1.0
  F  F19  1  0.46698059  0.55184780  0.18533687  1.0
  F  F20  1  0.80235817  0.45182503  0.84211892  1.0
  F  F21  1  0.19764183  0.54817497  0.15788108  1.0
  F  F22  1  0.81047233  0.21610216  0.70488252  1.0
  F  F23  1  0.18952767  0.78389784  0.29511748  1.0
  F  F24  1  -0.00000000  0.50000000  0.50000000  1.0
