# generated using pymatgen
data_Li2CdGeO4
_symmetry_space_group_name_H-M   'P 1'
_cell_length_a   6.68606060
_cell_length_b   5.54652165
_cell_length_c   5.21836291
_cell_angle_alpha   90.00000000
_cell_angle_beta   90.00000000
_cell_angle_gamma   90.00000000
_symmetry_Int_Tables_number   1
_chemical_formula_structural   Li2CdGeO4
_chemical_formula_sum   'Li4 Cd2 Ge2 O8'
_cell_volume   193.51975253
_cell_formula_units_Z   2
loop_
 _symmetry_equiv_pos_site_id
 _symmetry_equiv_pos_as_xyz
  1  'x, y, z'
loop_
 _atom_site_type_symbol
 _atom_site_label
 _atom_site_symmetry_multiplicity
 _atom_site_fract_x
 _atom_site_fract_y
 _atom_site_fract_z
 _atom_site_occupancy
  Li  Li0  1  0.25018763  0.16938654  0.01137889  1.0
  Li  Li1  1  0.75018763  0.83061346  0.51137889  1.0
  Li  Li2  1  0.74981237  0.16938654  0.01137889  1.0
  Li  Li3  1  0.24981237  0.83061346  0.51137889  1.0
  Cd  Cd4  1  0.50000000  0.67681885  1.00804093  1.0
  Cd  Cd5  1  0.00000000  0.32318115  0.50804093  1.0
  Ge  Ge6  1  0.50000000  0.31484359  0.51701560  1.0
  Ge  Ge7  1  0.00000000  0.68515641  0.01701560  1.0
  O  O8  1  0.28660782  0.16422207  0.38899953  1.0
  O  O9  1  0.78660782  0.83577793  0.88899953  1.0
  O  O10  1  0.71339218  0.16422207  0.38899953  1.0
  O  O11  1  0.21339218  0.83577793  0.88899953  1.0
  O  O12  1  0.50000000  0.29580747  0.85821948  1.0
  O  O13  1  0.00000000  0.70419253  0.35821948  1.0
  O  O14  1  0.50000000  0.62936037  0.43596715  1.0
  O  O15  1  0.00000000  0.37063963  0.93596715  1.0
