# generated using pymatgen
data_Bi2Te7Cl8
_symmetry_space_group_name_H-M   'P 1'
_cell_length_a   15.57567552
_cell_length_b   13.63416733
_cell_length_c   5.59469203
_cell_angle_alpha   96.68327803
_cell_angle_beta   94.44128372
_cell_angle_gamma   104.82001882
_symmetry_Int_Tables_number   1
_chemical_formula_structural   Bi2Te7Cl8
_chemical_formula_sum   'Bi4 Te14 Cl16'
_cell_volume   1133.63537738
_cell_formula_units_Z   2
loop_
 _symmetry_equiv_pos_site_id
 _symmetry_equiv_pos_as_xyz
  1  'x, y, z'
loop_
 _atom_site_type_symbol
 _atom_site_label
 _atom_site_symmetry_multiplicity
 _atom_site_fract_x
 _atom_site_fract_y
 _atom_site_fract_z
 _atom_site_occupancy
  Bi  Bi0  1  -0.22409344  -0.74166401  -0.70527604  1.0
  Bi  Bi1  1  -0.77590656  -0.25833599  -0.29472396  1.0
  Bi  Bi2  1  -0.89349396  -0.59179420  -0.41320457  1.0
  Bi  Bi3  1  -0.10650604  -0.40820580  -0.58679543  1.0
  Te  Te4  1  -0.66277423  -0.80934604  -0.97152783  1.0
  Te  Te5  1  -0.33722577  -0.19065396  -0.02847217  1.0
  Te  Te6  1  -0.93262277  -0.85237280  -0.93687238  1.0
  Te  Te7  1  -0.06737723  -0.14762720  -0.06312762  1.0
  Te  Te8  1  -0.56855117  -0.49260770  -0.85279902  1.0
  Te  Te9  1  -0.43144883  -0.50739230  -0.14720098  1.0
  Te  Te10  1  -0.93863483  -0.01886420  -0.68863795  1.0
  Te  Te11  1  -0.06136517  -0.98113580  -0.31136205  1.0
  Te  Te12  1  -0.65128912  -0.95748307  -0.67552310  1.0
  Te  Te13  1  -0.34871088  -0.04251693  -0.32447690  1.0
  Te  Te14  1  -0.54490264  -0.65121248  -0.56012218  1.0
  Te  Te15  1  -0.45509736  -0.34878752  -0.43987782  1.0
  Te  Te16  1  -0.53237250  -0.83561072  -0.28894950  1.0
  Te  Te17  1  -0.46762750  -0.16438928  -0.71105050  1.0
  Cl  Cl18  1  -0.83607828  -0.60321612  -0.97913286  1.0
  Cl  Cl19  1  -0.16392172  -0.39678388  -0.02086714  1.0
  Cl  Cl20  1  -0.72834010  -0.27830692  -0.86503187  1.0
  Cl  Cl21  1  -0.27165990  -0.72169308  -0.13496813  1.0
  Cl  Cl22  1  -0.19280456  -0.91788849  -0.87501902  1.0
  Cl  Cl23  1  -0.80719544  -0.08211151  -0.12498098  1.0
  Cl  Cl24  1  -0.38659146  -0.85306670  -0.68383376  1.0
  Cl  Cl25  1  -0.61340854  -0.14693330  -0.31616624  1.0
  Cl  Cl26  1  -0.95991380  -0.25717962  -0.64269400  1.0
  Cl  Cl27  1  -0.04008620  -0.74282038  -0.35730600  1.0
  Cl  Cl28  1  -0.81334760  -0.75217288  -0.51876474  1.0
  Cl  Cl29  1  -0.18665240  -0.24782712  -0.48123526  1.0
  Cl  Cl30  1  -0.72957111  -0.44823676  -0.41728083  1.0
  Cl  Cl31  1  -0.27042889  -0.55176324  -0.58271917  1.0
  Cl  Cl32  1  -0.94262248  -0.42334464  -0.22650418  1.0
  Cl  Cl33  1  -0.05737752  -0.57665536  -0.77349582  1.0
