# generated using pymatgen
data_ZrFe2
_symmetry_space_group_name_H-M   'P 1'
_cell_length_a   4.97738907
_cell_length_b   4.97738907
_cell_length_c   16.19710028
_cell_angle_alpha   90.00000000
_cell_angle_beta   90.00000000
_cell_angle_gamma   120.00000000
_symmetry_Int_Tables_number   1
_chemical_formula_structural   ZrFe2
_chemical_formula_sum   'Zr8 Fe16'
_cell_volume   347.51302076
_cell_formula_units_Z   8
loop_
 _symmetry_equiv_pos_site_id
 _symmetry_equiv_pos_as_xyz
  1  'x, y, z'
loop_
 _atom_site_type_symbol
 _atom_site_label
 _atom_site_symmetry_multiplicity
 _atom_site_fract_x
 _atom_site_fract_y
 _atom_site_fract_z
 _atom_site_occupancy
  Zr  Zr0  1  0.33333333  0.66666667  0.84339615  1.0
  Zr  Zr1  1  0.33333333  0.66666667  0.65660385  1.0
  Zr  Zr2  1  0.66666667  0.33333333  0.34339615  1.0
  Zr  Zr3  1  0.66666667  0.33333333  0.15660385  1.0
  Zr  Zr4  1  -0.00000000  -0.00000000  0.40574903  1.0
  Zr  Zr5  1  0.00000000  -0.00000000  0.09425097  1.0
  Zr  Zr6  1  0.00000000  0.00000000  0.90574903  1.0
  Zr  Zr7  1  0.00000000  -0.00000000  0.59425097  1.0
  Fe  Fe8  1  0.16560622  0.83439378  0.25000000  1.0
  Fe  Fe9  1  0.16560622  0.33121244  0.25000000  1.0
  Fe  Fe10  1  0.83439378  0.16560622  0.75000000  1.0
  Fe  Fe11  1  0.83439378  0.66878756  0.75000000  1.0
  Fe  Fe12  1  0.66878756  0.83439378  0.25000000  1.0
  Fe  Fe13  1  0.33121244  0.16560622  0.75000000  1.0
  Fe  Fe14  1  0.50000000  0.50000000  0.50000000  1.0
  Fe  Fe15  1  0.50000000  0.50000000  0.00000000  1.0
  Fe  Fe16  1  0.50000000  0.00000000  0.50000000  1.0
  Fe  Fe17  1  0.50000000  -0.00000000  -0.00000000  1.0
  Fe  Fe18  1  0.00000000  0.50000000  0.50000000  1.0
  Fe  Fe19  1  0.00000000  0.50000000  -0.00000000  1.0
  Fe  Fe20  1  0.33333333  0.66666667  0.37528783  1.0
  Fe  Fe21  1  0.33333333  0.66666667  0.12471217  1.0
  Fe  Fe22  1  0.66666667  0.33333333  0.87528783  1.0
  Fe  Fe23  1  0.66666667  0.33333333  0.62471217  1.0
