# generated using pymatgen
data_Y3(GeRh)2
_symmetry_space_group_name_H-M   'P 1'
_cell_length_a   5.59181718
_cell_length_b   7.82422223
_cell_length_c   13.28657999
_cell_angle_alpha   90.00000000
_cell_angle_beta   90.00000000
_cell_angle_gamma   90.00000000
_symmetry_Int_Tables_number   1
_chemical_formula_structural   Y3(GeRh)2
_chemical_formula_sum   'Y12 Ge8 Rh8'
_cell_volume   581.30940260
_cell_formula_units_Z   4
loop_
 _symmetry_equiv_pos_site_id
 _symmetry_equiv_pos_as_xyz
  1  'x, y, z'
loop_
 _atom_site_type_symbol
 _atom_site_label
 _atom_site_symmetry_multiplicity
 _atom_site_fract_x
 _atom_site_fract_y
 _atom_site_fract_z
 _atom_site_occupancy
  Y  Y0  1  0.85579605  0.60296328  0.89915750  1.0
  Y  Y1  1  0.85579605  0.60296328  0.60084250  1.0
  Y  Y2  1  0.85579605  0.89703672  0.39915750  1.0
  Y  Y3  1  0.85579605  0.89703672  0.10084250  1.0
  Y  Y4  1  0.14420395  0.10296328  0.89915750  1.0
  Y  Y5  1  0.14420395  0.10296328  0.60084250  1.0
  Y  Y6  1  0.14420395  0.39703672  0.39915750  1.0
  Y  Y7  1  0.14420395  0.39703672  0.10084250  1.0
  Y  Y8  1  0.37032086  0.73903609  0.75000000  1.0
  Y  Y9  1  0.37032086  0.76096391  0.25000000  1.0
  Y  Y10  1  0.62967914  0.23903609  0.75000000  1.0
  Y  Y11  1  0.62967914  0.26096391  0.25000000  1.0
  Ge  Ge12  1  0.86995439  0.88683249  0.75000000  1.0
  Ge  Ge13  1  0.86995439  0.61316751  0.25000000  1.0
  Ge  Ge14  1  0.13004561  0.38683249  0.75000000  1.0
  Ge  Ge15  1  0.13004561  0.11316751  0.25000000  1.0
  Ge  Ge16  1  0.34216032  0.75000000  0.00000000  1.0
  Ge  Ge17  1  0.34216032  0.75000000  0.50000000  1.0
  Ge  Ge18  1  0.65783968  0.25000000  0.00000000  1.0
  Ge  Ge19  1  0.65783968  0.25000000  0.50000000  1.0
  Rh  Rh20  1  0.62860225  0.95875606  0.90803064  1.0
  Rh  Rh21  1  0.62860225  0.95875606  0.59196936  1.0
  Rh  Rh22  1  0.62860225  0.54124394  0.40803064  1.0
  Rh  Rh23  1  0.62860225  0.54124394  0.09196936  1.0
  Rh  Rh24  1  0.37139775  0.45875606  0.90803064  1.0
  Rh  Rh25  1  0.37139775  0.45875606  0.59196936  1.0
  Rh  Rh26  1  0.37139775  0.04124394  0.40803064  1.0
  Rh  Rh27  1  0.37139775  0.04124394  0.09196936  1.0
