# generated using pymatgen
data_K2SnO6
_symmetry_space_group_name_H-M   'P 1'
_cell_length_a   5.88860806
_cell_length_b   5.88860806
_cell_length_c   5.88860806
_cell_angle_alpha   74.66688091
_cell_angle_beta   74.66688091
_cell_angle_gamma   74.66688091
_symmetry_Int_Tables_number   1
_chemical_formula_structural   K2SnO6
_chemical_formula_sum   'K2 Sn1 O6'
_cell_volume   185.71442749
_cell_formula_units_Z   1
loop_
 _symmetry_equiv_pos_site_id
 _symmetry_equiv_pos_as_xyz
  1  'x, y, z'
loop_
 _atom_site_type_symbol
 _atom_site_label
 _atom_site_symmetry_multiplicity
 _atom_site_fract_x
 _atom_site_fract_y
 _atom_site_fract_z
 _atom_site_occupancy
  K  K0  1  0.69583546  0.69583546  -0.30416454  1.0
  K  K1  1  1.30416454  1.30416454  0.30416454  1.0
  Sn  Sn2  1  -0.00000000  0.00000000  -0.00000000  1.0
  O  O3  1  0.91002357  -0.31494098  0.21084822  1.0
  O  O4  1  0.31494098  0.78915178  -0.91002357  1.0
  O  O5  1  0.78915178  0.08997643  -0.68505902  1.0
  O  O6  1  0.08997643  0.31494098  -0.21084822  1.0
  O  O7  1  0.68505902  0.21084822  -0.08997643  1.0
  O  O8  1  1.21084822  -0.08997643  -0.31494098  1.0
