# generated using pymatgen
data_CsRbC2
_symmetry_space_group_name_H-M   'P 1'
_cell_length_a   8.38919146
_cell_length_b   6.02649337
_cell_length_c   9.59785421
_cell_angle_alpha   90.00000000
_cell_angle_beta   90.00000000
_cell_angle_gamma   90.00000000
_symmetry_Int_Tables_number   1
_chemical_formula_structural   CsRbC2
_chemical_formula_sum   'Cs4 Rb4 C8'
_cell_volume   485.24261905
_cell_formula_units_Z   4
loop_
 _symmetry_equiv_pos_site_id
 _symmetry_equiv_pos_as_xyz
  1  'x, y, z'
loop_
 _atom_site_type_symbol
 _atom_site_label
 _atom_site_symmetry_multiplicity
 _atom_site_fract_x
 _atom_site_fract_y
 _atom_site_fract_z
 _atom_site_occupancy
  Cs  Cs0  1  0.96891102  0.75000000  0.67053699  1.0
  Cs  Cs1  1  0.46891102  0.75000000  0.82946301  1.0
  Cs  Cs2  1  0.03108898  0.25000000  0.32946301  1.0
  Cs  Cs3  1  0.53108898  0.25000000  0.17053699  1.0
  Rb  Rb4  1  0.86471015  0.75000000  0.08650547  1.0
  Rb  Rb5  1  0.36471015  0.75000000  0.41349453  1.0
  Rb  Rb6  1  0.13528985  0.25000000  0.91349453  1.0
  Rb  Rb7  1  0.63528985  0.25000000  0.58650547  1.0
  C  C8  1  0.73709482  0.85528458  0.39145319  1.0
  C  C9  1  0.73709482  0.64471542  0.39145319  1.0
  C  C10  1  0.23709482  0.85528458  0.10854681  1.0
  C  C11  1  0.23709482  0.64471542  0.10854681  1.0
  C  C12  1  0.26290518  0.35528458  0.60854681  1.0
  C  C13  1  0.26290518  0.14471542  0.60854681  1.0
  C  C14  1  0.76290518  0.35528458  0.89145319  1.0
  C  C15  1  0.76290518  0.14471542  0.89145319  1.0
