# generated using pymatgen
data_NaCoSO4F
_symmetry_space_group_name_H-M   'P 1'
_cell_length_a   6.74873754
_cell_length_b   8.70103058
_cell_length_c   7.25376120
_cell_angle_alpha   90.00000000
_cell_angle_beta   114.35633723
_cell_angle_gamma   90.00000000
_symmetry_Int_Tables_number   1
_chemical_formula_structural   NaCoSO4F
_chemical_formula_sum   'Na4 Co4 S4 O16 F4'
_cell_volume   388.03777855
_cell_formula_units_Z   4
loop_
 _symmetry_equiv_pos_site_id
 _symmetry_equiv_pos_as_xyz
  1  'x, y, z'
loop_
 _atom_site_type_symbol
 _atom_site_label
 _atom_site_symmetry_multiplicity
 _atom_site_fract_x
 _atom_site_fract_y
 _atom_site_fract_z
 _atom_site_occupancy
  Na  Na0  1  0.75094638  0.91377591  0.26138788  1.0
  Na  Na1  1  0.75094638  0.58622409  0.76138788  1.0
  Na  Na2  1  0.24905362  0.41377591  0.23861212  1.0
  Na  Na3  1  0.24905362  0.08622409  0.73861212  1.0
  Co  Co4  1  0.74857909  0.25141707  0.49938417  1.0
  Co  Co5  1  0.74857909  0.24858293  0.99938417  1.0
  Co  Co6  1  0.25142091  0.75141707  0.00061583  1.0
  Co  Co7  1  0.25142091  0.74858293  0.50061583  1.0
  S  S8  1  0.24977106  0.06712564  0.25061487  1.0
  S  S9  1  0.24977106  0.43287436  0.75061487  1.0
  S  S10  1  0.75022894  0.56712564  0.24938513  1.0
  S  S11  1  0.75022894  0.93287436  0.74938513  1.0
  O  O12  1  0.91721742  0.66746389  0.40345158  1.0
  O  O13  1  0.91721742  0.83253611  0.90345158  1.0
  O  O14  1  0.08278258  0.16746389  0.09654842  1.0
  O  O15  1  0.08278258  0.33253611  0.59654842  1.0
  O  O16  1  0.85435170  0.46873839  0.14285758  1.0
  O  O17  1  0.85435170  0.03126161  0.64285758  1.0
  O  O18  1  0.14564830  0.96873839  0.35714242  1.0
  O  O19  1  0.14564830  0.53126161  0.85714242  1.0
  O  O20  1  0.64303265  0.46798318  0.35214108  1.0
  O  O21  1  0.64303265  0.03201682  0.85214108  1.0
  O  O22  1  0.35696735  0.96798318  0.14785892  1.0
  O  O23  1  0.35696735  0.53201682  0.64785892  1.0
  O  O24  1  0.41473712  0.17056189  0.40216667  1.0
  O  O25  1  0.41473712  0.32943811  0.90216667  1.0
  O  O26  1  0.58526288  0.67056189  0.09783333  1.0
  O  O27  1  0.58526288  0.82943811  0.59783333  1.0
  F  F28  1  0.75135464  0.16776287  0.25091647  1.0
  F  F29  1  0.75135464  0.33223713  0.75091647  1.0
  F  F30  1  0.24864536  0.66776287  0.24908353  1.0
  F  F31  1  0.24864536  0.83223713  0.74908353  1.0
