# generated using pymatgen
data_Lu5Ir3
_symmetry_space_group_name_H-M   'P 1'
_cell_length_a   10.67753332
_cell_length_b   10.67753332
_cell_length_c   6.23795413
_cell_angle_alpha   90.00000000
_cell_angle_beta   90.00000000
_cell_angle_gamma   90.00000000
_symmetry_Int_Tables_number   1
_chemical_formula_structural   Lu5Ir3
_chemical_formula_sum   'Lu20 Ir12'
_cell_volume   711.18738995
_cell_formula_units_Z   4
loop_
 _symmetry_equiv_pos_site_id
 _symmetry_equiv_pos_as_xyz
  1  'x, y, z'
loop_
 _atom_site_type_symbol
 _atom_site_label
 _atom_site_symmetry_multiplicity
 _atom_site_fract_x
 _atom_site_fract_y
 _atom_site_fract_z
 _atom_site_occupancy
  Lu  Lu0  1  0.08622002  0.29054922  0.37351860  1.0
  Lu  Lu1  1  0.91377998  0.29054922  0.87351860  1.0
  Lu  Lu2  1  0.08622002  0.70945078  0.87351860  1.0
  Lu  Lu3  1  0.91377998  0.70945078  0.37351860  1.0
  Lu  Lu4  1  0.79054922  0.58622002  0.87351860  1.0
  Lu  Lu5  1  0.20945078  0.58622002  0.37351860  1.0
  Lu  Lu6  1  0.79054922  0.41377998  0.37351860  1.0
  Lu  Lu7  1  0.20945078  0.41377998  0.87351860  1.0
  Lu  Lu8  1  0.41377998  0.20945078  0.62648140  1.0
  Lu  Lu9  1  0.58622002  0.20945078  0.12648140  1.0
  Lu  Lu10  1  0.41377998  0.79054922  0.12648140  1.0
  Lu  Lu11  1  0.58622002  0.79054922  0.62648140  1.0
  Lu  Lu12  1  0.70945078  0.91377998  0.12648140  1.0
  Lu  Lu13  1  0.29054922  0.91377998  0.62648140  1.0
  Lu  Lu14  1  0.70945078  0.08622002  0.62648140  1.0
  Lu  Lu15  1  0.29054922  0.08622002  0.12648140  1.0
  Lu  Lu16  1  0.00000000  0.00000000  0.50000000  1.0
  Lu  Lu17  1  0.00000000  0.00000000  0.00000000  1.0
  Lu  Lu18  1  0.50000000  0.50000000  0.00000000  1.0
  Lu  Lu19  1  0.50000000  0.50000000  0.50000000  1.0
  Ir  Ir20  1  0.15406170  0.84593830  0.25000000  1.0
  Ir  Ir21  1  0.84593830  0.84593830  0.75000000  1.0
  Ir  Ir22  1  0.15406170  0.15406170  0.75000000  1.0
  Ir  Ir23  1  0.84593830  0.15406170  0.25000000  1.0
  Ir  Ir24  1  0.34593830  0.65406170  0.75000000  1.0
  Ir  Ir25  1  0.65406170  0.65406170  0.25000000  1.0
  Ir  Ir26  1  0.34593830  0.34593830  0.25000000  1.0
  Ir  Ir27  1  0.65406170  0.34593830  0.75000000  1.0
  Ir  Ir28  1  0.00000000  0.50000000  0.12098332  1.0
  Ir  Ir29  1  0.00000000  0.50000000  0.62098332  1.0
  Ir  Ir30  1  0.50000000  0.00000000  0.87901668  1.0
  Ir  Ir31  1  0.50000000  0.00000000  0.37901668  1.0
