# generated using pymatgen
data_HfB2O5
_symmetry_space_group_name_H-M   'P 1'
_cell_length_a   4.41981032
_cell_length_b   6.94712655
_cell_length_c   9.03120071
_cell_angle_alpha   90.00000000
_cell_angle_beta   90.63674166
_cell_angle_gamma   90.00000000
_symmetry_Int_Tables_number   1
_chemical_formula_structural   HfB2O5
_chemical_formula_sum   'Hf4 B8 O20'
_cell_volume   277.28572790
_cell_formula_units_Z   4
loop_
 _symmetry_equiv_pos_site_id
 _symmetry_equiv_pos_as_xyz
  1  'x, y, z'
loop_
 _atom_site_type_symbol
 _atom_site_label
 _atom_site_symmetry_multiplicity
 _atom_site_fract_x
 _atom_site_fract_y
 _atom_site_fract_z
 _atom_site_occupancy
  Hf  Hf0  1  0.99955097  0.61178648  0.82961242  1.0
  Hf  Hf1  1  0.99955097  0.88821352  0.32961242  1.0
  Hf  Hf2  1  0.00044903  0.11178648  0.67038758  1.0
  Hf  Hf3  1  0.00044903  0.38821352  0.17038758  1.0
  B  B4  1  0.53371539  0.91274064  0.83262982  1.0
  B  B5  1  0.53371539  0.58725936  0.33262982  1.0
  B  B6  1  0.46628461  0.41274064  0.66737018  1.0
  B  B7  1  0.46628461  0.08725936  0.16737018  1.0
  B  B8  1  0.47141945  0.77038887  0.57603360  1.0
  B  B9  1  0.47141945  0.72961113  0.07603360  1.0
  B  B10  1  0.52858055  0.27038887  0.92396640  1.0
  B  B11  1  0.52858055  0.22961113  0.42396640  1.0
  O  O12  1  0.78817863  0.40993116  0.68022993  1.0
  O  O13  1  0.78817863  0.09006884  0.18022993  1.0
  O  O14  1  0.21182137  0.90993116  0.81977007  1.0
  O  O15  1  0.21182137  0.59006884  0.31977007  1.0
  O  O16  1  0.77088625  0.40177967  0.96805883  1.0
  O  O17  1  0.77088625  0.09822033  0.46805883  1.0
  O  O18  1  0.22911375  0.90177967  0.53194117  1.0
  O  O19  1  0.22911375  0.59822033  0.03194117  1.0
  O  O20  1  0.69304149  0.84539006  0.69107127  1.0
  O  O21  1  0.69304149  0.65460994  0.19107127  1.0
  O  O22  1  0.30695851  0.34539006  0.80892873  1.0
  O  O23  1  0.30695851  0.15460994  0.30892873  1.0
  O  O24  1  0.65033575  0.77732709  0.94414801  1.0
  O  O25  1  0.65033575  0.72267291  0.44414801  1.0
  O  O26  1  0.34966425  0.27732709  0.55585199  1.0
  O  O27  1  0.34966425  0.22267291  0.05585199  1.0
  O  O28  1  0.33025839  0.60403915  0.65046230  1.0
  O  O29  1  0.33025839  0.89596085  0.15046230  1.0
  O  O30  1  0.66974161  0.10403915  0.84953770  1.0
  O  O31  1  0.66974161  0.39596085  0.34953770  1.0
