# generated using pymatgen
data_As2Rh
_symmetry_space_group_name_H-M   'P 1'
_cell_length_a   6.13909076
_cell_length_b   6.15976392
_cell_length_c   6.23584624
_cell_angle_alpha   90.00000000
_cell_angle_beta   114.29518038
_cell_angle_gamma   90.00000000
_symmetry_Int_Tables_number   1
_chemical_formula_structural   As2Rh
_chemical_formula_sum   'As8 Rh4'
_cell_volume   214.92681290
_cell_formula_units_Z   4
loop_
 _symmetry_equiv_pos_site_id
 _symmetry_equiv_pos_as_xyz
  1  'x, y, z'
loop_
 _atom_site_type_symbol
 _atom_site_label
 _atom_site_symmetry_multiplicity
 _atom_site_fract_x
 _atom_site_fract_y
 _atom_site_fract_z
 _atom_site_occupancy
  As  As0  1  0.83853925  0.37039145  0.68295197  1.0
  As  As1  1  0.83853925  0.12960855  0.18295197  1.0
  As  As2  1  0.16146075  0.87039145  0.81704803  1.0
  As  As3  1  0.16146075  0.62960855  0.31704803  1.0
  As  As4  1  0.65658163  0.62890385  0.87103053  1.0
  As  As5  1  0.65658163  0.87109615  0.37103053  1.0
  As  As6  1  0.34341837  0.12890385  0.62896947  1.0
  As  As7  1  0.34341837  0.37109615  0.12896947  1.0
  Rh  Rh8  1  0.77225232  1.00053186  0.78987492  1.0
  Rh  Rh9  1  0.77225232  0.49946814  0.28987492  1.0
  Rh  Rh10  1  0.22774768  0.50053186  0.71012508  1.0
  Rh  Rh11  1  0.22774768  -0.00053186  0.21012508  1.0
