# generated using pymatgen
data_Li3PO4
_symmetry_space_group_name_H-M   'P 1'
_cell_length_a   6.15659302
_cell_length_b   5.28160797
_cell_length_c   4.90394553
_cell_angle_alpha   90.00000000
_cell_angle_beta   90.00000000
_cell_angle_gamma   90.00000000
_symmetry_Int_Tables_number   1
_chemical_formula_structural   Li3PO4
_chemical_formula_sum   'Li6 P2 O8'
_cell_volume   159.46017852
_cell_formula_units_Z   2
loop_
 _symmetry_equiv_pos_site_id
 _symmetry_equiv_pos_as_xyz
  1  'x, y, z'
loop_
 _atom_site_type_symbol
 _atom_site_label
 _atom_site_symmetry_multiplicity
 _atom_site_fract_x
 _atom_site_fract_y
 _atom_site_fract_z
 _atom_site_occupancy
  Li  Li0  1  0.24740237  0.17346507  -0.00402008  1.0
  Li  Li1  1  0.74740237  0.82653493  0.49597992  1.0
  Li  Li2  1  0.75259763  0.17346507  -0.00402008  1.0
  Li  Li3  1  0.25259763  0.82653493  0.49597992  1.0
  Li  Li4  1  0.50000000  0.65508369  0.99534523  1.0
  Li  Li5  1  0.00000000  0.34491631  0.49534523  1.0
  P  P6  1  0.50000000  0.32446170  0.50343536  1.0
  P  P7  1  0.00000000  0.67553830  0.00343536  1.0
  O  O8  1  0.50000000  0.31891820  0.82201726  1.0
  O  O9  1  0.00000000  0.68108180  0.32201726  1.0
  O  O10  1  0.29156498  0.18579495  0.39735740  1.0
  O  O11  1  0.79156498  0.81420505  0.89735740  1.0
  O  O12  1  0.70843502  0.18579495  0.39735740  1.0
  O  O13  1  0.20843502  0.81420505  0.89735740  1.0
  O  O14  1  0.50000000  0.60529938  0.40182750  1.0
  O  O15  1  0.00000000  0.39470062  0.90182750  1.0
