# generated using pymatgen
data_Ca2H2S2O9
_symmetry_space_group_name_H-M   'P 1'
_cell_length_a   9.50668077
_cell_length_b   9.50668077
_cell_length_c   12.15939959
_cell_angle_alpha   50.11096673
_cell_angle_beta   129.88903327
_cell_angle_gamma   136.68659965
_symmetry_Int_Tables_number   1
_chemical_formula_structural   Ca2H2S2O9
_chemical_formula_sum   'Ca6 H6 S6 O27'
_cell_volume   545.63933528
_cell_formula_units_Z   3
loop_
 _symmetry_equiv_pos_site_id
 _symmetry_equiv_pos_as_xyz
  1  'x, y, z'
loop_
 _atom_site_type_symbol
 _atom_site_label
 _atom_site_symmetry_multiplicity
 _atom_site_fract_x
 _atom_site_fract_y
 _atom_site_fract_z
 _atom_site_occupancy
  Ca  Ca0  1  0.61498662  0.61498662  0.50000000  1.0
  Ca  Ca1  1  0.43705286  0.11301529  0.87777821  1.0
  Ca  Ca2  1  1.11301529  -0.56294714  0.12222179  1.0
  Ca  Ca3  1  1.65674499  -0.01440535  0.59858522  1.0
  Ca  Ca4  1  0.98559465  0.65674499  0.40141478  1.0
  Ca  Ca5  1  0.11328864  0.11328864  -0.00000000  1.0
  H  H6  1  1.50902546  -0.43674316  0.03005549  1.0
  H  H7  1  0.56325684  0.50902546  0.96994451  1.0
  H  H8  1  0.30268044  -0.04636949  0.64992114  1.0
  H  H9  1  0.95363051  -0.69731956  0.35007886  1.0
  H  H10  1  1.21813767  0.75302028  0.78585811  1.0
  H  H11  1  1.75302028  0.21813767  0.21414189  1.0
  S  S12  1  1.36923301  -0.13592508  0.25241205  1.0
  S  S13  1  0.86407492  0.36923301  0.74758795  1.0
  S  S14  1  1.70233065  -0.13959231  0.14710969  1.0
  S  S15  1  0.86040769  0.70233065  0.85289031  1.0
  S  S16  1  0.38890308  0.21601155  0.36335249  1.0
  S  S17  1  1.21601155  -0.61109692  0.63664751  1.0
  O  O18  1  1.55517002  -0.07775955  0.39193186  1.0
  O  O19  1  0.92224045  0.55517002  0.60806814  1.0
  O  O20  1  1.17208486  -0.18363466  0.24096675  1.0
  O  O21  1  0.81636534  0.17208486  0.75903325  1.0
  O  O22  1  1.42726496  0.05007957  0.11327668  1.0
  O  O23  1  1.05007957  0.42726496  0.88672332  1.0
  O  O24  1  1.32877094  -0.33008001  0.26721437  1.0
  O  O25  1  0.66991999  0.32877094  0.73278563  1.0
  O  O26  1  1.75946843  0.08973683  0.07055652  1.0
  O  O27  1  1.08973683  0.75946843  0.92944348  1.0
  O  O28  1  1.82007379  -0.16402935  0.12369875  1.0
  O  O29  1  0.83597065  0.82007379  0.87630125  1.0
  O  O30  1  1.77513277  -0.20269727  0.31621224  1.0
  O  O31  1  0.79730273  0.77513277  0.68378776  1.0
  O  O32  1  1.46404596  -0.28176214  0.08145255  1.0
  O  O33  1  0.71823786  0.46404596  0.91854745  1.0
  O  O34  1  0.61443778  0.31724129  0.38202457  1.0
  O  O35  1  1.31724129  -0.38556222  0.61797543  1.0
  O  O36  1  0.37841430  0.33518543  0.39498856  1.0
  O  O37  1  1.33518543  -0.62158570  0.60501144  1.0
  O  O38  1  1.23593839  -0.78992548  0.20621164  1.0
  O  O39  1  0.21007452  0.23593839  0.79378836  1.0
  O  O40  1  0.31765905  -0.01345225  0.47539322  1.0
  O  O41  1  0.98654775  -0.68234095  0.52460678  1.0
  O  O42  1  0.29165880  -0.08871301  0.74271180  1.0
  O  O43  1  0.91128699  -0.70834120  0.25728820  1.0
  O  O44  1  0.45259539  0.45259539  -0.00000000  1.0
