# generated using pymatgen
data_Tl2(CdSb)3
_symmetry_space_group_name_H-M   'P 1'
_cell_length_a   9.10923606
_cell_length_b   9.10923606
_cell_length_c   12.09348497
_cell_angle_alpha   68.77703671
_cell_angle_beta   111.22296329
_cell_angle_gamma   148.25403218
_symmetry_Int_Tables_number   1
_chemical_formula_structural   Tl2(CdSb)3
_chemical_formula_sum   'Tl4 Cd6 Sb6'
_cell_volume   489.17423055
_cell_formula_units_Z   2
loop_
 _symmetry_equiv_pos_site_id
 _symmetry_equiv_pos_as_xyz
  1  'x, y, z'
loop_
 _atom_site_type_symbol
 _atom_site_label
 _atom_site_symmetry_multiplicity
 _atom_site_fract_x
 _atom_site_fract_y
 _atom_site_fract_z
 _atom_site_occupancy
  Tl  Tl0  1  0.67649205  0.32350795  0.38556973  1.0
  Tl  Tl1  1  0.32350795  -0.32350795  0.61443027  1.0
  Tl  Tl2  1  0.18812153  -0.18812153  0.88600887  1.0
  Tl  Tl3  1  0.81187847  0.18812153  0.11399113  1.0
  Cd  Cd4  1  0.89404341  0.10595659  0.43148088  1.0
  Cd  Cd5  1  0.10595659  -0.10595659  0.56851912  1.0
  Cd  Cd6  1  0.86615789  0.13384211  0.84015080  1.0
  Cd  Cd7  1  0.13384211  -0.13384211  0.15984920  1.0
  Cd  Cd8  1  0.55534172  0.44465828  0.77355582  1.0
  Cd  Cd9  1  0.44465828  -0.44465828  0.22644418  1.0
  Sb  Sb10  1  0.96849149  0.03150851  0.68788605  1.0
  Sb  Sb11  1  0.03150851  -0.03150851  0.31211395  1.0
  Sb  Sb12  1  0.69158426  0.30841574  0.68248026  1.0
  Sb  Sb13  1  0.30841574  -0.30841574  0.31751974  1.0
  Sb  Sb14  1  0.41262785  -0.41262785  0.97132207  1.0
  Sb  Sb15  1  0.58737215  0.41262785  0.02867793  1.0
