# generated using pymatgen
data_Cu2SnSe3
_symmetry_space_group_name_H-M   'P 1'
_cell_length_a   7.06270536
_cell_length_b   7.06270536
_cell_length_c   13.56985642
_cell_angle_alpha   85.23960144
_cell_angle_beta   94.76039856
_cell_angle_gamma   60.02932519
_symmetry_Int_Tables_number   1
_chemical_formula_structural   Cu2SnSe3
_chemical_formula_sum   'Cu8 Sn4 Se12'
_cell_volume   578.25006555
_cell_formula_units_Z   4
loop_
 _symmetry_equiv_pos_site_id
 _symmetry_equiv_pos_as_xyz
  1  'x, y, z'
loop_
 _atom_site_type_symbol
 _atom_site_label
 _atom_site_symmetry_multiplicity
 _atom_site_fract_x
 _atom_site_fract_y
 _atom_site_fract_z
 _atom_site_occupancy
  Cu  Cu0  1  0.93508292  -0.42801960  0.56657686  1.0
  Cu  Cu1  1  0.42801960  0.06491708  0.06657686  1.0
  Cu  Cu2  1  1.11342403  -0.27926805  0.06544089  1.0
  Cu  Cu3  1  0.27926805  -0.11342403  0.56544089  1.0
  Cu  Cu4  1  1.34810925  -0.51055608  0.81601587  1.0
  Cu  Cu5  1  0.51055608  -0.34810925  0.31601587  1.0
  Cu  Cu6  1  1.03279673  -0.85463489  0.81690056  1.0
  Cu  Cu7  1  0.85463489  -0.03279673  0.31690056  1.0
  Sn  Sn8  1  0.62214113  0.23068533  0.55896225  1.0
  Sn  Sn9  1  0.76931467  -0.62214113  0.05896225  1.0
  Sn  Sn10  1  0.68801843  -0.19953544  0.80789018  1.0
  Sn  Sn11  1  1.19953544  -0.68801843  0.30789018  1.0
  Se  Se12  1  0.58900875  -0.39391420  0.49685366  1.0
  Se  Se13  1  0.39391420  0.41099125  -0.00314634  1.0
  Se  Se14  1  0.94534847  -0.10598248  0.49747816  1.0
  Se  Se15  1  0.10598248  0.05465153  -0.00252184  1.0
  Se  Se16  1  1.16384142  -0.31067058  0.24648363  1.0
  Se  Se17  1  0.31067058  -0.16384142  0.74648363  1.0
  Se  Se18  1  0.67227614  0.18656338  0.75972615  1.0
  Se  Se19  1  0.81343662  -0.67227614  0.25972615  1.0
  Se  Se20  1  1.02629613  -0.52323876  0.74747940  1.0
  Se  Se21  1  0.52323876  -0.02629613  0.24747940  1.0
  Se  Se22  1  1.23601676  -0.75266847  0.50889237  1.0
  Se  Se23  1  0.75266847  -0.23601676  0.00889237  1.0
