# generated using pymatgen
data_CaMn4(CuO4)3
_symmetry_space_group_name_H-M   'P 1'
_cell_length_a   6.26812227
_cell_length_b   6.26812227
_cell_length_c   6.26812227
_cell_angle_alpha   109.47122063
_cell_angle_beta   109.47122063
_cell_angle_gamma   109.47122063
_symmetry_Int_Tables_number   1
_chemical_formula_structural   CaMn4(CuO4)3
_chemical_formula_sum   'Ca1 Mn4 Cu3 O12'
_cell_volume   189.57911336
_cell_formula_units_Z   1
loop_
 _symmetry_equiv_pos_site_id
 _symmetry_equiv_pos_as_xyz
  1  'x, y, z'
loop_
 _atom_site_type_symbol
 _atom_site_label
 _atom_site_symmetry_multiplicity
 _atom_site_fract_x
 _atom_site_fract_y
 _atom_site_fract_z
 _atom_site_occupancy
  Ca  Ca0  1  0.00000000  0.00000000  0.00000000  1.0
  Mn  Mn1  1  0.50000000  1.00000000  1.00000000  1.0
  Mn  Mn2  1  0.50000000  0.50000000  0.50000000  1.0
  Mn  Mn3  1  1.00000000  1.00000000  0.50000000  1.0
  Mn  Mn4  1  1.00000000  0.50000000  1.00000000  1.0
  Cu  Cu5  1  0.50000000  0.50000000  -0.00000000  1.0
  Cu  Cu6  1  -0.00000000  0.50000000  0.50000000  1.0
  Cu  Cu7  1  0.50000000  0.00000000  0.50000000  1.0
  O  O8  1  0.81973951  1.30208019  1.12181969  1.0
  O  O9  1  0.81973951  0.69791981  0.51765932  1.0
  O  O10  1  0.18026049  0.30208019  0.48234068  1.0
  O  O11  1  0.18026049  0.69791981  0.87818031  1.0
  O  O12  1  0.51765932  0.81973951  0.69791981  1.0
  O  O13  1  1.12181969  0.81973951  1.30208019  1.0
  O  O14  1  0.69791981  0.87818031  0.18026049  1.0
  O  O15  1  0.69791981  0.51765932  0.81973951  1.0
  O  O16  1  0.87818031  0.18026049  0.69791981  1.0
  O  O17  1  0.48234068  0.18026049  0.30208019  1.0
  O  O18  1  0.30208019  0.48234068  0.18026049  1.0
  O  O19  1  1.30208019  1.12181969  0.81973951  1.0
