# generated using pymatgen
data_Pb2NO6
_symmetry_space_group_name_H-M   'P 1'
_cell_length_a   10.54219838
_cell_length_b   10.54219838
_cell_length_c   10.54219838
_cell_angle_alpha   134.41319493
_cell_angle_beta   131.91292188
_cell_angle_gamma   68.41825710
_symmetry_Int_Tables_number   1
_chemical_formula_structural   Pb2NO6
_chemical_formula_sum   'Pb8 N4 O24'
_cell_volume   611.75609599
_cell_formula_units_Z   4
loop_
 _symmetry_equiv_pos_site_id
 _symmetry_equiv_pos_as_xyz
  1  'x, y, z'
loop_
 _atom_site_type_symbol
 _atom_site_label
 _atom_site_symmetry_multiplicity
 _atom_site_fract_x
 _atom_site_fract_y
 _atom_site_fract_z
 _atom_site_occupancy
  N  N0  1  0.77708721  0.27708721  0.50000000  1.0
  N  N1  1  0.22291279  0.72291279  0.50000000  1.0
  N  N2  1  0.77626853  0.77626853  1.00000000  1.0
  N  N3  1  0.22373147  0.22373147  -0.00000000  1.0
  O  O4  1  0.74270710  0.37726733  0.63456022  1.0
  O  O5  1  0.25729290  0.89185312  0.63456022  1.0
  O  O6  1  0.74270710  1.10814688  1.36543978  1.0
  O  O7  1  0.25729290  0.62273267  0.36543978  1.0
  O  O8  1  0.61402752  0.74199863  0.87202889  1.0
  O  O9  1  1.13003027  0.25800137  0.87202889  1.0
  O  O10  1  0.86996973  0.74199863  1.12797111  1.0
  O  O11  1  0.38597248  0.25800137  0.12797111  1.0
  O  O12  1  0.85159820  0.35159820  0.50000000  1.0
  O  O13  1  0.14840180  0.64840180  0.50000000  1.0
  O  O14  1  0.85084487  0.85084487  1.00000000  1.0
  O  O15  1  0.14915513  0.14915513  0.00000000  1.0
  O  O16  1  0.82942722  0.74072400  1.57015122  1.0
  O  O17  1  0.17057278  0.74072400  0.91129678  1.0
  O  O18  1  0.82942722  0.25927600  1.08870322  1.0
  O  O19  1  0.17057278  0.25927600  0.42984878  1.0
  O  O20  1  0.56501549  0.48393150  0.91891601  1.0
  O  O21  1  0.43498451  1.35390053  0.91891601  1.0
  O  O22  1  0.56501549  0.64609947  1.08108399  1.0
  O  O23  1  0.43498451  0.51606850  0.08108399  1.0
  O  O24  1  0.51123226  0.93366376  0.57756850  1.0
  O  O25  1  0.64390474  0.06633624  0.57756850  1.0
  O  O26  1  1.35609526  0.93366376  1.42243150  1.0
  O  O27  1  0.48876774  0.06633624  0.42243150  1.0
  Pb  Pb28  1  0.63292487  0.64008471  0.49498999  1.0
  Pb  Pb29  1  0.85490528  0.86206512  1.49498999  1.0
  Pb  Pb30  1  1.14509472  0.64008471  1.00715984  1.0
  Pb  Pb31  1  0.36707513  0.86206512  1.00715984  1.0
  Pb  Pb32  1  0.63292487  1.13793488  0.99284016  1.0
  Pb  Pb33  1  0.85490528  0.35991529  0.99284016  1.0
  Pb  Pb34  1  1.14509472  1.13793488  1.50501001  1.0
  Pb  Pb35  1  0.36707513  0.35991529  0.50501001  1.0
