# generated using pymatgen
data_Li8Hf3
_symmetry_space_group_name_H-M   'P 1'
_cell_length_a   8.14760161
_cell_length_b   8.14760161
_cell_length_c   8.14760161
_cell_angle_alpha   109.47122063
_cell_angle_beta   109.47122063
_cell_angle_gamma   109.47122063
_symmetry_Int_Tables_number   1
_chemical_formula_structural   Li8Hf3
_chemical_formula_sum   'Li16 Hf6'
_cell_volume   416.35852797
_cell_formula_units_Z   2
loop_
 _symmetry_equiv_pos_site_id
 _symmetry_equiv_pos_as_xyz
  1  'x, y, z'
loop_
 _atom_site_type_symbol
 _atom_site_label
 _atom_site_symmetry_multiplicity
 _atom_site_fract_x
 _atom_site_fract_y
 _atom_site_fract_z
 _atom_site_occupancy
  Li  Li0  1  1.00000000  1.00000000  0.50000000  1.0
  Li  Li1  1  1.00000000  1.50000000  1.00000000  1.0
  Li  Li2  1  1.50000000  1.00000000  1.00000000  1.0
  Li  Li3  1  0.50000000  0.50000000  0.50000000  1.0
  Li  Li4  1  0.35215177  0.35215177  0.70430355  1.0
  Li  Li5  1  0.64784823  1.00000000  0.35215177  1.0
  Li  Li6  1  1.00000000  0.64784823  0.35215177  1.0
  Li  Li7  1  0.64784823  1.35215177  1.00000000  1.0
  Li  Li8  1  1.35215177  1.70430355  1.35215177  1.0
  Li  Li9  1  1.00000000  1.35215177  0.64784823  1.0
  Li  Li10  1  1.35215177  0.64784823  1.00000000  1.0
  Li  Li11  1  1.35215177  1.00000000  0.64784823  1.0
  Li  Li12  1  1.70430355  1.35215177  1.35215177  1.0
  Li  Li13  1  0.64784823  0.64784823  0.29569645  1.0
  Li  Li14  1  0.64784823  0.29569645  0.64784823  1.0
  Li  Li15  1  0.29569645  0.64784823  0.64784823  1.0
  Hf  Hf16  1  0.77393027  0.77393027  0.00000000  1.0
  Hf  Hf17  1  0.22606973  -0.00000000  0.22606973  1.0
  Hf  Hf18  1  0.00000000  0.22606973  0.22606973  1.0
  Hf  Hf19  1  0.22606973  0.22606973  0.00000000  1.0
  Hf  Hf20  1  0.77393027  -0.00000000  0.77393027  1.0
  Hf  Hf21  1  0.00000000  0.77393027  0.77393027  1.0
