# generated using pymatgen
data_SrCuSn2
_symmetry_space_group_name_H-M   'P 1'
_cell_length_a   10.05861588
_cell_length_b   10.05861588
_cell_length_c   4.60076291
_cell_angle_alpha   90.00000000
_cell_angle_beta   90.00000000
_cell_angle_gamma   153.27943833
_symmetry_Int_Tables_number   1
_chemical_formula_structural   SrCuSn2
_chemical_formula_sum   'Sr2 Cu2 Sn4'
_cell_volume   209.30077038
_cell_formula_units_Z   2
loop_
 _symmetry_equiv_pos_site_id
 _symmetry_equiv_pos_as_xyz
  1  'x, y, z'
loop_
 _atom_site_type_symbol
 _atom_site_label
 _atom_site_symmetry_multiplicity
 _atom_site_fract_x
 _atom_site_fract_y
 _atom_site_fract_z
 _atom_site_occupancy
  Sr  Sr0  1  0.39185202  0.60814798  0.75000000  1.0
  Sr  Sr1  1  -0.39185202  0.39185202  0.25000000  1.0
  Cu  Cu2  1  0.17556640  0.82443360  0.75000000  1.0
  Cu  Cu3  1  -0.17556640  0.17556640  0.25000000  1.0
  Sn  Sn4  1  0.04336059  0.95663941  0.75000000  1.0
  Sn  Sn5  1  -0.04336059  0.04336059  0.25000000  1.0
  Sn  Sn6  1  -0.24957005  0.24957005  0.75000000  1.0
  Sn  Sn7  1  0.24957005  0.75042995  0.25000000  1.0
