# generated using pymatgen
data_Cs(WCl3)3
_symmetry_space_group_name_H-M   'P 1'
_cell_length_a   9.73430191
_cell_length_b   9.73430191
_cell_length_c   8.67781693
_cell_angle_alpha   90.00000000
_cell_angle_beta   90.00000000
_cell_angle_gamma   120.00000000
_symmetry_Int_Tables_number   1
_chemical_formula_structural   Cs(WCl3)3
_chemical_formula_sum   'Cs2 W6 Cl18'
_cell_volume   712.11599259
_cell_formula_units_Z   2
loop_
 _symmetry_equiv_pos_site_id
 _symmetry_equiv_pos_as_xyz
  1  'x, y, z'
loop_
 _atom_site_type_symbol
 _atom_site_label
 _atom_site_symmetry_multiplicity
 _atom_site_fract_x
 _atom_site_fract_y
 _atom_site_fract_z
 _atom_site_occupancy
  Cs  Cs0  1  0.33333333  0.66666667  0.49443867  1.0
  Cs  Cs1  1  0.66666667  0.33333333  0.50556133  1.0
  W  W2  1  0.82376246  0.82193498  0.12046310  1.0
  W  W3  1  0.82193498  0.99817252  0.87953690  1.0
  W  W4  1  0.99817252  0.17623754  0.12046310  1.0
  W  W5  1  0.17806502  0.00182748  0.12046310  1.0
  W  W6  1  0.17623754  0.17806502  0.87953690  1.0
  W  W7  1  0.00182748  0.82376246  0.87953690  1.0
  Cl  Cl8  1  0.20952483  0.79701826  -0.00006847  1.0
  Cl  Cl9  1  0.79701826  0.58749343  1.00006847  1.0
  Cl  Cl10  1  0.58749343  0.79047517  -0.00006847  1.0
  Cl  Cl11  1  0.20298174  0.41250657  -0.00006847  1.0
  Cl  Cl12  1  0.79047517  0.20298174  1.00006847  1.0
  Cl  Cl13  1  0.41250657  0.20952483  1.00006847  1.0
  Cl  Cl14  1  0.00200217  0.80581486  0.30860358  1.0
  Cl  Cl15  1  0.80581486  0.80381269  0.69139642  1.0
  Cl  Cl16  1  0.80381269  0.99799783  0.30860358  1.0
  Cl  Cl17  1  0.19418514  0.19618731  0.30860358  1.0
  Cl  Cl18  1  0.99799783  0.19418514  0.69139642  1.0
  Cl  Cl19  1  0.19618731  0.00200217  0.69139642  1.0
  Cl  Cl20  1  0.61948427  0.61563014  0.29345250  1.0
  Cl  Cl21  1  0.61563014  0.99614588  0.70654750  1.0
  Cl  Cl22  1  0.99614588  0.38051573  0.29345250  1.0
  Cl  Cl23  1  0.38436986  0.00385412  0.29345250  1.0
  Cl  Cl24  1  0.38051573  0.38436986  0.70654750  1.0
  Cl  Cl25  1  0.00385412  0.61948427  0.70654750  1.0
