# generated using pymatgen
data_K2PdC4(SN)4
_symmetry_space_group_name_H-M   'P 1'
_cell_length_a   4.42300452
_cell_length_b   13.48435326
_cell_length_c   11.12964354
_cell_angle_alpha   90.00000000
_cell_angle_beta   97.47867664
_cell_angle_gamma   90.00000000
_symmetry_Int_Tables_number   1
_chemical_formula_structural   K2PdC4(SN)4
_chemical_formula_sum   'K4 Pd2 C8 S8 N8'
_cell_volume   658.14043518
_cell_formula_units_Z   2
loop_
 _symmetry_equiv_pos_site_id
 _symmetry_equiv_pos_as_xyz
  1  'x, y, z'
loop_
 _atom_site_type_symbol
 _atom_site_label
 _atom_site_symmetry_multiplicity
 _atom_site_fract_x
 _atom_site_fract_y
 _atom_site_fract_z
 _atom_site_occupancy
  K  K0  1  0.29141986  0.13979636  0.46642782  1.0
  K  K1  1  0.29141986  0.36020364  0.96642782  1.0
  K  K2  1  0.70858014  0.63979636  0.03357218  1.0
  K  K3  1  0.70858014  0.86020364  0.53357218  1.0
  Pd  Pd4  1  -0.00000000  0.50000000  0.50000000  1.0
  Pd  Pd5  1  0.00000000  0.00000000  0.00000000  1.0
  C  C6  1  0.96206945  0.42645516  0.22139374  1.0
  C  C7  1  0.96206945  0.07354484  0.72139374  1.0
  C  C8  1  0.03793055  0.92645516  0.27860626  1.0
  C  C9  1  0.03793055  0.57354484  0.77860626  1.0
  C  C10  1  0.78302826  0.15308686  0.20259410  1.0
  C  C11  1  0.78302826  0.34691314  0.70259410  1.0
  C  C12  1  0.21697174  0.65308686  0.29740590  1.0
  C  C13  1  0.21697174  0.84691314  0.79740590  1.0
  S  S14  1  0.86667010  0.15839090  0.06111253  1.0
  S  S15  1  0.86667010  0.34160910  0.56111253  1.0
  S  S16  1  0.13332990  0.65839090  0.43888747  1.0
  S  S17  1  0.13332990  0.84160910  0.93888747  1.0
  S  S18  1  0.79206884  0.91135994  0.15401993  1.0
  S  S19  1  0.79206884  0.58864006  0.65401993  1.0
  S  S20  1  0.20793116  0.41135994  0.34598007  1.0
  S  S21  1  0.20793116  0.08864006  0.84598007  1.0
  N  N22  1  0.80563320  0.43413387  0.12735109  1.0
  N  N23  1  0.80563320  0.06586613  0.62735109  1.0
  N  N24  1  0.19436680  0.93413387  0.37264891  1.0
  N  N25  1  0.19436680  0.56586613  0.87264891  1.0
  N  N26  1  0.72472627  0.15459854  0.30282820  1.0
  N  N27  1  0.72472627  0.34540146  0.80282820  1.0
  N  N28  1  0.27527373  0.65459854  0.19717180  1.0
  N  N29  1  0.27527373  0.84540146  0.69717180  1.0
