# generated using pymatgen
data_La4In8Ni7
_symmetry_space_group_name_H-M   'P 1'
_cell_length_a   14.27531803
_cell_length_b   14.27531803
_cell_length_c   4.42529080
_cell_angle_alpha   90.00000000
_cell_angle_beta   90.00000000
_cell_angle_gamma   117.48283678
_symmetry_Int_Tables_number   1
_chemical_formula_structural   La4In8Ni7
_chemical_formula_sum   'La8 In16 Ni14'
_cell_volume   800.03690609
_cell_formula_units_Z   2
loop_
 _symmetry_equiv_pos_site_id
 _symmetry_equiv_pos_as_xyz
  1  'x, y, z'
loop_
 _atom_site_type_symbol
 _atom_site_label
 _atom_site_symmetry_multiplicity
 _atom_site_fract_x
 _atom_site_fract_y
 _atom_site_fract_z
 _atom_site_occupancy
  La  La0  1  0.15132176  0.50319166  0.00000000  1.0
  La  La1  1  -0.49680834  1.15132176  0.00000000  1.0
  La  La2  1  0.49680834  0.84867824  0.00000000  1.0
  La  La3  1  -0.15132176  1.49680834  0.00000000  1.0
  La  La4  1  0.10522313  0.89477687  0.50000000  1.0
  La  La5  1  -0.10522313  1.10522313  0.50000000  1.0
  La  La6  1  0.68632645  0.68632645  0.00000000  1.0
  La  La7  1  0.31367355  0.31367355  0.00000000  1.0
  In  In8  1  0.05853281  0.62692332  0.50000000  1.0
  In  In9  1  -0.37307668  1.05853281  0.50000000  1.0
  In  In10  1  0.37307668  0.94146719  0.50000000  1.0
  In  In11  1  -0.05853281  1.37307668  0.50000000  1.0
  In  In12  1  -0.13135472  1.68182449  0.50000000  1.0
  In  In13  1  0.68182449  0.86864528  0.50000000  1.0
  In  In14  1  -0.68182449  1.13135472  0.50000000  1.0
  In  In15  1  0.13135472  0.31817551  0.50000000  1.0
  In  In16  1  0.30935875  0.69064125  0.50000000  1.0
  In  In17  1  -0.30935875  1.30935875  0.50000000  1.0
  In  In18  1  0.22175365  0.77824635  0.00000000  1.0
  In  In19  1  -0.22175365  1.22175365  0.00000000  1.0
  In  In20  1  0.41413998  0.58586002  0.00000000  1.0
  In  In21  1  -0.41413998  1.41413998  0.00000000  1.0
  In  In22  1  0.50000000  0.50000000  0.50000000  1.0
  In  In23  1  0.00000000  0.00000000  0.00000000  1.0
  Ni  Ni24  1  0.30906297  0.50050423  0.50000000  1.0
  Ni  Ni25  1  -0.49949577  1.30906297  0.50000000  1.0
  Ni  Ni26  1  0.49949577  0.69093703  0.50000000  1.0
  Ni  Ni27  1  -0.30906297  1.49949577  0.50000000  1.0
  Ni  Ni28  1  0.01258423  0.70681545  0.00000000  1.0
  Ni  Ni29  1  -0.29318455  1.01258423  0.00000000  1.0
  Ni  Ni30  1  0.29318455  0.98741577  0.00000000  1.0
  Ni  Ni31  1  -0.01258423  1.29318455  0.00000000  1.0
  Ni  Ni32  1  -0.09197257  1.80068209  0.00000000  1.0
  Ni  Ni33  1  0.80068209  0.90802743  0.00000000  1.0
  Ni  Ni34  1  -0.80068209  1.09197257  0.00000000  1.0
  Ni  Ni35  1  0.09197257  0.19931791  0.00000000  1.0
  Ni  Ni36  1  0.87773853  0.87773853  0.50000000  1.0
  Ni  Ni37  1  0.12226147  0.12226147  0.50000000  1.0
