# generated using pymatgen
data_NbGe2
_symmetry_space_group_name_H-M   'P 1'
_cell_length_a   5.00147115
_cell_length_b   5.00147115
_cell_length_c   6.82564916
_cell_angle_alpha   90.00000000
_cell_angle_beta   90.00000000
_cell_angle_gamma   120.00000000
_symmetry_Int_Tables_number   1
_chemical_formula_structural   NbGe2
_chemical_formula_sum   'Nb3 Ge6'
_cell_volume   147.86661421
_cell_formula_units_Z   3
loop_
 _symmetry_equiv_pos_site_id
 _symmetry_equiv_pos_as_xyz
  1  'x, y, z'
loop_
 _atom_site_type_symbol
 _atom_site_label
 _atom_site_symmetry_multiplicity
 _atom_site_fract_x
 _atom_site_fract_y
 _atom_site_fract_z
 _atom_site_occupancy
  Nb  Nb0  1  0.50000000  0.50000000  0.33333333  1.0
  Nb  Nb1  1  0.50000000  0.00000000  0.00000000  1.0
  Nb  Nb2  1  -0.00000000  0.50000000  0.66666667  1.0
  Ge  Ge3  1  0.16417150  0.83582850  0.33333333  1.0
  Ge  Ge4  1  0.16417150  0.32834300  0.00000000  1.0
  Ge  Ge5  1  0.83582850  0.16417150  0.33333333  1.0
  Ge  Ge6  1  0.83582850  0.67165700  0.00000000  1.0
  Ge  Ge7  1  0.67165700  0.83582850  0.66666667  1.0
  Ge  Ge8  1  0.32834300  0.16417150  0.66666667  1.0
