# generated using pymatgen
data_Sr3Mg(SiO4)2
_symmetry_space_group_name_H-M   'P 1'
_cell_length_a   5.52025951
_cell_length_b   5.52025951
_cell_length_c   14.01466970
_cell_angle_alpha   91.00418653
_cell_angle_beta   88.99581347
_cell_angle_gamma   120.17105327
_symmetry_Int_Tables_number   1
_chemical_formula_structural   Sr3Mg(SiO4)2
_chemical_formula_sum   'Sr6 Mg2 Si4 O16'
_cell_volume   369.14121913
_cell_formula_units_Z   2
loop_
 _symmetry_equiv_pos_site_id
 _symmetry_equiv_pos_as_xyz
  1  'x, y, z'
loop_
 _atom_site_type_symbol
 _atom_site_label
 _atom_site_symmetry_multiplicity
 _atom_site_fract_x
 _atom_site_fract_y
 _atom_site_fract_z
 _atom_site_occupancy
  Sr  Sr0  1  0.35860642  -0.29471806  0.83958105  1.0
  Sr  Sr1  1  0.70528194  0.35860642  0.16041895  1.0
  Sr  Sr2  1  0.73966179  0.39344652  0.66046158  1.0
  Sr  Sr3  1  0.39344652  -0.26033821  0.33953842  1.0
  Sr  Sr4  1  0.10781308  0.10781308  0.50000000  1.0
  Sr  Sr5  1  -0.00918111  -0.00918111  -0.00000000  1.0
  Mg  Mg6  1  1.04908400  0.04940235  0.74997194  1.0
  Mg  Mg7  1  0.04940235  0.04908400  0.25002806  1.0
  Si  Si8  1  0.40284999  -0.27910736  0.61613866  1.0
  Si  Si9  1  0.72089264  0.40284999  0.38386134  1.0
  Si  Si10  1  0.69547988  0.37790001  0.88385440  1.0
  Si  Si11  1  0.37790001  -0.30452012  0.11614560  1.0
  O  O12  1  1.27102611  0.41934423  0.67479903  1.0
  O  O13  1  0.41934423  0.27102611  0.32520097  1.0
  O  O14  1  1.20420269  0.35336535  0.13434912  1.0
  O  O15  1  0.35336535  0.20420269  0.86565088  1.0
  O  O16  1  0.83027160  0.20197551  0.82986661  1.0
  O  O17  1  0.20197551  -0.16972840  0.17013339  1.0
  O  O18  1  0.89694566  0.26804632  0.32995539  1.0
  O  O19  1  0.26804632  -0.10305434  0.67004461  1.0
  O  O20  1  0.79755290  0.45630037  0.99351591  1.0
  O  O21  1  0.45630037  -0.20244710  0.00648409  1.0
  O  O22  1  0.64253763  0.30117001  0.49355561  1.0
  O  O23  1  0.30117001  -0.35746237  0.50644439  1.0
  O  O24  1  0.82712158  0.67947465  0.82522477  1.0
  O  O25  1  0.67947465  -0.17287842  0.17477523  1.0
  O  O26  1  0.74492954  -0.10550165  0.63437957  1.0
  O  O27  1  0.89449835  0.74492954  0.36562043  1.0
