# generated using pymatgen
data_Sb5IO7
_symmetry_space_group_name_H-M   'P 1'
_cell_length_a   6.96352654
_cell_length_b   6.96352654
_cell_length_c   13.01767879
_cell_angle_alpha   90.00000000
_cell_angle_beta   90.00000000
_cell_angle_gamma   120.00000000
_symmetry_Int_Tables_number   1
_chemical_formula_structural   Sb5IO7
_chemical_formula_sum   'Sb10 I2 O14'
_cell_volume   546.66674251
_cell_formula_units_Z   2
loop_
 _symmetry_equiv_pos_site_id
 _symmetry_equiv_pos_as_xyz
  1  'x, y, z'
loop_
 _atom_site_type_symbol
 _atom_site_label
 _atom_site_symmetry_multiplicity
 _atom_site_fract_x
 _atom_site_fract_y
 _atom_site_fract_z
 _atom_site_occupancy
  Sb  Sb0  1  0.67699589  0.63885066  0.25000000  1.0
  Sb  Sb1  1  0.63885066  0.67699589  0.75000000  1.0
  Sb  Sb2  1  0.96185477  0.32300411  0.25000000  1.0
  Sb  Sb3  1  0.36114934  0.03814523  0.25000000  1.0
  Sb  Sb4  1  0.32300411  0.96185477  0.75000000  1.0
  Sb  Sb5  1  0.03814523  0.36114934  0.75000000  1.0
  Sb  Sb6  1  0.33333333  0.66666667  0.44588056  1.0
  Sb  Sb7  1  0.33333333  0.66666667  0.05411944  1.0
  Sb  Sb8  1  0.66666667  0.33333333  0.94588056  1.0
  Sb  Sb9  1  0.66666667  0.33333333  0.55411944  1.0
  I  I10  1  -0.00000000  -0.00000000  0.50000000  1.0
  I  I11  1  -0.00000000  -0.00000000  0.00000000  1.0
  O  O12  1  0.49439865  0.94231383  0.35955060  1.0
  O  O13  1  0.49439865  0.94231383  0.14044940  1.0
  O  O14  1  0.94231383  0.49439865  0.85955060  1.0
  O  O15  1  0.94231383  0.49439865  0.64044940  1.0
  O  O16  1  0.44791518  0.50560135  0.35955060  1.0
  O  O17  1  0.44791518  0.50560135  0.14044940  1.0
  O  O18  1  0.05768617  0.55208482  0.35955060  1.0
  O  O19  1  0.05768617  0.55208482  0.14044940  1.0
  O  O20  1  0.50560135  0.44791518  0.85955060  1.0
  O  O21  1  0.50560135  0.44791518  0.64044940  1.0
  O  O22  1  0.55208482  0.05768617  0.85955060  1.0
  O  O23  1  0.55208482  0.05768617  0.64044940  1.0
  O  O24  1  0.66666667  0.33333333  0.25000000  1.0
  O  O25  1  0.33333333  0.66666667  0.75000000  1.0
