# generated using pymatgen
data_Li5AlO4
_symmetry_space_group_name_H-M   'P 1'
_cell_length_a   6.46791706
_cell_length_b   6.33677906
_cell_length_c   4.64316678
_cell_angle_alpha   90.00000000
_cell_angle_beta   90.00000000
_cell_angle_gamma   90.00000000
_symmetry_Int_Tables_number   1
_chemical_formula_structural   Li5AlO4
_chemical_formula_sum   'Li10 Al2 O8'
_cell_volume   190.30372571
_cell_formula_units_Z   2
loop_
 _symmetry_equiv_pos_site_id
 _symmetry_equiv_pos_as_xyz
  1  'x, y, z'
loop_
 _atom_site_type_symbol
 _atom_site_label
 _atom_site_symmetry_multiplicity
 _atom_site_fract_x
 _atom_site_fract_y
 _atom_site_fract_z
 _atom_site_occupancy
  Li  Li0  1  0.19707452  0.23878220  0.74571560  1.0
  Li  Li1  1  0.19707452  0.76121780  0.74571560  1.0
  Li  Li2  1  0.80292548  0.23878220  0.74571560  1.0
  Li  Li3  1  0.80292548  0.76121780  0.74571560  1.0
  Li  Li4  1  0.30292548  0.26121780  0.25428440  1.0
  Li  Li5  1  0.30292548  0.73878220  0.25428440  1.0
  Li  Li6  1  0.69707452  0.26121780  0.25428440  1.0
  Li  Li7  1  0.69707452  0.73878220  0.25428440  1.0
  Li  Li8  1  0.50000000  0.00000000  0.79332234  1.0
  Li  Li9  1  0.00000000  0.50000000  0.20667766  1.0
  Al  Al10  1  0.00000000  0.00000000  0.22498180  1.0
  Al  Al11  1  0.50000000  0.50000000  0.77501820  1.0
  O  O12  1  0.23260985  0.00000000  0.01541356  1.0
  O  O13  1  0.76739015  0.00000000  0.01541356  1.0
  O  O14  1  0.26739015  0.50000000  -0.01541356  1.0
  O  O15  1  0.73260985  0.50000000  -0.01541356  1.0
  O  O16  1  0.00000000  0.23694545  0.43132370  1.0
  O  O17  1  0.00000000  0.76305455  0.43132370  1.0
  O  O18  1  0.50000000  0.26305455  0.56867630  1.0
  O  O19  1  0.50000000  0.73694545  0.56867630  1.0
