# generated using pymatgen
data_Nb13AgO33
_symmetry_space_group_name_H-M   'P 1'
_cell_length_a   11.48595859
_cell_length_b   11.48595859
_cell_length_c   15.60207511
_cell_angle_alpha   88.15924032
_cell_angle_beta   91.84075968
_cell_angle_gamma   160.77499541
_symmetry_Int_Tables_number   1
_chemical_formula_structural   Nb13AgO33
_chemical_formula_sum   'Nb13 Ag1 O33'
_cell_volume   677.40743839
_cell_formula_units_Z   1
loop_
 _symmetry_equiv_pos_site_id
 _symmetry_equiv_pos_as_xyz
  1  'x, y, z'
loop_
 _atom_site_type_symbol
 _atom_site_label
 _atom_site_symmetry_multiplicity
 _atom_site_fract_x
 _atom_site_fract_y
 _atom_site_fract_z
 _atom_site_occupancy
  Nb  Nb0  1  0.92962655  0.07037345  0.77177595  1.0
  Nb  Nb1  1  0.07037345  -0.07037345  0.22822405  1.0
  Nb  Nb2  1  0.70821301  0.29178699  0.62599942  1.0
  Nb  Nb3  1  0.29178699  -0.29178699  0.37400058  1.0
  Nb  Nb4  1  0.77554401  0.22445599  0.86310000  1.0
  Nb  Nb5  1  0.22445599  -0.22445599  0.13690000  1.0
  Nb  Nb6  1  0.91360951  0.08639049  0.32375159  1.0
  Nb  Nb7  1  0.08639049  -0.08639049  0.67624841  1.0
  Nb  Nb8  1  0.86383238  0.13616762  0.53198420  1.0
  Nb  Nb9  1  0.13616762  -0.13616762  0.46801580  1.0
  Nb  Nb10  1  0.00000000  0.00000000  0.00000000  1.0
  Nb  Nb11  1  0.15509264  -0.15509264  0.90477169  1.0
  Nb  Nb12  1  0.84490736  0.15509264  0.09522831  1.0
  Ag  Ag13  1  0.50000000  0.50000000  0.50000000  1.0
  O  O14  1  0.73333691  0.26666309  0.73546468  1.0
  O  O15  1  0.26666309  -0.26666309  0.26453532  1.0
  O  O16  1  0.77793443  0.22206557  0.57002235  1.0
  O  O17  1  0.22206557  -0.22206557  0.42997765  1.0
  O  O18  1  0.89981597  0.10018403  0.63448197  1.0
  O  O19  1  0.10018403  -0.10018403  0.36551803  1.0
  O  O20  1  0.87255777  0.12744223  0.21232721  1.0
  O  O21  1  0.12744223  -0.12744223  0.78767279  1.0
  O  O22  1  0.84690109  0.15309891  0.80654694  1.0
  O  O23  1  0.15309891  -0.15309891  0.19345306  1.0
  O  O24  1  0.81835002  0.18164998  0.38845029  1.0
  O  O25  1  0.18164998  -0.18164998  0.61154971  1.0
  O  O26  1  0.98840429  0.01159571  0.29002484  1.0
  O  O27  1  0.01159571  -0.01159571  0.70997516  1.0
  O  O28  1  0.96530171  0.03469829  0.88022560  1.0
  O  O29  1  0.03469829  -0.03469829  0.11977440  1.0
  O  O30  1  0.80511611  0.19488389  0.97340903  1.0
  O  O31  1  0.19488389  -0.19488389  0.02659097  1.0
  O  O32  1  0.67933116  0.32066884  0.90011270  1.0
  O  O33  1  0.32066884  -0.32066884  0.09988730  1.0
  O  O34  1  0.93258301  0.06741699  0.45551196  1.0
  O  O35  1  0.06741699  -0.06741699  0.54448804  1.0
  O  O36  1  0.50000000  0.50000000  -0.00000000  1.0
  O  O37  1  0.08213931  -0.08213931  0.95196002  1.0
  O  O38  1  0.91786069  0.08213931  0.04803998  1.0
  O  O39  1  0.25074558  -0.25074558  0.86281042  1.0
  O  O40  1  0.74925442  0.25074558  0.13718958  1.0
  O  O41  1  0.42891686  -0.42891686  0.75426744  1.0
  O  O42  1  0.57108314  0.42891686  0.24573256  1.0
  O  O43  1  0.60949765  0.39050235  0.66343797  1.0
  O  O44  1  0.39050235  -0.39050235  0.33656203  1.0
  O  O45  1  0.65239329  0.34760671  0.49670125  1.0
  O  O46  1  0.34760671  -0.34760671  0.50329875  1.0
