# generated using pymatgen
data_Ca3InAu3
_symmetry_space_group_name_H-M   'P 1'
_cell_length_a   16.75981599
_cell_length_b   4.61579863
_cell_length_c   9.05655331
_cell_angle_alpha   90.00000000
_cell_angle_beta   90.00000000
_cell_angle_gamma   90.00000000
_symmetry_Int_Tables_number   1
_chemical_formula_structural   Ca3InAu3
_chemical_formula_sum   'Ca12 In4 Au12'
_cell_volume   700.61438113
_cell_formula_units_Z   4
loop_
 _symmetry_equiv_pos_site_id
 _symmetry_equiv_pos_as_xyz
  1  'x, y, z'
loop_
 _atom_site_type_symbol
 _atom_site_label
 _atom_site_symmetry_multiplicity
 _atom_site_fract_x
 _atom_site_fract_y
 _atom_site_fract_z
 _atom_site_occupancy
  Ca  Ca0  1  0.44441870  0.75000000  0.24999343  1.0
  Ca  Ca1  1  0.94441870  0.75000000  0.25000657  1.0
  Ca  Ca2  1  0.55558130  0.25000000  0.75000657  1.0
  Ca  Ca3  1  0.05558130  0.25000000  0.74999343  1.0
  Ca  Ca4  1  0.36682375  0.75000000  0.86924996  1.0
  Ca  Ca5  1  0.86682375  0.75000000  0.63075004  1.0
  Ca  Ca6  1  0.63317625  0.25000000  0.13075004  1.0
  Ca  Ca7  1  0.13317625  0.25000000  0.36924996  1.0
  Ca  Ca8  1  0.15523663  0.75000000  0.02557099  1.0
  Ca  Ca9  1  0.65523663  0.75000000  0.47442901  1.0
  Ca  Ca10  1  0.84476337  0.25000000  0.97442901  1.0
  Ca  Ca11  1  0.34476337  0.25000000  0.52557099  1.0
  In  In12  1  0.20787351  0.75000000  0.63631989  1.0
  In  In13  1  0.70787351  0.75000000  0.86368011  1.0
  In  In14  1  0.79212649  0.25000000  0.36368011  1.0
  In  In15  1  0.29212649  0.25000000  0.13631989  1.0
  Au  Au16  1  0.46965622  0.75000000  0.58479025  1.0
  Au  Au17  1  0.96965622  0.75000000  0.91520975  1.0
  Au  Au18  1  0.53034378  0.25000000  0.41520975  1.0
  Au  Au19  1  0.03034378  0.25000000  0.08479025  1.0
  Au  Au20  1  0.26158666  0.75000000  0.32685395  1.0
  Au  Au21  1  0.76158666  0.75000000  0.17314605  1.0
  Au  Au22  1  0.73841334  0.25000000  0.67314605  1.0
  Au  Au23  1  0.23841334  0.25000000  0.82685395  1.0
  Au  Au24  1  0.04778173  0.75000000  0.53236554  1.0
  Au  Au25  1  0.54778173  0.75000000  0.96763446  1.0
  Au  Au26  1  0.95221827  0.25000000  0.46763446  1.0
  Au  Au27  1  0.45221827  0.25000000  0.03236554  1.0
