# generated using pymatgen
data_ZrFeCl6
_symmetry_space_group_name_H-M   'P 1'
_cell_length_a   6.37391285
_cell_length_b   6.37391285
_cell_length_c   13.40372656
_cell_angle_alpha   90.00000000
_cell_angle_beta   90.00000000
_cell_angle_gamma   120.00000000
_symmetry_Int_Tables_number   1
_chemical_formula_structural   ZrFeCl6
_chemical_formula_sum   'Zr2 Fe2 Cl12'
_cell_volume   471.59417662
_cell_formula_units_Z   2
loop_
 _symmetry_equiv_pos_site_id
 _symmetry_equiv_pos_as_xyz
  1  'x, y, z'
loop_
 _atom_site_type_symbol
 _atom_site_label
 _atom_site_symmetry_multiplicity
 _atom_site_fract_x
 _atom_site_fract_y
 _atom_site_fract_z
 _atom_site_occupancy
  Zr  Zr0  1  0.33333333  0.66666667  0.25000000  1.0
  Zr  Zr1  1  0.66666667  0.33333333  0.75000000  1.0
  Fe  Fe2  1  0.00000000  0.00000000  0.25000000  1.0
  Fe  Fe3  1  0.00000000  0.00000000  0.75000000  1.0
  Cl  Cl4  1  0.30313698  0.97060685  0.14358966  1.0
  Cl  Cl5  1  0.30313698  0.33253013  0.35641034  1.0
  Cl  Cl6  1  0.97060685  0.30313698  0.64358966  1.0
  Cl  Cl7  1  0.97060685  0.66746987  0.85641034  1.0
  Cl  Cl8  1  0.66746987  0.97060685  0.35641034  1.0
  Cl  Cl9  1  0.66746987  0.69686302  0.14358966  1.0
  Cl  Cl10  1  0.02939315  0.69686302  0.35641034  1.0
  Cl  Cl11  1  0.02939315  0.33253013  0.14358966  1.0
  Cl  Cl12  1  0.69686302  0.66746987  0.64358966  1.0
  Cl  Cl13  1  0.69686302  0.02939315  0.85641034  1.0
  Cl  Cl14  1  0.33253013  0.30313698  0.85641034  1.0
  Cl  Cl15  1  0.33253013  0.02939315  0.64358966  1.0
