# generated using pymatgen
data_Cs2CoBr4
_symmetry_space_group_name_H-M   'P 1'
_cell_length_a   10.44673836
_cell_length_b   7.81983958
_cell_length_c   13.78504360
_cell_angle_alpha   90.00000000
_cell_angle_beta   90.00000000
_cell_angle_gamma   90.00000000
_symmetry_Int_Tables_number   1
_chemical_formula_structural   Cs2CoBr4
_chemical_formula_sum   'Cs8 Co4 Br16'
_cell_volume   1126.12527440
_cell_formula_units_Z   4
loop_
 _symmetry_equiv_pos_site_id
 _symmetry_equiv_pos_as_xyz
  1  'x, y, z'
loop_
 _atom_site_type_symbol
 _atom_site_label
 _atom_site_symmetry_multiplicity
 _atom_site_fract_x
 _atom_site_fract_y
 _atom_site_fract_z
 _atom_site_occupancy
  Cs  Cs0  1  0.86276317  0.75000000  0.40270680  1.0
  Cs  Cs1  1  0.36276317  0.75000000  0.09729320  1.0
  Cs  Cs2  1  0.13723683  0.25000000  0.59729320  1.0
  Cs  Cs3  1  0.63723683  0.25000000  0.90270680  1.0
  Cs  Cs4  1  0.52494770  0.75000000  0.66867323  1.0
  Cs  Cs5  1  0.02494770  0.75000000  0.83132677  1.0
  Cs  Cs6  1  0.47505230  0.25000000  0.33132677  1.0
  Cs  Cs7  1  0.97505230  0.25000000  0.16867323  1.0
  Co  Co8  1  0.76189581  0.75000000  0.07518886  1.0
  Co  Co9  1  0.26189581  0.75000000  0.42481114  1.0
  Co  Co10  1  0.23810419  0.25000000  0.92481114  1.0
  Co  Co11  1  0.73810419  0.25000000  0.57518886  1.0
  Br  Br12  1  0.67098963  1.00085889  0.14737626  1.0
  Br  Br13  1  0.67098963  0.49914111  0.14737626  1.0
  Br  Br14  1  0.17098963  1.00085889  0.35262374  1.0
  Br  Br15  1  0.17098963  0.49914111  0.35262374  1.0
  Br  Br16  1  0.32901037  0.50085889  0.85262374  1.0
  Br  Br17  1  0.32901037  -0.00085889  0.85262374  1.0
  Br  Br18  1  0.82901037  0.50085889  0.64737626  1.0
  Br  Br19  1  0.82901037  -0.00085889  0.64737626  1.0
  Br  Br20  1  0.98962183  0.75000000  0.10113124  1.0
  Br  Br21  1  0.48962183  0.75000000  0.39886876  1.0
  Br  Br22  1  0.01037817  0.25000000  0.89886876  1.0
  Br  Br23  1  0.51037817  0.25000000  0.60113124  1.0
  Br  Br24  1  0.19416960  0.75000000  0.59162217  1.0
  Br  Br25  1  0.69416960  0.75000000  0.90837783  1.0
  Br  Br26  1  0.80583040  0.25000000  0.40837783  1.0
  Br  Br27  1  0.30583040  0.25000000  0.09162217  1.0
