# generated using pymatgen
data_CaC6
_symmetry_space_group_name_H-M   'P 1'
_cell_length_a   5.14747461
_cell_length_b   5.14747461
_cell_length_c   5.14747461
_cell_angle_alpha   49.92218078
_cell_angle_beta   49.92218078
_cell_angle_gamma   49.92218078
_symmetry_Int_Tables_number   1
_chemical_formula_structural   CaC6
_chemical_formula_sum   'Ca1 C6'
_cell_volume   73.47478635
_cell_formula_units_Z   1
loop_
 _symmetry_equiv_pos_site_id
 _symmetry_equiv_pos_as_xyz
  1  'x, y, z'
loop_
 _atom_site_type_symbol
 _atom_site_label
 _atom_site_symmetry_multiplicity
 _atom_site_fract_x
 _atom_site_fract_y
 _atom_site_fract_z
 _atom_site_occupancy
  Ca  Ca0  1  -0.00000000  0.00000000  -0.00000000  1.0
  C  C1  1  1.16673107  0.50000000  0.83326893  1.0
  C  C2  1  1.16673107  0.83326893  0.50000000  1.0
  C  C3  1  1.50000000  0.16673107  0.83326893  1.0
  C  C4  1  1.50000000  0.83326893  0.16673107  1.0
  C  C5  1  1.83326893  0.50000000  0.16673107  1.0
  C  C6  1  1.83326893  0.16673107  0.50000000  1.0
