# generated using pymatgen
data_Ga2B3O8
_symmetry_space_group_name_H-M   'P 1'
_cell_length_a   6.47712344
_cell_length_b   6.47712344
_cell_length_c   10.75756750
_cell_angle_alpha   90.00000000
_cell_angle_beta   90.00000000
_cell_angle_gamma   71.17733264
_symmetry_Int_Tables_number   1
_chemical_formula_structural   Ga2B3O8
_chemical_formula_sum   'Ga8 B12 O32'
_cell_volume   427.17811907
_cell_formula_units_Z   4
loop_
 _symmetry_equiv_pos_site_id
 _symmetry_equiv_pos_as_xyz
  1  'x, y, z'
loop_
 _atom_site_type_symbol
 _atom_site_label
 _atom_site_symmetry_multiplicity
 _atom_site_fract_x
 _atom_site_fract_y
 _atom_site_fract_z
 _atom_site_occupancy
  O  O0  1  -0.25784972  0.71395647  0.63926413  1.0
  O  O1  1  -0.28604353  0.74215028  0.36073587  1.0
  O  O2  1  0.21395647  1.24215028  0.13926413  1.0
  O  O3  1  0.24215028  1.21395647  0.86073587  1.0
  O  O4  1  0.25784972  1.28604353  0.36073587  1.0
  O  O5  1  0.28604353  1.25784972  0.63926413  1.0
  O  O6  1  -0.21395647  0.75784972  0.86073587  1.0
  O  O7  1  -0.24215028  0.78604353  0.13926413  1.0
  O  O8  1  0.44510917  0.55489083  0.35506025  1.0
  O  O9  1  -0.44510917  1.44510917  0.64493975  1.0
  O  O10  1  0.05489083  0.94510917  0.85506025  1.0
  O  O11  1  -0.05489083  1.05489083  0.14493975  1.0
  O  O12  1  0.07955591  0.64790006  0.26583188  1.0
  O  O13  1  -0.35209994  1.07955591  0.73416812  1.0
  O  O14  1  0.14790006  0.57955591  0.76583188  1.0
  O  O15  1  -0.42044409  1.14790006  0.23416812  1.0
  O  O16  1  -0.07955591  1.35209994  0.73416812  1.0
  O  O17  1  0.35209994  0.92044409  0.26583188  1.0
  O  O18  1  -0.14790006  1.42044409  0.23416812  1.0
  O  O19  1  0.42044409  0.85209994  0.76583188  1.0
  O  O20  1  -0.04065042  1.04065042  0.38834813  1.0
  O  O21  1  0.04065042  0.95934958  0.61165187  1.0
  O  O22  1  -0.45934958  1.45934958  0.88834813  1.0
  O  O23  1  0.45934958  0.54065042  0.11165187  1.0
  O  O24  1  0.13327495  0.60854090  0.48822779  1.0
  O  O25  1  -0.39145910  1.13327495  0.51177221  1.0
  O  O26  1  0.10854090  0.63327495  0.98822779  1.0
  O  O27  1  -0.36672505  1.10854090  0.01177221  1.0
  O  O28  1  -0.13327495  1.39145910  0.51177221  1.0
  O  O29  1  0.39145910  0.86672505  0.48822779  1.0
  O  O30  1  -0.10854090  1.36672505  0.01177221  1.0
  O  O31  1  0.36672505  0.89145910  0.98822779  1.0
  Ga  Ga32  1  -0.29446346  1.29446346  0.36767296  1.0
  Ga  Ga33  1  0.29446346  0.70553654  0.63232704  1.0
  Ga  Ga34  1  -0.20553654  1.20553654  0.86767296  1.0
  Ga  Ga35  1  0.20553654  0.79446346  0.13232704  1.0
  Ga  Ga36  1  -0.14801440  0.85198560  0.50000000  1.0
  Ga  Ga37  1  0.35198560  1.35198560  0.00000000  1.0
  Ga  Ga38  1  0.14801440  1.14801440  0.50000000  1.0
  Ga  Ga39  1  -0.35198560  0.64801440  -0.00000000  1.0
  B  B40  1  0.22467191  0.52581182  0.36768323  1.0
  B  B41  1  -0.47418818  1.22467191  0.63231677  1.0
  B  B42  1  0.02581182  0.72467191  0.86768323  1.0
  B  B43  1  -0.27532809  1.02581182  0.13231677  1.0
  B  B44  1  -0.22467191  1.47418818  0.63231677  1.0
  B  B45  1  0.47418818  0.77532809  0.36768323  1.0
  B  B46  1  -0.02581182  1.27532809  0.13231677  1.0
  B  B47  1  0.27532809  0.97418818  0.86768323  1.0
  B  B48  1  -0.14852499  0.64852499  0.25000000  1.0
  B  B49  1  -0.35147501  0.85147501  0.75000000  1.0
  B  B50  1  0.14852499  1.35147501  0.75000000  1.0
  B  B51  1  0.35147501  1.14852499  0.25000000  1.0
