# generated using pymatgen
data_LuAsO4
_symmetry_space_group_name_H-M   'P 1'
_cell_length_a   5.92829584
_cell_length_b   5.92829584
_cell_length_c   5.92829584
_cell_angle_alpha   106.53263052
_cell_angle_beta   106.53263052
_cell_angle_gamma   115.52324792
_symmetry_Int_Tables_number   1
_chemical_formula_structural   LuAsO4
_chemical_formula_sum   'Lu2 As2 O8'
_cell_volume   159.03032796
_cell_formula_units_Z   2
loop_
 _symmetry_equiv_pos_site_id
 _symmetry_equiv_pos_as_xyz
  1  'x, y, z'
loop_
 _atom_site_type_symbol
 _atom_site_label
 _atom_site_symmetry_multiplicity
 _atom_site_fract_x
 _atom_site_fract_y
 _atom_site_fract_z
 _atom_site_occupancy
  Lu  Lu0  1  0.25000000  0.75000000  0.50000000  1.0
  Lu  Lu1  1  0.50000000  0.50000000  0.00000000  1.0
  As  As2  1  0.00000000  0.00000000  0.00000000  1.0
  As  As3  1  0.75000000  1.25000000  0.50000000  1.0
  O  O4  1  0.18201688  0.36506115  0.18304427  1.0
  O  O5  1  1.11506115  1.43201688  0.68304427  1.0
  O  O6  1  0.74897261  0.43201688  0.31695573  1.0
  O  O7  1  0.18201688  0.99897261  0.81695573  1.0
  O  O8  1  0.56798312  0.88493885  0.31695573  1.0
  O  O9  1  1.63493885  0.81798312  0.81695573  1.0
  O  O10  1  1.00102739  0.81798312  1.18304427  1.0
  O  O11  1  0.56798312  1.25102739  0.68304427  1.0
