# generated using pymatgen
data_CaInPt
_symmetry_space_group_name_H-M   'P 1'
_cell_length_a   7.34176622
_cell_length_b   4.40687417
_cell_length_c   8.50926326
_cell_angle_alpha   90.00000000
_cell_angle_beta   90.00000000
_cell_angle_gamma   90.00000000
_symmetry_Int_Tables_number   1
_chemical_formula_structural   CaInPt
_chemical_formula_sum   'Ca4 In4 Pt4'
_cell_volume   275.31074549
_cell_formula_units_Z   4
loop_
 _symmetry_equiv_pos_site_id
 _symmetry_equiv_pos_as_xyz
  1  'x, y, z'
loop_
 _atom_site_type_symbol
 _atom_site_label
 _atom_site_symmetry_multiplicity
 _atom_site_fract_x
 _atom_site_fract_y
 _atom_site_fract_z
 _atom_site_occupancy
  Ca  Ca0  1  0.96927752  0.75000000  0.67777183  1.0
  Ca  Ca1  1  0.46927752  0.75000000  0.82222817  1.0
  Ca  Ca2  1  0.03072248  0.25000000  0.32222817  1.0
  Ca  Ca3  1  0.53072248  0.25000000  0.17777183  1.0
  In  In4  1  0.85079428  0.75000000  0.06522503  1.0
  In  In5  1  0.35079428  0.75000000  0.43477497  1.0
  In  In6  1  0.14920572  0.25000000  0.93477497  1.0
  In  In7  1  0.64920572  0.25000000  0.56522503  1.0
  Pt  Pt8  1  0.73334358  0.75000000  0.37618747  1.0
  Pt  Pt9  1  0.23334358  0.75000000  0.12381253  1.0
  Pt  Pt10  1  0.26665642  0.25000000  0.62381253  1.0
  Pt  Pt11  1  0.76665642  0.25000000  0.87618747  1.0
