# generated using pymatgen
data_Tl2Te2O5
_symmetry_space_group_name_H-M   'P 1'
_cell_length_a   7.80430218
_cell_length_b   12.14060127
_cell_length_c   8.80905340
_cell_angle_alpha   90.00000000
_cell_angle_beta   113.08011829
_cell_angle_gamma   90.00000000
_symmetry_Int_Tables_number   1
_chemical_formula_structural   Tl2Te2O5
_chemical_formula_sum   'Tl8 Te8 O20'
_cell_volume   767.84103668
_cell_formula_units_Z   4
loop_
 _symmetry_equiv_pos_site_id
 _symmetry_equiv_pos_as_xyz
  1  'x, y, z'
loop_
 _atom_site_type_symbol
 _atom_site_label
 _atom_site_symmetry_multiplicity
 _atom_site_fract_x
 _atom_site_fract_y
 _atom_site_fract_z
 _atom_site_occupancy
  Tl  Tl0  1  0.95515083  0.29299509  0.20572925  1.0
  Tl  Tl1  1  0.95515083  0.20700491  0.70572925  1.0
  Tl  Tl2  1  0.04484917  0.79299509  0.29427075  1.0
  Tl  Tl3  1  0.04484917  0.70700491  0.79427075  1.0
  Tl  Tl4  1  0.69141262  0.93268548  0.47151289  1.0
  Tl  Tl5  1  0.69141262  0.56731452  0.97151289  1.0
  Tl  Tl6  1  0.30858738  0.43268548  0.02848711  1.0
  Tl  Tl7  1  0.30858738  0.06731452  0.52848711  1.0
  Te  Te8  1  0.69619355  0.46830546  0.48650502  1.0
  Te  Te9  1  0.69619355  0.03169454  0.98650502  1.0
  Te  Te10  1  0.30380645  0.96830546  0.01349498  1.0
  Te  Te11  1  0.30380645  0.53169454  0.51349498  1.0
  Te  Te12  1  0.56685559  0.19649739  0.28931098  1.0
  Te  Te13  1  0.56685559  0.30350261  0.78931098  1.0
  Te  Te14  1  0.43314441  0.69649739  0.21068902  1.0
  Te  Te15  1  0.43314441  0.80350261  0.71068902  1.0
  O  O16  1  0.76855320  0.32474458  0.39607247  1.0
  O  O17  1  0.76855320  0.17525542  0.89607247  1.0
  O  O18  1  0.23144680  0.82474458  0.10392753  1.0
  O  O19  1  0.23144680  0.67525542  0.60392753  1.0
  O  O20  1  0.76604938  0.12267005  0.24225848  1.0
  O  O21  1  0.76604938  0.37732995  0.74225848  1.0
  O  O22  1  0.23395062  0.62267005  0.25774152  1.0
  O  O23  1  0.23395062  0.87732995  0.75774152  1.0
  O  O24  1  0.62834550  0.35634674  0.01393409  1.0
  O  O25  1  0.62834550  0.14365326  0.51393409  1.0
  O  O26  1  0.37165450  0.85634674  0.48606591  1.0
  O  O27  1  0.37165450  0.64365326  0.98606591  1.0
  O  O28  1  0.44672989  0.40066422  0.43375646  1.0
  O  O29  1  0.44672989  0.09933578  0.93375646  1.0
  O  O30  1  0.55327011  0.90066422  0.06624354  1.0
  O  O31  1  0.55327011  0.59933578  0.56624354  1.0
  O  O32  1  0.39981699  0.04365908  0.23851419  1.0
  O  O33  1  0.39981699  0.45634092  0.73851419  1.0
  O  O34  1  0.60018301  0.54365908  0.26148581  1.0
  O  O35  1  0.60018301  0.95634092  0.76148581  1.0
