# generated using pymatgen
data_TiMnO3
_symmetry_space_group_name_H-M   'P 1'
_cell_length_a   5.35245372
_cell_length_b   7.54635895
_cell_length_c   5.16238267
_cell_angle_alpha   90.00000000
_cell_angle_beta   90.00000000
_cell_angle_gamma   90.00000000
_symmetry_Int_Tables_number   1
_chemical_formula_structural   TiMnO3
_chemical_formula_sum   'Ti4 Mn4 O12'
_cell_volume   208.51657094
_cell_formula_units_Z   4
loop_
 _symmetry_equiv_pos_site_id
 _symmetry_equiv_pos_as_xyz
  1  'x, y, z'
loop_
 _atom_site_type_symbol
 _atom_site_label
 _atom_site_symmetry_multiplicity
 _atom_site_fract_x
 _atom_site_fract_y
 _atom_site_fract_z
 _atom_site_occupancy
  Ti  Ti0  1  0.50000000  -0.00000000  0.50000000  1.0
  Ti  Ti1  1  0.50000000  0.50000000  0.50000000  1.0
  Ti  Ti2  1  0.00000000  0.00000000  0.00000000  1.0
  Ti  Ti3  1  0.00000000  0.50000000  0.00000000  1.0
  Mn  Mn4  1  0.05001607  0.75000000  0.51111745  1.0
  Mn  Mn5  1  0.55001607  0.75000000  0.98888255  1.0
  Mn  Mn6  1  0.94998393  0.25000000  0.48888255  1.0
  Mn  Mn7  1  0.44998393  0.25000000  0.01111745  1.0
  O  O8  1  0.30904552  0.93807644  0.81380238  1.0
  O  O9  1  0.30904552  0.56192356  0.81380238  1.0
  O  O10  1  0.80904552  0.93807644  0.68619762  1.0
  O  O11  1  0.80904552  0.56192356  0.68619762  1.0
  O  O12  1  0.69095448  0.43807644  0.18619762  1.0
  O  O13  1  0.69095448  0.06192356  0.18619762  1.0
  O  O14  1  0.19095448  0.43807644  0.31380238  1.0
  O  O15  1  0.19095448  0.06192356  0.31380238  1.0
  O  O16  1  0.95023464  0.75000000  0.11837038  1.0
  O  O17  1  0.45023464  0.75000000  0.38162962  1.0
  O  O18  1  0.04976536  0.25000000  0.88162962  1.0
  O  O19  1  0.54976536  0.25000000  0.61837038  1.0
