# generated using pymatgen
data_Fe2SiS4
_symmetry_space_group_name_H-M   'P 1'
_cell_length_a   12.00562625
_cell_length_b   6.97658546
_cell_length_c   5.75794040
_cell_angle_alpha   90.00000000
_cell_angle_beta   90.00000000
_cell_angle_gamma   90.00000000
_symmetry_Int_Tables_number   1
_chemical_formula_structural   Fe2SiS4
_chemical_formula_sum   'Fe8 Si4 S16'
_cell_volume   482.27517028
_cell_formula_units_Z   4
loop_
 _symmetry_equiv_pos_site_id
 _symmetry_equiv_pos_as_xyz
  1  'x, y, z'
loop_
 _atom_site_type_symbol
 _atom_site_label
 _atom_site_symmetry_multiplicity
 _atom_site_fract_x
 _atom_site_fract_y
 _atom_site_fract_z
 _atom_site_occupancy
  Fe  Fe0  1  0.75546400  0.25000000  0.50477801  1.0
  Fe  Fe1  1  0.25546400  0.25000000  0.99522199  1.0
  Fe  Fe2  1  0.24453600  0.75000000  0.49522199  1.0
  Fe  Fe3  1  0.74453600  0.75000000  0.00477801  1.0
  Fe  Fe4  1  -0.00000000  0.50000000  -0.00000000  1.0
  Fe  Fe5  1  0.00000000  0.00000000  -0.00000000  1.0
  Fe  Fe6  1  0.50000000  0.50000000  0.50000000  1.0
  Fe  Fe7  1  0.50000000  0.00000000  0.50000000  1.0
  Si  Si8  1  0.58802959  0.25000000  0.09855942  1.0
  Si  Si9  1  0.08802959  0.25000000  0.40144058  1.0
  Si  Si10  1  0.41197041  0.75000000  0.90144058  1.0
  Si  Si11  1  0.91197041  0.75000000  0.59855942  1.0
  S  S12  1  0.66304503  0.49707474  0.25725260  1.0
  S  S13  1  0.66304503  0.00292526  0.25725260  1.0
  S  S14  1  0.16304503  0.49707474  0.24274740  1.0
  S  S15  1  0.16304503  0.00292526  0.24274740  1.0
  S  S16  1  0.33695497  0.99707474  0.74274740  1.0
  S  S17  1  0.33695497  0.50292526  0.74274740  1.0
  S  S18  1  0.83695497  0.99707474  0.75725260  1.0
  S  S19  1  0.83695497  0.50292526  0.75725260  1.0
  S  S20  1  0.92668025  0.25000000  0.23756049  1.0
  S  S21  1  0.42668025  0.25000000  0.26243951  1.0
  S  S22  1  0.07331975  0.75000000  0.76243951  1.0
  S  S23  1  0.57331975  0.75000000  0.73756049  1.0
  S  S24  1  0.58953354  0.25000000  0.72835763  1.0
  S  S25  1  0.08953354  0.25000000  0.77164237  1.0
  S  S26  1  0.41046646  0.75000000  0.27164237  1.0
  S  S27  1  0.91046646  0.75000000  0.22835763  1.0
