# generated using pymatgen
data_TbGaPt
_symmetry_space_group_name_H-M   'P 1'
_cell_length_a   6.93397044
_cell_length_b   4.46198190
_cell_length_c   7.72654772
_cell_angle_alpha   90.00000000
_cell_angle_beta   90.00000000
_cell_angle_gamma   90.00000000
_symmetry_Int_Tables_number   1
_chemical_formula_structural   TbGaPt
_chemical_formula_sum   'Tb4 Ga4 Pt4'
_cell_volume   239.05359604
_cell_formula_units_Z   4
loop_
 _symmetry_equiv_pos_site_id
 _symmetry_equiv_pos_as_xyz
  1  'x, y, z'
loop_
 _atom_site_type_symbol
 _atom_site_label
 _atom_site_symmetry_multiplicity
 _atom_site_fract_x
 _atom_site_fract_y
 _atom_site_fract_z
 _atom_site_occupancy
  Tb  Tb0  1  0.98395726  0.75000000  0.69863193  1.0
  Tb  Tb1  1  0.48395726  0.75000000  0.80136807  1.0
  Tb  Tb2  1  0.01604274  0.25000000  0.30136807  1.0
  Tb  Tb3  1  0.51604274  0.25000000  0.19863193  1.0
  Ga  Ga4  1  0.82838704  0.75000000  0.07532628  1.0
  Ga  Ga5  1  0.32838704  0.75000000  0.42467372  1.0
  Ga  Ga6  1  0.17161296  0.25000000  0.92467372  1.0
  Ga  Ga7  1  0.67161296  0.25000000  0.57532628  1.0
  Pt  Pt8  1  0.72290108  0.75000000  0.40139364  1.0
  Pt  Pt9  1  0.22290108  0.75000000  0.09860636  1.0
  Pt  Pt10  1  0.27709892  0.25000000  0.59860636  1.0
  Pt  Pt11  1  0.77709892  0.25000000  0.90139364  1.0
