# generated using pymatgen
data_H9Rh(NCl)3
_symmetry_space_group_name_H-M   'P 1'
_cell_length_a   5.63312893
_cell_length_b   9.71046660
_cell_length_c   7.06204240
_cell_angle_alpha   90.00000000
_cell_angle_beta   94.26336748
_cell_angle_gamma   90.00000000
_symmetry_Int_Tables_number   1
_chemical_formula_structural   H9Rh(NCl)3
_chemical_formula_sum   'H18 Rh2 N6 Cl6'
_cell_volume   385.22697867
_cell_formula_units_Z   2
loop_
 _symmetry_equiv_pos_site_id
 _symmetry_equiv_pos_as_xyz
  1  'x, y, z'
loop_
 _atom_site_type_symbol
 _atom_site_label
 _atom_site_symmetry_multiplicity
 _atom_site_fract_x
 _atom_site_fract_y
 _atom_site_fract_z
 _atom_site_occupancy
  H  H0  1  0.82462722  0.49712886  0.65346038  1.0
  H  H1  1  0.82462722  0.00287114  0.65346038  1.0
  H  H2  1  0.17537278  0.99712886  0.34653962  1.0
  H  H3  1  0.17537278  0.50287114  0.34653962  1.0
  H  H4  1  0.75106756  0.40473745  0.46360907  1.0
  H  H5  1  0.75106756  0.09526255  0.46360907  1.0
  H  H6  1  0.24893244  0.90473745  0.53639093  1.0
  H  H7  1  0.24893244  0.59526255  0.53639093  1.0
  H  H8  1  0.74932425  0.33563787  0.98815940  1.0
  H  H9  1  0.74932425  0.16436213  0.98815940  1.0
  H  H10  1  0.25067575  0.83563787  0.01184060  1.0
  H  H11  1  0.25067575  0.66436213  0.01184060  1.0
  H  H12  1  0.59682067  0.38980043  0.65567590  1.0
  H  H13  1  0.59682067  0.11019957  0.65567590  1.0
  H  H14  1  0.40317933  0.88980043  0.34432410  1.0
  H  H15  1  0.40317933  0.61019957  0.34432410  1.0
  H  H16  1  0.98487600  0.25000000  0.07726119  1.0
  H  H17  1  0.01512400  0.75000000  0.92273881  1.0
  Rh  Rh18  1  1.00105491  0.25000000  0.70973593  1.0
  Rh  Rh19  1  -0.00105491  0.75000000  0.29026407  1.0
  N  N20  1  0.76553782  0.40113384  0.60945769  1.0
  N  N21  1  0.76553782  0.09886616  0.60945769  1.0
  N  N22  1  0.23446218  0.90113384  0.39054231  1.0
  N  N23  1  0.23446218  0.59886616  0.39054231  1.0
  N  N24  1  0.85195102  0.25000000  0.96927616  1.0
  N  N25  1  0.14804898  0.75000000  0.03072384  1.0
  Cl  Cl26  1  0.26751762  0.42606367  0.82896481  1.0
  Cl  Cl27  1  0.26751762  0.07393633  0.82896481  1.0
  Cl  Cl28  1  0.73248238  0.92606367  0.17103519  1.0
  Cl  Cl29  1  0.73248238  0.57393633  0.17103519  1.0
  Cl  Cl30  1  0.17159073  0.25000000  0.40940317  1.0
  Cl  Cl31  1  0.82840927  0.75000000  0.59059683  1.0
