# generated using pymatgen
data_KBiS(ClO2)2
_symmetry_space_group_name_H-M   'P 1'
_cell_length_a   6.40904757
_cell_length_b   7.62122630
_cell_length_c   15.52898066
_cell_angle_alpha   90.00000000
_cell_angle_beta   90.00000000
_cell_angle_gamma   90.00000000
_symmetry_Int_Tables_number   1
_chemical_formula_structural   KBiS(ClO2)2
_chemical_formula_sum   'K4 Bi4 S4 Cl8 O16'
_cell_volume   758.50998331
_cell_formula_units_Z   4
loop_
 _symmetry_equiv_pos_site_id
 _symmetry_equiv_pos_as_xyz
  1  'x, y, z'
loop_
 _atom_site_type_symbol
 _atom_site_label
 _atom_site_symmetry_multiplicity
 _atom_site_fract_x
 _atom_site_fract_y
 _atom_site_fract_z
 _atom_site_occupancy
  K  K0  1  0.45221480  0.79906152  0.85013062  1.0
  K  K1  1  0.95221480  0.70093848  0.14986938  1.0
  K  K2  1  0.54778520  0.29906152  0.64986938  1.0
  K  K3  1  0.04778520  0.20093848  0.35013062  1.0
  Bi  Bi4  1  0.98462541  0.85482478  0.61952862  1.0
  Bi  Bi5  1  0.48462541  0.64517522  0.38047138  1.0
  Bi  Bi6  1  0.01537459  0.35482478  0.88047138  1.0
  Bi  Bi7  1  0.51537459  0.14517522  0.11952862  1.0
  S  S8  1  0.49499305  0.80853111  0.61241101  1.0
  S  S9  1  0.99499305  0.69146889  0.38758899  1.0
  S  S10  1  0.50500695  0.30853111  0.88758899  1.0
  S  S11  1  0.00500695  0.19146889  0.11241101  1.0
  Cl  Cl12  1  0.42583964  0.84681307  0.05655213  1.0
  Cl  Cl13  1  0.92583964  0.65318693  0.94344787  1.0
  Cl  Cl14  1  0.57416036  0.34681307  0.44344787  1.0
  Cl  Cl15  1  0.07416036  0.15318693  0.55655213  1.0
  Cl  Cl16  1  0.09981235  0.48889017  0.72982816  1.0
  Cl  Cl17  1  0.59981235  1.01110983  0.27017184  1.0
  Cl  Cl18  1  0.90018765  -0.01110983  0.77017184  1.0
  Cl  Cl19  1  0.40018765  0.51110983  0.22982816  1.0
  O  O20  1  0.37339882  0.16370177  0.85351236  1.0
  O  O21  1  0.87339882  0.33629823  0.14648764  1.0
  O  O22  1  0.62660118  0.66370177  0.64648764  1.0
  O  O23  1  0.12660118  0.83629823  0.35351236  1.0
  O  O24  1  0.36808140  0.75385882  0.53599866  1.0
  O  O25  1  0.86808140  0.74614118  0.46400134  1.0
  O  O26  1  0.63191860  0.25385882  0.96400134  1.0
  O  O27  1  0.13191860  0.24614118  0.03599866  1.0
  O  O28  1  0.35940996  0.45808379  0.91116936  1.0
  O  O29  1  0.85940996  0.04191621  0.08883064  1.0
  O  O30  1  0.64059004  0.95808379  0.58883064  1.0
  O  O31  1  0.14059004  0.54191621  0.41116936  1.0
  O  O32  1  0.34353638  0.87341656  0.67946367  1.0
  O  O33  1  0.84353638  0.62658344  0.32053633  1.0
  O  O34  1  0.65646362  0.37341656  0.82053633  1.0
  O  O35  1  0.15646362  0.12658344  0.17946367  1.0
