# generated using pymatgen
data_AsSe(BrF2)3
_symmetry_space_group_name_H-M   'P 1'
_cell_length_a   8.31734649
_cell_length_b   10.08205662
_cell_length_c   12.64949411
_cell_angle_alpha   90.00000000
_cell_angle_beta   97.52747052
_cell_angle_gamma   90.00000000
_symmetry_Int_Tables_number   1
_chemical_formula_structural   AsSe(BrF2)3
_chemical_formula_sum   'As4 Se4 Br12 F24'
_cell_volume   1051.59420770
_cell_formula_units_Z   4
loop_
 _symmetry_equiv_pos_site_id
 _symmetry_equiv_pos_as_xyz
  1  'x, y, z'
loop_
 _atom_site_type_symbol
 _atom_site_label
 _atom_site_symmetry_multiplicity
 _atom_site_fract_x
 _atom_site_fract_y
 _atom_site_fract_z
 _atom_site_occupancy
  As  As0  1  0.80607516  0.72754104  0.92947546  1.0
  As  As1  1  0.80607516  0.77245896  0.42947546  1.0
  As  As2  1  0.19392484  0.22754104  0.57052454  1.0
  As  As3  1  0.19392484  0.27245896  0.07052454  1.0
  Se  Se4  1  0.80268150  0.32683602  0.80452010  1.0
  Se  Se5  1  0.80268150  0.17316398  0.30452010  1.0
  Se  Se6  1  0.19731850  0.82683602  0.69547990  1.0
  Se  Se7  1  0.19731850  0.67316398  0.19547990  1.0
  Br  Br8  1  0.43079861  0.83573903  0.61310520  1.0
  Br  Br9  1  0.43079861  0.66426097  0.11310520  1.0
  Br  Br10  1  0.56920139  0.33573903  0.88689480  1.0
  Br  Br11  1  0.56920139  0.16426097  0.38689480  1.0
  Br  Br12  1  0.20898619  0.60630807  0.74825479  1.0
  Br  Br13  1  0.20898619  0.89369193  0.24825479  1.0
  Br  Br14  1  0.79101381  0.10630807  0.75174521  1.0
  Br  Br15  1  0.79101381  0.39369193  0.25174521  1.0
  Br  Br16  1  0.26855854  0.94294326  0.85213106  1.0
  Br  Br17  1  0.26855854  0.55705674  0.35213106  1.0
  Br  Br18  1  0.73144146  0.44294326  0.64786894  1.0
  Br  Br19  1  0.73144146  0.05705674  0.14786894  1.0
  F  F20  1  0.72716857  0.88530422  0.96408263  1.0
  F  F21  1  0.72716857  0.61469578  0.46408263  1.0
  F  F22  1  0.27283143  0.38530422  0.53591737  1.0
  F  F23  1  0.27283143  0.11469578  0.03591737  1.0
  F  F24  1  0.74259401  0.84583978  0.54724471  1.0
  F  F25  1  0.74259401  0.65416022  0.04724471  1.0
  F  F26  1  0.25740599  0.34583978  0.95275529  1.0
  F  F27  1  0.25740599  0.15416022  0.45275529  1.0
  F  F28  1  0.87356047  0.79951717  0.81279044  1.0
  F  F29  1  0.87356047  0.70048283  0.31279044  1.0
  F  F30  1  0.12643953  0.29951717  0.68720956  1.0
  F  F31  1  0.12643953  0.20048283  0.18720956  1.0
  F  F32  1  0.88718081  0.56863069  0.89543344  1.0
  F  F33  1  0.88718081  0.93136931  0.39543344  1.0
  F  F34  1  0.11281919  0.06863069  0.60456656  1.0
  F  F35  1  0.11281919  0.43136931  0.10456656  1.0
  F  F36  1  1.00046491  0.26644010  0.49490027  1.0
  F  F37  1  1.00046491  0.23355990  -0.00509973  1.0
  F  F38  1  -0.00046491  0.76644010  1.00509973  1.0
  F  F39  1  -0.00046491  0.73355990  0.50509973  1.0
  F  F40  1  0.61518858  0.68605533  0.85500316  1.0
  F  F41  1  0.61518858  0.81394467  0.35500316  1.0
  F  F42  1  0.38481142  0.18605533  0.64499684  1.0
  F  F43  1  0.38481142  0.31394467  0.14499684  1.0
