# generated using pymatgen
data_LuIn2
_symmetry_space_group_name_H-M   'P 1'
_cell_length_a   7.39673656
_cell_length_b   7.39673656
_cell_length_c   4.61578145
_cell_angle_alpha   90.00000000
_cell_angle_beta   90.00000000
_cell_angle_gamma   143.99245656
_symmetry_Int_Tables_number   1
_chemical_formula_structural   LuIn2
_chemical_formula_sum   'Lu2 In4'
_cell_volume   148.46460041
_cell_formula_units_Z   2
loop_
 _symmetry_equiv_pos_site_id
 _symmetry_equiv_pos_as_xyz
  1  'x, y, z'
loop_
 _atom_site_type_symbol
 _atom_site_label
 _atom_site_symmetry_multiplicity
 _atom_site_fract_x
 _atom_site_fract_y
 _atom_site_fract_z
 _atom_site_occupancy
  Lu  Lu0  1  -0.84366104  0.84366104  0.50000000  1.0
  Lu  Lu1  1  -0.15633896  1.15633896  0.50000000  1.0
  In  In2  1  -0.67543317  0.67543317  0.00000000  1.0
  In  In3  1  -0.32456683  1.32456683  0.00000000  1.0
  In  In4  1  0.50000000  0.50000000  0.50000000  1.0
  In  In5  1  0.00000000  0.00000000  0.00000000  1.0
