# generated using pymatgen
data_Hf2Fe
_symmetry_space_group_name_H-M   'P 1'
_cell_length_a   8.48849471
_cell_length_b   8.48849471
_cell_length_c   8.48849471
_cell_angle_alpha   60.00000000
_cell_angle_beta   60.00000000
_cell_angle_gamma   60.00000000
_symmetry_Int_Tables_number   1
_chemical_formula_structural   Hf2Fe
_chemical_formula_sum   'Hf16 Fe8'
_cell_volume   432.49097439
_cell_formula_units_Z   8
loop_
 _symmetry_equiv_pos_site_id
 _symmetry_equiv_pos_as_xyz
  1  'x, y, z'
loop_
 _atom_site_type_symbol
 _atom_site_label
 _atom_site_symmetry_multiplicity
 _atom_site_fract_x
 _atom_site_fract_y
 _atom_site_fract_z
 _atom_site_occupancy
  Hf  Hf0  1  1.12500000  0.62500000  0.62500000  1.0
  Hf  Hf1  1  0.62500000  1.12500000  -0.37500000  1.0
  Hf  Hf2  1  -0.37500000  0.62500000  1.12500000  1.0
  Hf  Hf3  1  -0.37500000  0.62500000  0.62500000  1.0
  Hf  Hf4  1  0.81124713  0.81124713  -0.81124713  1.0
  Hf  Hf5  1  0.18875287  1.18875287  -0.18875287  1.0
  Hf  Hf6  1  0.81124713  -0.81124713  0.81124713  1.0
  Hf  Hf7  1  0.18875287  -0.18875287  0.18875287  1.0
  Hf  Hf8  1  -0.81124713  0.81124713  0.81124713  1.0
  Hf  Hf9  1  -0.18875287  0.18875287  0.18875287  1.0
  Hf  Hf10  1  0.43875287  1.43875287  0.06124713  1.0
  Hf  Hf11  1  0.06124713  0.06124713  0.43875287  1.0
  Hf  Hf12  1  0.43875287  1.06124713  0.43875287  1.0
  Hf  Hf13  1  0.06124713  1.43875287  0.06124713  1.0
  Hf  Hf14  1  0.06124713  1.43875287  0.43875287  1.0
  Hf  Hf15  1  0.43875287  1.06124713  0.06124713  1.0
  Fe  Fe16  1  -0.23008355  0.41002785  0.41002785  1.0
  Fe  Fe17  1  0.41002785  -0.23008355  0.41002785  1.0
  Fe  Fe18  1  0.41002785  1.41002785  -0.23008355  1.0
  Fe  Fe19  1  0.41002785  1.41002785  0.41002785  1.0
  Fe  Fe20  1  0.48008355  0.83997215  -0.16002785  1.0
  Fe  Fe21  1  0.83997215  0.48008355  0.83997215  1.0
  Fe  Fe22  1  0.83997215  0.83997215  -0.51991645  1.0
  Fe  Fe23  1  0.83997215  0.83997215  0.83997215  1.0
