# generated using pymatgen
data_Zr6NiSn2
_symmetry_space_group_name_H-M   'P 1'
_cell_length_a   7.94643490
_cell_length_b   7.94643490
_cell_length_c   3.55784103
_cell_angle_alpha   90.00000000
_cell_angle_beta   90.00000000
_cell_angle_gamma   120.00000000
_symmetry_Int_Tables_number   1
_chemical_formula_structural   Zr6NiSn2
_chemical_formula_sum   'Zr6 Ni1 Sn2'
_cell_volume   194.56370614
_cell_formula_units_Z   1
loop_
 _symmetry_equiv_pos_site_id
 _symmetry_equiv_pos_as_xyz
  1  'x, y, z'
loop_
 _atom_site_type_symbol
 _atom_site_label
 _atom_site_symmetry_multiplicity
 _atom_site_fract_x
 _atom_site_fract_y
 _atom_site_fract_z
 _atom_site_occupancy
  Zr  Zr0  1  0.39771850  0.39771850  0.00000000  1.0
  Zr  Zr1  1  0.00000000  0.60228150  0.00000000  1.0
  Zr  Zr2  1  0.60228150  0.00000000  0.00000000  1.0
  Zr  Zr3  1  0.75611432  0.75611432  0.50000000  1.0
  Zr  Zr4  1  0.00000000  0.24388568  0.50000000  1.0
  Zr  Zr5  1  0.24388568  0.00000000  0.50000000  1.0
  Ni  Ni6  1  0.00000000  0.00000000  0.00000000  1.0
  Sn  Sn7  1  0.33333333  0.66666667  0.50000000  1.0
  Sn  Sn8  1  0.66666667  0.33333333  0.50000000  1.0
