# generated using pymatgen
data_ZnBr2
_symmetry_space_group_name_H-M   'P 1'
_cell_length_a   7.38738672
_cell_length_b   7.38738672
_cell_length_c   7.38738672
_cell_angle_alpha   29.81339327
_cell_angle_beta   29.81339327
_cell_angle_gamma   29.81339327
_symmetry_Int_Tables_number   1
_chemical_formula_structural   ZnBr2
_chemical_formula_sum   'Zn1 Br2'
_cell_volume   88.24726331
_cell_formula_units_Z   1
loop_
 _symmetry_equiv_pos_site_id
 _symmetry_equiv_pos_as_xyz
  1  'x, y, z'
loop_
 _atom_site_type_symbol
 _atom_site_label
 _atom_site_symmetry_multiplicity
 _atom_site_fract_x
 _atom_site_fract_y
 _atom_site_fract_z
 _atom_site_occupancy
  Zn  Zn0  1  0.00000000  0.00000000  0.00000000  1.0
  Br  Br1  1  0.73680655  0.73680655  0.73680655  1.0
  Br  Br2  1  1.26319345  1.26319345  0.26319345  1.0
