# generated using pymatgen
data_Zn2GeO4
_symmetry_space_group_name_H-M   'P 1'
_cell_length_a   6.00587412
_cell_length_b   6.00587412
_cell_length_c   8.41510331
_cell_angle_alpha   90.00000000
_cell_angle_beta   90.00000000
_cell_angle_gamma   90.00000000
_symmetry_Int_Tables_number   1
_chemical_formula_structural   Zn2GeO4
_chemical_formula_sum   'Zn8 Ge4 O16'
_cell_volume   303.53718539
_cell_formula_units_Z   4
loop_
 _symmetry_equiv_pos_site_id
 _symmetry_equiv_pos_as_xyz
  1  'x, y, z'
loop_
 _atom_site_type_symbol
 _atom_site_label
 _atom_site_symmetry_multiplicity
 _atom_site_fract_x
 _atom_site_fract_y
 _atom_site_fract_z
 _atom_site_occupancy
  Zn  Zn0  1  0.24226085  0.00000000  0.25000000  1.0
  Zn  Zn1  1  0.75773915  0.00000000  0.75000000  1.0
  Zn  Zn2  1  0.00000000  0.24226085  0.00000000  1.0
  Zn  Zn3  1  0.00000000  0.75773915  0.50000000  1.0
  Zn  Zn4  1  0.25174619  0.25174619  0.62500000  1.0
  Zn  Zn5  1  0.74825381  0.74825381  0.12500000  1.0
  Zn  Zn6  1  0.74825381  0.25174619  0.37500000  1.0
  Zn  Zn7  1  0.25174619  0.74825381  0.87500000  1.0
  Ge  Ge8  1  0.50000000  0.24692212  -0.00000000  1.0
  Ge  Ge9  1  0.50000000  0.75307788  0.50000000  1.0
  Ge  Ge10  1  0.75307788  0.50000000  0.75000000  1.0
  Ge  Ge11  1  0.24692212  0.50000000  0.25000000  1.0
  O  O12  1  0.27063186  0.03211469  0.99670509  1.0
  O  O13  1  0.72936814  0.96788531  0.49670509  1.0
  O  O14  1  0.96788531  0.27063186  0.74670509  1.0
  O  O15  1  0.03211469  0.72936814  0.24670509  1.0
  O  O16  1  0.72936814  0.03211469  0.00329491  1.0
  O  O17  1  0.27063186  0.96788531  0.50329491  1.0
  O  O18  1  0.03211469  0.27063186  0.25329491  1.0
  O  O19  1  0.96788531  0.72936814  0.75329491  1.0
  O  O20  1  0.27014146  0.48133526  0.01980791  1.0
  O  O21  1  0.72985854  0.51866474  0.51980791  1.0
  O  O22  1  0.51866474  0.27014146  0.76980791  1.0
  O  O23  1  0.48133526  0.72985854  0.26980791  1.0
  O  O24  1  0.72985854  0.48133526  0.98019209  1.0
  O  O25  1  0.27014146  0.51866474  0.48019209  1.0
  O  O26  1  0.48133526  0.27014146  0.23019209  1.0
  O  O27  1  0.51866474  0.72985854  0.73019209  1.0
