# generated using pymatgen
data_KLa(PSe3)2
_symmetry_space_group_name_H-M   'P 1'
_cell_length_a   12.73896921
_cell_length_b   7.97851525
_cell_length_c   11.97163593
_cell_angle_alpha   90.00000000
_cell_angle_beta   109.26065456
_cell_angle_gamma   90.00000000
_symmetry_Int_Tables_number   1
_chemical_formula_structural   KLa(PSe3)2
_chemical_formula_sum   'K4 La4 P8 Se24'
_cell_volume   1148.66821635
_cell_formula_units_Z   4
loop_
 _symmetry_equiv_pos_site_id
 _symmetry_equiv_pos_as_xyz
  1  'x, y, z'
loop_
 _atom_site_type_symbol
 _atom_site_label
 _atom_site_symmetry_multiplicity
 _atom_site_fract_x
 _atom_site_fract_y
 _atom_site_fract_z
 _atom_site_occupancy
  K  K0  1  0.87224601  0.41206373  0.63139277  1.0
  K  K1  1  0.87224601  0.08793627  0.13139277  1.0
  K  K2  1  0.12775399  0.91206373  0.86860723  1.0
  K  K3  1  0.12775399  0.58793627  0.36860723  1.0
  La  La4  1  0.64760907  0.60213131  0.90302292  1.0
  La  La5  1  0.64760907  0.89786869  0.40302292  1.0
  La  La6  1  0.35239093  0.10213131  0.59697708  1.0
  La  La7  1  0.35239093  0.39786869  0.09697708  1.0
  P  P8  1  0.78590478  0.88315270  0.73255121  1.0
  P  P9  1  0.78590478  0.61684730  0.23255121  1.0
  P  P10  1  0.21409522  0.38315270  0.76744879  1.0
  P  P11  1  0.21409522  0.11684730  0.26744879  1.0
  P  P12  1  0.32768480  0.59483472  0.75270939  1.0
  P  P13  1  0.32768480  0.90516528  0.25270939  1.0
  P  P14  1  0.67231520  0.09483472  0.74729061  1.0
  P  P15  1  0.67231520  0.40516528  0.24729061  1.0
  Se  Se16  1  0.88341792  0.98117374  0.62659066  1.0
  Se  Se17  1  0.88341792  0.51882626  0.12659066  1.0
  Se  Se18  1  0.11658208  0.48117374  0.87340934  1.0
  Se  Se19  1  0.11658208  0.01882626  0.37340934  1.0
  Se  Se20  1  0.86685463  0.78751226  0.91413589  1.0
  Se  Se21  1  0.86685463  0.71248774  0.41413589  1.0
  Se  Se22  1  0.13314537  0.28751226  0.58586411  1.0
  Se  Se23  1  0.13314537  0.21248774  0.08586411  1.0
  Se  Se24  1  0.78024879  0.28430509  0.86300210  1.0
  Se  Se25  1  0.78024879  0.21569491  0.36300210  1.0
  Se  Se26  1  0.21975121  0.78430509  0.63699790  1.0
  Se  Se27  1  0.21975121  0.71569491  0.13699790  1.0
  Se  Se28  1  0.66965229  0.68822003  0.63382496  1.0
  Se  Se29  1  0.66965229  0.81177997  0.13382496  1.0
  Se  Se30  1  0.33034771  0.18822003  0.86617504  1.0
  Se  Se31  1  0.33034771  0.31177997  0.36617504  1.0
  Se  Se32  1  0.55049866  0.96939458  0.81793817  1.0
  Se  Se33  1  0.55049866  0.53060542  0.31793817  1.0
  Se  Se34  1  0.44950134  0.46939458  0.68206183  1.0
  Se  Se35  1  0.44950134  0.03060542  0.18206183  1.0
  Se  Se36  1  0.41309120  0.68846940  0.93464754  1.0
  Se  Se37  1  0.41309120  0.81153060  0.43464754  1.0
  Se  Se38  1  0.58690880  0.18846940  0.56535246  1.0
  Se  Se39  1  0.58690880  0.31153060  0.06535246  1.0
