# generated using pymatgen
data_LiFePO4
_symmetry_space_group_name_H-M   'P 1'
_cell_length_a   5.38492198
_cell_length_b   5.33954877
_cell_length_c   7.08675360
_cell_angle_alpha   123.58155185
_cell_angle_beta   111.38043021
_cell_angle_gamma   76.96424240
_symmetry_Int_Tables_number   1
_chemical_formula_structural   LiFePO4
_chemical_formula_sum   'Li2 Fe2 P2 O8'
_cell_volume   157.99942540
_cell_formula_units_Z   2
loop_
 _symmetry_equiv_pos_site_id
 _symmetry_equiv_pos_as_xyz
  1  'x, y, z'
loop_
 _atom_site_type_symbol
 _atom_site_label
 _atom_site_symmetry_multiplicity
 _atom_site_fract_x
 _atom_site_fract_y
 _atom_site_fract_z
 _atom_site_occupancy
  Li  Li0  1  0.38975406  1.06045651  0.77215564  1.0
  Li  Li1  1  -0.38975406  -0.06045651  0.22784436  1.0
  Fe  Fe2  1  -0.00000000  0.50000000  0.50000000  1.0
  Fe  Fe3  1  0.00000000  0.00000000  0.00000000  1.0
  P  P4  1  -0.64153395  0.59183482  0.25739985  1.0
  P  P5  1  0.64153395  0.40816518  0.74260015  1.0
  O  O6  1  -0.69089752  0.24878823  0.07823393  1.0
  O  O7  1  0.69089752  0.75121177  0.92176607  1.0
  O  O8  1  -0.33608053  0.65159455  0.35716499  1.0
  O  O9  1  0.33608053  0.34840545  0.64283501  1.0
  O  O10  1  0.23041122  0.71145658  0.45794868  1.0
  O  O11  1  -0.23041122  0.28854342  0.54205132  1.0
  O  O12  1  0.74998394  0.22355618  0.86831873  1.0
  O  O13  1  -0.74998394  0.77644382  0.13168127  1.0
