# generated using pymatgen
data_KSb4F13
_symmetry_space_group_name_H-M   'P 1'
_cell_length_a   7.93536394
_cell_length_b   7.93536394
_cell_length_c   7.93536394
_cell_angle_alpha   97.96843495
_cell_angle_beta   97.96843495
_cell_angle_gamma   136.28157572
_symmetry_Int_Tables_number   1
_chemical_formula_structural   KSb4F13
_chemical_formula_sum   'K1 Sb4 F13'
_cell_volume   320.51345963
_cell_formula_units_Z   1
loop_
 _symmetry_equiv_pos_site_id
 _symmetry_equiv_pos_as_xyz
  1  'x, y, z'
loop_
 _atom_site_type_symbol
 _atom_site_label
 _atom_site_symmetry_multiplicity
 _atom_site_fract_x
 _atom_site_fract_y
 _atom_site_fract_z
 _atom_site_occupancy
  K  K0  1  0.50000000  0.50000000  0.00000000  1.0
  Sb  Sb1  1  0.73374777  1.00070185  1.73444963  1.0
  Sb  Sb2  1  1.00070185  1.26625223  1.26695408  1.0
  Sb  Sb3  1  0.26625223  -0.00070185  0.26555037  1.0
  Sb  Sb4  1  0.99929815  0.73374777  0.73304592  1.0
  F  F5  1  1.13109362  1.04351512  0.68955502  1.0
  F  F6  1  0.64603990  0.55846140  0.68955502  1.0
  F  F7  1  1.04351512  0.35396010  0.91242150  1.0
  F  F8  1  1.55846140  0.86890638  0.91242150  1.0
  F  F9  1  1.35396010  1.44153860  1.31044498  1.0
  F  F10  1  0.86890638  0.95648488  1.31044498  1.0
  F  F11  1  0.44153860  1.13109362  1.08757850  1.0
  F  F12  1  0.95648488  1.64603990  1.08757850  1.0
  F  F13  1  0.88719612  0.57908119  0.46627732  1.0
  F  F14  1  0.57908119  0.11280388  0.69188507  1.0
  F  F15  1  1.11280388  1.42091881  1.53372268  1.0
  F  F16  1  0.42091881  0.88719612  1.30811493  1.0
  F  F17  1  0.00000000  0.00000000  0.00000000  1.0
