# generated using pymatgen
data_Sm3Ge5
_symmetry_space_group_name_H-M   'P 1'
_cell_length_a   7.12622010
_cell_length_b   7.12622010
_cell_length_c   8.73151519
_cell_angle_alpha   90.00000000
_cell_angle_beta   90.00000000
_cell_angle_gamma   120.00000000
_symmetry_Int_Tables_number   1
_chemical_formula_structural   Sm3Ge5
_chemical_formula_sum   'Sm6 Ge10'
_cell_volume   384.00661759
_cell_formula_units_Z   2
loop_
 _symmetry_equiv_pos_site_id
 _symmetry_equiv_pos_as_xyz
  1  'x, y, z'
loop_
 _atom_site_type_symbol
 _atom_site_label
 _atom_site_symmetry_multiplicity
 _atom_site_fract_x
 _atom_site_fract_y
 _atom_site_fract_z
 _atom_site_occupancy
  Sm  Sm0  1  0.67204204  0.67204204  0.50000000  1.0
  Sm  Sm1  1  0.67204204  0.67204204  -0.00000000  1.0
  Sm  Sm2  1  -0.00000000  0.32795796  0.50000000  1.0
  Sm  Sm3  1  -0.00000000  0.32795796  0.00000000  1.0
  Sm  Sm4  1  0.32795796  -0.00000000  0.50000000  1.0
  Sm  Sm5  1  0.32795796  -0.00000000  0.00000000  1.0
  Ge  Ge6  1  0.95627865  0.62117738  0.25000000  1.0
  Ge  Ge7  1  0.62117738  0.95627865  0.75000000  1.0
  Ge  Ge8  1  0.66489873  0.04372135  0.25000000  1.0
  Ge  Ge9  1  0.37882262  0.33510127  0.25000000  1.0
  Ge  Ge10  1  0.04372135  0.66489873  0.75000000  1.0
  Ge  Ge11  1  0.33510127  0.37882262  0.75000000  1.0
  Ge  Ge12  1  0.33333333  0.66666667  0.25000000  1.0
  Ge  Ge13  1  0.66666667  0.33333333  0.75000000  1.0
  Ge  Ge14  1  -0.00000000  -0.00000000  0.25000000  1.0
  Ge  Ge15  1  0.00000000  -0.00000000  0.75000000  1.0
