# generated using pymatgen
data_K4CO4
_symmetry_space_group_name_H-M   'P 1'
_cell_length_a   5.82885118
_cell_length_b   5.82885118
_cell_length_c   5.82885118
_cell_angle_alpha   73.67884916
_cell_angle_beta   73.67884916
_cell_angle_gamma   73.67884916
_symmetry_Int_Tables_number   1
_chemical_formula_structural   K4CO4
_chemical_formula_sum   'K4 C1 O4'
_cell_volume   177.95551785
_cell_formula_units_Z   1
loop_
 _symmetry_equiv_pos_site_id
 _symmetry_equiv_pos_as_xyz
  1  'x, y, z'
loop_
 _atom_site_type_symbol
 _atom_site_label
 _atom_site_symmetry_multiplicity
 _atom_site_fract_x
 _atom_site_fract_y
 _atom_site_fract_z
 _atom_site_occupancy
  K  K0  1  1.17589166  1.17589166  0.17589166  1.0
  K  K1  1  0.57424595  0.57424595  0.08310377  1.0
  K  K2  1  0.57424595  1.08310377  -0.42575405  1.0
  K  K3  1  1.08310377  0.57424595  -0.42575405  1.0
  C  C4  1  0.95520319  0.95520319  -0.04479681  1.0
  O  O5  1  0.10710953  0.10710953  -0.23081561  1.0
  O  O6  1  0.10710953  0.76918439  -0.89289047  1.0
  O  O7  1  0.76918439  0.10710953  -0.89289047  1.0
  O  O8  1  0.84556603  0.84556603  -0.15443397  1.0
