# generated using pymatgen
data_HfSiW
_symmetry_space_group_name_H-M   'P 1'
_cell_length_a   6.93260425
_cell_length_b   3.51828172
_cell_length_c   8.18894672
_cell_angle_alpha   90.00000000
_cell_angle_beta   90.00000000
_cell_angle_gamma   90.00000000
_symmetry_Int_Tables_number   1
_chemical_formula_structural   HfSiW
_chemical_formula_sum   'Hf4 Si4 W4'
_cell_volume   199.73541030
_cell_formula_units_Z   4
loop_
 _symmetry_equiv_pos_site_id
 _symmetry_equiv_pos_as_xyz
  1  'x, y, z'
loop_
 _atom_site_type_symbol
 _atom_site_label
 _atom_site_symmetry_multiplicity
 _atom_site_fract_x
 _atom_site_fract_y
 _atom_site_fract_z
 _atom_site_occupancy
  Hf  Hf0  1  0.95884814  0.75000000  0.66639405  1.0
  Hf  Hf1  1  0.45884814  0.75000000  0.83360595  1.0
  Hf  Hf2  1  0.04115186  0.25000000  0.33360595  1.0
  Hf  Hf3  1  0.54115186  0.25000000  0.16639405  1.0
  Si  Si4  1  0.74326141  0.75000000  0.35938481  1.0
  Si  Si5  1  0.24326141  0.75000000  0.14061519  1.0
  Si  Si6  1  0.25673859  0.25000000  0.64061519  1.0
  Si  Si7  1  0.75673859  0.25000000  0.85938481  1.0
  W  W8  1  0.86661676  0.75000000  0.06045164  1.0
  W  W9  1  0.36661676  0.75000000  0.43954836  1.0
  W  W10  1  0.13338324  0.25000000  0.93954836  1.0
  W  W11  1  0.63338324  0.25000000  0.56045164  1.0
