# generated using pymatgen
data_LiBH
_symmetry_space_group_name_H-M   'P 1'
_cell_length_a   5.33271054
_cell_length_b   3.07817142
_cell_length_c   6.56197190
_cell_angle_alpha   90.00000000
_cell_angle_beta   90.00000000
_cell_angle_gamma   90.00000000
_symmetry_Int_Tables_number   1
_chemical_formula_structural   LiBH
_chemical_formula_sum   'Li4 B4 H4'
_cell_volume   107.71475004
_cell_formula_units_Z   4
loop_
 _symmetry_equiv_pos_site_id
 _symmetry_equiv_pos_as_xyz
  1  'x, y, z'
loop_
 _atom_site_type_symbol
 _atom_site_label
 _atom_site_symmetry_multiplicity
 _atom_site_fract_x
 _atom_site_fract_y
 _atom_site_fract_z
 _atom_site_occupancy
  Li  Li0  1  0.31113199  0.25000000  0.82379873  1.0
  Li  Li1  1  0.81113199  0.25000000  0.67620127  1.0
  Li  Li2  1  0.68886801  0.75000000  0.17620127  1.0
  Li  Li3  1  0.18886801  0.75000000  0.32379873  1.0
  B  B4  1  0.44147995  0.25000000  0.49315226  1.0
  B  B5  1  0.94147995  0.25000000  0.00684774  1.0
  B  B6  1  0.55852005  0.75000000  0.50684774  1.0
  B  B7  1  0.05852005  0.75000000  0.99315226  1.0
  H  H8  1  0.70257806  0.25000000  -0.00300304  1.0
  H  H9  1  0.20257806  0.25000000  0.50300304  1.0
  H  H10  1  0.29742194  0.75000000  1.00300304  1.0
  H  H11  1  0.79742194  0.75000000  0.49699696  1.0
