# generated using pymatgen
data_Ca2MgWO6
_symmetry_space_group_name_H-M   'P 1'
_cell_length_a   5.44567456
_cell_length_b   5.61114501
_cell_length_c   9.48366780
_cell_angle_alpha   90.00000000
_cell_angle_beta   124.91946624
_cell_angle_gamma   90.00000000
_symmetry_Int_Tables_number   1
_chemical_formula_structural   Ca2MgWO6
_chemical_formula_sum   'Ca4 Mg2 W2 O12'
_cell_volume   237.61334104
_cell_formula_units_Z   2
loop_
 _symmetry_equiv_pos_site_id
 _symmetry_equiv_pos_as_xyz
  1  'x, y, z'
loop_
 _atom_site_type_symbol
 _atom_site_label
 _atom_site_symmetry_multiplicity
 _atom_site_fract_x
 _atom_site_fract_y
 _atom_site_fract_z
 _atom_site_occupancy
  Ca  Ca0  1  0.73557797  0.05151274  0.24753123  1.0
  Ca  Ca1  1  0.73557797  0.44848726  0.74753123  1.0
  Ca  Ca2  1  0.26442203  0.55151274  0.25246877  1.0
  Ca  Ca3  1  0.26442203  0.94848726  0.75246877  1.0
  Mg  Mg4  1  0.50000000  0.50000000  0.00000000  1.0
  Mg  Mg5  1  0.50000000  0.00000000  0.50000000  1.0
  W  W6  1  0.00000000  0.50000000  0.50000000  1.0
  W  W7  1  0.00000000  0.00000000  0.00000000  1.0
  O  O8  1  0.85097523  0.47038966  0.25986088  1.0
  O  O9  1  0.85097523  0.02961034  0.75986088  1.0
  O  O10  1  0.14902477  0.97038966  0.24013912  1.0
  O  O11  1  0.14902477  0.52961034  0.74013912  1.0
  O  O12  1  0.75784081  0.78387489  0.44906458  1.0
  O  O13  1  0.75784081  0.71612511  0.94906458  1.0
  O  O14  1  0.24215919  0.28387489  0.05093542  1.0
  O  O15  1  0.24215919  0.21612511  0.55093542  1.0
  O  O16  1  0.66864807  0.30523107  0.45550389  1.0
  O  O17  1  0.66864807  0.19476893  0.95550389  1.0
  O  O18  1  0.33135193  0.80523107  0.04449611  1.0
  O  O19  1  0.33135193  0.69476893  0.54449611  1.0
