# generated using pymatgen
data_RbLi6BiO6
_symmetry_space_group_name_H-M   'P 1'
_cell_length_a   5.52542311
_cell_length_b   5.52542311
_cell_length_c   5.52542311
_cell_angle_alpha   101.49030641
_cell_angle_beta   101.49030641
_cell_angle_gamma   101.49030641
_symmetry_Int_Tables_number   1
_chemical_formula_structural   RbLi6BiO6
_chemical_formula_sum   'Rb1 Li6 Bi1 O6'
_cell_volume   156.90666111
_cell_formula_units_Z   1
loop_
 _symmetry_equiv_pos_site_id
 _symmetry_equiv_pos_as_xyz
  1  'x, y, z'
loop_
 _atom_site_type_symbol
 _atom_site_label
 _atom_site_symmetry_multiplicity
 _atom_site_fract_x
 _atom_site_fract_y
 _atom_site_fract_z
 _atom_site_occupancy
  Rb  Rb0  1  0.50000000  0.50000000  0.50000000  1.0
  Li  Li1  1  0.65627032  1.00000000  -0.65627032  1.0
  Li  Li2  1  0.65627032  0.34372968  -0.00000000  1.0
  Li  Li3  1  1.00000000  0.65627032  -0.65627032  1.0
  Li  Li4  1  1.00000000  0.34372968  -0.34372968  1.0
  Li  Li5  1  0.34372968  1.00000000  -0.34372968  1.0
  Li  Li6  1  0.34372968  0.65627032  -0.00000000  1.0
  Bi  Bi7  1  0.00000000  0.00000000  0.00000000  1.0
  O  O8  1  1.27855981  0.27855981  -0.09378832  1.0
  O  O9  1  1.27855981  -0.09378832  0.27855981  1.0
  O  O10  1  1.09378832  0.72144019  -0.27855981  1.0
  O  O11  1  0.72144019  1.09378832  -0.27855981  1.0
  O  O12  1  0.72144019  0.72144019  0.09378832  1.0
  O  O13  1  0.90621168  0.27855981  0.27855981  1.0
