# generated using pymatgen
data_K2PdN2(ClO2)2
_symmetry_space_group_name_H-M   'P 1'
_cell_length_a   7.95939438
_cell_length_b   7.95939438
_cell_length_c   3.70768823
_cell_angle_alpha   76.56526492
_cell_angle_beta   103.43473508
_cell_angle_gamma   66.27624543
_symmetry_Int_Tables_number   1
_chemical_formula_structural   K2PdN2(ClO2)2
_chemical_formula_sum   'K2 Pd1 N2 Cl2 O4'
_cell_volume   194.65158327
_cell_formula_units_Z   1
loop_
 _symmetry_equiv_pos_site_id
 _symmetry_equiv_pos_as_xyz
  1  'x, y, z'
loop_
 _atom_site_type_symbol
 _atom_site_label
 _atom_site_symmetry_multiplicity
 _atom_site_fract_x
 _atom_site_fract_y
 _atom_site_fract_z
 _atom_site_occupancy
  K  K0  1  0.65601922  0.65601922  -0.00000000  1.0
  K  K1  1  1.34398078  0.34398078  0.00000000  1.0
  Pd  Pd2  1  0.00000000  0.00000000  0.00000000  1.0
  N  N3  1  0.86839458  0.86839458  0.50000000  1.0
  N  N4  1  1.13160542  0.13160542  0.50000000  1.0
  Cl  Cl5  1  0.70265490  -0.70265490  0.70290371  1.0
  Cl  Cl6  1  0.29734510  -0.29734510  0.29709629  1.0
  O  O7  1  1.31559935  0.04217448  0.63673942  1.0
  O  O8  1  0.95782552  0.68440065  0.63673942  1.0
  O  O9  1  1.04217448  0.31559935  0.36326058  1.0
  O  O10  1  1.68440065  -0.04217448  0.36326058  1.0
