# generated using pymatgen
data_W(ClO)2
_symmetry_space_group_name_H-M   'P 1'
_cell_length_a   8.34677981
_cell_length_b   3.91389476
_cell_length_c   7.73269004
_cell_angle_alpha   90.00000000
_cell_angle_beta   90.00000000
_cell_angle_gamma   90.00000000
_symmetry_Int_Tables_number   1
_chemical_formula_structural   W(ClO)2
_chemical_formula_sum   'W2 Cl4 O4'
_cell_volume   252.61474892
_cell_formula_units_Z   2
loop_
 _symmetry_equiv_pos_site_id
 _symmetry_equiv_pos_as_xyz
  1  'x, y, z'
loop_
 _atom_site_type_symbol
 _atom_site_label
 _atom_site_symmetry_multiplicity
 _atom_site_fract_x
 _atom_site_fract_y
 _atom_site_fract_z
 _atom_site_occupancy
  W  W0  1  0.00000000  0.05076082  0.48618370  1.0
  W  W1  1  -0.00000000  0.94923918  -0.01381630  1.0
  Cl  Cl2  1  0.72706566  0.98016420  0.45281559  1.0
  Cl  Cl3  1  0.27293434  0.98016420  0.45281559  1.0
  Cl  Cl4  1  0.27293434  0.01983580  0.95281559  1.0
  Cl  Cl5  1  0.72706566  0.01983580  0.95281559  1.0
  O  O6  1  0.00000000  0.99417646  0.21652700  1.0
  O  O7  1  -0.00000000  0.00582354  0.71652700  1.0
  O  O8  1  0.00000000  0.50322010  0.46965813  1.0
  O  O9  1  -0.00000000  0.49677990  0.96965813  1.0
