# generated using pymatgen
data_FeSiGe
_symmetry_space_group_name_H-M   'P 1'
_cell_length_a   6.45722910
_cell_length_b   6.45722910
_cell_length_c   8.02778276
_cell_angle_alpha   90.00000000
_cell_angle_beta   90.00000000
_cell_angle_gamma   75.98313453
_symmetry_Int_Tables_number   1
_chemical_formula_structural   FeSiGe
_chemical_formula_sum   'Fe8 Si8 Ge8'
_cell_volume   324.75827583
_cell_formula_units_Z   8
loop_
 _symmetry_equiv_pos_site_id
 _symmetry_equiv_pos_as_xyz
  1  'x, y, z'
loop_
 _atom_site_type_symbol
 _atom_site_label
 _atom_site_symmetry_multiplicity
 _atom_site_fract_x
 _atom_site_fract_y
 _atom_site_fract_z
 _atom_site_occupancy
  Fe  Fe0  1  -0.21674348  0.78325652  0.00000000  1.0
  Fe  Fe1  1  0.28325652  1.28325652  0.50000000  1.0
  Fe  Fe2  1  0.21674348  1.21674348  0.00000000  1.0
  Fe  Fe3  1  -0.28325652  0.71674348  0.50000000  1.0
  Fe  Fe4  1  -0.19318939  1.19318939  0.18770721  1.0
  Fe  Fe5  1  0.19318939  0.80681061  0.81229279  1.0
  Fe  Fe6  1  -0.30681061  1.30681061  0.68770721  1.0
  Fe  Fe7  1  0.30681061  0.69318939  0.31229279  1.0
  Si  Si8  1  -0.33194704  0.58515483  0.23112015  1.0
  Si  Si9  1  -0.41484517  0.66805296  0.76887985  1.0
  Si  Si10  1  0.08515483  1.16805296  0.73112015  1.0
  Si  Si11  1  0.16805296  1.08515483  0.26887985  1.0
  Si  Si12  1  0.33194704  1.41484517  0.76887985  1.0
  Si  Si13  1  0.41484517  1.33194704  0.23112015  1.0
  Si  Si14  1  -0.08515483  0.83194704  0.26887985  1.0
  Si  Si15  1  -0.16805296  0.91484517  0.73112015  1.0
  Ge  Ge16  1  0.14704447  0.59695180  0.05000735  1.0
  Ge  Ge17  1  -0.40304820  1.14704447  0.94999265  1.0
  Ge  Ge18  1  0.09695180  0.64704447  0.55000735  1.0
  Ge  Ge19  1  -0.35295553  1.09695180  0.44999265  1.0
  Ge  Ge20  1  -0.14704447  1.40304820  0.94999265  1.0
  Ge  Ge21  1  0.40304820  0.85295553  0.05000735  1.0
  Ge  Ge22  1  -0.09695180  1.35295553  0.44999265  1.0
  Ge  Ge23  1  0.35295553  0.90304820  0.55000735  1.0
