# generated using pymatgen
data_BaNaLi3(BO2)6
_symmetry_space_group_name_H-M   'P 1'
_cell_length_a   8.37336001
_cell_length_b   8.37336001
_cell_length_c   8.37336001
_cell_angle_alpha   69.58827388
_cell_angle_beta   69.58827388
_cell_angle_gamma   69.58827388
_symmetry_Int_Tables_number   1
_chemical_formula_structural   BaNaLi3(BO2)6
_chemical_formula_sum   'Ba2 Na2 Li6 B12 O24'
_cell_volume   498.13404057
_cell_formula_units_Z   2
loop_
 _symmetry_equiv_pos_site_id
 _symmetry_equiv_pos_as_xyz
  1  'x, y, z'
loop_
 _atom_site_type_symbol
 _atom_site_label
 _atom_site_symmetry_multiplicity
 _atom_site_fract_x
 _atom_site_fract_y
 _atom_site_fract_z
 _atom_site_occupancy
  Ba  Ba0  1  0.85086605  0.85086605  -0.14913395  1.0
  Ba  Ba1  1  1.14913395  1.14913395  0.14913395  1.0
  Na  Na2  1  0.66577597  0.66577597  -0.33422403  1.0
  Na  Na3  1  1.33422403  1.33422403  0.33422403  1.0
  Li  Li4  1  0.78569700  0.59526032  -0.72308192  1.0
  Li  Li5  1  0.40473968  0.72308192  -0.78569700  1.0
  Li  Li6  1  0.72308192  0.21430300  -0.59526032  1.0
  Li  Li7  1  0.21430300  0.40473968  -0.27691808  1.0
  Li  Li8  1  0.59526032  0.27691808  -0.21430300  1.0
  Li  Li9  1  0.27691808  0.78569700  -0.40473968  1.0
  B  B10  1  0.69276823  -0.51550229  0.06802100  1.0
  B  B11  1  0.51550229  0.93197900  -0.69276823  1.0
  B  B12  1  0.93197900  0.30723177  -0.48449771  1.0
  B  B13  1  0.30723177  0.51550229  -0.06802100  1.0
  B  B14  1  0.48449771  0.06802100  -0.30723177  1.0
  B  B15  1  1.06802100  -0.30723177  -0.51550229  1.0
  B  B16  1  1.68705912  1.16539256  0.13520117  1.0
  B  B17  1  0.83460744  -0.13520117  0.31294088  1.0
  B  B18  1  0.86479883  0.31294088  -0.16539256  1.0
  B  B19  1  1.31294088  -0.16539256  -0.13520117  1.0
  B  B20  1  1.16539256  1.13520117  0.68705912  1.0
  B  B21  1  1.13520117  1.68705912  0.16539256  1.0
  O  O22  1  0.94549068  -0.24139334  0.18480823  1.0
  O  O23  1  0.24139334  0.81519177  -0.94549068  1.0
  O  O24  1  0.81519177  0.05450932  -0.75860666  1.0
  O  O25  1  0.05450932  0.24139334  -0.18480823  1.0
  O  O26  1  0.75860666  0.18480823  -0.05450932  1.0
  O  O27  1  1.18480823  -0.05450932  -0.24139334  1.0
  O  O28  1  0.65229872  -0.36623850  0.11788392  1.0
  O  O29  1  0.36623850  0.88211608  -0.65229872  1.0
  O  O30  1  0.88211608  0.34770128  -0.63376150  1.0
  O  O31  1  0.34770128  0.36623850  -0.11788392  1.0
  O  O32  1  0.63376150  0.11788392  -0.34770128  1.0
  O  O33  1  1.11788392  -0.34770128  -0.36623850  1.0
  O  O34  1  0.37429078  0.65933429  -0.17982920  1.0
  O  O35  1  0.34066571  0.17982920  -0.37429078  1.0
  O  O36  1  0.17982920  0.62570922  -0.65933429  1.0
  O  O37  1  0.62570922  0.34066571  -0.82017080  1.0
  O  O38  1  0.65933429  0.82017080  -0.62570922  1.0
  O  O39  1  0.82017080  0.37429078  -0.34066571  1.0
  O  O40  1  0.47176893  0.90273760  -0.19433140  1.0
  O  O41  1  1.09726240  1.19433140  0.52823107  1.0
  O  O42  1  1.19433140  1.52823107  0.09726240  1.0
  O  O43  1  1.52823107  1.09726240  0.19433140  1.0
  O  O44  1  0.90273760  0.80566860  -0.52823107  1.0
  O  O45  1  0.80566860  0.47176893  -0.09726240  1.0
