# generated using pymatgen
data_NaZn13
_symmetry_space_group_name_H-M   'P 1'
_cell_length_a   8.67986465
_cell_length_b   8.67986465
_cell_length_c   8.67986465
_cell_angle_alpha   60.00000000
_cell_angle_beta   60.00000000
_cell_angle_gamma   60.00000000
_symmetry_Int_Tables_number   1
_chemical_formula_structural   NaZn13
_chemical_formula_sum   'Na2 Zn26'
_cell_volume   462.40642579
_cell_formula_units_Z   2
loop_
 _symmetry_equiv_pos_site_id
 _symmetry_equiv_pos_as_xyz
  1  'x, y, z'
loop_
 _atom_site_type_symbol
 _atom_site_label
 _atom_site_symmetry_multiplicity
 _atom_site_fract_x
 _atom_site_fract_y
 _atom_site_fract_z
 _atom_site_occupancy
  Na  Na0  1  0.25000000  0.25000000  0.25000000  1.0
  Na  Na1  1  0.75000000  -0.25000000  0.75000000  1.0
  Zn  Zn2  1  1.19960571  -0.56078517  0.56078517  1.0
  Zn  Zn3  1  0.56078517  -0.19960571  1.19960571  1.0
  Zn  Zn4  1  0.69960571  0.06078517  0.93921483  1.0
  Zn  Zn5  1  0.93921483  -0.69960571  0.69960571  1.0
  Zn  Zn6  1  0.43921483  0.19960571  -0.19960571  1.0
  Zn  Zn7  1  -0.19960571  0.56078517  0.43921483  1.0
  Zn  Zn8  1  0.06078517  0.69960571  0.30039429  1.0
  Zn  Zn9  1  0.30039429  -0.06078517  0.06078517  1.0
  Zn  Zn10  1  -0.06078517  0.69960571  0.06078517  1.0
  Zn  Zn11  1  -0.69960571  1.06078517  0.69960571  1.0
  Zn  Zn12  1  0.43921483  0.56078517  0.19960571  1.0
  Zn  Zn13  1  0.80039429  0.19960571  0.56078517  1.0
  Zn  Zn14  1  -0.43921483  1.19960571  0.43921483  1.0
  Zn  Zn15  1  -0.19960571  0.43921483  0.19960571  1.0
  Zn  Zn16  1  1.06078517  -0.06078517  0.69960571  1.0
  Zn  Zn17  1  0.30039429  0.69960571  -0.06078517  1.0
  Zn  Zn18  1  -0.30039429  0.93921483  0.30039429  1.0
  Zn  Zn19  1  0.06078517  0.30039429  -0.06078517  1.0
  Zn  Zn20  1  0.19960571  0.80039429  0.43921483  1.0
  Zn  Zn21  1  0.56078517  0.43921483  0.80039429  1.0
  Zn  Zn22  1  0.19960571  0.56078517  -0.19960571  1.0
  Zn  Zn23  1  -0.56078517  0.80039429  0.56078517  1.0
  Zn  Zn24  1  0.69960571  0.30039429  1.06078517  1.0
  Zn  Zn25  1  -0.06078517  1.06078517  0.30039429  1.0
  Zn  Zn26  1  0.50000000  0.50000000  -0.50000000  1.0
  Zn  Zn27  1  0.00000000  1.00000000  -0.00000000  1.0
