# generated using pymatgen
data_Y4OsBr4
_symmetry_space_group_name_H-M   'P 1'
_cell_length_a   8.97820298
_cell_length_b   8.97820298
_cell_length_c   6.57095566
_cell_angle_alpha   89.44208341
_cell_angle_beta   90.55791659
_cell_angle_gamma   90.75988989
_symmetry_Int_Tables_number   1
_chemical_formula_structural   Y4OsBr4
_chemical_formula_sum   'Y8 Os2 Br8'
_cell_volume   529.57629515
_cell_formula_units_Z   2
loop_
 _symmetry_equiv_pos_site_id
 _symmetry_equiv_pos_as_xyz
  1  'x, y, z'
loop_
 _atom_site_type_symbol
 _atom_site_label
 _atom_site_symmetry_multiplicity
 _atom_site_fract_x
 _atom_site_fract_y
 _atom_site_fract_z
 _atom_site_occupancy
  Y  Y0  1  1.75197598  0.09714076  0.99090765  1.0
  Y  Y1  1  0.90285924  -0.75197598  0.49090765  1.0
  Y  Y2  1  1.09714076  0.75197598  0.50909235  1.0
  Y  Y3  1  0.24802402  -0.09714076  0.00909235  1.0
  Y  Y4  1  1.24939744  0.09942148  0.48987539  1.0
  Y  Y5  1  0.90057852  -0.24939744  0.98987539  1.0
  Y  Y6  1  1.09942148  0.24939744  0.01012461  1.0
  Y  Y7  1  0.75060256  -0.09942148  0.51012461  1.0
  Os  Os8  1  0.99527616  -0.00472384  0.25000000  1.0
  Os  Os9  1  1.00472384  0.00472384  0.75000000  1.0
  Br  Br10  1  0.41362850  -0.18848919  0.40759143  1.0
  Br  Br11  1  1.18848919  0.58637150  0.90759143  1.0
  Br  Br12  1  0.81151081  -0.58637150  0.09240857  1.0
  Br  Br13  1  1.58637150  0.18848919  0.59240857  1.0
  Br  Br14  1  1.41891336  0.18326088  0.09007580  1.0
  Br  Br15  1  0.81673912  -0.41891336  0.59007580  1.0
  Br  Br16  1  1.18326088  0.41891336  0.40992420  1.0
  Br  Br17  1  0.58108664  -0.18326088  0.90992420  1.0
