# generated using pymatgen
data_Lu2Te5O13
_symmetry_space_group_name_H-M   'P 1'
_cell_length_a   10.66927815
_cell_length_b   8.78057747
_cell_length_c   6.94925396
_cell_angle_alpha   74.98896460
_cell_angle_beta   87.53288254
_cell_angle_gamma   88.53468781
_symmetry_Int_Tables_number   1
_chemical_formula_structural   Lu2Te5O13
_chemical_formula_sum   'Lu4 Te10 O26'
_cell_volume   628.15439806
_cell_formula_units_Z   2
loop_
 _symmetry_equiv_pos_site_id
 _symmetry_equiv_pos_as_xyz
  1  'x, y, z'
loop_
 _atom_site_type_symbol
 _atom_site_label
 _atom_site_symmetry_multiplicity
 _atom_site_fract_x
 _atom_site_fract_y
 _atom_site_fract_z
 _atom_site_occupancy
  Lu  Lu0  1  -0.74139039  -0.74552889  -1.01066634  1.0
  Lu  Lu1  1  -0.25860961  -0.25447111  0.01066634  1.0
  Lu  Lu2  1  -0.68209626  -0.53428138  -0.55503487  1.0
  Lu  Lu3  1  -0.31790374  -0.46571862  -0.44496513  1.0
  Te  Te4  1  -0.40401308  -0.64541835  -0.86528100  1.0
  Te  Te5  1  -0.59598692  -0.35458165  -0.13471900  1.0
  Te  Te6  1  -0.85932973  -0.20209124  -0.84897971  1.0
  Te  Te7  1  -0.14067027  -0.79790876  -0.15102029  1.0
  Te  Te8  1  -0.80376224  -0.90435652  -0.45409650  1.0
  Te  Te9  1  -0.19623776  -0.09564348  -0.54590350  1.0
  Te  Te10  1  -0.47242199  -0.87888404  -0.29412341  1.0
  Te  Te11  1  -0.52757801  -0.12111596  -0.70587659  1.0
  Te  Te12  1  -0.98052409  -0.40181279  -0.25954424  1.0
  Te  Te13  1  -0.01947591  -0.59818721  -0.74045576  1.0
  O  O14  1  -0.93510754  -0.64217846  -0.97921215  1.0
  O  O15  1  -0.06489246  -0.35782154  -0.02078785  1.0
  O  O16  1  -0.80924934  -0.98306305  -0.94350016  1.0
  O  O17  1  -0.19075066  -0.01693695  -0.05649984  1.0
  O  O18  1  -0.45963358  -0.18090149  -0.94426696  1.0
  O  O19  1  -0.54036642  -0.81909851  -0.05573304  1.0
  O  O20  1  -0.21758220  -0.72298192  -0.92397261  1.0
  O  O21  1  -0.78241780  -0.27701808  -0.07602739  1.0
  O  O22  1  -0.59242295  -0.51170147  -0.86650753  1.0
  O  O23  1  -0.40757705  -0.48829853  -0.13349247  1.0
  O  O24  1  -0.31686166  -0.49145945  -0.76256129  1.0
  O  O25  1  -0.68313834  -0.50854055  -0.23743871  1.0
  O  O26  1  -0.71791273  -0.26677695  -0.67181043  1.0
  O  O27  1  -0.28208727  -0.73322305  -0.32818957  1.0
  O  O28  1  -0.72262853  -0.76674753  -0.69003101  1.0
  O  O29  1  -0.27737147  -0.23325247  -0.30996899  1.0
  O  O30  1  -0.88204410  -0.48067496  -0.66758357  1.0
  O  O31  1  -0.11795590  -0.51932504  -0.33241643  1.0
  O  O32  1  -0.98400090  -0.80917722  -0.55573122  1.0
  O  O33  1  -0.01599910  -0.19082278  -0.44426878  1.0
  O  O34  1  -0.50104975  -0.67253442  -0.48564635  1.0
  O  O35  1  -0.49895025  -0.32746558  -0.51435365  1.0
  O  O36  1  -0.62333703  -0.99089075  -0.35775321  1.0
  O  O37  1  -0.37666297  -0.00910925  -0.64224679  1.0
  O  O38  1  -0.78931394  -0.73449644  -0.32328701  1.0
  O  O39  1  -0.21068606  -0.26550356  -0.67671299  1.0
