# generated using pymatgen
data_K4Ge(PS3)4
_symmetry_space_group_name_H-M   'P 1'
_cell_length_a   7.55143835
_cell_length_b   7.55143835
_cell_length_c   23.75945724
_cell_angle_alpha   80.49833733
_cell_angle_beta   99.50166267
_cell_angle_gamma   114.66065160
_symmetry_Int_Tables_number   1
_chemical_formula_structural   K4Ge(PS3)4
_chemical_formula_sum   'K8 Ge2 P8 S24'
_cell_volume   1207.38713932
_cell_formula_units_Z   2
loop_
 _symmetry_equiv_pos_site_id
 _symmetry_equiv_pos_as_xyz
  1  'x, y, z'
loop_
 _atom_site_type_symbol
 _atom_site_label
 _atom_site_symmetry_multiplicity
 _atom_site_fract_x
 _atom_site_fract_y
 _atom_site_fract_z
 _atom_site_occupancy
  K  K0  1  0.79432881  0.17166080  0.95626243  1.0
  K  K1  1  0.82833920  0.20567119  0.45626243  1.0
  K  K2  1  1.17166080  -0.20567119  0.54373757  1.0
  K  K3  1  1.20567119  -0.17166080  0.04373757  1.0
  K  K4  1  0.52450004  0.31465463  0.67861124  1.0
  K  K5  1  0.68534537  0.47549996  0.17861124  1.0
  K  K6  1  1.31465463  -0.47549996  0.82138876  1.0
  K  K7  1  1.47549996  -0.31465463  0.32138876  1.0
  Ge  Ge8  1  0.96077779  0.96077779  0.75000000  1.0
  Ge  Ge9  1  0.03922221  0.03922221  0.25000000  1.0
  P  P10  1  1.69342796  -0.10599137  0.62562303  1.0
  P  P11  1  1.10599137  -0.69342796  0.12562303  1.0
  P  P12  1  0.89400863  0.69342796  0.87437697  1.0
  P  P13  1  0.30657204  0.10599137  0.37437697  1.0
  P  P14  1  1.21029525  -0.07869474  0.88301111  1.0
  P  P15  1  1.07869474  -0.21029525  0.38301111  1.0
  P  P16  1  0.92130526  0.21029525  0.61698889  1.0
  P  P17  1  0.78970475  0.07869474  0.11698889  1.0
  S  S18  1  1.76533257  -0.11984582  0.82000393  1.0
  S  S19  1  1.11984582  -0.76533257  0.32000393  1.0
  S  S20  1  0.88015418  0.76533257  0.67999607  1.0
  S  S21  1  0.23466743  0.11984582  0.17999607  1.0
  S  S22  1  1.63261653  -0.20805466  0.55016280  1.0
  S  S23  1  1.20805466  -0.63261653  0.05016280  1.0
  S  S24  1  0.79194534  0.63261653  0.94983720  1.0
  S  S25  1  0.36738347  0.20805466  0.44983720  1.0
  S  S26  1  1.47331975  -0.13402311  0.66790706  1.0
  S  S27  1  1.13402311  -0.47331975  0.16790706  1.0
  S  S28  1  0.86597689  0.47331975  0.83209294  1.0
  S  S29  1  0.52668025  0.13402311  0.33209294  1.0
  S  S30  1  1.38352762  -0.21223035  0.92181064  1.0
  S  S31  1  1.21223035  -0.38352762  0.42181064  1.0
  S  S32  1  0.78776965  0.38352762  0.57818936  1.0
  S  S33  1  0.61647238  0.21223035  0.07818936  1.0
  S  S34  1  1.26048357  -0.01558091  0.79212971  1.0
  S  S35  1  1.01558091  -0.26048357  0.29212971  1.0
  S  S36  1  0.98441909  0.26048357  0.70787029  1.0
  S  S37  1  0.73951643  0.01558091  0.20787029  1.0
  S  S38  1  0.22643938  0.15095953  0.91740531  1.0
  S  S39  1  0.84904047  0.77356062  0.41740531  1.0
  S  S40  1  1.15095953  -0.77356062  0.58259469  1.0
  S  S41  1  1.77356062  -0.15095953  0.08259469  1.0
