# generated using pymatgen
data_KBCF6
_symmetry_space_group_name_H-M   'P 1'
_cell_length_a   4.96343672
_cell_length_b   16.81226944
_cell_length_c   6.45985759
_cell_angle_alpha   90.00000000
_cell_angle_beta   101.87269950
_cell_angle_gamma   90.00000000
_symmetry_Int_Tables_number   1
_chemical_formula_structural   KBCF6
_chemical_formula_sum   'K4 B4 C4 F24'
_cell_volume   527.52148054
_cell_formula_units_Z   4
loop_
 _symmetry_equiv_pos_site_id
 _symmetry_equiv_pos_as_xyz
  1  'x, y, z'
loop_
 _atom_site_type_symbol
 _atom_site_label
 _atom_site_symmetry_multiplicity
 _atom_site_fract_x
 _atom_site_fract_y
 _atom_site_fract_z
 _atom_site_occupancy
  K  K0  1  0.80704887  0.65741001  0.27581539  1.0
  K  K1  1  0.80704887  0.84258999  0.77581539  1.0
  K  K2  1  0.19295113  0.15741001  0.22418461  1.0
  K  K3  1  0.19295113  0.34258999  0.72418461  1.0
  B  B4  1  0.72500255  0.33914615  0.15571015  1.0
  B  B5  1  0.72500255  0.16085385  0.65571015  1.0
  B  B6  1  0.27499745  0.83914615  0.34428985  1.0
  B  B7  1  0.27499745  0.66085385  0.84428985  1.0
  C  C8  1  0.62336200  0.41749511  0.27250773  1.0
  C  C9  1  0.62336200  0.08250489  0.77250773  1.0
  C  C10  1  0.37663800  0.91749511  0.22749227  1.0
  C  C11  1  0.37663800  0.58250489  0.72749227  1.0
  F  F12  1  0.95903634  0.30482128  0.28966480  1.0
  F  F13  1  0.95903634  0.19517872  0.78966480  1.0
  F  F14  1  0.04096366  0.80482128  0.21033520  1.0
  F  F15  1  0.04096366  0.69517872  0.71033520  1.0
  F  F16  1  0.80406384  0.48090431  0.29241524  1.0
  F  F17  1  0.80406384  0.01909569  0.79241524  1.0
  F  F18  1  0.19593616  0.98090431  0.20758476  1.0
  F  F19  1  0.19593616  0.51909569  0.70758476  1.0
  F  F20  1  0.78774351  0.13785268  0.45998314  1.0
  F  F21  1  0.78774351  0.36214732  0.95998314  1.0
  F  F22  1  0.21225649  0.63785268  0.04001686  1.0
  F  F23  1  0.21225649  0.86214732  0.54001686  1.0
  F  F24  1  0.62654792  0.94661864  0.32963566  1.0
  F  F25  1  0.62654792  0.55338136  0.82963566  1.0
  F  F26  1  0.37345208  0.44661864  0.17036434  1.0
  F  F27  1  0.37345208  0.05338136  0.67036434  1.0
  F  F28  1  0.59537388  0.40125988  0.47893595  1.0
  F  F29  1  0.59537388  0.09874012  0.97893595  1.0
  F  F30  1  0.40462612  0.90125988  0.02106405  1.0
  F  F31  1  0.40462612  0.59874012  0.52106405  1.0
  F  F32  1  0.50622255  0.28280463  0.11441811  1.0
  F  F33  1  0.50622255  0.21719537  0.61441811  1.0
  F  F34  1  0.49377745  0.78280463  0.38558189  1.0
  F  F35  1  0.49377745  0.71719537  0.88558189  1.0
