# generated using pymatgen
data_K3VSO3
_symmetry_space_group_name_H-M   'P 1'
_cell_length_a   6.79076251
_cell_length_b   5.95933449
_cell_length_c   8.81970736
_cell_angle_alpha   90.00000000
_cell_angle_beta   103.59525639
_cell_angle_gamma   90.00000000
_symmetry_Int_Tables_number   1
_chemical_formula_structural   K3VSO3
_chemical_formula_sum   'K6 V2 S2 O6'
_cell_volume   346.91894464
_cell_formula_units_Z   2
loop_
 _symmetry_equiv_pos_site_id
 _symmetry_equiv_pos_as_xyz
  1  'x, y, z'
loop_
 _atom_site_type_symbol
 _atom_site_label
 _atom_site_symmetry_multiplicity
 _atom_site_fract_x
 _atom_site_fract_y
 _atom_site_fract_z
 _atom_site_occupancy
  K  K0  1  0.76739836  0.25000000  0.27650892  1.0
  K  K1  1  0.23260164  0.75000000  0.72349108  1.0
  K  K2  1  0.30603979  0.25000000  0.47030237  1.0
  K  K3  1  0.69396021  0.75000000  0.52969763  1.0
  K  K4  1  0.22952210  0.25000000  1.00688508  1.0
  K  K5  1  0.77047790  0.75000000  -0.00688508  1.0
  V  V6  1  0.70069723  0.25000000  0.78812349  1.0
  V  V7  1  0.29930277  0.75000000  0.21187651  1.0
  S  S8  1  0.94744312  0.25000000  0.65580132  1.0
  S  S9  1  0.05255688  0.75000000  0.34419868  1.0
  O  O10  1  0.55514097  0.48251317  0.73697078  1.0
  O  O11  1  0.55514097  0.01748683  0.73697078  1.0
  O  O12  1  0.44485903  0.98251317  0.26302922  1.0
  O  O13  1  0.44485903  0.51748683  0.26302922  1.0
  O  O14  1  0.80831536  0.25000000  0.98312952  1.0
  O  O15  1  0.19168464  0.75000000  0.01687048  1.0
