# generated using pymatgen
data_TaNiTe2
_symmetry_space_group_name_H-M   'P 1'
_cell_length_a   7.98788374
_cell_length_b   6.27341392
_cell_length_c   7.68647795
_cell_angle_alpha   90.00000000
_cell_angle_beta   90.00000000
_cell_angle_gamma   90.00000000
_symmetry_Int_Tables_number   1
_chemical_formula_structural   TaNiTe2
_chemical_formula_sum   'Ta4 Ni4 Te8'
_cell_volume   385.17941052
_cell_formula_units_Z   4
loop_
 _symmetry_equiv_pos_site_id
 _symmetry_equiv_pos_as_xyz
  1  'x, y, z'
loop_
 _atom_site_type_symbol
 _atom_site_label
 _atom_site_symmetry_multiplicity
 _atom_site_fract_x
 _atom_site_fract_y
 _atom_site_fract_z
 _atom_site_occupancy
  Ta  Ta0  1  0.95765158  0.24999221  0.31995837  1.0
  Ta  Ta1  1  0.45765158  0.75000779  0.31995837  1.0
  Ta  Ta2  1  0.04234842  0.75000779  0.31995837  1.0
  Ta  Ta3  1  0.54234842  0.24999221  0.31995837  1.0
  Ni  Ni4  1  0.25000000  0.10593633  0.20793538  1.0
  Ni  Ni5  1  0.75000000  0.89406367  0.20793538  1.0
  Ni  Ni6  1  0.25000000  0.39410830  0.43195453  1.0
  Ni  Ni7  1  0.75000000  0.60589170  0.43195453  1.0
  Te  Te8  1  0.25000000  0.99466563  0.53666483  1.0
  Te  Te9  1  0.75000000  0.00533437  0.53666483  1.0
  Te  Te10  1  0.25000000  0.50538042  0.10323610  1.0
  Te  Te11  1  0.75000000  0.49461958  0.10323610  1.0
  Te  Te12  1  0.50000000  0.50000000  0.62679940  1.0
  Te  Te13  1  0.00000000  0.50000000  0.62679940  1.0
  Te  Te14  1  0.50000000  0.00000000  0.01309302  1.0
  Te  Te15  1  0.00000000  0.00000000  0.01309302  1.0
