# generated using pymatgen
data_OF2
_symmetry_space_group_name_H-M   'P 1'
_cell_length_a   8.56218597
_cell_length_b   3.59771045
_cell_length_c   7.83019544
_cell_angle_alpha   90.00000000
_cell_angle_beta   90.00000000
_cell_angle_gamma   90.00000000
_symmetry_Int_Tables_number   1
_chemical_formula_structural   OF2
_chemical_formula_sum   'O4 F8'
_cell_volume   241.20342269
_cell_formula_units_Z   4
loop_
 _symmetry_equiv_pos_site_id
 _symmetry_equiv_pos_as_xyz
  1  'x, y, z'
loop_
 _atom_site_type_symbol
 _atom_site_label
 _atom_site_symmetry_multiplicity
 _atom_site_fract_x
 _atom_site_fract_y
 _atom_site_fract_z
 _atom_site_occupancy
  O  O0  1  0.05356810  0.75000000  0.66826190  1.0
  O  O1  1  0.55356810  0.75000000  0.83173810  1.0
  O  O2  1  0.94643190  0.25000000  0.33173810  1.0
  O  O3  1  0.44643190  0.25000000  0.16826190  1.0
  F  F4  1  0.58018593  0.75000000  0.65215361  1.0
  F  F5  1  1.08018593  0.75000000  0.84784639  1.0
  F  F6  1  0.41981407  0.25000000  0.34784639  1.0
  F  F7  1  -0.08018593  0.25000000  0.15215361  1.0
  F  F8  1  0.70603617  0.75000000  -0.09479484  1.0
  F  F9  1  0.20603617  0.75000000  0.59479484  1.0
  F  F10  1  0.29396383  0.25000000  1.09479484  1.0
  F  F11  1  0.79396383  0.25000000  0.40520516  1.0
