# generated using pymatgen
data_MoPb3Cl2O5
_symmetry_space_group_name_H-M   'P 1'
_cell_length_a   7.27559143
_cell_length_b   7.27559143
_cell_length_c   11.16924572
_cell_angle_alpha   90.00000000
_cell_angle_beta   90.00000000
_cell_angle_gamma   134.19156640
_symmetry_Int_Tables_number   1
_chemical_formula_structural   MoPb3Cl2O5
_chemical_formula_sum   'Mo2 Pb6 Cl4 O10'
_cell_volume   423.92361742
_cell_formula_units_Z   2
loop_
 _symmetry_equiv_pos_site_id
 _symmetry_equiv_pos_as_xyz
  1  'x, y, z'
loop_
 _atom_site_type_symbol
 _atom_site_label
 _atom_site_symmetry_multiplicity
 _atom_site_fract_x
 _atom_site_fract_y
 _atom_site_fract_z
 _atom_site_occupancy
  Mo  Mo0  1  0.23654912  0.76345088  0.75000000  1.0
  Mo  Mo1  1  -0.23654912  0.23654912  0.25000000  1.0
  Pb  Pb2  1  0.34619503  0.65380497  0.46647802  1.0
  Pb  Pb3  1  0.34619503  0.65380497  0.03352198  1.0
  Pb  Pb4  1  -0.34619503  0.34619503  0.96647802  1.0
  Pb  Pb5  1  -0.34619503  0.34619503  0.53352198  1.0
  Pb  Pb6  1  -0.09875103  0.09875103  0.75000000  1.0
  Pb  Pb7  1  0.09875103  0.90124897  0.25000000  1.0
  Cl  Cl8  1  0.48171038  0.51828962  0.75000000  1.0
  Cl  Cl9  1  -0.48171038  0.48171038  0.25000000  1.0
  Cl  Cl10  1  0.00000000  0.00000000  0.00000000  1.0
  Cl  Cl11  1  0.00000000  0.00000000  0.50000000  1.0
  O  O12  1  0.04085089  0.49463070  0.86839168  1.0
  O  O13  1  0.04085089  0.49463070  0.63160832  1.0
  O  O14  1  0.49463070  1.04085089  0.36839168  1.0
  O  O15  1  0.49463070  1.04085089  0.13160832  1.0
  O  O16  1  0.50536930  0.95914911  0.86839168  1.0
  O  O17  1  0.50536930  0.95914911  0.63160832  1.0
  O  O18  1  -0.04085089  0.50536930  0.36839168  1.0
  O  O19  1  -0.04085089  0.50536930  0.13160832  1.0
  O  O20  1  0.10922487  0.89077513  0.75000000  1.0
  O  O21  1  -0.10922487  0.10922487  0.25000000  1.0
