# generated using pymatgen
data_CoP2PbO7
_symmetry_space_group_name_H-M   'P 1'
_cell_length_a   5.42353156
_cell_length_b   8.36298151
_cell_length_c   14.17670258
_cell_angle_alpha   90.00000000
_cell_angle_beta   112.86125832
_cell_angle_gamma   90.00000000
_symmetry_Int_Tables_number   1
_chemical_formula_structural   CoP2PbO7
_chemical_formula_sum   'Co4 P8 Pb4 O28'
_cell_volume   592.50158131
_cell_formula_units_Z   4
loop_
 _symmetry_equiv_pos_site_id
 _symmetry_equiv_pos_as_xyz
  1  'x, y, z'
loop_
 _atom_site_type_symbol
 _atom_site_label
 _atom_site_symmetry_multiplicity
 _atom_site_fract_x
 _atom_site_fract_y
 _atom_site_fract_z
 _atom_site_occupancy
  Co  Co0  1  0.71492675  0.85028898  0.39625736  1.0
  Co  Co1  1  0.71492675  0.64971102  0.89625736  1.0
  Co  Co2  1  0.28507325  0.35028898  0.10374264  1.0
  Co  Co3  1  0.28507325  0.14971102  0.60374264  1.0
  P  P4  1  0.66732703  0.19986710  0.48025483  1.0
  P  P5  1  0.66732703  0.30013290  0.98025483  1.0
  P  P6  1  0.33267297  0.69986710  0.01974517  1.0
  P  P7  1  0.33267297  0.80013290  0.51974517  1.0
  P  P8  1  0.58203664  0.46512526  0.33291642  1.0
  P  P9  1  0.58203664  0.03487474  0.83291642  1.0
  P  P10  1  0.41796336  0.96512526  0.16708358  1.0
  P  P11  1  0.41796336  0.53487474  0.66708358  1.0
  Pb  Pb12  1  0.98831881  0.17270377  0.27807351  1.0
  Pb  Pb13  1  0.98831881  0.32729623  0.77807351  1.0
  Pb  Pb14  1  0.01168119  0.67270377  0.22192649  1.0
  Pb  Pb15  1  0.01168119  0.82729623  0.72192649  1.0
  O  O16  1  0.89600806  0.30947200  0.08720644  1.0
  O  O17  1  0.89600806  0.19052800  0.58720644  1.0
  O  O18  1  0.10399194  0.80947200  0.41279356  1.0
  O  O19  1  0.10399194  0.69052800  0.91279356  1.0
  O  O20  1  0.81286119  0.44262318  0.29702471  1.0
  O  O21  1  0.81286119  0.05737682  0.79702471  1.0
  O  O22  1  0.18713881  0.94262318  0.20297529  1.0
  O  O23  1  0.18713881  0.55737682  0.70297529  1.0
  O  O24  1  0.72480479  0.09454491  0.40076344  1.0
  O  O25  1  0.72480479  0.40545509  0.90076344  1.0
  O  O26  1  0.27519521  0.59454491  0.09923656  1.0
  O  O27  1  0.27519521  0.90545509  0.59923656  1.0
  O  O28  1  0.67393639  0.38537996  0.44568618  1.0
  O  O29  1  0.67393639  0.11462004  0.94568618  1.0
  O  O30  1  0.32606361  0.88537996  0.05431382  1.0
  O  O31  1  0.32606361  0.61462004  0.55431382  1.0
  O  O32  1  0.47857662  0.14143223  0.15339733  1.0
  O  O33  1  0.47857662  0.35856777  0.65339733  1.0
  O  O34  1  0.52142338  0.64143223  0.34660267  1.0
  O  O35  1  0.52142338  0.85856777  0.84660267  1.0
  O  O36  1  0.38500728  0.16924541  0.47823813  1.0
  O  O37  1  0.38500728  0.33075459  0.97823813  1.0
  O  O38  1  0.61499272  0.66924541  0.02176187  1.0
  O  O39  1  0.61499272  0.83075459  0.52176187  1.0
  O  O40  1  0.32100458  0.38200593  0.26127197  1.0
  O  O41  1  0.32100458  0.11799407  0.76127197  1.0
  O  O42  1  0.67899542  0.88200593  0.23872803  1.0
  O  O43  1  0.67899542  0.61799407  0.73872803  1.0
