# generated using pymatgen
data_La3In7Au4
_symmetry_space_group_name_H-M   'P 1'
_cell_length_a   8.62260687
_cell_length_b   3.36780028
_cell_length_c   14.60325981
_cell_angle_alpha   90.00000000
_cell_angle_beta   83.56072918
_cell_angle_gamma   90.00000000
_symmetry_Int_Tables_number   1
_chemical_formula_structural   La3In7Au4
_chemical_formula_sum   'La3 In7 Au4'
_cell_volume   421.39192251
_cell_formula_units_Z   1
loop_
 _symmetry_equiv_pos_site_id
 _symmetry_equiv_pos_as_xyz
  1  'x, y, z'
loop_
 _atom_site_type_symbol
 _atom_site_label
 _atom_site_symmetry_multiplicity
 _atom_site_fract_x
 _atom_site_fract_y
 _atom_site_fract_z
 _atom_site_occupancy
  La  La0  1  0.00000000  0.00000000  0.00000000  1.0
  La  La1  1  1.01263755  0.00000000  0.70885205  1.0
  La  La2  1  -0.01263755  0.00000000  0.29114795  1.0
  In  In3  1  0.50000000  0.00000000  -0.00000000  1.0
  In  In4  1  0.62224883  -0.00000000  0.70411650  1.0
  In  In5  1  0.37775117  0.00000000  0.29588350  1.0
  In  In6  1  0.68442250  0.00000000  0.16595214  1.0
  In  In7  1  0.31557750  0.00000000  0.83404786  1.0
  In  In8  1  0.82013499  0.00000000  0.52125494  1.0
  In  In9  1  0.17986501  0.00000000  0.47874506  1.0
  Au  Au10  1  0.65478413  0.00000000  0.37315545  1.0
  Au  Au11  1  0.34521587  -0.00000000  0.62684455  1.0
  Au  Au12  1  0.75916126  0.00000000  0.86942364  1.0
  Au  Au13  1  0.24083874  0.00000000  0.13057636  1.0
