# generated using pymatgen
data_K3P5RuSe10
_symmetry_space_group_name_H-M   'P 1'
_cell_length_a   11.38266933
_cell_length_b   7.40261704
_cell_length_c   12.83460634
_cell_angle_alpha   90.00000000
_cell_angle_beta   92.74494306
_cell_angle_gamma   90.00000000
_symmetry_Int_Tables_number   1
_chemical_formula_structural   K3P5RuSe10
_chemical_formula_sum   'K6 P10 Ru2 Se20'
_cell_volume   1080.22286810
_cell_formula_units_Z   2
loop_
 _symmetry_equiv_pos_site_id
 _symmetry_equiv_pos_as_xyz
  1  'x, y, z'
loop_
 _atom_site_type_symbol
 _atom_site_label
 _atom_site_symmetry_multiplicity
 _atom_site_fract_x
 _atom_site_fract_y
 _atom_site_fract_z
 _atom_site_occupancy
  K  K0  1  0.52918723  0.25000000  0.10787268  1.0
  K  K1  1  0.47081277  0.75000000  0.89212732  1.0
  K  K2  1  0.40741444  0.25000000  0.57445649  1.0
  K  K3  1  0.59258556  0.75000000  0.42554351  1.0
  K  K4  1  0.01925616  0.25000000  0.11735190  1.0
  K  K5  1  0.98074384  0.75000000  0.88264810  1.0
  P  P6  1  0.97586677  0.47974522  0.58282047  1.0
  P  P7  1  0.97586677  0.02025478  0.58282047  1.0
  P  P8  1  0.02413323  0.97974522  0.41717953  1.0
  P  P9  1  0.02413323  0.52025478  0.41717953  1.0
  P  P10  1  0.78133196  0.25000000  0.90483710  1.0
  P  P11  1  0.21866804  0.75000000  0.09516290  1.0
  P  P12  1  0.77746891  0.25000000  0.44454394  1.0
  P  P13  1  0.22253109  0.75000000  0.55545606  1.0
  P  P14  1  0.63891655  0.25000000  0.77429172  1.0
  P  P15  1  0.36108345  0.75000000  0.22570828  1.0
  Ru  Ru16  1  0.85003831  0.25000000  0.61414552  1.0
  Ru  Ru17  1  0.14996169  0.75000000  0.38585448  1.0
  Se  Se18  1  0.84071616  0.49096108  0.34166551  1.0
  Se  Se19  1  0.84071616  0.00903892  0.34166551  1.0
  Se  Se20  1  0.15928384  0.99096108  0.65833449  1.0
  Se  Se21  1  0.15928384  0.50903892  0.65833449  1.0
  Se  Se22  1  0.68712935  0.47619077  0.66873672  1.0
  Se  Se23  1  0.68712935  0.02380923  0.66873672  1.0
  Se  Se24  1  0.31287065  0.97619077  0.33126328  1.0
  Se  Se25  1  0.31287065  0.52380923  0.33126328  1.0
  Se  Se26  1  0.23600632  0.99700828  1.00538535  1.0
  Se  Se27  1  0.23600632  0.50299172  1.00538535  1.0
  Se  Se28  1  0.76399368  0.49700828  -0.00538535  1.0
  Se  Se29  1  0.76399368  0.00299172  -0.00538535  1.0
  Se  Se30  1  0.94145292  0.25000000  0.80679095  1.0
  Se  Se31  1  0.05854708  0.75000000  0.19320905  1.0
  Se  Se32  1  0.59430802  0.25000000  0.38348371  1.0
  Se  Se33  1  0.40569198  0.75000000  0.61651629  1.0
  Se  Se34  1  0.46634230  0.25000000  0.83680188  1.0
  Se  Se35  1  0.53365770  0.75000000  0.16319812  1.0
  Se  Se36  1  0.12090778  0.25000000  0.37875601  1.0
  Se  Se37  1  0.87909222  0.75000000  0.62124399  1.0
