# generated using pymatgen
data_KNa4GeAs3
_symmetry_space_group_name_H-M   'P 1'
_cell_length_a   15.28903513
_cell_length_b   4.81886149
_cell_length_c   13.24617337
_cell_angle_alpha   90.00000000
_cell_angle_beta   90.00000000
_cell_angle_gamma   90.00000000
_symmetry_Int_Tables_number   1
_chemical_formula_structural   KNa4GeAs3
_chemical_formula_sum   'K4 Na16 Ge4 As12'
_cell_volume   975.92166028
_cell_formula_units_Z   4
loop_
 _symmetry_equiv_pos_site_id
 _symmetry_equiv_pos_as_xyz
  1  'x, y, z'
loop_
 _atom_site_type_symbol
 _atom_site_label
 _atom_site_symmetry_multiplicity
 _atom_site_fract_x
 _atom_site_fract_y
 _atom_site_fract_z
 _atom_site_occupancy
  K  K0  1  0.48341552  0.75000000  0.12880193  1.0
  K  K1  1  0.98341552  0.75000000  0.37119807  1.0
  K  K2  1  0.51658448  0.25000000  0.87119807  1.0
  K  K3  1  0.01658448  0.25000000  0.62880193  1.0
  Na  Na4  1  0.41948049  0.75000000  0.69031944  1.0
  Na  Na5  1  0.91948049  0.75000000  0.80968056  1.0
  Na  Na6  1  0.58051951  0.25000000  0.30968056  1.0
  Na  Na7  1  0.08051951  0.25000000  0.19031944  1.0
  Na  Na8  1  0.24445800  0.75000000  0.26202756  1.0
  Na  Na9  1  0.74445800  0.75000000  0.23797244  1.0
  Na  Na10  1  0.75554200  0.25000000  0.73797244  1.0
  Na  Na11  1  0.25554200  0.25000000  0.76202756  1.0
  Na  Na12  1  0.21361679  0.75000000  0.55936880  1.0
  Na  Na13  1  0.71361679  0.75000000  0.94063120  1.0
  Na  Na14  1  0.78638321  0.25000000  0.44063120  1.0
  Na  Na15  1  0.28638321  0.25000000  0.05936880  1.0
  Na  Na16  1  0.93783098  0.75000000  0.07157073  1.0
  Na  Na17  1  0.43783098  0.75000000  0.42842927  1.0
  Na  Na18  1  0.06216902  0.25000000  0.92842927  1.0
  Na  Na19  1  0.56216902  0.25000000  0.57157073  1.0
  Ge  Ge20  1  0.20551354  0.75000000  0.91540093  1.0
  Ge  Ge21  1  0.70551354  0.75000000  0.58459907  1.0
  Ge  Ge22  1  0.79448646  0.25000000  0.08459907  1.0
  Ge  Ge23  1  0.29448646  0.25000000  0.41540093  1.0
  As  As24  1  0.36000755  0.75000000  0.90864143  1.0
  As  As25  1  0.86000755  0.75000000  0.59135857  1.0
  As  As26  1  0.63999245  0.25000000  0.09135857  1.0
  As  As27  1  0.13999245  0.25000000  0.40864143  1.0
  As  As28  1  0.13418325  0.75000000  0.07553701  1.0
  As  As29  1  0.63418325  0.75000000  0.42446299  1.0
  As  As30  1  0.86581675  0.25000000  0.92446299  1.0
  As  As31  1  0.36581675  0.25000000  0.57553701  1.0
  As  As32  1  0.11734430  0.75000000  0.76723601  1.0
  As  As33  1  0.61734430  0.75000000  0.73276399  1.0
  As  As34  1  0.88265570  0.25000000  0.23276399  1.0
  As  As35  1  0.38265570  0.25000000  0.26723601  1.0
