# generated using pymatgen
data_LiEuTiO4
_symmetry_space_group_name_H-M   'P 1'
_cell_length_a   11.95759850
_cell_length_b   5.34484426
_cell_length_c   5.29274701
_cell_angle_alpha   90.00000000
_cell_angle_beta   90.00000000
_cell_angle_gamma   90.00000000
_symmetry_Int_Tables_number   1
_chemical_formula_structural   LiEuTiO4
_chemical_formula_sum   'Li4 Eu4 Ti4 O16'
_cell_volume   338.26740934
_cell_formula_units_Z   4
loop_
 _symmetry_equiv_pos_site_id
 _symmetry_equiv_pos_as_xyz
  1  'x, y, z'
loop_
 _atom_site_type_symbol
 _atom_site_label
 _atom_site_symmetry_multiplicity
 _atom_site_fract_x
 _atom_site_fract_y
 _atom_site_fract_z
 _atom_site_occupancy
  Ti  Ti0  1  0.78879096  0.49460003  0.75000000  1.0
  Ti  Ti1  1  0.78879096  0.00539997  0.25000000  1.0
  Ti  Ti2  1  0.21120904  0.99460003  0.75000000  1.0
  Ti  Ti3  1  0.21120904  0.50539997  0.25000000  1.0
  O  O4  1  0.93820494  0.48425871  0.75000000  1.0
  O  O5  1  0.93820494  0.01574129  0.25000000  1.0
  O  O6  1  0.06179506  0.98425871  0.75000000  1.0
  O  O7  1  0.06179506  0.51574129  0.25000000  1.0
  O  O8  1  0.74090587  0.25000000  -0.00000000  1.0
  O  O9  1  0.74090587  0.25000000  0.50000000  1.0
  O  O10  1  0.25909413  0.75000000  0.00000000  1.0
  O  O11  1  0.25909413  0.75000000  0.50000000  1.0
  O  O12  1  0.24184121  0.25000000  0.00000000  1.0
  O  O13  1  0.24184121  0.25000000  0.50000000  1.0
  O  O14  1  0.75815879  0.75000000  -0.00000000  1.0
  O  O15  1  0.75815879  0.75000000  0.50000000  1.0
  O  O16  1  0.42644523  0.04363940  0.75000000  1.0
  O  O17  1  0.42644523  0.45636060  0.25000000  1.0
  O  O18  1  0.57355477  0.54363940  0.75000000  1.0
  O  O19  1  0.57355477  0.95636060  0.25000000  1.0
  Eu  Eu20  1  0.38441845  0.48349223  0.75000000  1.0
  Eu  Eu21  1  0.38441845  0.01650777  0.25000000  1.0
  Eu  Eu22  1  0.61558155  0.98349223  0.75000000  1.0
  Eu  Eu23  1  0.61558155  0.51650777  0.25000000  1.0
  Li  Li24  1  1.00687584  0.25000000  -0.00000000  1.0
  Li  Li25  1  1.00687584  0.25000000  0.50000000  1.0
  Li  Li26  1  -0.00687584  0.75000000  0.00000000  1.0
  Li  Li27  1  -0.00687584  0.75000000  0.50000000  1.0
