# generated using pymatgen
data_SrFe2Se2O
_symmetry_space_group_name_H-M   'P 1'
_cell_length_a   3.92589634
_cell_length_b   9.59079899
_cell_length_c   6.69951276
_cell_angle_alpha   90.00000000
_cell_angle_beta   90.00000000
_cell_angle_gamma   90.00000000
_symmetry_Int_Tables_number   1
_chemical_formula_structural   SrFe2Se2O
_chemical_formula_sum   'Sr2 Fe4 Se4 O2'
_cell_volume   252.25328785
_cell_formula_units_Z   2
loop_
 _symmetry_equiv_pos_site_id
 _symmetry_equiv_pos_as_xyz
  1  'x, y, z'
loop_
 _atom_site_type_symbol
 _atom_site_label
 _atom_site_symmetry_multiplicity
 _atom_site_fract_x
 _atom_site_fract_y
 _atom_site_fract_z
 _atom_site_occupancy
  Sr  Sr0  1  0.50000000  0.00000000  0.53878192  1.0
  Sr  Sr1  1  0.00000000  0.50000000  0.46121808  1.0
  Fe  Fe2  1  0.50000000  0.68181121  0.10904420  1.0
  Fe  Fe3  1  0.50000000  0.31818879  0.10904420  1.0
  Fe  Fe4  1  0.00000000  0.18181121  0.89095580  1.0
  Fe  Fe5  1  0.00000000  0.81818879  0.89095580  1.0
  Se  Se6  1  0.50000000  0.69458350  0.74098230  1.0
  Se  Se7  1  0.50000000  0.30541650  0.74098230  1.0
  Se  Se8  1  0.00000000  0.19458350  0.25901770  1.0
  Se  Se9  1  0.00000000  0.80541650  0.25901770  1.0
  O  O10  1  0.50000000  0.50000000  0.23250642  1.0
  O  O11  1  0.00000000  0.00000000  0.76749358  1.0
