# generated using pymatgen
data_V2CoO6
_symmetry_space_group_name_H-M   'P 1'
_cell_length_a   5.28688413
_cell_length_b   5.28688413
_cell_length_c   6.91112007
_cell_angle_alpha   79.49326930
_cell_angle_beta   100.50673070
_cell_angle_gamma   141.11486077
_symmetry_Int_Tables_number   1
_chemical_formula_structural   V2CoO6
_chemical_formula_sum   'V2 Co1 O6'
_cell_volume   118.97795486
_cell_formula_units_Z   1
loop_
 _symmetry_equiv_pos_site_id
 _symmetry_equiv_pos_as_xyz
  1  'x, y, z'
loop_
 _atom_site_type_symbol
 _atom_site_label
 _atom_site_symmetry_multiplicity
 _atom_site_fract_x
 _atom_site_fract_y
 _atom_site_fract_z
 _atom_site_occupancy
  V  V0  1  0.75659537  0.24340463  0.81024611  1.0
  V  V1  1  0.24340463  -0.24340463  0.18975389  1.0
  Co  Co2  1  0.00000000  -0.00000000  0.50000000  1.0
  O  O3  1  0.88437954  0.11562046  0.68419828  1.0
  O  O4  1  0.11562046  -0.11562046  0.31580172  1.0
  O  O5  1  0.60827152  0.39172848  0.64696623  1.0
  O  O6  1  0.39172848  -0.39172848  0.35303377  1.0
  O  O7  1  0.27482174  -0.27482174  0.90434325  1.0
  O  O8  1  0.72517826  0.27482174  0.09565675  1.0
