# generated using pymatgen
data_HN2
_symmetry_space_group_name_H-M   'P 1'
_cell_length_a   3.67371853
_cell_length_b   4.91207954
_cell_length_c   4.51536217
_cell_angle_alpha   57.67112303
_cell_angle_beta   56.06402202
_cell_angle_gamma   62.83991919
_symmetry_Int_Tables_number   1
_chemical_formula_structural   HN2
_chemical_formula_sum   'H2 N4'
_cell_volume   55.65556311
_cell_formula_units_Z   2
loop_
 _symmetry_equiv_pos_site_id
 _symmetry_equiv_pos_as_xyz
  1  'x, y, z'
loop_
 _atom_site_type_symbol
 _atom_site_label
 _atom_site_symmetry_multiplicity
 _atom_site_fract_x
 _atom_site_fract_y
 _atom_site_fract_z
 _atom_site_occupancy
  H  H0  1  -0.17643211  -0.14870176  -0.66626460  1.0
  H  H1  1  -0.82356789  -0.85129824  -0.33373540  1.0
  N  N2  1  -0.08231264  -0.64599809  -0.35918758  1.0
  N  N3  1  -0.91768736  -0.35400191  -0.64081242  1.0
  N  N4  1  -0.39218110  -0.64326948  -1.00310337  1.0
  N  N5  1  -0.60781890  -0.35673052  0.00310337  1.0
