# generated using pymatgen
data_Rb2SO4
_symmetry_space_group_name_H-M   'P 1'
_cell_length_a   6.18205023
_cell_length_b   6.18205023
_cell_length_c   8.19495561
_cell_angle_alpha   90.00000000
_cell_angle_beta   90.00000000
_cell_angle_gamma   120.00000000
_symmetry_Int_Tables_number   1
_chemical_formula_structural   Rb2SO4
_chemical_formula_sum   'Rb4 S2 O8'
_cell_volume   271.23285549
_cell_formula_units_Z   2
loop_
 _symmetry_equiv_pos_site_id
 _symmetry_equiv_pos_as_xyz
  1  'x, y, z'
loop_
 _atom_site_type_symbol
 _atom_site_label
 _atom_site_symmetry_multiplicity
 _atom_site_fract_x
 _atom_site_fract_y
 _atom_site_fract_z
 _atom_site_occupancy
  Rb  Rb0  1  0.33333333  0.66666667  0.20274806  1.0
  Rb  Rb1  1  0.66666667  0.33333333  0.79725194  1.0
  Rb  Rb2  1  0.00000000  0.00000000  0.50000000  1.0
  Rb  Rb3  1  0.00000000  0.00000000  0.00000000  1.0
  S  S4  1  0.33333333  0.66666667  0.71935878  1.0
  S  S5  1  0.66666667  0.33333333  0.28064122  1.0
  O  O6  1  0.40233150  0.20116575  0.21683313  1.0
  O  O7  1  0.20116575  0.40233150  0.78316687  1.0
  O  O8  1  0.20116575  0.79883425  0.78316687  1.0
  O  O9  1  0.79883425  0.20116575  0.21683313  1.0
  O  O10  1  0.79883425  0.59766850  0.21683313  1.0
  O  O11  1  0.59766850  0.79883425  0.78316687  1.0
  O  O12  1  0.33333333  0.66666667  0.53832836  1.0
  O  O13  1  0.66666667  0.33333333  0.46167164  1.0
