# generated using pymatgen
data_Tl2Ag3(PO4)3
_symmetry_space_group_name_H-M   'P 1'
_cell_length_a   9.40044876
_cell_length_b   9.40044876
_cell_length_c   6.88454579
_cell_angle_alpha   72.15526792
_cell_angle_beta   107.84473208
_cell_angle_gamma   88.44905124
_symmetry_Int_Tables_number   1
_chemical_formula_structural   Tl2Ag3(PO4)3
_chemical_formula_sum   'Tl4 Ag6 P6 O24'
_cell_volume   546.31233170
_cell_formula_units_Z   2
loop_
 _symmetry_equiv_pos_site_id
 _symmetry_equiv_pos_as_xyz
  1  'x, y, z'
loop_
 _atom_site_type_symbol
 _atom_site_label
 _atom_site_symmetry_multiplicity
 _atom_site_fract_x
 _atom_site_fract_y
 _atom_site_fract_z
 _atom_site_occupancy
  Tl  Tl0  1  1.42758638  -0.11933098  0.35114073  1.0
  Tl  Tl1  1  1.11933098  -0.42758638  0.85114073  1.0
  Tl  Tl2  1  0.88066902  0.42758638  0.14885927  1.0
  Tl  Tl3  1  0.57241362  0.11933098  0.64885927  1.0
  Ag  Ag4  1  0.78631464  0.78631464  0.25000000  1.0
  Ag  Ag5  1  0.21368536  0.21368536  0.75000000  1.0
  Ag  Ag6  1  0.51939117  0.51939117  0.25000000  1.0
  Ag  Ag7  1  0.48060883  0.48060883  0.75000000  1.0
  Ag  Ag8  1  0.00000000  -0.00000000  0.50000000  1.0
  Ag  Ag9  1  0.00000000  0.00000000  0.00000000  1.0
  P  P10  1  0.63197734  0.16347934  0.13140581  1.0
  P  P11  1  0.83652066  0.36802266  0.63140581  1.0
  P  P12  1  1.16347934  -0.36802266  0.36859419  1.0
  P  P13  1  1.36802266  -0.16347934  0.86859419  1.0
  P  P14  1  0.21960213  0.21960213  0.25000000  1.0
  P  P15  1  0.78039787  0.78039787  0.75000000  1.0
  O  O16  1  0.78047001  0.06712649  0.17819610  1.0
  O  O17  1  0.93287351  0.21952999  0.67819610  1.0
  O  O18  1  1.06712649  -0.21952999  0.32180390  1.0
  O  O19  1  1.21952999  -0.06712649  0.82180390  1.0
  O  O20  1  1.48961323  -0.16885745  0.08828226  1.0
  O  O21  1  1.16885745  -0.48961323  0.58828226  1.0
  O  O22  1  0.83114255  0.48961323  0.41171774  1.0
  O  O23  1  0.51038677  0.16885745  0.91171774  1.0
  O  O24  1  0.55586159  0.10322803  0.30973520  1.0
  O  O25  1  0.89677197  0.44413841  0.80973520  1.0
  O  O26  1  1.10322803  -0.44413841  0.19026480  1.0
  O  O27  1  1.44413841  -0.10322803  0.69026480  1.0
  O  O28  1  0.65512574  0.33422603  0.10953471  1.0
  O  O29  1  0.66577397  0.34487426  0.60953471  1.0
  O  O30  1  1.33422603  -0.34487426  0.39046529  1.0
  O  O31  1  1.34487426  -0.33422603  0.89046529  1.0
  O  O32  1  0.23386907  0.05837632  0.22703091  1.0
  O  O33  1  0.94162368  0.76613093  0.72703091  1.0
  O  O34  1  1.05837632  -0.76613093  0.27296909  1.0
  O  O35  1  1.76613093  -0.05837632  0.77296909  1.0
  O  O36  1  0.33481828  0.23488959  0.45781186  1.0
  O  O37  1  0.76511041  0.66518172  0.95781186  1.0
  O  O38  1  1.23488959  -0.66518172  0.04218814  1.0
  O  O39  1  1.66518172  -0.23488959  0.54218814  1.0
