# generated using pymatgen
data_BaLaCuS3
_symmetry_space_group_name_H-M   'P 1'
_cell_length_a   11.36770085
_cell_length_b   4.25146374
_cell_length_c   11.89555643
_cell_angle_alpha   90.00000000
_cell_angle_beta   90.00000000
_cell_angle_gamma   90.00000000
_symmetry_Int_Tables_number   1
_chemical_formula_structural   BaLaCuS3
_chemical_formula_sum   'Ba4 La4 Cu4 S12'
_cell_volume   574.90472342
_cell_formula_units_Z   4
loop_
 _symmetry_equiv_pos_site_id
 _symmetry_equiv_pos_as_xyz
  1  'x, y, z'
loop_
 _atom_site_type_symbol
 _atom_site_label
 _atom_site_symmetry_multiplicity
 _atom_site_fract_x
 _atom_site_fract_y
 _atom_site_fract_z
 _atom_site_occupancy
  Ba  Ba0  1  0.81679935  0.75000000  0.00796792  1.0
  Ba  Ba1  1  0.31679935  0.75000000  0.49203208  1.0
  Ba  Ba2  1  0.18320065  0.25000000  0.99203208  1.0
  Ba  Ba3  1  0.68320065  0.25000000  0.50796792  1.0
  La  La4  1  0.98967798  0.75000000  0.68241194  1.0
  La  La5  1  0.48967798  0.75000000  0.81758806  1.0
  La  La6  1  0.01032202  0.25000000  0.31758806  1.0
  La  La7  1  0.51032202  0.25000000  0.18241194  1.0
  Cu  Cu8  1  0.74729450  0.75000000  0.29148858  1.0
  Cu  Cu9  1  0.24729450  0.75000000  0.20851142  1.0
  Cu  Cu10  1  0.25270550  0.25000000  0.70851142  1.0
  Cu  Cu11  1  0.75270550  0.25000000  0.79148858  1.0
  S  S12  1  0.72551481  0.75000000  0.70360006  1.0
  S  S13  1  0.22551481  0.75000000  0.79639994  1.0
  S  S14  1  0.27448519  0.25000000  0.29639994  1.0
  S  S15  1  0.77448519  0.25000000  0.20360006  1.0
  S  S16  1  0.88884718  0.75000000  0.43945487  1.0
  S  S17  1  0.38884718  0.75000000  0.06054513  1.0
  S  S18  1  0.11115282  0.25000000  0.56054513  1.0
  S  S19  1  0.61115282  0.25000000  0.93945487  1.0
  S  S20  1  0.55109129  0.75000000  0.34976553  1.0
  S  S21  1  0.05109129  0.75000000  0.15023447  1.0
  S  S22  1  0.44890871  0.25000000  0.65023447  1.0
  S  S23  1  0.94890871  0.25000000  0.84976553  1.0
