# generated using pymatgen
data_Fe4As3O16
_symmetry_space_group_name_H-M   'P 1'
_cell_length_a   7.71399679
_cell_length_b   7.71399679
_cell_length_c   7.71399679
_cell_angle_alpha   90.00000000
_cell_angle_beta   90.00000000
_cell_angle_gamma   90.00000000
_symmetry_Int_Tables_number   1
_chemical_formula_structural   Fe4As3O16
_chemical_formula_sum   'Fe4 As3 O16'
_cell_volume   459.02713655
_cell_formula_units_Z   1
loop_
 _symmetry_equiv_pos_site_id
 _symmetry_equiv_pos_as_xyz
  1  'x, y, z'
loop_
 _atom_site_type_symbol
 _atom_site_label
 _atom_site_symmetry_multiplicity
 _atom_site_fract_x
 _atom_site_fract_y
 _atom_site_fract_z
 _atom_site_occupancy
  Fe  Fe0  1  0.86777553  0.86777553  0.13222447  1.0
  Fe  Fe1  1  0.86777553  0.13222447  0.86777553  1.0
  Fe  Fe2  1  0.13222447  0.86777553  0.86777553  1.0
  Fe  Fe3  1  0.13222447  0.13222447  0.13222447  1.0
  As  As4  1  0.00000000  0.00000000  0.50000000  1.0
  As  As5  1  0.00000000  0.50000000  0.00000000  1.0
  As  As6  1  0.50000000  0.00000000  0.00000000  1.0
  O  O7  1  0.62674802  0.86724474  0.13275526  1.0
  O  O8  1  0.86724474  0.86724474  0.37325198  1.0
  O  O9  1  0.86724474  0.62674802  0.13275526  1.0
  O  O10  1  0.62674802  0.13275526  0.86724474  1.0
  O  O11  1  0.86724474  0.13275526  0.62674802  1.0
  O  O12  1  0.86724474  0.37325198  0.86724474  1.0
  O  O13  1  0.37325198  0.86724474  0.86724474  1.0
  O  O14  1  0.13275526  0.86724474  0.62674802  1.0
  O  O15  1  0.13275526  0.62674802  0.86724474  1.0
  O  O16  1  0.37325198  0.13275526  0.13275526  1.0
  O  O17  1  0.13275526  0.13275526  0.37325198  1.0
  O  O18  1  0.13275526  0.37325198  0.13275526  1.0
  O  O19  1  0.11366120  0.11366120  0.88633880  1.0
  O  O20  1  0.11366120  0.88633880  0.11366120  1.0
  O  O21  1  0.88633880  0.11366120  0.11366120  1.0
  O  O22  1  0.88633880  0.88633880  0.88633880  1.0
