# generated using pymatgen
data_Pb3(BrO)2
_symmetry_space_group_name_H-M   'P 1'
_cell_length_a   12.51651093
_cell_length_b   6.00739612
_cell_length_c   10.27447684
_cell_angle_alpha   90.00000000
_cell_angle_beta   90.00000000
_cell_angle_gamma   90.00000000
_symmetry_Int_Tables_number   1
_chemical_formula_structural   Pb3(BrO)2
_chemical_formula_sum   'Pb12 Br8 O8'
_cell_volume   772.55475590
_cell_formula_units_Z   4
loop_
 _symmetry_equiv_pos_site_id
 _symmetry_equiv_pos_as_xyz
  1  'x, y, z'
loop_
 _atom_site_type_symbol
 _atom_site_label
 _atom_site_symmetry_multiplicity
 _atom_site_fract_x
 _atom_site_fract_y
 _atom_site_fract_z
 _atom_site_occupancy
  Pb  Pb0  1  0.20464919  0.75000000  0.35720633  1.0
  Pb  Pb1  1  0.70464919  0.75000000  0.14279367  1.0
  Pb  Pb2  1  0.79535081  0.25000000  0.64279367  1.0
  Pb  Pb3  1  0.29535081  0.25000000  0.85720633  1.0
  Pb  Pb4  1  0.41933978  0.75000000  0.07045828  1.0
  Pb  Pb5  1  0.91933978  0.75000000  0.42954172  1.0
  Pb  Pb6  1  0.58066022  0.25000000  0.92954172  1.0
  Pb  Pb7  1  0.08066022  0.25000000  0.57045828  1.0
  Pb  Pb8  1  0.44834197  0.75000000  0.71605736  1.0
  Pb  Pb9  1  0.94834197  0.75000000  0.78394264  1.0
  Pb  Pb10  1  0.55165803  0.25000000  0.28394264  1.0
  Pb  Pb11  1  0.05165803  0.25000000  0.21605736  1.0
  Br  Br12  1  0.19331261  0.75000000  0.69300691  1.0
  Br  Br13  1  0.69331261  0.75000000  0.80699309  1.0
  Br  Br14  1  0.80668739  0.25000000  0.30699309  1.0
  Br  Br15  1  0.30668739  0.25000000  0.19300691  1.0
  Br  Br16  1  0.12395980  0.75000000  0.08159717  1.0
  Br  Br17  1  0.62395980  0.75000000  0.41840283  1.0
  Br  Br18  1  0.87604020  0.25000000  0.91840283  1.0
  Br  Br19  1  0.37604020  0.25000000  0.58159717  1.0
  O  O20  1  0.42709299  0.99632712  0.88721297  1.0
  O  O21  1  0.42709299  0.50367288  0.88721297  1.0
  O  O22  1  0.92709299  0.99632712  0.61278703  1.0
  O  O23  1  0.92709299  0.50367288  0.61278703  1.0
  O  O24  1  0.57290701  0.49632712  0.11278703  1.0
  O  O25  1  0.57290701  0.00367288  0.11278703  1.0
  O  O26  1  0.07290701  0.49632712  0.38721297  1.0
  O  O27  1  0.07290701  0.00367288  0.38721297  1.0
