# generated using pymatgen
data_CuPO3F
_symmetry_space_group_name_H-M   'P 1'
_cell_length_a   6.20735071
_cell_length_b   10.06446764
_cell_length_c   9.59346886
_cell_angle_alpha   62.69185836
_cell_angle_beta   74.22177048
_cell_angle_gamma   74.09279180
_symmetry_Int_Tables_number   1
_chemical_formula_structural   CuPO3F
_chemical_formula_sum   'Cu6 P6 O18 F6'
_cell_volume   504.60278742
_cell_formula_units_Z   6
loop_
 _symmetry_equiv_pos_site_id
 _symmetry_equiv_pos_as_xyz
  1  'x, y, z'
loop_
 _atom_site_type_symbol
 _atom_site_label
 _atom_site_symmetry_multiplicity
 _atom_site_fract_x
 _atom_site_fract_y
 _atom_site_fract_z
 _atom_site_occupancy
  P  P0  1  -0.92372283  -0.55166477  -0.28178006  1.0
  P  P1  1  -0.07627717  -0.44833523  -0.71821994  1.0
  P  P2  1  -0.55395523  -0.25353301  -0.03296142  1.0
  P  P3  1  -0.44604477  -0.74646699  -0.96703858  1.0
  P  P4  1  -0.73107996  -0.14485314  -0.46416026  1.0
  P  P5  1  -0.26892004  -0.85514686  -0.53583974  1.0
  O  O6  1  -0.50067068  -0.25424491  -0.43585105  1.0
  O  O7  1  -0.49932932  -0.74575509  -0.56414895  1.0
  O  O8  1  -0.06963984  -0.43818787  -0.88195905  1.0
  O  O9  1  -0.93036016  -0.56181213  -0.11804095  1.0
  O  O10  1  -0.31285131  -0.25079879  -0.13602529  1.0
  O  O11  1  -0.68714869  -0.74920121  -0.86397471  1.0
  O  O12  1  -0.26131392  -0.00651621  -0.53504306  1.0
  O  O13  1  -0.73868608  -0.99348379  -0.46495694  1.0
  O  O14  1  -0.56406864  -0.32046277  -0.85368747  1.0
  O  O15  1  -0.43593136  -0.67953723  -0.14631253  1.0
  O  O16  1  -0.69118058  -0.31391640  -0.09575026  1.0
  O  O17  1  -0.30881942  -0.68608360  -0.90424974  1.0
  O  O18  1  -0.93170649  -0.22526270  -0.34576036  1.0
  O  O19  1  -0.06829351  -0.77473730  -0.65423964  1.0
  O  O20  1  -0.13827420  -0.44555276  -0.35586700  1.0
  O  O21  1  -0.86172580  -0.55444724  -0.64413300  1.0
  O  O22  1  -0.70524169  -0.50404670  -0.39785644  1.0
  O  O23  1  -0.29475831  -0.49595330  -0.60214356  1.0
  Cu  Cu24  1  -0.22017872  -0.22083944  -0.40307622  1.0
  Cu  Cu25  1  -0.77982128  -0.77916056  -0.59692378  1.0
  Cu  Cu26  1  -0.44327762  -0.48970048  -0.33224889  1.0
  Cu  Cu27  1  -0.55672238  -0.51029952  -0.66775111  1.0
  Cu  Cu28  1  -0.00148878  -0.30169166  -0.10135624  1.0
  Cu  Cu29  1  -0.99851122  -0.69830834  -0.89864376  1.0
  F  F30  1  -0.93575963  -0.71237823  -0.26644278  1.0
  F  F31  1  -0.06424037  -0.28762177  -0.73355722  1.0
  F  F32  1  -0.76416550  -0.12180062  -0.63145986  1.0
  F  F33  1  -0.23583450  -0.87819938  -0.36854014  1.0
  F  F34  1  -0.33807207  -0.92048844  -0.92239913  1.0
  F  F35  1  -0.66192793  -0.07951156  -0.07760087  1.0
