# generated using pymatgen
data_AgF3
_symmetry_space_group_name_H-M   'P 1'
_cell_length_a   5.19682369
_cell_length_b   5.19682369
_cell_length_c   15.40055628
_cell_angle_alpha   90.00000000
_cell_angle_beta   90.00000000
_cell_angle_gamma   120.00000000
_symmetry_Int_Tables_number   1
_chemical_formula_structural   AgF3
_chemical_formula_sum   'Ag6 F18'
_cell_volume   360.19941726
_cell_formula_units_Z   6
loop_
 _symmetry_equiv_pos_site_id
 _symmetry_equiv_pos_as_xyz
  1  'x, y, z'
loop_
 _atom_site_type_symbol
 _atom_site_label
 _atom_site_symmetry_multiplicity
 _atom_site_fract_x
 _atom_site_fract_y
 _atom_site_fract_z
 _atom_site_occupancy
  Ag  Ag0  1  0.28843344  0.71156656  0.91666667  1.0
  Ag  Ag1  1  0.28843344  0.57686689  0.25000000  1.0
  Ag  Ag2  1  0.71156656  0.28843344  0.41666667  1.0
  Ag  Ag3  1  0.71156656  0.42313311  0.75000000  1.0
  Ag  Ag4  1  0.42313311  0.71156656  0.58333333  1.0
  Ag  Ag5  1  0.57686689  0.28843344  0.08333333  1.0
  F  F6  1  0.88468495  0.54810749  0.16413117  1.0
  F  F7  1  0.88468495  0.33657746  0.00253549  1.0
  F  F8  1  0.54810749  0.88468495  0.16920216  1.0
  F  F9  1  0.54810749  0.66342254  0.99746451  1.0
  F  F10  1  0.66342254  0.54810749  0.33586883  1.0
  F  F11  1  0.66342254  0.11531505  0.83079784  1.0
  F  F12  1  0.45189251  0.11531505  0.66920216  1.0
  F  F13  1  0.45189251  0.33657746  0.49746451  1.0
  F  F14  1  0.11531505  0.66342254  0.50253549  1.0
  F  F15  1  0.11531505  0.45189251  0.66413117  1.0
  F  F16  1  0.33657746  0.88468495  0.33079784  1.0
  F  F17  1  0.33657746  0.45189251  0.83586883  1.0
  F  F18  1  0.74536136  0.74536136  0.66666667  1.0
  F  F19  1  0.74536136  -0.00000000  0.50000000  1.0
  F  F20  1  0.00000000  0.74536136  0.83333333  1.0
  F  F21  1  -0.00000000  0.25463864  0.33333333  1.0
  F  F22  1  0.25463864  0.25463864  0.16666667  1.0
  F  F23  1  0.25463864  0.00000000  -0.00000000  1.0
