# generated using pymatgen
data_CsNa3P4(HO2)8
_symmetry_space_group_name_H-M   'P 1'
_cell_length_a   9.03738643
_cell_length_b   9.03738643
_cell_length_c   9.03738643
_cell_angle_alpha   128.42808207
_cell_angle_beta   71.75929106
_cell_angle_gamma   133.74721847
_symmetry_Int_Tables_number   1
_chemical_formula_structural   CsNa3P4(HO2)8
_chemical_formula_sum   'Cs1 Na3 P4 H8 O16'
_cell_volume   408.72886337
_cell_formula_units_Z   1
loop_
 _symmetry_equiv_pos_site_id
 _symmetry_equiv_pos_as_xyz
  1  'x, y, z'
loop_
 _atom_site_type_symbol
 _atom_site_label
 _atom_site_symmetry_multiplicity
 _atom_site_fract_x
 _atom_site_fract_y
 _atom_site_fract_z
 _atom_site_occupancy
  Cs  Cs0  1  0.16984323  0.66984323  0.50000000  1.0
  Na  Na1  1  0.00445069  0.00445069  0.00000000  1.0
  Na  Na2  1  0.73851702  0.95929617  0.77922085  1.0
  Na  Na3  1  1.18007533  0.95929617  0.22077915  1.0
  P  P4  1  0.58664696  0.99214758  1.20327410  1.0
  P  P5  1  0.78887347  0.99214758  0.40550061  1.0
  P  P6  1  0.58664696  0.38337286  0.59449939  1.0
  P  P7  1  0.78887347  1.38337286  0.79672590  1.0
  H  H8  1  0.34025359  0.69273236  0.84504504  1.0
  H  H9  1  0.84768733  0.69273236  0.35247878  1.0
  H  H10  1  0.34025359  0.49520855  0.64752122  1.0
  H  H11  1  0.84768733  1.49520855  1.15495496  1.0
  H  H12  1  0.48014670  1.24278505  1.04050453  1.0
  H  H13  1  1.20228052  1.24278505  0.76263835  1.0
  H  H14  1  0.48014670  0.43964217  0.23736165  1.0
  H  H15  1  1.20228052  1.43964217  0.95949547  1.0
  O  O16  1  0.86953138  1.26235366  0.60717772  1.0
  O  O17  1  0.65517594  0.26235366  0.39282228  1.0
  O  O18  1  0.58797272  0.88707316  0.29910044  1.0
  O  O19  1  0.58797272  1.28887229  0.70089956  1.0
  O  O20  1  0.36081274  0.80379407  1.10707981  1.0
  O  O21  1  0.69671427  0.80379407  0.44298134  1.0
  O  O22  1  0.36081274  0.25373293  0.55701866  1.0
  O  O23  1  0.69671427  1.25373293  0.89292019  1.0
  O  O24  1  0.36545167  0.65004169  0.71540999  1.0
  O  O25  1  0.93463170  0.65004169  0.28459001  1.0
  O  O26  1  1.12792331  1.25755130  0.87037201  1.0
  O  O27  1  0.38717929  0.25755130  0.12962799  1.0
  O  O28  1  0.75859540  1.05971158  1.09368506  1.0
  O  O29  1  0.96602652  1.05971158  0.30111618  1.0
  O  O30  1  0.75859540  0.66491035  0.69888382  1.0
  O  O31  1  0.96602652  1.66491035  0.90631494  1.0
