# generated using pymatgen
data_KAgF3
_symmetry_space_group_name_H-M   'P 1'
_cell_length_a   6.22494103
_cell_length_b   8.70863638
_cell_length_c   6.14789607
_cell_angle_alpha   90.00000000
_cell_angle_beta   90.00000000
_cell_angle_gamma   90.00000000
_symmetry_Int_Tables_number   1
_chemical_formula_structural   KAgF3
_chemical_formula_sum   'K4 Ag4 F12'
_cell_volume   333.28204442
_cell_formula_units_Z   4
loop_
 _symmetry_equiv_pos_site_id
 _symmetry_equiv_pos_as_xyz
  1  'x, y, z'
loop_
 _atom_site_type_symbol
 _atom_site_label
 _atom_site_symmetry_multiplicity
 _atom_site_fract_x
 _atom_site_fract_y
 _atom_site_fract_z
 _atom_site_occupancy
  K  K0  1  0.03022723  0.75000000  0.50535006  1.0
  K  K1  1  0.53022723  0.75000000  0.99464994  1.0
  K  K2  1  0.96977277  0.25000000  0.49464994  1.0
  K  K3  1  0.46977277  0.25000000  0.00535006  1.0
  Ag  Ag4  1  0.50000000  0.00000000  0.50000000  1.0
  Ag  Ag5  1  0.50000000  0.50000000  0.50000000  1.0
  Ag  Ag6  1  0.00000000  0.00000000  0.00000000  1.0
  Ag  Ag7  1  0.00000000  0.50000000  0.00000000  1.0
  F  F8  1  0.28749865  0.97129539  0.77618133  1.0
  F  F9  1  0.28749865  0.52870461  0.77618133  1.0
  F  F10  1  0.78749865  0.97129539  0.72381867  1.0
  F  F11  1  0.78749865  0.52870461  0.72381867  1.0
  F  F12  1  0.71250135  0.47129539  0.22381867  1.0
  F  F13  1  0.71250135  0.02870461  0.22381867  1.0
  F  F14  1  0.21250135  0.47129539  0.27618133  1.0
  F  F15  1  0.21250135  0.02870461  0.27618133  1.0
  F  F16  1  0.98744905  0.75000000  0.05464934  1.0
  F  F17  1  0.48744905  0.75000000  0.44535066  1.0
  F  F18  1  0.01255095  0.25000000  0.94535066  1.0
  F  F19  1  0.51255095  0.25000000  0.55464934  1.0
