# generated using pymatgen
data_Ca2GeN2
_symmetry_space_group_name_H-M   'P 1'
_cell_length_a   11.22982948
_cell_length_b   11.22982948
_cell_length_c   5.04889671
_cell_angle_alpha   90.00000000
_cell_angle_beta   90.00000000
_cell_angle_gamma   90.00000000
_symmetry_Int_Tables_number   1
_chemical_formula_structural   Ca2GeN2
_chemical_formula_sum   'Ca16 Ge8 N16'
_cell_volume   636.71166919
_cell_formula_units_Z   8
loop_
 _symmetry_equiv_pos_site_id
 _symmetry_equiv_pos_as_xyz
  1  'x, y, z'
loop_
 _atom_site_type_symbol
 _atom_site_label
 _atom_site_symmetry_multiplicity
 _atom_site_fract_x
 _atom_site_fract_y
 _atom_site_fract_z
 _atom_site_occupancy
  Ca  Ca0  1  0.14994448  0.52110360  0.00000000  1.0
  Ca  Ca1  1  0.64994448  0.97889640  0.00000000  1.0
  Ca  Ca2  1  0.47889640  0.14994448  0.50000000  1.0
  Ca  Ca3  1  0.97889640  0.35005552  0.50000000  1.0
  Ca  Ca4  1  0.85005552  0.47889640  0.00000000  1.0
  Ca  Ca5  1  0.35005552  0.02110360  0.00000000  1.0
  Ca  Ca6  1  0.52110360  0.85005552  0.50000000  1.0
  Ca  Ca7  1  0.02110360  0.64994448  0.50000000  1.0
  Ca  Ca8  1  0.07432961  0.86694225  0.00000000  1.0
  Ca  Ca9  1  0.57432961  0.63305775  0.00000000  1.0
  Ca  Ca10  1  0.13305775  0.07432961  0.50000000  1.0
  Ca  Ca11  1  0.63305775  0.42567039  0.50000000  1.0
  Ca  Ca12  1  0.92567039  0.13305775  0.00000000  1.0
  Ca  Ca13  1  0.42567039  0.36694225  0.00000000  1.0
  Ca  Ca14  1  0.86694225  0.92567039  0.50000000  1.0
  Ca  Ca15  1  0.36694225  0.57432961  0.50000000  1.0
  Ge  Ge16  1  0.34400222  0.75475850  0.00000000  1.0
  Ge  Ge17  1  0.84400222  0.74524150  0.00000000  1.0
  Ge  Ge18  1  0.24524150  0.34400222  0.50000000  1.0
  Ge  Ge19  1  0.74524150  0.15599778  0.50000000  1.0
  Ge  Ge20  1  0.65599778  0.24524150  0.00000000  1.0
  Ge  Ge21  1  0.15599778  0.25475850  0.00000000  1.0
  Ge  Ge22  1  0.75475850  0.65599778  0.50000000  1.0
  Ge  Ge23  1  0.25475850  0.84400222  0.50000000  1.0
  N  N24  1  0.49159364  0.83674081  0.00000000  1.0
  N  N25  1  0.99159364  0.66325919  0.00000000  1.0
  N  N26  1  0.16325919  0.49159364  0.50000000  1.0
  N  N27  1  0.66325919  0.00840636  0.50000000  1.0
  N  N28  1  0.50840636  0.16325919  0.00000000  1.0
  N  N29  1  0.00840636  0.33674081  0.00000000  1.0
  N  N30  1  0.83674081  0.50840636  0.50000000  1.0
  N  N31  1  0.33674081  0.99159364  0.50000000  1.0
  N  N32  1  0.36424802  0.58929372  0.00000000  1.0
  N  N33  1  0.86424802  0.91070628  0.00000000  1.0
  N  N34  1  0.41070628  0.36424802  0.50000000  1.0
  N  N35  1  0.91070628  0.13575198  0.50000000  1.0
  N  N36  1  0.63575198  0.41070628  0.00000000  1.0
  N  N37  1  0.13575198  0.08929372  0.00000000  1.0
  N  N38  1  0.58929372  0.63575198  0.50000000  1.0
  N  N39  1  0.08929372  0.86424802  0.50000000  1.0
