# generated using pymatgen
data_MnZn13
_symmetry_space_group_name_H-M   'P 1'
_cell_length_a   6.74714231
_cell_length_b   6.74714231
_cell_length_c   5.30145526
_cell_angle_alpha   79.16921204
_cell_angle_beta   100.83078796
_cell_angle_gamma   115.42571738
_symmetry_Int_Tables_number   1
_chemical_formula_structural   MnZn13
_chemical_formula_sum   'Mn1 Zn13'
_cell_volume   212.51445250
_cell_formula_units_Z   1
loop_
 _symmetry_equiv_pos_site_id
 _symmetry_equiv_pos_as_xyz
  1  'x, y, z'
loop_
 _atom_site_type_symbol
 _atom_site_label
 _atom_site_symmetry_multiplicity
 _atom_site_fract_x
 _atom_site_fract_y
 _atom_site_fract_z
 _atom_site_occupancy
  Mn  Mn0  1  0.00000000  0.00000000  0.00000000  1.0
  Zn  Zn1  1  0.58910939  -0.21074637  0.67152789  1.0
  Zn  Zn2  1  1.21074637  0.41089061  0.67152789  1.0
  Zn  Zn3  1  0.78925363  -0.41089061  0.32847211  1.0
  Zn  Zn4  1  1.41089061  0.21074637  0.32847211  1.0
  Zn  Zn5  1  1.34905478  0.00494831  0.81586902  1.0
  Zn  Zn6  1  0.99505169  -0.34905478  0.81586902  1.0
  Zn  Zn7  1  1.00494831  0.34905478  0.18413098  1.0
  Zn  Zn8  1  0.65094522  -0.00494831  0.18413098  1.0
  Zn  Zn9  1  0.77934157  -0.77934157  0.67675847  1.0
  Zn  Zn10  1  0.22065843  -0.22065843  0.32324153  1.0
  Zn  Zn11  1  0.59376467  -0.59376467  0.89284109  1.0
  Zn  Zn12  1  0.40623533  -0.40623533  0.10715891  1.0
  Zn  Zn13  1  -0.00000000  0.00000000  0.50000000  1.0
