# generated using pymatgen
data_NaFePO4
_symmetry_space_group_name_H-M   'P 1'
_cell_length_a   10.48783053
_cell_length_b   6.27029190
_cell_length_c   5.04350722
_cell_angle_alpha   90.00000000
_cell_angle_beta   90.00000000
_cell_angle_gamma   90.00000000
_symmetry_Int_Tables_number   1
_chemical_formula_structural   NaFePO4
_chemical_formula_sum   'Na4 Fe4 P4 O16'
_cell_volume   331.66990558
_cell_formula_units_Z   4
loop_
 _symmetry_equiv_pos_site_id
 _symmetry_equiv_pos_as_xyz
  1  'x, y, z'
loop_
 _atom_site_type_symbol
 _atom_site_label
 _atom_site_symmetry_multiplicity
 _atom_site_fract_x
 _atom_site_fract_y
 _atom_site_fract_z
 _atom_site_occupancy
  Na  Na0  1  0.00000000  0.50000000  0.00000000  1.0
  Na  Na1  1  0.00000000  0.00000000  0.00000000  1.0
  Na  Na2  1  0.50000000  0.50000000  0.50000000  1.0
  Na  Na3  1  0.50000000  0.00000000  0.50000000  1.0
  Fe  Fe4  1  0.78751035  0.25000000  0.51885780  1.0
  Fe  Fe5  1  0.28751035  0.25000000  0.98114220  1.0
  Fe  Fe6  1  0.21248965  0.75000000  0.48114220  1.0
  Fe  Fe7  1  0.71248965  0.75000000  0.01885780  1.0
  P  P8  1  0.60897226  0.25000000  0.05612978  1.0
  P  P9  1  0.10897226  0.25000000  0.44387022  1.0
  P  P10  1  0.39102774  0.75000000  0.94387022  1.0
  P  P11  1  0.89102774  0.75000000  0.55612978  1.0
  O  O12  1  0.67937034  0.44765173  0.18340979  1.0
  O  O13  1  0.67937034  0.05234827  0.18340979  1.0
  O  O14  1  0.17937034  0.44765173  0.31659021  1.0
  O  O15  1  0.17937034  0.05234827  0.31659021  1.0
  O  O16  1  0.32062966  0.94765173  0.81659021  1.0
  O  O17  1  0.32062966  0.55234827  0.81659021  1.0
  O  O18  1  0.82062966  0.94765173  0.68340979  1.0
  O  O19  1  0.82062966  0.55234827  0.68340979  1.0
  O  O20  1  0.96870360  0.25000000  0.34018110  1.0
  O  O21  1  0.46870360  0.25000000  0.15981890  1.0
  O  O22  1  0.03129640  0.75000000  0.65981890  1.0
  O  O23  1  0.53129640  0.75000000  0.84018110  1.0
  O  O24  1  0.61337908  0.25000000  0.74963074  1.0
  O  O25  1  0.11337908  0.25000000  0.75036926  1.0
  O  O26  1  0.38662092  0.75000000  0.25036926  1.0
  O  O27  1  0.88662092  0.75000000  0.24963074  1.0
