# generated using pymatgen
data_Ge4Ir
_symmetry_space_group_name_H-M   'P 1'
_cell_length_a   6.28163780
_cell_length_b   6.28163780
_cell_length_c   7.89182183
_cell_angle_alpha   90.00000000
_cell_angle_beta   90.00000000
_cell_angle_gamma   120.00000000
_symmetry_Int_Tables_number   1
_chemical_formula_structural   Ge4Ir
_chemical_formula_sum   'Ge12 Ir3'
_cell_volume   269.68307125
_cell_formula_units_Z   3
loop_
 _symmetry_equiv_pos_site_id
 _symmetry_equiv_pos_as_xyz
  1  'x, y, z'
loop_
 _atom_site_type_symbol
 _atom_site_label
 _atom_site_symmetry_multiplicity
 _atom_site_fract_x
 _atom_site_fract_y
 _atom_site_fract_z
 _atom_site_occupancy
  Ge  Ge0  1  0.91940594  0.91944669  0.66975064  1.0
  Ge  Ge1  1  1.00004075  0.08059406  0.33641731  1.0
  Ge  Ge2  1  0.08055331  -0.00004075  0.00308397  1.0
  Ge  Ge3  1  0.26377563  0.77884409  0.78413676  1.0
  Ge  Ge4  1  0.51506846  0.73622437  0.45080343  1.0
  Ge  Ge5  1  0.22115591  0.48493154  0.11747010  1.0
  Ge  Ge6  1  0.73607868  0.51497029  0.88883564  1.0
  Ge  Ge7  1  0.77889161  0.26392132  0.55550231  1.0
  Ge  Ge8  1  0.48502971  0.22110839  0.22216897  1.0
  Ge  Ge9  1  0.38182739  0.38190069  0.66978024  1.0
  Ge  Ge10  1  1.00007330  0.61817261  0.33644691  1.0
  Ge  Ge11  1  0.61809931  -0.00007330  0.00311357  1.0
  Ir  Ir12  1  0.68405857  0.68403443  0.16983005  1.0
  Ir  Ir13  1  0.99997586  0.31594143  0.83649672  1.0
  Ir  Ir14  1  0.31596557  0.00002414  0.50316338  1.0
