# generated using pymatgen
data_La3Ni2O7
_symmetry_space_group_name_H-M   'P 1'
_cell_length_a   10.56304616
_cell_length_b   10.56304616
_cell_length_c   5.41277306
_cell_angle_alpha   90.00000000
_cell_angle_beta   90.00000000
_cell_angle_gamma   30.20269913
_symmetry_Int_Tables_number   1
_chemical_formula_structural   La3Ni2O7
_chemical_formula_sum   'La6 Ni4 O14'
_cell_volume   303.82151947
_cell_formula_units_Z   2
loop_
 _symmetry_equiv_pos_site_id
 _symmetry_equiv_pos_as_xyz
  1  'x, y, z'
loop_
 _atom_site_type_symbol
 _atom_site_label
 _atom_site_symmetry_multiplicity
 _atom_site_fract_x
 _atom_site_fract_y
 _atom_site_fract_z
 _atom_site_occupancy
  La  La0  1  -0.08219953  0.44044371  0.75000000  1.0
  La  La1  1  -0.55955629  0.91780047  0.25000000  1.0
  La  La2  1  -0.44044371  1.08219953  0.75000000  1.0
  La  La3  1  0.08219953  0.55955629  0.25000000  1.0
  La  La4  1  -0.25070611  0.25070611  0.75000000  1.0
  La  La5  1  -0.74929389  0.74929389  0.25000000  1.0
  Ni  Ni6  1  0.15152335  0.65690176  0.75000000  1.0
  Ni  Ni7  1  -0.34309824  1.15152335  0.25000000  1.0
  Ni  Ni8  1  -0.65690176  0.84847665  0.75000000  1.0
  Ni  Ni9  1  -0.15152335  0.34309824  0.25000000  1.0
  O  O10  1  0.08759381  0.50310746  0.75000000  1.0
  O  O11  1  -0.49689254  1.08759381  0.25000000  1.0
  O  O12  1  -0.50310746  0.91240619  0.75000000  1.0
  O  O13  1  -0.08759381  0.49689254  0.25000000  1.0
  O  O14  1  -0.10493800  0.89506200  0.00000000  1.0
  O  O15  1  -0.10493800  0.89506200  0.50000000  1.0
  O  O16  1  0.10493800  0.10493800  0.00000000  1.0
  O  O17  1  0.10493800  0.10493800  0.50000000  1.0
  O  O18  1  -0.41204410  0.58795590  0.00000000  1.0
  O  O19  1  -0.41204410  0.58795590  0.50000000  1.0
  O  O20  1  0.41204410  0.41204410  0.00000000  1.0
  O  O21  1  0.41204410  0.41204410  0.50000000  1.0
  O  O22  1  -0.79767136  0.79767136  0.75000000  1.0
  O  O23  1  -0.20232864  0.20232864  0.25000000  1.0
