# generated using pymatgen
data_Na2Te2As
_symmetry_space_group_name_H-M   'P 1'
_cell_length_a   8.96147527
_cell_length_b   9.87660007
_cell_length_c   14.04554889
_cell_angle_alpha   90.00000000
_cell_angle_beta   90.00000000
_cell_angle_gamma   90.00000000
_symmetry_Int_Tables_number   1
_chemical_formula_structural   Na2Te2As
_chemical_formula_sum   'Na16 Te16 As8'
_cell_volume   1243.15618460
_cell_formula_units_Z   8
loop_
 _symmetry_equiv_pos_site_id
 _symmetry_equiv_pos_as_xyz
  1  'x, y, z'
loop_
 _atom_site_type_symbol
 _atom_site_label
 _atom_site_symmetry_multiplicity
 _atom_site_fract_x
 _atom_site_fract_y
 _atom_site_fract_z
 _atom_site_occupancy
  Na  Na0  1  0.41713415  0.64092077  0.86686347  1.0
  Na  Na1  1  0.91713415  0.85907923  0.13313653  1.0
  Na  Na2  1  0.58286585  0.14092077  0.63313653  1.0
  Na  Na3  1  0.08286585  0.35907923  0.36686347  1.0
  Na  Na4  1  0.31618608  0.56195775  0.53142792  1.0
  Na  Na5  1  0.81618608  0.93804225  0.46857208  1.0
  Na  Na6  1  0.68381392  0.06195775  0.96857208  1.0
  Na  Na7  1  0.18381392  0.43804225  0.03142792  1.0
  Na  Na8  1  0.07649414  0.86658407  0.87619495  1.0
  Na  Na9  1  0.57649414  0.63341593  0.12380505  1.0
  Na  Na10  1  0.92350586  0.36658407  0.62380505  1.0
  Na  Na11  1  0.42350586  0.13341593  0.37619495  1.0
  Na  Na12  1  0.78886897  0.72722031  0.69910461  1.0
  Na  Na13  1  0.28886897  0.77277969  0.30089539  1.0
  Na  Na14  1  0.21113103  0.22722031  0.80089539  1.0
  Na  Na15  1  0.71113103  0.27277969  0.19910461  1.0
  Te  Te16  1  0.48026589  0.84562403  0.49512366  1.0
  Te  Te17  1  0.98026589  0.65437597  0.50487634  1.0
  Te  Te18  1  0.51973411  0.34562403  1.00487634  1.0
  Te  Te19  1  0.01973411  0.15437597  -0.00487634  1.0
  Te  Te20  1  0.39841836  0.95378617  0.78722620  1.0
  Te  Te21  1  0.89841836  0.54621383  0.21277380  1.0
  Te  Te22  1  0.60158164  0.45378617  0.71277380  1.0
  Te  Te23  1  0.10158164  0.04621383  0.28722620  1.0
  Te  Te24  1  0.23771466  0.75409950  0.07085343  1.0
  Te  Te25  1  0.73771466  0.74590050  0.92914657  1.0
  Te  Te26  1  0.76228534  0.25409950  0.42914657  1.0
  Te  Te27  1  0.26228534  0.24590050  0.57085343  1.0
  Te  Te28  1  0.08328534  0.53684994  0.79987847  1.0
  Te  Te29  1  0.58328534  0.96315006  0.20012153  1.0
  Te  Te30  1  0.91671466  0.03684994  0.70012153  1.0
  Te  Te31  1  0.41671466  0.46315006  0.29987847  1.0
  As  As32  1  0.38902753  0.98086631  0.05799293  1.0
  As  As33  1  0.88902753  0.51913369  0.94200707  1.0
  As  As34  1  0.61097247  0.48086631  0.44200707  1.0
  As  As35  1  0.11097247  0.01913369  0.55799293  1.0
  As  As36  1  0.28022643  0.84556211  0.63434546  1.0
  As  As37  1  0.78022643  0.65443789  0.36565454  1.0
  As  As38  1  0.71977357  0.34556211  0.86565454  1.0
  As  As39  1  0.21977357  0.15443789  0.13434546  1.0
