# generated using pymatgen
data_SrScSi4N7
_symmetry_space_group_name_H-M   'P 1'
_cell_length_a   5.93614528
_cell_length_b   5.93614528
_cell_length_c   9.66993475
_cell_angle_alpha   90.00000000
_cell_angle_beta   90.00000000
_cell_angle_gamma   120.00000000
_symmetry_Int_Tables_number   1
_chemical_formula_structural   SrScSi4N7
_chemical_formula_sum   'Sr2 Sc2 Si8 N14'
_cell_volume   295.09592846
_cell_formula_units_Z   2
loop_
 _symmetry_equiv_pos_site_id
 _symmetry_equiv_pos_as_xyz
  1  'x, y, z'
loop_
 _atom_site_type_symbol
 _atom_site_label
 _atom_site_symmetry_multiplicity
 _atom_site_fract_x
 _atom_site_fract_y
 _atom_site_fract_z
 _atom_site_occupancy
  Sr  Sr0  1  0.33333333  0.66666667  0.43870702  1.0
  Sr  Sr1  1  0.66666667  0.33333333  0.93870702  1.0
  Sc  Sc2  1  0.33333333  0.66666667  0.06626438  1.0
  Sc  Sc3  1  0.66666667  0.33333333  0.56626438  1.0
  Si  Si4  1  0.34744500  0.17372250  0.25649831  1.0
  Si  Si5  1  0.17372250  0.34744500  0.75649831  1.0
  Si  Si6  1  0.17372250  0.82627750  0.75649831  1.0
  Si  Si7  1  0.82627750  0.17372250  0.25649831  1.0
  Si  Si8  1  0.82627750  0.65255500  0.25649831  1.0
  Si  Si9  1  0.65255500  0.82627750  0.75649831  1.0
  Si  Si10  1  0.00000000  0.00000000  -0.00750851  1.0
  Si  Si11  1  0.00000000  0.00000000  0.49249149  1.0
  N  N12  1  0.98501104  0.49250552  0.19947882  1.0
  N  N13  1  0.49250552  0.98501104  0.69947882  1.0
  N  N14  1  0.49250552  0.50749448  0.69947882  1.0
  N  N15  1  0.50749448  0.49250552  0.19947882  1.0
  N  N16  1  0.50749448  0.01498896  0.19947882  1.0
  N  N17  1  0.01498896  0.50749448  0.69947882  1.0
  N  N18  1  0.31519650  0.15759825  0.43418092  1.0
  N  N19  1  0.15759825  0.31519650  0.93418092  1.0
  N  N20  1  0.15759825  0.84240175  0.93418092  1.0
  N  N21  1  0.84240175  0.15759825  0.43418092  1.0
  N  N22  1  0.84240175  0.68480350  0.43418092  1.0
  N  N23  1  0.68480350  0.84240175  0.93418092  1.0
  N  N24  1  0.00000000  0.00000000  0.18436296  1.0
  N  N25  1  -0.00000000  0.00000000  0.68436296  1.0
