# generated using pymatgen
data_BaMo2(PO4)4
_symmetry_space_group_name_H-M   'P 1'
_cell_length_a   8.13004993
_cell_length_b   7.99650839
_cell_length_c   12.46647079
_cell_angle_alpha   90.00000000
_cell_angle_beta   128.48068253
_cell_angle_gamma   90.00000000
_symmetry_Int_Tables_number   1
_chemical_formula_structural   BaMo2(PO4)4
_chemical_formula_sum   'Ba2 Mo4 P8 O32'
_cell_volume   634.45077835
_cell_formula_units_Z   2
loop_
 _symmetry_equiv_pos_site_id
 _symmetry_equiv_pos_as_xyz
  1  'x, y, z'
loop_
 _atom_site_type_symbol
 _atom_site_label
 _atom_site_symmetry_multiplicity
 _atom_site_fract_x
 _atom_site_fract_y
 _atom_site_fract_z
 _atom_site_occupancy
  Ba  Ba0  1  0.00000000  0.50000000  0.50000000  1.0
  Ba  Ba1  1  0.00000000  0.00000000  0.00000000  1.0
  Mo  Mo2  1  0.61795942  0.22341165  0.16347875  1.0
  Mo  Mo3  1  0.61795942  0.27658835  0.66347875  1.0
  Mo  Mo4  1  0.38204058  0.72341165  0.33652125  1.0
  Mo  Mo5  1  0.38204058  0.77658835  0.83652125  1.0
  P  P6  1  0.96651202  0.89812936  0.29123747  1.0
  P  P7  1  0.96651202  0.60187064  0.79123747  1.0
  P  P8  1  0.03348798  0.39812936  0.20876253  1.0
  P  P9  1  0.03348798  0.10187064  0.70876253  1.0
  P  P10  1  0.65451378  0.09198592  0.43405592  1.0
  P  P11  1  0.65451378  0.40801408  0.93405592  1.0
  P  P12  1  0.34548622  0.59198592  0.06594408  1.0
  P  P13  1  0.34548622  0.90801408  0.56594408  1.0
  O  O14  1  0.91078603  0.35935136  0.26391539  1.0
  O  O15  1  0.91078603  0.14064864  0.76391539  1.0
  O  O16  1  0.08921397  0.85935136  0.23608461  1.0
  O  O17  1  0.08921397  0.64064864  0.73608461  1.0
  O  O18  1  0.89162802  0.75012393  0.32371799  1.0
  O  O19  1  0.89162802  0.74987607  0.82371799  1.0
  O  O20  1  0.10837198  0.25012393  0.17628201  1.0
  O  O21  1  0.10837198  0.24987607  0.67628201  1.0
  O  O22  1  0.86055475  0.50105920  0.06268305  1.0
  O  O23  1  0.86055475  0.99894080  0.56268305  1.0
  O  O24  1  0.13944525  0.00105920  0.43731695  1.0
  O  O25  1  0.13944525  0.49894080  0.93731695  1.0
  O  O26  1  0.79646070  0.02909680  0.19318085  1.0
  O  O27  1  0.79646070  0.47090320  0.69318085  1.0
  O  O28  1  0.20353930  0.52909680  0.30681915  1.0
  O  O29  1  0.20353930  0.97090320  0.80681915  1.0
  O  O30  1  0.71757846  0.19703206  0.35981829  1.0
  O  O31  1  0.71757846  0.30296794  0.85981829  1.0
  O  O32  1  0.28242154  0.69703206  0.14018171  1.0
  O  O33  1  0.28242154  0.80296794  0.64018171  1.0
  O  O34  1  0.57900891  0.21384035  0.49099057  1.0
  O  O35  1  0.57900891  0.28615965  0.99099057  1.0
  O  O36  1  0.42099109  0.71384035  0.00900943  1.0
  O  O37  1  0.42099109  0.78615965  0.50900943  1.0
  O  O38  1  0.50402102  0.45612829  0.16091971  1.0
  O  O39  1  0.50402102  0.04387171  0.66091971  1.0
  O  O40  1  0.49597898  0.95612829  0.33908029  1.0
  O  O41  1  0.49597898  0.54387171  0.83908029  1.0
  O  O42  1  0.38580629  0.12337527  0.08347335  1.0
  O  O43  1  0.38580629  0.37662473  0.58347335  1.0
  O  O44  1  0.61419371  0.62337527  0.41652665  1.0
  O  O45  1  0.61419371  0.87662473  0.91652665  1.0
