# generated using pymatgen
data_Sr2AlH7
_symmetry_space_group_name_H-M   'P 1'
_cell_length_a   8.36139085
_cell_length_b   8.36139085
_cell_length_c   8.02174349
_cell_angle_alpha   69.74433062
_cell_angle_beta   110.25566938
_cell_angle_gamma   108.37808252
_symmetry_Int_Tables_number   1
_chemical_formula_structural   Sr2AlH7
_chemical_formula_sum   'Sr8 Al4 H28'
_cell_volume   481.28068533
_cell_formula_units_Z   4
loop_
 _symmetry_equiv_pos_site_id
 _symmetry_equiv_pos_as_xyz
  1  'x, y, z'
loop_
 _atom_site_type_symbol
 _atom_site_label
 _atom_site_symmetry_multiplicity
 _atom_site_fract_x
 _atom_site_fract_y
 _atom_site_fract_z
 _atom_site_occupancy
  Sr  Sr0  1  1.73546257  -0.07659392  0.97960608  1.0
  Sr  Sr1  1  1.07659392  -0.73546257  0.47960608  1.0
  Sr  Sr2  1  0.92340608  0.73546257  0.52039392  1.0
  Sr  Sr3  1  0.26453743  0.07659392  0.02039392  1.0
  Sr  Sr4  1  0.56616493  0.28929777  0.47750114  1.0
  Sr  Sr5  1  0.71070223  0.43383507  0.97750114  1.0
  Sr  Sr6  1  1.28929777  -0.43383507  0.02249886  1.0
  Sr  Sr7  1  1.43383507  -0.28929777  0.52249886  1.0
  Al  Al8  1  0.68019160  0.02464271  0.30762695  1.0
  Al  Al9  1  0.97535729  0.31980840  0.80762695  1.0
  Al  Al10  1  1.02464271  -0.31980840  0.19237305  1.0
  Al  Al11  1  1.31980840  -0.02464271  0.69237305  1.0
  H  H12  1  1.33972692  -0.54200011  0.37256635  1.0
  H  H13  1  1.54200011  -0.33972692  0.87256635  1.0
  H  H14  1  0.45799989  0.33972692  0.12743365  1.0
  H  H15  1  0.66027308  0.54200011  0.62743365  1.0
  H  H16  1  0.26020758  0.08362946  0.45879147  1.0
  H  H17  1  0.91637054  0.73979242  0.95879147  1.0
  H  H18  1  1.08362946  -0.73979242  0.04120853  1.0
  H  H19  1  1.73979242  -0.08362946  0.54120853  1.0
  H  H20  1  0.88569011  0.03270144  0.29479579  1.0
  H  H21  1  0.96729856  0.11430989  0.79479579  1.0
  H  H22  1  1.03270144  -0.11430989  0.20520421  1.0
  H  H23  1  1.11430989  -0.03270144  0.70520421  1.0
  H  H24  1  1.61537586  -0.19195939  0.27302163  1.0
  H  H25  1  1.19195939  -0.61537586  0.77302163  1.0
  H  H26  1  0.80804061  0.61537586  0.22697837  1.0
  H  H27  1  0.38462414  0.19195939  0.72697837  1.0
  H  H28  1  0.75656274  0.23560100  0.33364948  1.0
  H  H29  1  0.76439900  0.24343726  0.83364948  1.0
  H  H30  1  1.23560100  -0.24343726  0.16635052  1.0
  H  H31  1  1.24343726  -0.23560100  0.66635052  1.0
  H  H32  1  0.60651814  0.11015772  0.07253620  1.0
  H  H33  1  0.88984228  0.39348186  0.57253620  1.0
  H  H34  1  1.11015772  -0.39348186  0.42746380  1.0
  H  H35  1  1.39348186  -0.11015772  0.92746380  1.0
  H  H36  1  0.47541836  0.00896118  0.33076414  1.0
  H  H37  1  0.99103882  0.52458164  0.83076414  1.0
  H  H38  1  1.00896118  -0.52458164  0.16923586  1.0
  H  H39  1  1.52458164  -0.00896118  0.66923586  1.0
