# generated using pymatgen
data_LiNbO3
_symmetry_space_group_name_H-M   'P 1'
_cell_length_a   5.68718199
_cell_length_b   5.68718199
_cell_length_c   5.68718199
_cell_angle_alpha   54.94019046
_cell_angle_beta   54.94019046
_cell_angle_gamma   54.94019046
_symmetry_Int_Tables_number   1
_chemical_formula_structural   LiNbO3
_chemical_formula_sum   'Li2 Nb2 O6'
_cell_volume   114.75337063
_cell_formula_units_Z   2
loop_
 _symmetry_equiv_pos_site_id
 _symmetry_equiv_pos_as_xyz
  1  'x, y, z'
loop_
 _atom_site_type_symbol
 _atom_site_label
 _atom_site_symmetry_multiplicity
 _atom_site_fract_x
 _atom_site_fract_y
 _atom_site_fract_z
 _atom_site_occupancy
  Li  Li0  1  0.14304887  0.14304887  0.14304887  1.0
  Li  Li1  1  0.85695113  -0.14304887  -0.14304887  1.0
  Nb  Nb2  1  0.35587359  0.35587359  -0.64412641  1.0
  Nb  Nb3  1  0.64412641  0.64412641  -0.35587359  1.0
  O  O4  1  0.45599158  0.06229343  -0.28615533  1.0
  O  O5  1  1.28615533  -0.45599158  -0.06229343  1.0
  O  O6  1  0.93770657  0.28615533  -0.45599158  1.0
  O  O7  1  0.54400842  -0.06229343  0.28615533  1.0
  O  O8  1  0.71384467  -0.54400842  0.06229343  1.0
  O  O9  1  1.06229343  -0.28615533  -0.54400842  1.0
