# generated using pymatgen
data_NaIn(WO4)2
_symmetry_space_group_name_H-M   'P 1'
_cell_length_a   10.23125278
_cell_length_b   5.94002222
_cell_length_c   5.10053872
_cell_angle_alpha   90.00000000
_cell_angle_beta   90.89866877
_cell_angle_gamma   90.00000000
_symmetry_Int_Tables_number   1
_chemical_formula_structural   NaIn(WO4)2
_chemical_formula_sum   'Na2 In2 W4 O16'
_cell_volume   309.94134289
_cell_formula_units_Z   2
loop_
 _symmetry_equiv_pos_site_id
 _symmetry_equiv_pos_as_xyz
  1  'x, y, z'
loop_
 _atom_site_type_symbol
 _atom_site_label
 _atom_site_symmetry_multiplicity
 _atom_site_fract_x
 _atom_site_fract_y
 _atom_site_fract_z
 _atom_site_occupancy
  Na  Na0  1  0.50000000  0.68358526  0.25000000  1.0
  Na  Na1  1  0.50000000  0.31641474  0.75000000  1.0
  In  In2  1  0.00000000  0.68446647  0.25000000  1.0
  In  In3  1  0.00000000  0.31553353  0.75000000  1.0
  W  W4  1  0.75649629  0.82404598  0.75311580  1.0
  W  W5  1  0.75649629  0.17595402  0.25311580  1.0
  W  W6  1  0.24350371  0.82404598  0.74688420  1.0
  W  W7  1  0.24350371  0.17595402  0.24688420  1.0
  O  O8  1  0.88293081  0.37378983  0.39523071  1.0
  O  O9  1  0.88293081  0.62621017  0.89523071  1.0
  O  O10  1  0.11706919  0.37378983  0.10476929  1.0
  O  O11  1  0.11706919  0.62621017  0.60476929  1.0
  O  O12  1  0.86650684  0.89407595  0.44851893  1.0
  O  O13  1  0.86650684  0.10592405  0.94851893  1.0
  O  O14  1  0.13349316  0.89407595  0.05148107  1.0
  O  O15  1  0.13349316  0.10592405  0.55148107  1.0
  O  O16  1  0.66772959  0.90722945  0.05930043  1.0
  O  O17  1  0.66772959  0.09277055  0.55930043  1.0
  O  O18  1  0.33227041  0.90722945  0.44069957  1.0
  O  O19  1  0.33227041  0.09277055  0.94069957  1.0
  O  O20  1  0.64170257  0.36586516  0.12468326  1.0
  O  O21  1  0.64170257  0.63413484  0.62468326  1.0
  O  O22  1  0.35829743  0.36586516  0.37531674  1.0
  O  O23  1  0.35829743  0.63413484  0.87531674  1.0
