# generated using pymatgen
data_Mn
_symmetry_space_group_name_H-M   'P 1'
_cell_length_a   7.46443261
_cell_length_b   7.46443261
_cell_length_c   7.46443261
_cell_angle_alpha   109.47122063
_cell_angle_beta   109.47122063
_cell_angle_gamma   109.47122063
_symmetry_Int_Tables_number   1
_chemical_formula_structural   Mn
_chemical_formula_sum   Mn29
_cell_volume   320.16106308
_cell_formula_units_Z   29
loop_
 _symmetry_equiv_pos_site_id
 _symmetry_equiv_pos_as_xyz
  1  'x, y, z'
loop_
 _atom_site_type_symbol
 _atom_site_label
 _atom_site_symmetry_multiplicity
 _atom_site_fract_x
 _atom_site_fract_y
 _atom_site_fract_z
 _atom_site_occupancy
  Mn  Mn0  1  -0.00000000  -0.00000000  -0.00000000  1.0
  Mn  Mn1  1  0.36426240  0.36426240  0.36426240  1.0
  Mn  Mn2  1  1.00000000  1.00000000  0.63573760  1.0
  Mn  Mn3  1  1.00000000  0.63573760  1.00000000  1.0
  Mn  Mn4  1  0.63573760  1.00000000  1.00000000  1.0
  Mn  Mn5  1  0.28783239  0.61023255  0.61023255  1.0
  Mn  Mn6  1  0.61023255  0.28783239  0.61023255  1.0
  Mn  Mn7  1  1.00000000  0.67759983  1.38976745  1.0
  Mn  Mn8  1  0.67759983  1.00000000  1.38976745  1.0
  Mn  Mn9  1  0.61023255  0.61023255  0.28783239  1.0
  Mn  Mn10  1  1.32240017  1.32240017  0.71216761  1.0
  Mn  Mn11  1  1.00000000  1.38976745  0.67759983  1.0
  Mn  Mn12  1  1.32240017  0.71216761  1.32240017  1.0
  Mn  Mn13  1  0.71216761  1.32240017  1.32240017  1.0
  Mn  Mn14  1  1.38976745  1.00000000  0.67759983  1.0
  Mn  Mn15  1  0.67759983  1.38976745  1.00000000  1.0
  Mn  Mn16  1  1.38976745  0.67759983  1.00000000  1.0
  Mn  Mn17  1  0.82247567  0.62783407  0.62783407  1.0
  Mn  Mn18  1  0.62783407  0.82247567  0.62783407  1.0
  Mn  Mn19  1  1.00000000  1.19464161  0.37216593  1.0
  Mn  Mn20  1  1.19464161  1.00000000  0.37216593  1.0
  Mn  Mn21  1  0.62783407  0.62783407  0.82247567  1.0
  Mn  Mn22  1  0.80535839  0.80535839  0.17752433  1.0
  Mn  Mn23  1  1.00000000  0.37216593  1.19464161  1.0
  Mn  Mn24  1  0.80535839  0.17752433  0.80535839  1.0
  Mn  Mn25  1  0.17752433  0.80535839  0.80535839  1.0
  Mn  Mn26  1  0.37216593  1.00000000  1.19464161  1.0
  Mn  Mn27  1  1.19464161  0.37216593  1.00000000  1.0
  Mn  Mn28  1  0.37216593  1.19464161  1.00000000  1.0
