# generated using pymatgen
data_Zn2AsO5
_symmetry_space_group_name_H-M   'P 1'
_cell_length_a   8.65436169
_cell_length_b   8.52029131
_cell_length_c   6.03868344
_cell_angle_alpha   90.00000000
_cell_angle_beta   90.00000000
_cell_angle_gamma   90.00000000
_symmetry_Int_Tables_number   1
_chemical_formula_structural   Zn2AsO5
_chemical_formula_sum   'Zn8 As4 O20'
_cell_volume   445.27852325
_cell_formula_units_Z   4
loop_
 _symmetry_equiv_pos_site_id
 _symmetry_equiv_pos_as_xyz
  1  'x, y, z'
loop_
 _atom_site_type_symbol
 _atom_site_label
 _atom_site_symmetry_multiplicity
 _atom_site_fract_x
 _atom_site_fract_y
 _atom_site_fract_z
 _atom_site_occupancy
  O  O0  1  0.23715185  0.85553418  0.26516286  1.0
  O  O1  1  0.23715185  0.85553418  0.73483714  1.0
  O  O2  1  0.73715185  0.64446582  0.76516286  1.0
  O  O3  1  0.73715185  0.64446582  0.23483714  1.0
  O  O4  1  0.76284815  0.14446582  0.26516286  1.0
  O  O5  1  0.76284815  0.14446582  0.73483714  1.0
  O  O6  1  0.26284815  0.35553418  0.76516286  1.0
  O  O7  1  0.26284815  0.35553418  0.23483714  1.0
  O  O8  1  0.42370185  0.63223070  0.50000000  1.0
  O  O9  1  0.92370185  0.86776930  -0.00000000  1.0
  O  O10  1  0.57629815  0.36776930  0.50000000  1.0
  O  O11  1  0.07629815  0.13223070  -0.00000000  1.0
  O  O12  1  0.10604322  0.59394336  0.50000000  1.0
  O  O13  1  0.60604322  0.90605664  -0.00000000  1.0
  O  O14  1  0.89395678  0.40605664  0.50000000  1.0
  O  O15  1  0.39395678  0.09394336  -0.00000000  1.0
  O  O16  1  0.93615766  0.86645462  0.50000000  1.0
  O  O17  1  0.43615766  0.63354538  0.00000000  1.0
  O  O18  1  0.06384234  0.13354538  0.50000000  1.0
  O  O19  1  0.56384234  0.36645462  0.00000000  1.0
  Zn  Zn20  1  0.87632879  0.64641696  0.50000000  1.0
  Zn  Zn21  1  0.37632879  0.85358304  -0.00000000  1.0
  Zn  Zn22  1  0.12367121  0.35358304  0.50000000  1.0
  Zn  Zn23  1  0.62367121  0.14641696  -0.00000000  1.0
  Zn  Zn24  1  0.50000000  0.50000000  0.24339186  1.0
  Zn  Zn25  1  0.50000000  0.50000000  0.75660814  1.0
  Zn  Zn26  1  0.00000000  0.00000000  0.74339186  1.0
  Zn  Zn27  1  0.00000000  0.00000000  0.25660814  1.0
  As  As28  1  0.24807033  0.73972037  0.50000000  1.0
  As  As29  1  0.74807033  0.76027963  -0.00000000  1.0
  As  As30  1  0.75192967  0.26027963  0.50000000  1.0
  As  As31  1  0.25192967  0.23972037  -0.00000000  1.0
