# generated using pymatgen
data_La8C8Cl5
_symmetry_space_group_name_H-M   'P 1'
_cell_length_a   7.83368213
_cell_length_b   17.15597319
_cell_length_c   6.95871085
_cell_angle_alpha   90.00000000
_cell_angle_beta   103.85016567
_cell_angle_gamma   90.00000000
_symmetry_Int_Tables_number   1
_chemical_formula_structural   La8C8Cl5
_chemical_formula_sum   'La16 C16 Cl10'
_cell_volume   908.02081569
_cell_formula_units_Z   2
loop_
 _symmetry_equiv_pos_site_id
 _symmetry_equiv_pos_as_xyz
  1  'x, y, z'
loop_
 _atom_site_type_symbol
 _atom_site_label
 _atom_site_symmetry_multiplicity
 _atom_site_fract_x
 _atom_site_fract_y
 _atom_site_fract_z
 _atom_site_occupancy
  La  La0  1  0.92254236  0.30580221  0.87925697  1.0
  La  La1  1  0.92254236  0.19419779  0.37925697  1.0
  La  La2  1  0.07745764  0.80580221  0.62074303  1.0
  La  La3  1  0.07745764  0.69419779  0.12074303  1.0
  La  La4  1  0.84787345  0.43014409  0.37850044  1.0
  La  La5  1  0.84787345  0.06985591  0.87850044  1.0
  La  La6  1  0.15212655  0.93014409  0.12149956  1.0
  La  La7  1  0.15212655  0.56985591  0.62149956  1.0
  La  La8  1  0.77352695  0.54876214  0.88269391  1.0
  La  La9  1  0.77352695  0.95123786  0.38269391  1.0
  La  La10  1  0.22647305  0.04876214  0.61730609  1.0
  La  La11  1  0.22647305  0.45123786  0.11730609  1.0
  La  La12  1  0.69989985  0.82687813  0.89209727  1.0
  La  La13  1  0.69989985  0.67312187  0.39209727  1.0
  La  La14  1  0.30010015  0.32687813  0.60790273  1.0
  La  La15  1  0.30010015  0.17312187  0.10790273  1.0
  C  C16  1  0.97942295  0.46150967  0.77939825  1.0
  C  C17  1  0.97942295  0.03849033  0.27939825  1.0
  C  C18  1  0.02057705  0.96150967  0.72060175  1.0
  C  C19  1  0.02057705  0.53849033  0.22060175  1.0
  C  C20  1  0.95100452  0.66010989  0.73000210  1.0
  C  C21  1  0.95100452  0.83989011  0.23000210  1.0
  C  C22  1  0.04899548  0.16010989  0.76999790  1.0
  C  C23  1  0.04899548  0.33989011  0.26999790  1.0
  C  C24  1  0.90269109  0.91463211  0.77757363  1.0
  C  C25  1  0.90269109  0.58536789  0.27757363  1.0
  C  C26  1  0.09730891  0.41463211  0.72242637  1.0
  C  C27  1  0.09730891  0.08536789  0.22242637  1.0
  C  C28  1  0.84668115  0.71567341  0.77962833  1.0
  C  C29  1  0.84668115  0.78432659  0.27962833  1.0
  C  C30  1  0.15331885  0.21567341  0.72037167  1.0
  C  C31  1  0.15331885  0.28432659  0.22037167  1.0
  Cl  Cl32  1  0.58883905  0.40256882  0.98217586  1.0
  Cl  Cl33  1  0.58883905  0.09743118  0.48217586  1.0
  Cl  Cl34  1  0.41116095  0.90256882  0.51782414  1.0
  Cl  Cl35  1  0.41116095  0.59743118  0.01782414  1.0
  Cl  Cl36  1  0.34970989  0.70304046  0.51303075  1.0
  Cl  Cl37  1  0.34970989  0.79695954  0.01303075  1.0
  Cl  Cl38  1  0.65029011  0.20304046  0.98696925  1.0
  Cl  Cl39  1  0.65029011  0.29695954  0.48696925  1.0
  Cl  Cl40  1  0.50000000  -0.00000000  0.00000000  1.0
  Cl  Cl41  1  0.50000000  0.50000000  0.50000000  1.0
