# generated using pymatgen
data_BiTePt
_symmetry_space_group_name_H-M   'P 1'
_cell_length_a   6.77011543
_cell_length_b   6.77011543
_cell_length_c   6.77011543
_cell_angle_alpha   90.00000000
_cell_angle_beta   90.00000000
_cell_angle_gamma   90.00000000
_symmetry_Int_Tables_number   1
_chemical_formula_structural   BiTePt
_chemical_formula_sum   'Bi4 Te4 Pt4'
_cell_volume   310.30460415
_cell_formula_units_Z   4
loop_
 _symmetry_equiv_pos_site_id
 _symmetry_equiv_pos_as_xyz
  1  'x, y, z'
loop_
 _atom_site_type_symbol
 _atom_site_label
 _atom_site_symmetry_multiplicity
 _atom_site_fract_x
 _atom_site_fract_y
 _atom_site_fract_z
 _atom_site_occupancy
  Bi  Bi0  1  0.13109922  0.63109922  0.86890078  1.0
  Bi  Bi1  1  0.63109922  0.86890078  0.13109922  1.0
  Bi  Bi2  1  0.86890078  0.13109922  0.63109922  1.0
  Bi  Bi3  1  0.36890078  0.36890078  0.36890078  1.0
  Te  Te4  1  0.87323776  0.37323776  0.12676224  1.0
  Te  Te5  1  0.37323776  0.12676224  0.87323776  1.0
  Te  Te6  1  0.12676224  0.87323776  0.37323776  1.0
  Te  Te7  1  0.62676224  0.62676224  0.62676224  1.0
  Pt  Pt8  1  0.49620005  0.99620005  0.50379995  1.0
  Pt  Pt9  1  0.99620005  0.50379995  0.49620005  1.0
  Pt  Pt10  1  0.50379995  0.49620005  0.99620005  1.0
  Pt  Pt11  1  0.00379995  0.00379995  0.00379995  1.0
