# generated using pymatgen
data_Eu3ReO8
_symmetry_space_group_name_H-M   'P 1'
_cell_length_a   7.44259495
_cell_length_b   6.15076076
_cell_length_c   14.86237867
_cell_angle_alpha   90.00000000
_cell_angle_beta   111.42488612
_cell_angle_gamma   90.00000000
_symmetry_Int_Tables_number   1
_chemical_formula_structural   Eu3ReO8
_chemical_formula_sum   'Eu12 Re4 O32'
_cell_volume   633.34928747
_cell_formula_units_Z   4
loop_
 _symmetry_equiv_pos_site_id
 _symmetry_equiv_pos_as_xyz
  1  'x, y, z'
loop_
 _atom_site_type_symbol
 _atom_site_label
 _atom_site_symmetry_multiplicity
 _atom_site_fract_x
 _atom_site_fract_y
 _atom_site_fract_z
 _atom_site_occupancy
  Eu  Eu0  1  0.40040749  0.24314717  0.30022677  1.0
  Eu  Eu1  1  0.40040749  0.25685283  0.80022677  1.0
  Eu  Eu2  1  0.59959251  0.74314717  0.19977323  1.0
  Eu  Eu3  1  0.59959251  0.75685283  0.69977323  1.0
  Eu  Eu4  1  0.34137069  0.19988111  0.05405067  1.0
  Eu  Eu5  1  0.34137069  0.30011889  0.55405067  1.0
  Eu  Eu6  1  0.65862931  0.69988111  0.44594933  1.0
  Eu  Eu7  1  0.65862931  0.80011889  0.94594933  1.0
  Eu  Eu8  1  0.89111452  0.18940591  0.33296665  1.0
  Eu  Eu9  1  0.89111452  0.31059409  0.83296665  1.0
  Eu  Eu10  1  0.10888548  0.68940591  0.16703335  1.0
  Eu  Eu11  1  0.10888548  0.81059409  0.66703335  1.0
  O  O12  1  0.97331166  0.29688971  0.02069665  1.0
  O  O13  1  0.97331166  0.20311029  0.52069665  1.0
  O  O14  1  0.02668834  0.79688971  0.47930335  1.0
  O  O15  1  0.02668834  0.70311029  0.97930335  1.0
  O  O16  1  0.97214482  0.79589724  0.29031576  1.0
  O  O17  1  0.97214482  0.70410276  0.79031576  1.0
  O  O18  1  0.02785518  0.29589724  0.20968424  1.0
  O  O19  1  0.02785518  0.20410276  0.70968424  1.0
  O  O20  1  0.87542109  0.94727970  0.09265802  1.0
  O  O21  1  0.87542109  0.55272030  0.59265802  1.0
  O  O22  1  0.12457891  0.44727970  0.40734198  1.0
  O  O23  1  0.12457891  0.05272030  0.90734198  1.0
  O  O24  1  0.66910107  0.15474948  0.16899242  1.0
  O  O25  1  0.66910107  0.34525052  0.66899242  1.0
  O  O26  1  0.33089893  0.65474948  0.33100758  1.0
  O  O27  1  0.33089893  0.84525052  0.83100758  1.0
  O  O28  1  0.59332442  0.30959034  0.48153245  1.0
  O  O29  1  0.59332442  0.19040966  0.98153245  1.0
  O  O30  1  0.40667558  0.80959034  0.01846755  1.0
  O  O31  1  0.40667558  0.69040966  0.51846755  1.0
  O  O32  1  0.25445222  0.03625508  0.40753170  1.0
  O  O33  1  0.25445222  0.46374492  0.90753170  1.0
  O  O34  1  0.74554778  0.53625508  0.09246830  1.0
  O  O35  1  0.74554778  0.96374492  0.59246830  1.0
  O  O36  1  0.68286869  0.47267779  0.32598849  1.0
  O  O37  1  0.68286869  0.02732221  0.82598849  1.0
  O  O38  1  0.31713131  0.97267779  0.17401151  1.0
  O  O39  1  0.31713131  0.52732221  0.67401151  1.0
  O  O40  1  0.64547544  0.97156429  0.33946236  1.0
  O  O41  1  0.64547544  0.52843571  0.83946236  1.0
  O  O42  1  0.35452456  0.47156429  0.16053764  1.0
  O  O43  1  0.35452456  0.02843571  0.66053764  1.0
  Re  Re44  1  0.82239992  0.24508256  0.09010998  1.0
  Re  Re45  1  0.82239992  0.25491744  0.59010998  1.0
  Re  Re46  1  0.17760008  0.74508256  0.40989002  1.0
  Re  Re47  1  0.17760008  0.75491744  0.90989002  1.0
