# generated using pymatgen
data_BaAl2O6
_symmetry_space_group_name_H-M   'P 1'
_cell_length_a   5.57355430
_cell_length_b   9.86100418
_cell_length_c   11.15631321
_cell_angle_alpha   90.00000000
_cell_angle_beta   90.00000000
_cell_angle_gamma   90.00000000
_symmetry_Int_Tables_number   1
_chemical_formula_structural   BaAl2O6
_chemical_formula_sum   'Ba4 Al8 O24'
_cell_volume   613.16037067
_cell_formula_units_Z   4
loop_
 _symmetry_equiv_pos_site_id
 _symmetry_equiv_pos_as_xyz
  1  'x, y, z'
loop_
 _atom_site_type_symbol
 _atom_site_label
 _atom_site_symmetry_multiplicity
 _atom_site_fract_x
 _atom_site_fract_y
 _atom_site_fract_z
 _atom_site_occupancy
  Al  Al0  1  0.33049146  0.66799820  0.57669406  1.0
  Al  Al1  1  0.83049146  0.83200180  0.57669406  1.0
  Al  Al2  1  0.66950854  0.33200180  0.07669406  1.0
  Al  Al3  1  0.16950854  0.16799820  0.07669406  1.0
  Al  Al4  1  0.13343312  0.84004195  0.09402047  1.0
  Al  Al5  1  0.63343312  0.65995805  0.09402047  1.0
  Al  Al6  1  0.86656688  0.15995805  0.59402047  1.0
  Al  Al7  1  0.36656688  0.34004195  0.59402047  1.0
  O  O8  1  0.38922046  0.75562615  0.04260803  1.0
  O  O9  1  0.88922046  0.74437385  0.04260803  1.0
  O  O10  1  0.61077954  0.24437385  0.54260803  1.0
  O  O11  1  0.11077954  0.25562615  0.54260803  1.0
  O  O12  1  0.44637496  0.87913110  0.68673164  1.0
  O  O13  1  0.94637496  0.62086890  0.68673164  1.0
  O  O14  1  0.55362504  0.12086890  0.18673164  1.0
  O  O15  1  0.05362504  0.37913110  0.18673164  1.0
  O  O16  1  0.33209578  0.67222792  0.73816634  1.0
  O  O17  1  0.83209578  0.82777208  0.73816634  1.0
  O  O18  1  0.66790422  0.32777208  0.23816634  1.0
  O  O19  1  0.16790422  0.17222792  0.23816634  1.0
  O  O20  1  0.35350755  0.38279134  0.74986378  1.0
  O  O21  1  0.85350755  0.11720866  0.74986378  1.0
  O  O22  1  0.64649245  0.61720866  0.24986378  1.0
  O  O23  1  0.14649245  0.88279134  0.24986378  1.0
  O  O24  1  0.04751796  0.71799551  0.51498168  1.0
  O  O25  1  0.54751796  0.78200449  0.51498168  1.0
  O  O26  1  0.95248204  0.28200449  0.01498168  1.0
  O  O27  1  0.45248204  0.21799551  0.01498168  1.0
  O  O28  1  0.39440912  0.50230332  0.52805221  1.0
  O  O29  1  0.89440912  0.99769668  0.52805221  1.0
  O  O30  1  0.60559088  0.49769668  0.02805221  1.0
  O  O31  1  0.10559088  0.00230332  0.02805221  1.0
  Ba  Ba32  1  0.14813647  0.53329899  0.92278178  1.0
  Ba  Ba33  1  0.64813647  0.96670101  0.92278178  1.0
  Ba  Ba34  1  0.85186353  0.46670101  0.42278178  1.0
  Ba  Ba35  1  0.35186353  0.03329899  0.42278178  1.0
