# generated using pymatgen
data_Li2W2O7
_symmetry_space_group_name_H-M   'P 1'
_cell_length_a   7.09818929
_cell_length_b   5.12961554
_cell_length_c   8.48812374
_cell_angle_alpha   77.13749606
_cell_angle_beta   70.02791432
_cell_angle_gamma   84.33476054
_symmetry_Int_Tables_number   1
_chemical_formula_structural   Li2W2O7
_chemical_formula_sum   'Li4 W4 O14'
_cell_volume   283.09813472
_cell_formula_units_Z   2
loop_
 _symmetry_equiv_pos_site_id
 _symmetry_equiv_pos_as_xyz
  1  'x, y, z'
loop_
 _atom_site_type_symbol
 _atom_site_label
 _atom_site_symmetry_multiplicity
 _atom_site_fract_x
 _atom_site_fract_y
 _atom_site_fract_z
 _atom_site_occupancy
  Li  Li0  1  -0.99337745  -0.85811640  -0.74008564  1.0
  Li  Li1  1  -0.00662255  -0.14188360  -0.25991436  1.0
  Li  Li2  1  -0.73825951  -0.31360312  -0.90838133  1.0
  Li  Li3  1  -0.26174049  -0.68639688  -0.09161867  1.0
  W  W4  1  -0.54749530  -0.80971568  -0.66393493  1.0
  W  W5  1  -0.45250470  -0.19028432  -0.33606507  1.0
  W  W6  1  -0.75247399  -0.69856882  -0.18135230  1.0
  W  W7  1  -0.24752601  -0.30143118  -0.81864770  1.0
  O  O8  1  -0.39236198  -0.94801151  -0.86434073  1.0
  O  O9  1  -0.60763802  -0.05198849  -0.13565927  1.0
  O  O10  1  -0.78678036  -0.91064029  -0.63643425  1.0
  O  O11  1  -0.21321964  -0.08935971  -0.36356575  1.0
  O  O12  1  -0.97983866  -0.81711784  -0.18185096  1.0
  O  O13  1  -0.02016134  -0.18288216  -0.81814904  1.0
  O  O14  1  -0.58623750  -0.82069961  -0.42599950  1.0
  O  O15  1  -0.41376250  -0.17930039  -0.57400050  1.0
  O  O16  1  -0.24644201  -0.64681800  -0.69812785  1.0
  O  O17  1  -0.75355799  -0.35318200  -0.30187215  1.0
  O  O18  1  -0.81097029  -0.64629314  -0.96923598  1.0
  O  O19  1  -0.18902971  -0.35370686  -0.03076402  1.0
  O  O20  1  -0.56177611  -0.45810576  -0.76581972  1.0
  O  O21  1  -0.43822389  -0.54189424  -0.23418028  1.0
