# generated using pymatgen
data_GaAu2
_symmetry_space_group_name_H-M   'P 1'
_cell_length_a   9.18436048
_cell_length_b   9.18436048
_cell_length_c   6.95457829
_cell_angle_alpha   90.00000000
_cell_angle_beta   90.00000000
_cell_angle_gamma   158.78863559
_symmetry_Int_Tables_number   1
_chemical_formula_structural   GaAu2
_chemical_formula_sum   'Ga4 Au8'
_cell_volume   212.25043649
_cell_formula_units_Z   4
loop_
 _symmetry_equiv_pos_site_id
 _symmetry_equiv_pos_as_xyz
  1  'x, y, z'
loop_
 _atom_site_type_symbol
 _atom_site_label
 _atom_site_symmetry_multiplicity
 _atom_site_fract_x
 _atom_site_fract_y
 _atom_site_fract_z
 _atom_site_occupancy
  Ga  Ga0  1  -0.94082938  0.94082938  0.49946704  1.0
  Ga  Ga1  1  -0.05917062  1.05917062  -0.00053296  1.0
  Ga  Ga2  1  -0.70953560  0.70953560  0.46565906  1.0
  Ga  Ga3  1  -0.29046440  1.29046440  0.96565906  1.0
  Au  Au4  1  -0.91393976  0.91393976  0.87175477  1.0
  Au  Au5  1  -0.08606024  1.08606024  0.37175477  1.0
  Au  Au6  1  -0.82997555  0.82997555  0.24204101  1.0
  Au  Au7  1  -0.17002445  1.17002445  0.74204101  1.0
  Au  Au8  1  -0.67677045  0.67677045  0.09652920  1.0
  Au  Au9  1  -0.32322955  1.32322955  0.59652920  1.0
  Au  Au10  1  -0.46381063  1.46381063  0.19454893  1.0
  Au  Au11  1  -0.53618937  0.53618937  0.69454893  1.0
