# generated using pymatgen
data_PbBrO
_symmetry_space_group_name_H-M   'P 1'
_cell_length_a   7.46210011
_cell_length_b   3.75951849
_cell_length_c   10.71119555
_cell_angle_alpha   90.00000000
_cell_angle_beta   90.00000000
_cell_angle_gamma   90.00000000
_symmetry_Int_Tables_number   1
_chemical_formula_structural   PbBrO
_chemical_formula_sum   'Pb4 Br4 O4'
_cell_volume   300.49084451
_cell_formula_units_Z   4
loop_
 _symmetry_equiv_pos_site_id
 _symmetry_equiv_pos_as_xyz
  1  'x, y, z'
loop_
 _atom_site_type_symbol
 _atom_site_label
 _atom_site_symmetry_multiplicity
 _atom_site_fract_x
 _atom_site_fract_y
 _atom_site_fract_z
 _atom_site_occupancy
  Pb  Pb0  1  0.63404660  0.75000000  0.39401540  1.0
  Pb  Pb1  1  0.13404660  0.75000000  0.10598460  1.0
  Pb  Pb2  1  0.36595340  0.25000000  0.60598460  1.0
  Pb  Pb3  1  0.86595340  0.25000000  0.89401540  1.0
  Br  Br4  1  1.02201546  0.75000000  0.69240546  1.0
  Br  Br5  1  0.52201546  0.75000000  0.80759454  1.0
  Br  Br6  1  -0.02201546  0.25000000  0.30759454  1.0
  Br  Br7  1  0.47798454  0.25000000  0.19240546  1.0
  O  O8  1  0.86012172  0.75000000  0.01365985  1.0
  O  O9  1  0.36012172  0.75000000  0.48634015  1.0
  O  O10  1  0.13987828  0.25000000  0.98634015  1.0
  O  O11  1  0.63987828  0.25000000  0.51365985  1.0
