# generated using pymatgen
data_FeSn2
_symmetry_space_group_name_H-M   'P 1'
_cell_length_a   5.59445239
_cell_length_b   5.59445239
_cell_length_c   5.59445239
_cell_angle_alpha   102.47009277
_cell_angle_beta   102.47009277
_cell_angle_gamma   124.62062696
_symmetry_Int_Tables_number   1
_chemical_formula_structural   FeSn2
_chemical_formula_sum   'Fe2 Sn4'
_cell_volume   127.58924347
_cell_formula_units_Z   2
loop_
 _symmetry_equiv_pos_site_id
 _symmetry_equiv_pos_as_xyz
  1  'x, y, z'
loop_
 _atom_site_type_symbol
 _atom_site_label
 _atom_site_symmetry_multiplicity
 _atom_site_fract_x
 _atom_site_fract_y
 _atom_site_fract_z
 _atom_site_occupancy
  Fe  Fe0  1  0.00000000  0.00000000  0.00000000  1.0
  Fe  Fe1  1  0.50000000  0.50000000  -0.00000000  1.0
  Sn  Sn2  1  0.15720608  0.65720608  0.81441216  1.0
  Sn  Sn3  1  0.84279392  0.34279392  1.18558784  1.0
  Sn  Sn4  1  0.65720608  0.84279392  0.50000000  1.0
  Sn  Sn5  1  1.34279392  1.15720608  1.50000000  1.0
