# generated using pymatgen
data_Na3Sr2Ti3(Si2O9)2
_symmetry_space_group_name_H-M   'P 1'
_cell_length_a   10.50351050
_cell_length_b   10.50351050
_cell_length_c   5.43552378
_cell_angle_alpha   83.59527093
_cell_angle_beta   96.40472907
_cell_angle_gamma   140.13355241
_symmetry_Int_Tables_number   1
_chemical_formula_structural   Na3Sr2Ti3(Si2O9)2
_chemical_formula_sum   'Na3 Sr2 Ti3 Si4 O18'
_cell_volume   381.67117887
_cell_formula_units_Z   1
loop_
 _symmetry_equiv_pos_site_id
 _symmetry_equiv_pos_as_xyz
  1  'x, y, z'
loop_
 _atom_site_type_symbol
 _atom_site_label
 _atom_site_symmetry_multiplicity
 _atom_site_fract_x
 _atom_site_fract_y
 _atom_site_fract_z
 _atom_site_occupancy
  Sr  Sr0  1  0.28346698  -0.28346698  0.26079006  1.0
  Sr  Sr1  1  0.71653302  0.28346698  0.73920994  1.0
  Na  Na2  1  0.25768517  0.25768517  0.50000000  1.0
  Na  Na3  1  0.74231483  0.74231483  0.50000000  1.0
  Na  Na4  1  0.00000000  0.00000000  0.00000000  1.0
  O  O5  1  0.36583445  0.01363857  0.46501920  1.0
  O  O6  1  0.98636143  0.63416555  0.46501920  1.0
  O  O7  1  1.01363857  0.36583445  0.53498080  1.0
  O  O8  1  0.63416555  -0.01363857  0.53498080  1.0
  O  O9  1  0.36598940  0.01081407  0.97201735  1.0
  O  O10  1  0.98918593  0.63401060  0.97201735  1.0
  O  O11  1  1.01081407  0.36598940  0.02798265  1.0
  O  O12  1  0.63401060  -0.01081407  0.02798265  1.0
  O  O13  1  0.67715450  0.32284550  0.21951916  1.0
  O  O14  1  0.32284550  -0.32284550  0.78048084  1.0
  O  O15  1  0.35310553  0.23175856  0.17138315  1.0
  O  O16  1  0.76824144  0.64689447  0.17138315  1.0
  O  O17  1  1.23175856  0.35310553  0.82861685  1.0
  O  O18  1  0.64689447  -0.23175856  0.82861685  1.0
  O  O19  1  0.06529753  -0.06529753  0.67528347  1.0
  O  O20  1  0.93470247  0.06529753  0.32471653  1.0
  O  O21  1  0.44222326  -0.44222326  0.24436124  1.0
  O  O22  1  0.55777674  0.44222326  0.75563876  1.0
  Ti  Ti23  1  0.15050457  -0.15050457  0.70674763  1.0
  Ti  Ti24  1  0.84949543  0.15050457  0.29325237  1.0
  Ti  Ti25  1  0.50000000  0.50000000  0.00000000  1.0
  Si  Si26  1  0.42682481  0.14103842  0.20170246  1.0
  Si  Si27  1  0.85896158  0.57317519  0.20170246  1.0
  Si  Si28  1  1.14103842  0.42682481  0.79829754  1.0
  Si  Si29  1  0.57317519  -0.14103842  0.79829754  1.0
