# generated using pymatgen
data_MnCO3
_symmetry_space_group_name_H-M   'P 1'
_cell_length_a   4.83244923
_cell_length_b   3.85219902
_cell_length_c   6.12843573
_cell_angle_alpha   106.69681424
_cell_angle_beta   90.00310483
_cell_angle_gamma   89.99912744
_symmetry_Int_Tables_number   1
_chemical_formula_structural   MnCO3
_chemical_formula_sum   'Mn2 C2 O6'
_cell_volume   109.27427356
_cell_formula_units_Z   2
loop_
 _symmetry_equiv_pos_site_id
 _symmetry_equiv_pos_as_xyz
  1  'x, y, z'
loop_
 _atom_site_type_symbol
 _atom_site_label
 _atom_site_symmetry_multiplicity
 _atom_site_fract_x
 _atom_site_fract_y
 _atom_site_fract_z
 _atom_site_occupancy
  Mn  Mn0  1  -0.18487879  -0.49999978  -0.25000951  1.0
  Mn  Mn1  1  -0.81512121  -0.50000022  -0.74999049  1.0
  C  C2  1  -0.31540043  0.00001794  -0.75000537  1.0
  C  C3  1  -0.68459957  -1.00001794  -0.24999463  1.0
  O  O4  1  -0.58369438  -0.00003652  -0.75001412  1.0
  O  O5  1  -0.41630562  -0.99996348  -0.24998588  1.0
  O  O6  1  -0.17931391  -0.73471704  -0.61491343  1.0
  O  O7  1  -0.82068609  -0.26528296  -0.38508657  1.0
  O  O8  1  -0.17925724  -0.26517597  -0.88508565  1.0
  O  O9  1  -0.82074276  -0.73482403  -0.11491435  1.0
