# generated using pymatgen
data_ZrCoF6
_symmetry_space_group_name_H-M   'P 1'
_cell_length_a   5.74764258
_cell_length_b   5.74764258
_cell_length_c   5.74764258
_cell_angle_alpha   59.93596634
_cell_angle_beta   59.93596634
_cell_angle_gamma   59.93596634
_symmetry_Int_Tables_number   1
_chemical_formula_structural   ZrCoF6
_chemical_formula_sum   'Zr1 Co1 F6'
_cell_volume   134.06735447
_cell_formula_units_Z   1
loop_
 _symmetry_equiv_pos_site_id
 _symmetry_equiv_pos_as_xyz
  1  'x, y, z'
loop_
 _atom_site_type_symbol
 _atom_site_label
 _atom_site_symmetry_multiplicity
 _atom_site_fract_x
 _atom_site_fract_y
 _atom_site_fract_z
 _atom_site_occupancy
  Zr  Zr0  1  0.50000000  0.50000000  -0.50000000  1.0
  Co  Co1  1  -0.00000000  0.00000000  0.00000000  1.0
  F  F2  1  0.25112739  0.74924535  -0.74937206  1.0
  F  F3  1  0.74937206  -0.25112739  0.25075465  1.0
  F  F4  1  1.25075465  -0.25062794  -0.25112739  1.0
  F  F5  1  0.74887261  0.25075465  -0.25062794  1.0
  F  F6  1  0.25062794  0.25112739  -0.25075465  1.0
  F  F7  1  0.74924535  0.25062794  -0.74887261  1.0
