# generated using pymatgen
data_Hg3(SBr)2
_symmetry_space_group_name_H-M   'P 1'
_cell_length_a   10.45031282
_cell_length_b   10.45031282
_cell_length_c   9.56805340
_cell_angle_alpha   89.64358678
_cell_angle_beta   90.35641322
_cell_angle_gamma   125.64134657
_symmetry_Int_Tables_number   1
_chemical_formula_structural   Hg3(SBr)2
_chemical_formula_sum   'Hg12 S8 Br8'
_cell_volume   849.16361516
_cell_formula_units_Z   4
loop_
 _symmetry_equiv_pos_site_id
 _symmetry_equiv_pos_as_xyz
  1  'x, y, z'
loop_
 _atom_site_type_symbol
 _atom_site_label
 _atom_site_symmetry_multiplicity
 _atom_site_fract_x
 _atom_site_fract_y
 _atom_site_fract_z
 _atom_site_occupancy
  Hg  Hg0  1  1.35755100  0.11117209  0.70465368  1.0
  Hg  Hg1  1  0.88882791  -0.35755100  0.70465368  1.0
  Hg  Hg2  1  1.11117209  -0.64244900  0.29534632  1.0
  Hg  Hg3  1  1.64244900  -0.11117209  0.29534632  1.0
  Hg  Hg4  1  0.76642140  -0.76642140  0.71174799  1.0
  Hg  Hg5  1  1.23357860  -0.23357860  0.28825201  1.0
  Hg  Hg6  1  1.47698042  -0.47698042  0.73644832  1.0
  Hg  Hg7  1  0.52301958  -0.52301958  0.26355168  1.0
  Hg  Hg8  1  0.77061498  0.77061498  0.00000000  1.0
  Hg  Hg9  1  0.22938502  0.22938502  0.00000000  1.0
  Hg  Hg10  1  1.50000000  -0.00000000  -0.00000000  1.0
  Hg  Hg11  1  1.00000000  -0.50000000  -0.00000000  1.0
  S  S12  1  1.74770381  -0.23945944  0.74762458  1.0
  S  S13  1  1.23945944  -0.74770381  0.74762458  1.0
  S  S14  1  0.76054056  -0.25229619  0.25237542  1.0
  S  S15  1  1.25229619  0.23945944  0.25237542  1.0
  S  S16  1  1.50220774  -0.00464753  0.74673901  1.0
  S  S17  1  1.00464753  -0.50220774  0.74673901  1.0
  S  S18  1  0.99535247  -0.49779226  0.25326099  1.0
  S  S19  1  1.49779226  0.00464753  0.25326099  1.0
  Br  Br20  1  0.87583880  -0.87583880  0.49333268  1.0
  Br  Br21  1  1.12416120  -0.12416120  0.50666732  1.0
  Br  Br22  1  0.62208841  -0.62208841  0.51367749  1.0
  Br  Br23  1  1.37791159  -0.37791159  0.48632251  1.0
  Br  Br24  1  0.62525441  -0.62525441  1.00691841  1.0
  Br  Br25  1  1.37474559  -0.37474559  -0.00691841  1.0
  Br  Br26  1  1.12522257  -0.12522257  0.98740547  1.0
  Br  Br27  1  0.87477743  -0.87477743  0.01259453  1.0
