# generated using pymatgen
data_Li5H9Pt2
_symmetry_space_group_name_H-M   'P 1'
_cell_length_a   7.26438382
_cell_length_b   7.26438382
_cell_length_c   7.26438382
_cell_angle_alpha   109.90797996
_cell_angle_beta   109.90797996
_cell_angle_gamma   108.60118953
_symmetry_Int_Tables_number   1
_chemical_formula_structural   Li5H9Pt2
_chemical_formula_sum   'Li10 H18 Pt4'
_cell_volume   295.05262443
_cell_formula_units_Z   2
loop_
 _symmetry_equiv_pos_site_id
 _symmetry_equiv_pos_as_xyz
  1  'x, y, z'
loop_
 _atom_site_type_symbol
 _atom_site_label
 _atom_site_symmetry_multiplicity
 _atom_site_fract_x
 _atom_site_fract_y
 _atom_site_fract_z
 _atom_site_occupancy
  Li  Li0  1  0.69284536  1.19284536  1.20295589  1.0
  Li  Li1  1  1.01011053  0.51011053  1.20295589  1.0
  Li  Li2  1  0.48988947  0.69284536  0.50000000  1.0
  Li  Li3  1  0.80715464  1.01011053  1.50000000  1.0
  Li  Li4  1  1.19284536  0.98988947  1.50000000  1.0
  Li  Li5  1  0.51011053  0.30715464  0.50000000  1.0
  Li  Li6  1  0.98988947  0.48988947  0.79704411  1.0
  Li  Li7  1  0.30715464  0.80715464  0.79704411  1.0
  Li  Li8  1  0.50000000  0.50000000  0.00000000  1.0
  Li  Li9  1  0.00000000  0.00000000  0.00000000  1.0
  H  H10  1  1.13636846  1.28980137  1.69843315  1.0
  H  H11  1  0.40863177  0.56206469  0.69843315  1.0
  H  H12  1  1.09136823  1.78980137  1.15343292  1.0
  H  H13  1  0.36363154  1.06206469  1.15343292  1.0
  H  H14  1  0.78980137  0.63636846  0.69843315  1.0
  H  H15  1  1.06206469  0.90863177  0.69843315  1.0
  H  H16  1  0.43793531  1.13636846  0.84656708  1.0
  H  H17  1  0.71019863  0.40863177  0.84656708  1.0
  H  H18  1  0.63636846  0.93793531  0.84656708  1.0
  H  H19  1  0.90863177  1.21019863  0.84656708  1.0
  H  H20  1  0.59136823  0.43793531  0.30156685  1.0
  H  H21  1  0.86363154  0.71019863  1.30156685  1.0
  H  H22  1  1.28980137  0.59136823  1.15343292  1.0
  H  H23  1  0.56206469  0.86363154  1.15343292  1.0
  H  H24  1  0.93793531  1.09136823  0.30156685  1.0
  H  H25  1  0.21019863  0.36363154  0.30156685  1.0
  H  H26  1  1.00000000  0.50000000  0.50000000  1.0
  H  H27  1  0.50000000  1.00000000  0.50000000  1.0
  Pt  Pt28  1  0.34226084  0.84226084  1.18452168  1.0
  Pt  Pt29  1  0.15773916  0.34226084  0.50000000  1.0
  Pt  Pt30  1  0.84226084  0.65773916  0.50000000  1.0
  Pt  Pt31  1  0.65773916  1.15773916  0.81547832  1.0
