# generated using pymatgen
data_Li5BiO5
_symmetry_space_group_name_H-M   'P 1'
_cell_length_a   5.42925281
_cell_length_b   5.42925281
_cell_length_c   6.02806597
_cell_angle_alpha   71.42116168
_cell_angle_beta   108.57883832
_cell_angle_gamma   133.85882136
_symmetry_Int_Tables_number   1
_chemical_formula_structural   Li5BiO5
_chemical_formula_sum   'Li5 Bi1 O5'
_cell_volume   120.19384870
_cell_formula_units_Z   1
loop_
 _symmetry_equiv_pos_site_id
 _symmetry_equiv_pos_as_xyz
  1  'x, y, z'
loop_
 _atom_site_type_symbol
 _atom_site_label
 _atom_site_symmetry_multiplicity
 _atom_site_fract_x
 _atom_site_fract_y
 _atom_site_fract_z
 _atom_site_occupancy
  Li  Li0  1  0.01373177  -0.01373177  0.01535972  1.0
  Li  Li1  1  0.98424796  -0.98424796  0.53134043  1.0
  Li  Li2  1  0.69148115  -0.69148115  0.38275962  1.0
  Li  Li3  1  1.41130446  -0.41130446  0.21393234  1.0
  Li  Li4  1  1.39115002  -0.39115002  0.73787317  1.0
  Bi  Bi5  1  0.70254172  -0.70254172  0.87969826  1.0
  O  O6  1  0.87311648  -0.87311648  0.19980901  1.0
  O  O7  1  0.84738901  -0.84738901  0.69364800  1.0
  O  O8  1  0.55435548  -0.55435548  0.05779531  1.0
  O  O9  1  0.53518408  -0.53518408  0.55185865  1.0
  O  O10  1  1.20449786  -0.20449786  0.88792550  1.0
