# generated using pymatgen
data_GaHO2
_symmetry_space_group_name_H-M   'P 1'
_cell_length_a   9.93123943
_cell_length_b   3.00930736
_cell_length_c   4.55384913
_cell_angle_alpha   90.00000000
_cell_angle_beta   90.00000000
_cell_angle_gamma   90.00000000
_symmetry_Int_Tables_number   1
_chemical_formula_structural   GaHO2
_chemical_formula_sum   'Ga4 H4 O8'
_cell_volume   136.09702715
_cell_formula_units_Z   4
loop_
 _symmetry_equiv_pos_site_id
 _symmetry_equiv_pos_as_xyz
  1  'x, y, z'
loop_
 _atom_site_type_symbol
 _atom_site_label
 _atom_site_symmetry_multiplicity
 _atom_site_fract_x
 _atom_site_fract_y
 _atom_site_fract_z
 _atom_site_occupancy
  Ga  Ga0  1  0.14378562  0.75000000  0.55740166  1.0
  Ga  Ga1  1  0.64378562  0.75000000  0.94259834  1.0
  Ga  Ga2  1  0.85621438  0.25000000  0.44259834  1.0
  Ga  Ga3  1  0.35621438  0.25000000  0.05740166  1.0
  H  H4  1  0.40617367  0.75000000  0.59889222  1.0
  H  H5  1  0.90617367  0.75000000  0.90110778  1.0
  H  H6  1  0.59382633  0.25000000  0.40110778  1.0
  H  H7  1  0.09382633  0.25000000  0.09889222  1.0
  O  O8  1  0.44177405  0.75000000  0.80770120  1.0
  O  O9  1  0.94177405  0.75000000  0.69229880  1.0
  O  O10  1  0.55822595  0.25000000  0.19229880  1.0
  O  O11  1  0.05822595  0.25000000  0.30770120  1.0
  O  O12  1  0.30786694  0.75000000  0.31177535  1.0
  O  O13  1  0.80786694  0.75000000  0.18822465  1.0
  O  O14  1  0.69213306  0.25000000  0.68822465  1.0
  O  O15  1  0.19213306  0.25000000  0.81177535  1.0
