# generated using pymatgen
data_Sr2Ru3O10
_symmetry_space_group_name_H-M   'P 1'
_cell_length_a   6.34707724
_cell_length_b   6.34707724
_cell_length_c   6.64485810
_cell_angle_alpha   78.55443377
_cell_angle_beta   101.44556623
_cell_angle_gamma   127.78357296
_symmetry_Int_Tables_number   1
_chemical_formula_structural   Sr2Ru3O10
_chemical_formula_sum   'Sr2 Ru3 O10'
_cell_volume   206.33370961
_cell_formula_units_Z   1
loop_
 _symmetry_equiv_pos_site_id
 _symmetry_equiv_pos_as_xyz
  1  'x, y, z'
loop_
 _atom_site_type_symbol
 _atom_site_label
 _atom_site_symmetry_multiplicity
 _atom_site_fract_x
 _atom_site_fract_y
 _atom_site_fract_z
 _atom_site_occupancy
  Ru  Ru0  1  -0.00000000  0.00000000  0.50000000  1.0
  Ru  Ru1  1  0.77160300  0.77160300  -0.00000000  1.0
  Ru  Ru2  1  0.22839700  0.22839700  -0.00000000  1.0
  O  O3  1  0.75907227  -0.24558237  0.70533975  1.0
  O  O4  1  1.24558237  0.24092773  0.70533975  1.0
  O  O5  1  0.75441763  0.75907227  0.29466025  1.0
  O  O6  1  0.24092773  0.24558237  0.29466025  1.0
  O  O7  1  0.86659208  0.13340792  0.94231788  1.0
  O  O8  1  0.13340792  -0.13340792  0.05768212  1.0
  O  O9  1  0.39099514  -0.39099514  0.96655211  1.0
  O  O10  1  0.60900486  0.39099514  0.03344789  1.0
  O  O11  1  0.83107486  0.16892514  0.44450743  1.0
  O  O12  1  0.16892514  -0.16892514  0.55549257  1.0
  Sr  Sr13  1  0.67733508  0.32266492  0.66224197  1.0
  Sr  Sr14  1  0.32266492  -0.32266492  0.33775803  1.0
