# generated using pymatgen
data_GaCl3
_symmetry_space_group_name_H-M   'P 1'
_cell_length_a   7.38297143
_cell_length_b   7.38297143
_cell_length_c   7.46760200
_cell_angle_alpha   59.33969701
_cell_angle_beta   120.66030299
_cell_angle_gamma   117.09500788
_symmetry_Int_Tables_number   1
_chemical_formula_structural   GaCl3
_chemical_formula_sum   'Ga2 Cl6'
_cell_volume   290.50155716
_cell_formula_units_Z   2
loop_
 _symmetry_equiv_pos_site_id
 _symmetry_equiv_pos_as_xyz
  1  'x, y, z'
loop_
 _atom_site_type_symbol
 _atom_site_label
 _atom_site_symmetry_multiplicity
 _atom_site_fract_x
 _atom_site_fract_y
 _atom_site_fract_z
 _atom_site_occupancy
  Ga  Ga0  1  0.84440248  0.15559752  0.77681953  1.0
  Ga  Ga1  1  1.15559752  -0.15559752  0.22318047  1.0
  Cl  Cl2  1  0.80540260  -0.80540260  0.45582562  1.0
  Cl  Cl3  1  0.19459740  -0.19459740  0.54417438  1.0
  Cl  Cl4  1  0.68974379  0.31025621  0.81446615  1.0
  Cl  Cl5  1  1.31025621  -0.31025621  0.18553385  1.0
  Cl  Cl6  1  0.78465133  0.78465133  -0.00000000  1.0
  Cl  Cl7  1  0.21534867  0.21534867  0.00000000  1.0
