# generated using pymatgen
data_RbHfCdF7
_symmetry_space_group_name_H-M   'P 1'
_cell_length_a   6.62254168
_cell_length_b   6.62254168
_cell_length_c   8.62285636
_cell_angle_alpha   90.00000000
_cell_angle_beta   90.00000000
_cell_angle_gamma   117.26761477
_symmetry_Int_Tables_number   1
_chemical_formula_structural   RbHfCdF7
_chemical_formula_sum   'Rb2 Hf2 Cd2 F14'
_cell_volume   336.15679524
_cell_formula_units_Z   2
loop_
 _symmetry_equiv_pos_site_id
 _symmetry_equiv_pos_as_xyz
  1  'x, y, z'
loop_
 _atom_site_type_symbol
 _atom_site_label
 _atom_site_symmetry_multiplicity
 _atom_site_fract_x
 _atom_site_fract_y
 _atom_site_fract_z
 _atom_site_occupancy
  Rb  Rb0  1  0.00000000  0.00000000  0.50000000  1.0
  Rb  Rb1  1  0.00000000  0.00000000  0.00000000  1.0
  Hf  Hf2  1  0.30777656  0.69222344  0.25000000  1.0
  Hf  Hf3  1  -0.30777656  1.30777656  0.75000000  1.0
  Cd  Cd4  1  -0.30911876  1.30911876  0.25000000  1.0
  Cd  Cd5  1  0.30911876  0.69088124  0.75000000  1.0
  F  F6  1  -0.02176594  1.67038757  0.25000000  1.0
  F  F7  1  0.67038757  0.97823406  0.75000000  1.0
  F  F8  1  -0.67038757  1.02176594  0.25000000  1.0
  F  F9  1  0.02176594  0.32961243  0.75000000  1.0
  F  F10  1  0.06478891  0.34906162  0.25000000  1.0
  F  F11  1  -0.65093838  1.06478891  0.75000000  1.0
  F  F12  1  0.65093838  0.93521109  0.25000000  1.0
  F  F13  1  -0.06478891  1.65093838  0.75000000  1.0
  F  F14  1  0.29933834  0.70066166  0.48384083  1.0
  F  F15  1  0.29933834  0.70066166  0.01615917  1.0
  F  F16  1  -0.29933834  1.29933834  0.98384083  1.0
  F  F17  1  -0.29933834  1.29933834  0.51615917  1.0
  F  F18  1  0.48842775  0.51157225  0.25000000  1.0
  F  F19  1  -0.48842775  1.48842775  0.75000000  1.0
