# generated using pymatgen
data_BaTbCuBO5
_symmetry_space_group_name_H-M   'P 1'
_cell_length_a   5.49013296
_cell_length_b   5.49013296
_cell_length_c   7.58663038
_cell_angle_alpha   90.00000000
_cell_angle_beta   90.00000000
_cell_angle_gamma   90.00000000
_symmetry_Int_Tables_number   1
_chemical_formula_structural   BaTbCuBO5
_chemical_formula_sum   'Ba2 Tb2 Cu2 B2 O10'
_cell_volume   228.67287425
_cell_formula_units_Z   2
loop_
 _symmetry_equiv_pos_site_id
 _symmetry_equiv_pos_as_xyz
  1  'x, y, z'
loop_
 _atom_site_type_symbol
 _atom_site_label
 _atom_site_symmetry_multiplicity
 _atom_site_fract_x
 _atom_site_fract_y
 _atom_site_fract_z
 _atom_site_occupancy
  Ba  Ba0  1  0.50000000  0.50000000  0.00046455  1.0
  Ba  Ba1  1  0.00000000  0.00000000  0.00046455  1.0
  Tb  Tb2  1  0.50000000  0.50000000  0.51400447  1.0
  Tb  Tb3  1  0.00000000  0.00000000  0.51400447  1.0
  Cu  Cu4  1  0.00000000  0.50000000  0.71907720  1.0
  Cu  Cu5  1  0.50000000  0.00000000  0.71907720  1.0
  B  B6  1  0.00000000  0.50000000  0.25946353  1.0
  B  B7  1  0.50000000  0.00000000  0.25946353  1.0
  O  O8  1  0.34275492  0.15724508  0.34794278  1.0
  O  O9  1  0.84275492  0.34275492  0.34794278  1.0
  O  O10  1  0.65724508  0.84275492  0.34794278  1.0
  O  O11  1  0.15724508  0.65724508  0.34794278  1.0
  O  O12  1  0.24750162  0.25249838  0.70894211  1.0
  O  O13  1  0.74750162  0.24750162  0.70894211  1.0
  O  O14  1  0.75249838  0.74750162  0.70894211  1.0
  O  O15  1  0.25249838  0.75249838  0.70894211  1.0
  O  O16  1  0.00000000  0.50000000  0.07622047  1.0
  O  O17  1  0.50000000  0.00000000  0.07622047  1.0
