# generated using pymatgen
data_LaMgRh
_symmetry_space_group_name_H-M   'P 1'
_cell_length_a   7.61527860
_cell_length_b   4.20958812
_cell_length_c   17.05525476
_cell_angle_alpha   90.00000000
_cell_angle_beta   90.00000000
_cell_angle_gamma   90.00000000
_symmetry_Int_Tables_number   1
_chemical_formula_structural   LaMgRh
_chemical_formula_sum   'La8 Mg8 Rh8'
_cell_volume   546.74347988
_cell_formula_units_Z   8
loop_
 _symmetry_equiv_pos_site_id
 _symmetry_equiv_pos_as_xyz
  1  'x, y, z'
loop_
 _atom_site_type_symbol
 _atom_site_label
 _atom_site_symmetry_multiplicity
 _atom_site_fract_x
 _atom_site_fract_y
 _atom_site_fract_z
 _atom_site_occupancy
  La  La0  1  0.95527875  0.75000000  0.28179933  1.0
  La  La1  1  0.45527875  0.75000000  0.21820067  1.0
  La  La2  1  0.04472125  0.25000000  0.71820067  1.0
  La  La3  1  0.54472125  0.25000000  0.78179933  1.0
  La  La4  1  0.83716159  0.75000000  0.06176934  1.0
  La  La5  1  0.33716159  0.75000000  0.43823066  1.0
  La  La6  1  0.16283841  0.25000000  0.93823066  1.0
  La  La7  1  0.66283841  0.25000000  0.56176934  1.0
  Mg  Mg8  1  0.00419130  0.75000000  0.56315982  1.0
  Mg  Mg9  1  0.50419130  0.75000000  0.93684018  1.0
  Mg  Mg10  1  0.99580870  0.25000000  0.43684018  1.0
  Mg  Mg11  1  0.49580870  0.25000000  0.06315982  1.0
  Mg  Mg12  1  0.86615601  0.75000000  0.85112074  1.0
  Mg  Mg13  1  0.36615601  0.75000000  0.64887926  1.0
  Mg  Mg14  1  0.13384399  0.25000000  0.14887926  1.0
  Mg  Mg15  1  0.63384399  0.25000000  0.35112074  1.0
  Rh  Rh16  1  0.75422151  0.75000000  0.43865016  1.0
  Rh  Rh17  1  0.25422151  0.75000000  0.06134984  1.0
  Rh  Rh18  1  0.24577849  0.25000000  0.56134984  1.0
  Rh  Rh19  1  0.74577849  0.25000000  0.93865016  1.0
  Rh  Rh20  1  0.74600908  0.75000000  0.68711581  1.0
  Rh  Rh21  1  0.24600908  0.75000000  0.81288419  1.0
  Rh  Rh22  1  0.25399092  0.25000000  0.31288419  1.0
  Rh  Rh23  1  0.75399092  0.25000000  0.18711581  1.0
