# generated using pymatgen
data_NbFeO4
_symmetry_space_group_name_H-M   'P 1'
_cell_length_a   4.69968878
_cell_length_b   5.71128496
_cell_length_c   5.01853888
_cell_angle_alpha   90.00000000
_cell_angle_beta   90.37256191
_cell_angle_gamma   90.00000000
_symmetry_Int_Tables_number   1
_chemical_formula_structural   NbFeO4
_chemical_formula_sum   'Nb2 Fe2 O8'
_cell_volume   134.70106840
_cell_formula_units_Z   2
loop_
 _symmetry_equiv_pos_site_id
 _symmetry_equiv_pos_as_xyz
  1  'x, y, z'
loop_
 _atom_site_type_symbol
 _atom_site_label
 _atom_site_symmetry_multiplicity
 _atom_site_fract_x
 _atom_site_fract_y
 _atom_site_fract_z
 _atom_site_occupancy
  Nb  Nb0  1  -0.00000000  0.81498340  0.75000000  1.0
  Nb  Nb1  1  0.00000000  0.18501660  0.25000000  1.0
  Fe  Fe2  1  0.50000000  0.32508585  0.75000000  1.0
  Fe  Fe3  1  0.50000000  0.67491415  0.25000000  1.0
  O  O4  1  0.77476767  0.88564741  0.42280602  1.0
  O  O5  1  0.77476767  0.11435259  0.92280602  1.0
  O  O6  1  0.22523233  0.88564741  0.07719398  1.0
  O  O7  1  0.22523233  0.11435259  0.57719398  1.0
  O  O8  1  0.73172597  0.61794581  0.91759061  1.0
  O  O9  1  0.73172597  0.38205419  0.41759061  1.0
  O  O10  1  0.26827403  0.61794581  0.58240939  1.0
  O  O11  1  0.26827403  0.38205419  0.08240939  1.0
