# generated using pymatgen
data_Mn(GaSe2)2
_symmetry_space_group_name_H-M   'P 1'
_cell_length_a   7.02457020
_cell_length_b   7.02457020
_cell_length_c   7.02457020
_cell_angle_alpha   133.65257983
_cell_angle_beta   133.65257983
_cell_angle_gamma   67.63115207
_symmetry_Int_Tables_number   1
_chemical_formula_structural   Mn(GaSe2)2
_chemical_formula_sum   'Mn1 Ga2 Se4'
_cell_volume   178.38856389
_cell_formula_units_Z   1
loop_
 _symmetry_equiv_pos_site_id
 _symmetry_equiv_pos_as_xyz
  1  'x, y, z'
loop_
 _atom_site_type_symbol
 _atom_site_label
 _atom_site_symmetry_multiplicity
 _atom_site_fract_x
 _atom_site_fract_y
 _atom_site_fract_z
 _atom_site_occupancy
  Mn  Mn0  1  -0.00000000  -0.00000000  -0.00000000  1.0
  Ga  Ga1  1  0.25000000  0.75000000  0.50000000  1.0
  Ga  Ga2  1  0.75000000  0.25000000  0.50000000  1.0
  Se  Se3  1  0.38955529  0.85461690  1.00000000  1.0
  Se  Se4  1  1.14538310  1.14538310  1.53493839  1.0
  Se  Se5  1  0.61044471  0.61044471  0.46506161  1.0
  Se  Se6  1  0.85461690  0.38955529  1.00000000  1.0
