# generated using pymatgen
data_Cs2GdP2Se7
_symmetry_space_group_name_H-M   'P 1'
_cell_length_a   10.26638232
_cell_length_b   7.32628319
_cell_length_c   22.49625404
_cell_angle_alpha   90.00000000
_cell_angle_beta   110.94477244
_cell_angle_gamma   90.00000000
_symmetry_Int_Tables_number   1
_chemical_formula_structural   Cs2GdP2Se7
_chemical_formula_sum   'Cs8 Gd4 P8 Se28'
_cell_volume   1580.24178516
_cell_formula_units_Z   4
loop_
 _symmetry_equiv_pos_site_id
 _symmetry_equiv_pos_as_xyz
  1  'x, y, z'
loop_
 _atom_site_type_symbol
 _atom_site_label
 _atom_site_symmetry_multiplicity
 _atom_site_fract_x
 _atom_site_fract_y
 _atom_site_fract_z
 _atom_site_occupancy
  Cs  Cs0  1  0.83648244  0.49149003  0.19428601  1.0
  Cs  Cs1  1  0.83648244  0.00850997  0.69428601  1.0
  Cs  Cs2  1  0.16351756  0.99149003  0.30571399  1.0
  Cs  Cs3  1  0.16351756  0.50850997  0.80571399  1.0
  Cs  Cs4  1  0.76350364  0.00289488  0.02217900  1.0
  Cs  Cs5  1  0.76350364  0.49710512  0.52217900  1.0
  Cs  Cs6  1  0.23649636  0.50289488  0.47782100  1.0
  Cs  Cs7  1  0.23649636  0.99710512  0.97782100  1.0
  Gd  Gd8  1  0.65726427  0.02102033  0.34509102  1.0
  Gd  Gd9  1  0.65726427  0.47897967  0.84509102  1.0
  Gd  Gd10  1  0.34273573  0.52102033  0.15490898  1.0
  Gd  Gd11  1  0.34273573  0.97897967  0.65490898  1.0
  P  P12  1  0.98137584  0.50346889  0.04679849  1.0
  P  P13  1  0.98137584  -0.00346889  0.54679849  1.0
  P  P14  1  0.01862416  1.00346889  0.45320151  1.0
  P  P15  1  0.01862416  0.49653111  0.95320151  1.0
  P  P16  1  0.45247206  0.47876420  0.33205553  1.0
  P  P17  1  0.45247206  0.02123580  0.83205553  1.0
  P  P18  1  0.54752794  0.97876420  0.16794447  1.0
  P  P19  1  0.54752794  0.52123580  0.66794447  1.0
  Se  Se20  1  0.90904178  0.25082163  0.40192058  1.0
  Se  Se21  1  0.90904178  0.24917837  0.90192058  1.0
  Se  Se22  1  0.09095822  0.75082163  0.09807942  1.0
  Se  Se23  1  0.09095822  0.74917837  0.59807942  1.0
  Se  Se24  1  0.90389503  0.76686782  0.39765145  1.0
  Se  Se25  1  0.90389503  0.73313218  0.89765145  1.0
  Se  Se26  1  0.09610497  0.26686782  0.10234855  1.0
  Se  Se27  1  0.09610497  0.23313218  0.60234855  1.0
  Se  Se28  1  0.76462699  0.99440949  0.23915528  1.0
  Se  Se29  1  0.76462699  0.50559051  0.73915528  1.0
  Se  Se30  1  0.23537301  0.49440949  0.26084472  1.0
  Se  Se31  1  0.23537301  0.00559051  0.76084472  1.0
  Se  Se32  1  0.75501979  0.50045394  0.01905330  1.0
  Se  Se33  1  0.75501979  -0.00045394  0.51905330  1.0
  Se  Se34  1  0.24498021  1.00045394  0.48094670  1.0
  Se  Se35  1  0.24498021  0.49954606  0.98094670  1.0
  Se  Se36  1  0.58374685  0.40545773  0.27470364  1.0
  Se  Se37  1  0.58374685  0.09454227  0.77470364  1.0
  Se  Se38  1  0.41625315  0.90545773  0.22529636  1.0
  Se  Se39  1  0.41625315  0.59454227  0.72529636  1.0
  Se  Se40  1  0.49427837  0.23241669  0.10941142  1.0
  Se  Se41  1  0.49427837  0.26758331  0.60941142  1.0
  Se  Se42  1  0.50572163  0.73241669  0.39058858  1.0
  Se  Se43  1  0.50572163  0.76758331  0.89058858  1.0
  Se  Se44  1  0.47934137  0.24464776  0.39826143  1.0
  Se  Se45  1  0.47934137  0.25535224  0.89826143  1.0
  Se  Se46  1  0.52065863  0.74464776  0.10173857  1.0
  Se  Se47  1  0.52065863  0.75535224  0.60173857  1.0
