# generated using pymatgen
data_SbPtS
_symmetry_space_group_name_H-M   'P 1'
_cell_length_a   6.27094874
_cell_length_b   6.27094874
_cell_length_c   6.27094874
_cell_angle_alpha   90.00000000
_cell_angle_beta   90.00000000
_cell_angle_gamma   90.00000000
_symmetry_Int_Tables_number   1
_chemical_formula_structural   SbPtS
_chemical_formula_sum   'Sb4 Pt4 S4'
_cell_volume   246.60379304
_cell_formula_units_Z   4
loop_
 _symmetry_equiv_pos_site_id
 _symmetry_equiv_pos_as_xyz
  1  'x, y, z'
loop_
 _atom_site_type_symbol
 _atom_site_label
 _atom_site_symmetry_multiplicity
 _atom_site_fract_x
 _atom_site_fract_y
 _atom_site_fract_z
 _atom_site_occupancy
  Sb  Sb0  1  0.12330637  0.62330637  0.87669363  1.0
  Sb  Sb1  1  0.62330637  0.87669363  0.12330637  1.0
  Sb  Sb2  1  0.87669363  0.12330637  0.62330637  1.0
  Sb  Sb3  1  0.37669363  0.37669363  0.37669363  1.0
  Pt  Pt4  1  0.48960850  0.98960850  0.51039150  1.0
  Pt  Pt5  1  0.98960850  0.51039150  0.48960850  1.0
  Pt  Pt6  1  0.51039150  0.48960850  0.98960850  1.0
  Pt  Pt7  1  0.01039150  0.01039150  0.01039150  1.0
  S  S8  1  0.88767680  0.38767680  0.11232320  1.0
  S  S9  1  0.38767680  0.11232320  0.88767680  1.0
  S  S10  1  0.11232320  0.88767680  0.38767680  1.0
  S  S11  1  0.61232320  0.61232320  0.61232320  1.0
