# generated using pymatgen
data_GdSbS
_symmetry_space_group_name_H-M   'P 1'
_cell_length_a   4.10944595
_cell_length_b   17.45842050
_cell_length_c   5.81653904
_cell_angle_alpha   90.00000000
_cell_angle_beta   135.07789565
_cell_angle_gamma   90.00000000
_symmetry_Int_Tables_number   1
_chemical_formula_structural   GdSbS
_chemical_formula_sum   'Gd4 Sb4 S4'
_cell_volume   294.67726459
_cell_formula_units_Z   4
loop_
 _symmetry_equiv_pos_site_id
 _symmetry_equiv_pos_as_xyz
  1  'x, y, z'
loop_
 _atom_site_type_symbol
 _atom_site_label
 _atom_site_symmetry_multiplicity
 _atom_site_fract_x
 _atom_site_fract_y
 _atom_site_fract_z
 _atom_site_occupancy
  Gd  Gd0  1  0.99972899  0.15470090  0.24962147  1.0
  Gd  Gd1  1  0.99972899  0.34529910  0.74962147  1.0
  Gd  Gd2  1  0.00027101  0.65470090  0.25037853  1.0
  Gd  Gd3  1  0.00027101  0.84529910  0.75037853  1.0
  Sb  Sb4  1  0.49993345  0.50006737  0.24994550  1.0
  Sb  Sb5  1  0.49993345  -0.00006737  0.74994550  1.0
  Sb  Sb6  1  0.50006655  1.00006737  0.25005450  1.0
  Sb  Sb7  1  0.50006655  0.49993263  0.75005450  1.0
  S  S8  1  0.99968765  0.31390823  0.24959077  1.0
  S  S9  1  0.99968765  0.18609177  0.74959077  1.0
  S  S10  1  0.00031235  0.81390823  0.25040923  1.0
  S  S11  1  0.00031235  0.68609177  0.75040923  1.0
