# generated using pymatgen
data_Y3(P3Pd10)2
_symmetry_space_group_name_H-M   'P 1'
_cell_length_a   8.66578013
_cell_length_b   8.66578013
_cell_length_c   8.66578013
_cell_angle_alpha   60.00000000
_cell_angle_beta   60.00000000
_cell_angle_gamma   60.00000000
_symmetry_Int_Tables_number   1
_chemical_formula_structural   Y3(P3Pd10)2
_chemical_formula_sum   'Y3 P6 Pd20'
_cell_volume   460.15908419
_cell_formula_units_Z   1
loop_
 _symmetry_equiv_pos_site_id
 _symmetry_equiv_pos_as_xyz
  1  'x, y, z'
loop_
 _atom_site_type_symbol
 _atom_site_label
 _atom_site_symmetry_multiplicity
 _atom_site_fract_x
 _atom_site_fract_y
 _atom_site_fract_z
 _atom_site_occupancy
  Y  Y0  1  0.75000000  0.75000000  -0.25000000  1.0
  Y  Y1  1  1.25000000  0.25000000  0.25000000  1.0
  Y  Y2  1  0.00000000  -0.00000000  0.00000000  1.0
  P  P3  1  -0.73713596  0.73713596  0.73713596  1.0
  P  P4  1  -0.26286404  0.26286404  0.73713596  1.0
  P  P5  1  0.73713596  0.73713596  -0.73713596  1.0
  P  P6  1  0.26286404  1.26286404  -0.26286404  1.0
  P  P7  1  0.26286404  -0.26286404  1.26286404  1.0
  P  P8  1  -0.26286404  0.26286404  0.26286404  1.0
  Pd  Pd9  1  1.65437681  0.00000000  -0.00000000  1.0
  Pd  Pd10  1  1.00000000  0.34562319  -0.34562319  1.0
  Pd  Pd11  1  1.00000000  0.65437681  -0.65437681  1.0
  Pd  Pd12  1  1.34562319  0.00000000  -0.00000000  1.0
  Pd  Pd13  1  0.00000000  1.65437681  -0.00000000  1.0
  Pd  Pd14  1  0.34562319  1.00000000  -0.34562319  1.0
  Pd  Pd15  1  0.00000000  -0.00000000  0.65437681  1.0
  Pd  Pd16  1  0.34562319  -0.34562319  1.00000000  1.0
  Pd  Pd17  1  0.65437681  1.00000000  -0.65437681  1.0
  Pd  Pd18  1  0.00000000  1.34562319  -0.00000000  1.0
  Pd  Pd19  1  0.65437681  -0.65437681  1.00000000  1.0
  Pd  Pd20  1  -0.00000000  0.00000000  0.34562319  1.0
  Pd  Pd21  1  0.61540404  0.61540404  -0.38459596  1.0
  Pd  Pd22  1  0.38459596  1.38459596  -0.15378789  1.0
  Pd  Pd23  1  1.38459596  -0.15378789  0.38459596  1.0
  Pd  Pd24  1  1.15378789  0.61540404  0.61540404  1.0
  Pd  Pd25  1  -0.15378789  1.38459596  0.38459596  1.0
  Pd  Pd26  1  0.61540404  1.15378789  -0.38459596  1.0
  Pd  Pd27  1  0.61540404  0.61540404  1.15378789  1.0
  Pd  Pd28  1  1.38459596  0.38459596  0.38459596  1.0
