# generated using pymatgen
data_SiS2
_symmetry_space_group_name_H-M   'P 1'
_cell_length_a   7.50270285
_cell_length_b   7.60873199
_cell_length_c   15.37234051
_cell_angle_alpha   90.00000000
_cell_angle_beta   101.11852825
_cell_angle_gamma   90.00000000
_symmetry_Int_Tables_number   1
_chemical_formula_structural   SiS2
_chemical_formula_sum   'Si12 S24'
_cell_volume   861.07504643
_cell_formula_units_Z   12
loop_
 _symmetry_equiv_pos_site_id
 _symmetry_equiv_pos_as_xyz
  1  'x, y, z'
loop_
 _atom_site_type_symbol
 _atom_site_label
 _atom_site_symmetry_multiplicity
 _atom_site_fract_x
 _atom_site_fract_y
 _atom_site_fract_z
 _atom_site_occupancy
  Si  Si0  1  0.93871800  0.64329624  0.66276854  1.0
  Si  Si1  1  0.93871800  0.85670376  0.16276854  1.0
  Si  Si2  1  0.06128200  0.14329624  0.83723146  1.0
  Si  Si3  1  0.06128200  0.35670376  0.33723146  1.0
  Si  Si4  1  0.80912705  0.87200142  0.83662148  1.0
  Si  Si5  1  0.80912705  0.62799858  0.33662148  1.0
  Si  Si6  1  0.19087295  0.37200142  0.66337852  1.0
  Si  Si7  1  0.19087295  0.12799858  0.16337852  1.0
  Si  Si8  1  0.63519185  0.62865329  0.99918691  1.0
  Si  Si9  1  0.63519185  0.87134671  0.49918691  1.0
  Si  Si10  1  0.36480815  0.12865329  0.50081309  1.0
  Si  Si11  1  0.36480815  0.37134671  0.00081309  1.0
  S  S12  1  0.90625142  0.87357288  0.57879470  1.0
  S  S13  1  0.90625142  0.62642712  0.07879470  1.0
  S  S14  1  0.09374858  0.37357288  0.92120530  1.0
  S  S15  1  0.09374858  0.12642712  0.42120530  1.0
  S  S16  1  0.91085112  0.39115227  0.59813995  1.0
  S  S17  1  0.91085112  0.10884773  0.09813995  1.0
  S  S18  1  0.08914888  0.89115227  0.90186005  1.0
  S  S19  1  0.08914888  0.60884773  0.40186005  1.0
  S  S20  1  0.74794682  0.64568596  0.75174563  1.0
  S  S21  1  0.74794682  0.85431404  0.25174563  1.0
  S  S22  1  0.25205318  0.14568596  0.74825437  1.0
  S  S23  1  0.25205318  0.35431404  0.24825437  1.0
  S  S24  1  0.60050180  0.86020169  0.91634827  1.0
  S  S25  1  0.60050180  0.63979831  0.41634827  1.0
  S  S26  1  0.39949820  0.36020169  0.58365173  1.0
  S  S27  1  0.39949820  0.13979831  0.08365173  1.0
  S  S28  1  0.41141415  0.87985103  0.56843820  1.0
  S  S29  1  0.41141415  0.62014897  0.06843820  1.0
  S  S30  1  0.58858585  0.37985103  0.93156180  1.0
  S  S31  1  0.58858585  0.12014897  0.43156180  1.0
  S  S32  1  0.21968049  0.62547042  0.72642381  1.0
  S  S33  1  0.21968049  0.87452958  0.22642381  1.0
  S  S34  1  0.78031951  0.12547042  0.77357619  1.0
  S  S35  1  0.78031951  0.37452958  0.27357619  1.0
