# generated using pymatgen
data_ZrSbPd
_symmetry_space_group_name_H-M   'P 1'
_cell_length_a   6.84586738
_cell_length_b   4.35455399
_cell_length_c   8.02496259
_cell_angle_alpha   90.00000000
_cell_angle_beta   90.00000000
_cell_angle_gamma   90.00000000
_symmetry_Int_Tables_number   1
_chemical_formula_structural   ZrSbPd
_chemical_formula_sum   'Zr4 Sb4 Pd4'
_cell_volume   239.22974502
_cell_formula_units_Z   4
loop_
 _symmetry_equiv_pos_site_id
 _symmetry_equiv_pos_as_xyz
  1  'x, y, z'
loop_
 _atom_site_type_symbol
 _atom_site_label
 _atom_site_symmetry_multiplicity
 _atom_site_fract_x
 _atom_site_fract_y
 _atom_site_fract_z
 _atom_site_occupancy
  Zr  Zr0  1  0.98156286  0.75000000  0.69637030  1.0
  Zr  Zr1  1  0.48156286  0.75000000  0.80362970  1.0
  Zr  Zr2  1  0.01843714  0.25000000  0.30362970  1.0
  Zr  Zr3  1  0.51843714  0.25000000  0.19637030  1.0
  Sb  Sb4  1  0.73516515  0.75000000  0.39326326  1.0
  Sb  Sb5  1  0.23516515  0.75000000  0.10673674  1.0
  Sb  Sb6  1  0.26483485  0.25000000  0.60673674  1.0
  Sb  Sb7  1  0.76483485  0.25000000  0.89326326  1.0
  Pd  Pd8  1  0.83579628  0.75000000  0.07272856  1.0
  Pd  Pd9  1  0.33579628  0.75000000  0.42727144  1.0
  Pd  Pd10  1  0.16420372  0.25000000  0.92727144  1.0
  Pd  Pd11  1  0.66420372  0.25000000  0.57272856  1.0
