# generated using pymatgen
data_YFeO3
_symmetry_space_group_name_H-M   'P 1'
_cell_length_a   6.17897368
_cell_length_b   6.17897368
_cell_length_c   11.49941764
_cell_angle_alpha   90.00000000
_cell_angle_beta   90.00000000
_cell_angle_gamma   120.00000000
_symmetry_Int_Tables_number   1
_chemical_formula_structural   YFeO3
_chemical_formula_sum   'Y6 Fe6 O18'
_cell_volume   380.22368724
_cell_formula_units_Z   6
loop_
 _symmetry_equiv_pos_site_id
 _symmetry_equiv_pos_as_xyz
  1  'x, y, z'
loop_
 _atom_site_type_symbol
 _atom_site_label
 _atom_site_symmetry_multiplicity
 _atom_site_fract_x
 _atom_site_fract_y
 _atom_site_fract_z
 _atom_site_occupancy
  Y  Y0  1  0.33333333  0.66666667  0.03689375  1.0
  Y  Y1  1  0.33333333  0.66666667  0.53689375  1.0
  Y  Y2  1  0.66666667  0.33333333  0.03689375  1.0
  Y  Y3  1  0.66666667  0.33333333  0.53689375  1.0
  Y  Y4  1  0.00000000  0.00000000  -0.00829219  1.0
  Y  Y5  1  0.00000000  0.00000000  0.49170781  1.0
  Fe  Fe6  1  0.66592569  0.66592569  0.26786912  1.0
  Fe  Fe7  1  0.66592569  0.00000000  0.76786912  1.0
  Fe  Fe8  1  -0.00000000  0.66592569  0.76786912  1.0
  Fe  Fe9  1  0.00000000  0.33407431  0.26786912  1.0
  Fe  Fe10  1  0.33407431  0.33407431  0.76786912  1.0
  Fe  Fe11  1  0.33407431  0.00000000  0.26786912  1.0
  O  O12  1  0.69316906  0.69316906  0.10324230  1.0
  O  O13  1  0.69316906  0.00000000  0.60324230  1.0
  O  O14  1  0.00000000  0.69316906  0.60324230  1.0
  O  O15  1  -0.00000000  0.30683094  0.10324230  1.0
  O  O16  1  0.30683094  0.30683094  0.60324230  1.0
  O  O17  1  0.30683094  0.00000000  0.10324230  1.0
  O  O18  1  0.00000000  0.00000000  0.29063285  1.0
  O  O19  1  0.00000000  0.00000000  0.79063285  1.0
  O  O20  1  0.33333333  0.66666667  0.24781332  1.0
  O  O21  1  0.33333333  0.66666667  0.74781332  1.0
  O  O22  1  0.66666667  0.33333333  0.24781332  1.0
  O  O23  1  0.66666667  0.33333333  0.74781332  1.0
  O  O24  1  0.64066541  0.64066541  0.43130364  1.0
  O  O25  1  0.64066541  0.00000000  0.93130364  1.0
  O  O26  1  0.00000000  0.64066541  0.93130364  1.0
  O  O27  1  -0.00000000  0.35933459  0.43130364  1.0
  O  O28  1  0.35933459  0.35933459  0.93130364  1.0
  O  O29  1  0.35933459  0.00000000  0.43130364  1.0
