# generated using pymatgen
data_K2BaCdSb2
_symmetry_space_group_name_H-M   'P 1'
_cell_length_a   5.08837102
_cell_length_b   10.00512822
_cell_length_c   8.64304339
_cell_angle_alpha   90.00000000
_cell_angle_beta   90.00000000
_cell_angle_gamma   90.00000000
_symmetry_Int_Tables_number   1
_chemical_formula_structural   K2BaCdSb2
_chemical_formula_sum   'K4 Ba2 Cd2 Sb4'
_cell_volume   440.01564894
_cell_formula_units_Z   2
loop_
 _symmetry_equiv_pos_site_id
 _symmetry_equiv_pos_as_xyz
  1  'x, y, z'
loop_
 _atom_site_type_symbol
 _atom_site_label
 _atom_site_symmetry_multiplicity
 _atom_site_fract_x
 _atom_site_fract_y
 _atom_site_fract_z
 _atom_site_occupancy
  K  K0  1  0.50000000  0.58264634  0.47959659  1.0
  K  K1  1  0.50000000  0.41735366  0.97959659  1.0
  K  K2  1  0.00000000  0.66222814  0.15154468  1.0
  K  K3  1  0.00000000  0.33777186  0.65154468  1.0
  Ba  Ba4  1  0.00000000  0.94970403  0.50336491  1.0
  Ba  Ba5  1  0.00000000  0.05029597  0.00336491  1.0
  Cd  Cd6  1  0.50000000  0.82238274  0.84640091  1.0
  Cd  Cd7  1  0.50000000  0.17761726  0.34640091  1.0
  Sb  Sb8  1  0.50000000  0.88808120  0.21346852  1.0
  Sb  Sb9  1  0.50000000  0.11191880  0.71346852  1.0
  Sb  Sb10  1  0.00000000  0.32057827  0.26002440  1.0
  Sb  Sb11  1  0.00000000  0.67942173  0.76002440  1.0
