# generated using pymatgen
data_SeO5
_symmetry_space_group_name_H-M   'P 1'
_cell_length_a   10.63949667
_cell_length_b   10.11561487
_cell_length_c   8.05018612
_cell_angle_alpha   90.00000000
_cell_angle_beta   90.00000000
_cell_angle_gamma   90.00000000
_symmetry_Int_Tables_number   1
_chemical_formula_structural   SeO5
_chemical_formula_sum   'Se8 O40'
_cell_volume   866.40168892
_cell_formula_units_Z   8
loop_
 _symmetry_equiv_pos_site_id
 _symmetry_equiv_pos_as_xyz
  1  'x, y, z'
loop_
 _atom_site_type_symbol
 _atom_site_label
 _atom_site_symmetry_multiplicity
 _atom_site_fract_x
 _atom_site_fract_y
 _atom_site_fract_z
 _atom_site_occupancy
  O  O0  1  0.18666743  0.52674729  0.24949869  1.0
  O  O1  1  0.18666743  -0.02674729  0.74949868  1.0
  O  O2  1  0.68666743  0.52674729  0.25050131  1.0
  O  O3  1  0.68666743  -0.02674729  0.75050131  1.0
  O  O4  1  0.81333257  1.02674729  0.25050131  1.0
  O  O5  1  0.81333257  0.47325271  0.75050131  1.0
  O  O6  1  0.31333257  1.02674729  0.24949869  1.0
  O  O7  1  0.31333257  0.47325271  0.74949868  1.0
  O  O8  1  0.02558944  0.23175753  0.35282593  1.0
  O  O9  1  0.02558944  0.26824247  0.85282593  1.0
  O  O10  1  0.52558944  0.23175753  0.14717407  1.0
  O  O11  1  0.52558944  0.26824247  0.64717407  1.0
  O  O12  1  0.97441056  0.73175753  0.14717407  1.0
  O  O13  1  0.97441056  0.76824247  0.64717407  1.0
  O  O14  1  0.47441056  0.73175753  0.35282593  1.0
  O  O15  1  0.47441056  0.76824247  0.85282593  1.0
  O  O16  1  0.43775982  0.34916489  0.35096562  1.0
  O  O17  1  0.43775982  0.15083511  0.85096562  1.0
  O  O18  1  0.93775982  0.34916489  0.14903438  1.0
  O  O19  1  0.93775982  0.15083511  0.64903438  1.0
  O  O20  1  0.56224018  0.84916489  0.14903438  1.0
  O  O21  1  0.56224018  0.65083511  0.64903438  1.0
  O  O22  1  0.06224018  0.84916489  0.35096562  1.0
  O  O23  1  0.06224018  0.65083511  0.85096562  1.0
  O  O24  1  0.26864109  0.18970895  0.10048910  1.0
  O  O25  1  0.26864109  0.31029105  0.60048910  1.0
  O  O26  1  0.76864109  0.18970895  0.39951090  1.0
  O  O27  1  0.76864109  0.31029105  0.89951090  1.0
  O  O28  1  0.73135891  0.68970895  0.39951090  1.0
  O  O29  1  0.73135891  0.81029105  0.89951090  1.0
  O  O30  1  0.23135891  0.68970895  0.10048910  1.0
  O  O31  1  0.23135891  0.81029105  0.60048910  1.0
  O  O32  1  0.38085390  0.40877955  -0.03309602  1.0
  O  O33  1  0.38085390  0.09122045  0.46690398  1.0
  O  O34  1  0.88085390  0.40877955  0.53309602  1.0
  O  O35  1  0.88085390  0.09122045  1.03309602  1.0
  O  O36  1  0.61914610  0.90877955  0.53309602  1.0
  O  O37  1  0.61914610  0.59122045  1.03309602  1.0
  O  O38  1  0.11914610  0.90877955  -0.03309602  1.0
  O  O39  1  0.11914610  0.59122045  0.46690398  1.0
  Se  Se40  1  0.40229275  0.24773223  0.01546571  1.0
  Se  Se41  1  0.40229275  0.25226777  0.51546571  1.0
  Se  Se42  1  0.90229275  0.24773223  0.48453429  1.0
  Se  Se43  1  0.90229275  0.25226777  0.98453429  1.0
  Se  Se44  1  0.59770725  0.74773223  0.48453429  1.0
  Se  Se45  1  0.59770725  0.75226777  0.98453429  1.0
  Se  Se46  1  0.09770725  0.74773223  0.01546571  1.0
  Se  Se47  1  0.09770725  0.75226777  0.51546571  1.0
