# generated using pymatgen
data_MnV2O4
_symmetry_space_group_name_H-M   'P 1'
_cell_length_a   6.02616694
_cell_length_b   6.02616694
_cell_length_c   6.02616694
_cell_angle_alpha   60.00000000
_cell_angle_beta   60.00000000
_cell_angle_gamma   60.00000000
_symmetry_Int_Tables_number   1
_chemical_formula_structural   MnV2O4
_chemical_formula_sum   'Mn2 V4 O8'
_cell_volume   154.74209676
_cell_formula_units_Z   2
loop_
 _symmetry_equiv_pos_site_id
 _symmetry_equiv_pos_as_xyz
  1  'x, y, z'
loop_
 _atom_site_type_symbol
 _atom_site_label
 _atom_site_symmetry_multiplicity
 _atom_site_fract_x
 _atom_site_fract_y
 _atom_site_fract_z
 _atom_site_occupancy
  Mn  Mn0  1  0.75000000  -0.25000000  0.75000000  1.0
  Mn  Mn1  1  0.50000000  0.50000000  -0.50000000  1.0
  V  V2  1  0.12500000  0.12500000  1.62500000  1.0
  V  V3  1  0.12500000  0.62500000  0.12500000  1.0
  V  V4  1  0.62500000  0.12500000  1.12500000  1.0
  V  V5  1  0.12500000  0.12500000  0.12500000  1.0
  O  O6  1  0.36361307  0.36361307  -0.09083921  1.0
  O  O7  1  0.36361307  -0.09083921  0.36361307  1.0
  O  O8  1  -0.09083921  0.36361307  0.36361307  1.0
  O  O9  1  0.36361307  0.36361307  0.36361307  1.0
  O  O10  1  -0.11361307  0.88638693  0.34083921  1.0
  O  O11  1  0.88638693  -0.65916079  0.88638693  1.0
  O  O12  1  -0.65916079  0.88638693  0.88638693  1.0
  O  O13  1  0.88638693  -0.11361307  0.88638693  1.0
