# generated using pymatgen
data_Na3H2SNO8
_symmetry_space_group_name_H-M   'P 1'
_cell_length_a   5.20171783
_cell_length_b   7.03994060
_cell_length_c   10.80702455
_cell_angle_alpha   90.00000000
_cell_angle_beta   102.68766000
_cell_angle_gamma   90.00000000
_symmetry_Int_Tables_number   1
_chemical_formula_structural   Na3H2SNO8
_chemical_formula_sum   'Na6 H4 S2 N2 O16'
_cell_volume   386.08741318
_cell_formula_units_Z   2
loop_
 _symmetry_equiv_pos_site_id
 _symmetry_equiv_pos_as_xyz
  1  'x, y, z'
loop_
 _atom_site_type_symbol
 _atom_site_label
 _atom_site_symmetry_multiplicity
 _atom_site_fract_x
 _atom_site_fract_y
 _atom_site_fract_z
 _atom_site_occupancy
  Na  Na0  1  0.63174631  0.99347859  0.27471979  1.0
  Na  Na1  1  0.63174631  0.50652141  0.27471979  1.0
  Na  Na2  1  0.36825369  0.49347859  0.72528021  1.0
  Na  Na3  1  0.36825369  0.00652141  0.72528021  1.0
  Na  Na4  1  0.77300899  0.75000000  0.59745288  1.0
  Na  Na5  1  0.22699101  0.25000000  0.40254712  1.0
  H  H6  1  0.68289414  0.75000000  0.05857845  1.0
  H  H7  1  0.31710586  0.25000000  0.94142155  1.0
  H  H8  1  0.37878672  0.75000000  0.05873002  1.0
  H  H9  1  0.62121328  0.25000000  0.94126998  1.0
  S  S10  1  0.17554279  0.75000000  0.42023900  1.0
  S  S11  1  0.82445721  0.25000000  0.57976100  1.0
  N  N12  1  0.93354006  0.75000000  0.87859328  1.0
  N  N13  1  0.06645994  0.25000000  0.12140672  1.0
  O  O14  1  0.73718256  0.42396383  0.63728987  1.0
  O  O15  1  0.73718256  0.07603616  0.63728987  1.0
  O  O16  1  0.26281744  0.92396383  0.36271013  1.0
  O  O17  1  0.26281744  0.57603616  0.36271013  1.0
  O  O18  1  1.00781633  0.75000000  0.99764556  1.0
  O  O19  1  -0.00781633  0.25000000  0.00235444  1.0
  O  O20  1  0.87961461  0.75000000  0.39852967  1.0
  O  O21  1  0.12038539  0.25000000  0.60147033  1.0
  O  O22  1  0.69017591  0.75000000  0.82786968  1.0
  O  O23  1  0.30982409  0.25000000  0.17213032  1.0
  O  O24  1  0.55646747  0.75000000  0.11420381  1.0
  O  O25  1  0.44353253  0.25000000  0.88579619  1.0
  O  O26  1  0.28700386  0.75000000  0.56175005  1.0
  O  O27  1  0.71299614  0.25000000  0.43824995  1.0
  O  O28  1  0.10076424  0.75000000  0.80943274  1.0
  O  O29  1  0.89923576  0.25000000  0.19056726  1.0
