# generated using pymatgen
data_Li3H4Rh
_symmetry_space_group_name_H-M   'P 1'
_cell_length_a   4.84591221
_cell_length_b   4.84591221
_cell_length_c   8.78850726
_cell_angle_alpha   90.00000000
_cell_angle_beta   90.00000000
_cell_angle_gamma   134.18106028
_symmetry_Int_Tables_number   1
_chemical_formula_structural   Li3H4Rh
_chemical_formula_sum   'Li6 H8 Rh2'
_cell_volume   148.00308440
_cell_formula_units_Z   2
loop_
 _symmetry_equiv_pos_site_id
 _symmetry_equiv_pos_as_xyz
  1  'x, y, z'
loop_
 _atom_site_type_symbol
 _atom_site_label
 _atom_site_symmetry_multiplicity
 _atom_site_fract_x
 _atom_site_fract_y
 _atom_site_fract_z
 _atom_site_occupancy
  Li  Li0  1  0.16383143  0.83616857  0.42973634  1.0
  Li  Li1  1  0.16383143  0.83616857  0.07026366  1.0
  Li  Li2  1  -0.16383143  0.16383143  0.92973634  1.0
  Li  Li3  1  -0.16383143  0.16383143  0.57026366  1.0
  Li  Li4  1  -0.49118265  0.49118265  0.75000000  1.0
  Li  Li5  1  0.49118265  0.50881735  0.25000000  1.0
  H  H6  1  0.06263561  0.93736439  0.87742025  1.0
  H  H7  1  0.06263561  0.93736439  0.62257975  1.0
  H  H8  1  -0.06263561  0.06263561  0.37742025  1.0
  H  H9  1  -0.06263561  0.06263561  0.12257975  1.0
  H  H10  1  0.33077612  0.66922388  0.88799322  1.0
  H  H11  1  0.33077612  0.66922388  0.61200678  1.0
  H  H12  1  -0.33077612  0.33077612  0.38799322  1.0
  H  H13  1  -0.33077612  0.33077612  0.11200678  1.0
  Rh  Rh14  1  0.20105967  0.79894033  0.75000000  1.0
  Rh  Rh15  1  -0.20105967  0.20105967  0.25000000  1.0
