# generated using pymatgen
data_Tl4GeS4
_symmetry_space_group_name_H-M   'P 1'
_cell_length_a   8.74928331
_cell_length_b   8.74928331
_cell_length_c   7.86811480
_cell_angle_alpha   72.73490322
_cell_angle_beta   107.26509678
_cell_angle_gamma   96.16514310
_symmetry_Int_Tables_number   1
_chemical_formula_structural   Tl4GeS4
_chemical_formula_sum   'Tl8 Ge2 S8'
_cell_volume   549.12606834
_cell_formula_units_Z   2
loop_
 _symmetry_equiv_pos_site_id
 _symmetry_equiv_pos_as_xyz
  1  'x, y, z'
loop_
 _atom_site_type_symbol
 _atom_site_label
 _atom_site_symmetry_multiplicity
 _atom_site_fract_x
 _atom_site_fract_y
 _atom_site_fract_z
 _atom_site_occupancy
  Tl  Tl0  1  0.73045791  0.05126959  0.80062592  1.0
  Tl  Tl1  1  0.94873041  0.26954209  0.30062592  1.0
  Tl  Tl2  1  1.04872135  -0.32414839  0.36530602  1.0
  Tl  Tl3  1  1.32414839  -0.04872135  0.86530602  1.0
  Tl  Tl4  1  0.34673563  0.10463200  0.32785386  1.0
  Tl  Tl5  1  0.89536800  0.65326437  0.82785386  1.0
  Tl  Tl6  1  0.51982650  0.48886756  0.36653685  1.0
  Tl  Tl7  1  0.51113244  0.48017350  0.86653685  1.0
  Ge  Ge8  1  1.69314905  -0.11155847  0.31702985  1.0
  Ge  Ge9  1  1.11155847  -0.69314905  0.81702985  1.0
  S  S10  1  0.93953237  0.92218679  0.50006242  1.0
  S  S11  1  0.07781321  0.06046763  0.00006242  1.0
  S  S12  1  1.70473188  -0.26675504  0.13967044  1.0
  S  S13  1  1.26675504  -0.70473188  0.63967044  1.0
  S  S14  1  1.52640312  -0.22227811  0.49037268  1.0
  S  S15  1  1.22227811  -0.52640312  0.99037268  1.0
  S  S16  1  0.59921211  0.12615397  0.12584196  1.0
  S  S17  1  0.87384603  0.40078789  0.62584196  1.0
