# generated using pymatgen
data_Li3FeF6
_symmetry_space_group_name_H-M   'P 1'
_cell_length_a   9.74954947
_cell_length_b   8.61737628
_cell_length_c   5.06084494
_cell_angle_alpha   90.00000000
_cell_angle_beta   90.00000000
_cell_angle_gamma   90.00000000
_symmetry_Int_Tables_number   1
_chemical_formula_structural   Li3FeF6
_chemical_formula_sum   'Li12 Fe4 F24'
_cell_volume   425.18960202
_cell_formula_units_Z   4
loop_
 _symmetry_equiv_pos_site_id
 _symmetry_equiv_pos_as_xyz
  1  'x, y, z'
loop_
 _atom_site_type_symbol
 _atom_site_label
 _atom_site_symmetry_multiplicity
 _atom_site_fract_x
 _atom_site_fract_y
 _atom_site_fract_z
 _atom_site_occupancy
  Li  Li0  1  0.39663460  0.45286570  0.50105516  1.0
  Li  Li1  1  0.89663460  0.04713430  0.50105516  1.0
  Li  Li2  1  0.60336540  0.54713430  0.00105516  1.0
  Li  Li3  1  0.10336540  0.95286570  0.00105516  1.0
  Li  Li4  1  0.35118834  0.04797956  0.49444105  1.0
  Li  Li5  1  0.85118834  0.45202044  0.49444105  1.0
  Li  Li6  1  0.64881166  0.95202044  0.99444105  1.0
  Li  Li7  1  0.14881166  0.54797956  0.99444105  1.0
  Li  Li8  1  0.12453994  0.35857421  0.48851323  1.0
  Li  Li9  1  0.62453994  0.14142579  0.48851323  1.0
  Li  Li10  1  0.87546006  0.64142579  0.98851323  1.0
  Li  Li11  1  0.37546006  0.85857421  0.98851323  1.0
  Fe  Fe12  1  0.37144360  0.24077152  0.99741200  1.0
  Fe  Fe13  1  0.87144360  0.25922848  0.99741200  1.0
  Fe  Fe14  1  0.62855640  0.75922848  0.49741200  1.0
  Fe  Fe15  1  0.12855640  0.74077152  0.49741200  1.0
  F  F16  1  0.49089212  0.08333243  0.17824107  1.0
  F  F17  1  0.99089212  0.41666757  0.17824107  1.0
  F  F18  1  0.50910788  0.91666757  0.67824107  1.0
  F  F19  1  0.00910788  0.58333243  0.67824107  1.0
  F  F20  1  0.47738885  0.24562034  0.67102952  1.0
  F  F21  1  0.97738885  0.25437966  0.67102952  1.0
  F  F22  1  0.52261115  0.75437966  0.17102952  1.0
  F  F23  1  0.02261115  0.74562034  0.17102952  1.0
  F  F24  1  0.47620141  0.40814557  0.15561296  1.0
  F  F25  1  0.97620141  0.09185443  0.15561296  1.0
  F  F26  1  0.52379859  0.59185443  0.65561296  1.0
  F  F27  1  0.02379859  0.90814557  0.65561296  1.0
  F  F28  1  0.27189527  0.05865993  0.85001949  1.0
  F  F29  1  0.77189527  0.44134007  0.85001949  1.0
  F  F30  1  0.72810473  0.94134007  0.35001949  1.0
  F  F31  1  0.22810473  0.55865993  0.35001949  1.0
  F  F32  1  0.25860129  0.23185579  0.31364337  1.0
  F  F33  1  0.75860129  0.26814421  0.31364337  1.0
  F  F34  1  0.74139871  0.76814421  0.81364337  1.0
  F  F35  1  0.24139871  0.73185579  0.81364337  1.0
  F  F36  1  0.25078466  0.88921899  0.31153215  1.0
  F  F37  1  0.75078466  0.61078101  0.31153215  1.0
  F  F38  1  0.74921534  0.11078101  0.81153215  1.0
  F  F39  1  0.24921534  0.38921899  0.81153215  1.0
