# generated using pymatgen
data_KNaMo(OF2)2
_symmetry_space_group_name_H-M   'P 1'
_cell_length_a   6.09217969
_cell_length_b   6.09217969
_cell_length_c   8.44644659
_cell_angle_alpha   90.00000000
_cell_angle_beta   90.00000000
_cell_angle_gamma   90.00000000
_symmetry_Int_Tables_number   1
_chemical_formula_structural   KNaMo(OF2)2
_chemical_formula_sum   'K2 Na2 Mo2 O4 F8'
_cell_volume   313.48693717
_cell_formula_units_Z   2
loop_
 _symmetry_equiv_pos_site_id
 _symmetry_equiv_pos_as_xyz
  1  'x, y, z'
loop_
 _atom_site_type_symbol
 _atom_site_label
 _atom_site_symmetry_multiplicity
 _atom_site_fract_x
 _atom_site_fract_y
 _atom_site_fract_z
 _atom_site_occupancy
  Na  Na0  1  0.50000000  0.00000000  0.22159154  1.0
  Na  Na1  1  0.00000000  0.50000000  0.77840846  1.0
  O  O2  1  0.00000000  0.50000000  0.05064267  1.0
  O  O3  1  0.50000000  0.00000000  0.94935733  1.0
  O  O4  1  0.00000000  0.50000000  0.47720148  1.0
  O  O5  1  0.50000000  0.00000000  0.52279852  1.0
  F  F6  1  0.22657868  0.27342132  0.26684446  1.0
  F  F7  1  0.77342132  0.27342132  0.26684446  1.0
  F  F8  1  0.22657868  0.72657868  0.26684446  1.0
  F  F9  1  0.77342132  0.72657868  0.26684446  1.0
  F  F10  1  0.27342132  0.22657868  0.73315554  1.0
  F  F11  1  0.72657868  0.22657868  0.73315554  1.0
  F  F12  1  0.27342132  0.77342132  0.73315554  1.0
  F  F13  1  0.72657868  0.77342132  0.73315554  1.0
  Mo  Mo14  1  0.00000000  0.50000000  0.25956572  1.0
  Mo  Mo15  1  0.50000000  0.00000000  0.74043428  1.0
  K  K16  1  0.50000000  0.50000000  0.50000000  1.0
  K  K17  1  0.00000000  0.00000000  0.50000000  1.0
