# generated using pymatgen
data_AlCuAsO5
_symmetry_space_group_name_H-M   'P 1'
_cell_length_a   7.47783681
_cell_length_b   10.35386571
_cell_length_c   5.76078292
_cell_angle_alpha   90.00000000
_cell_angle_beta   100.72102806
_cell_angle_gamma   90.00000000
_symmetry_Int_Tables_number   1
_chemical_formula_structural   AlCuAsO5
_chemical_formula_sum   'Al4 Cu4 As4 O20'
_cell_volume   438.24027755
_cell_formula_units_Z   4
loop_
 _symmetry_equiv_pos_site_id
 _symmetry_equiv_pos_as_xyz
  1  'x, y, z'
loop_
 _atom_site_type_symbol
 _atom_site_label
 _atom_site_symmetry_multiplicity
 _atom_site_fract_x
 _atom_site_fract_y
 _atom_site_fract_z
 _atom_site_occupancy
  O  O0  1  0.93228555  0.19465901  0.95823423  1.0
  O  O1  1  0.93228555  0.30534099  0.45823423  1.0
  O  O2  1  0.06771445  0.69465901  0.54176577  1.0
  O  O3  1  0.06771445  0.80534099  0.04176577  1.0
  O  O4  1  0.73426991  0.72279316  0.73524501  1.0
  O  O5  1  0.73426991  0.77720684  0.23524501  1.0
  O  O6  1  0.26573009  0.22279316  0.76475499  1.0
  O  O7  1  0.26573009  0.27720684  0.26475499  1.0
  O  O8  1  0.69344145  0.98614726  0.88764127  1.0
  O  O9  1  0.69344145  0.51385274  0.38764127  1.0
  O  O10  1  0.30655855  0.48614726  0.61235873  1.0
  O  O11  1  0.30655855  0.01385274  0.11235873  1.0
  O  O12  1  0.40662436  0.79466967  0.87146330  1.0
  O  O13  1  0.40662436  0.70533033  0.37146330  1.0
  O  O14  1  0.59337564  0.29466967  0.62853670  1.0
  O  O15  1  0.59337564  0.20533033  0.12853670  1.0
  O  O16  1  0.87781341  0.46124467  0.85493661  1.0
  O  O17  1  0.87781341  0.03875533  0.35493661  1.0
  O  O18  1  0.12218659  0.96124467  0.64506339  1.0
  O  O19  1  0.12218659  0.53875533  0.14506339  1.0
  Al  Al20  1  0.64641830  0.82106224  0.93924197  1.0
  Al  Al21  1  0.64641830  0.67893776  0.43924197  1.0
  Al  Al22  1  0.35358170  0.32106224  0.56075803  1.0
  Al  Al23  1  0.35358170  0.17893776  0.06075803  1.0
  As  As24  1  0.77232509  0.39014932  0.58130682  1.0
  As  As25  1  0.77232509  0.10985068  0.08130682  1.0
  As  As26  1  0.22767491  0.89014932  0.91869318  1.0
  As  As27  1  0.22767491  0.60985068  0.41869318  1.0
  Cu  Cu28  1  0.95958391  0.64297977  0.90778261  1.0
  Cu  Cu29  1  0.95958391  0.85702023  0.40778261  1.0
  Cu  Cu30  1  0.04041609  0.14297977  0.59221739  1.0
  Cu  Cu31  1  0.04041609  0.35702023  0.09221739  1.0
