# generated using pymatgen
data_Ta2P
_symmetry_space_group_name_H-M   'P 1'
_cell_length_a   11.60556104
_cell_length_b   14.50657300
_cell_length_c   3.41102092
_cell_angle_alpha   90.00000000
_cell_angle_beta   90.00000000
_cell_angle_gamma   90.00000000
_symmetry_Int_Tables_number   1
_chemical_formula_structural   Ta2P
_chemical_formula_sum   'Ta24 P12'
_cell_volume   574.26897119
_cell_formula_units_Z   12
loop_
 _symmetry_equiv_pos_site_id
 _symmetry_equiv_pos_as_xyz
  1  'x, y, z'
loop_
 _atom_site_type_symbol
 _atom_site_label
 _atom_site_symmetry_multiplicity
 _atom_site_fract_x
 _atom_site_fract_y
 _atom_site_fract_z
 _atom_site_occupancy
  Ta  Ta0  1  0.46999801  0.60951187  0.50000000  1.0
  Ta  Ta1  1  0.96999801  0.89048813  -0.00000000  1.0
  Ta  Ta2  1  0.53000199  0.39048813  0.50000000  1.0
  Ta  Ta3  1  0.03000199  0.10951187  -0.00000000  1.0
  Ta  Ta4  1  0.41313055  0.07979304  0.50000000  1.0
  Ta  Ta5  1  0.91313055  0.42020696  0.00000000  1.0
  Ta  Ta6  1  0.58686945  0.92020696  0.50000000  1.0
  Ta  Ta7  1  0.08686945  0.57979304  0.00000000  1.0
  Ta  Ta8  1  0.15157421  0.97696910  0.50000000  1.0
  Ta  Ta9  1  0.65157421  0.52303090  0.00000000  1.0
  Ta  Ta10  1  0.84842579  0.02303090  0.50000000  1.0
  Ta  Ta11  1  0.34842579  0.47696910  0.00000000  1.0
  Ta  Ta12  1  0.07817618  0.74523596  0.50000000  1.0
  Ta  Ta13  1  0.57817618  0.75476404  0.00000000  1.0
  Ta  Ta14  1  0.92182382  0.25476404  0.50000000  1.0
  Ta  Ta15  1  0.42182382  0.24523596  0.00000000  1.0
  Ta  Ta16  1  0.87748129  0.57770782  0.50000000  1.0
  Ta  Ta17  1  0.37748129  0.92229218  0.00000000  1.0
  Ta  Ta18  1  0.12251871  0.42229218  0.50000000  1.0
  Ta  Ta19  1  0.62251871  0.07770782  0.00000000  1.0
  Ta  Ta20  1  0.80329761  0.79528104  0.50000000  1.0
  Ta  Ta21  1  0.30329761  0.70471896  0.00000000  1.0
  Ta  Ta22  1  0.19670239  0.20471896  0.50000000  1.0
  Ta  Ta23  1  0.69670239  0.29528104  0.00000000  1.0
  P  P24  1  0.42199460  0.79477407  0.50000000  1.0
  P  P25  1  0.92199460  0.70522593  0.00000000  1.0
  P  P26  1  0.57800540  0.20522593  0.50000000  1.0
  P  P27  1  0.07800540  0.29477407  0.00000000  1.0
  P  P28  1  0.24448281  0.58289110  0.50000000  1.0
  P  P29  1  0.74448281  0.91710890  0.00000000  1.0
  P  P30  1  0.75551719  0.41710890  0.50000000  1.0
  P  P31  1  0.25551719  0.08289110  0.00000000  1.0
  P  P32  1  0.68419256  0.65203902  0.50000000  1.0
  P  P33  1  0.18419256  0.84796098  -0.00000000  1.0
  P  P34  1  0.31580744  0.34796098  0.50000000  1.0
  P  P35  1  0.81580744  0.15203902  -0.00000000  1.0
