# generated using pymatgen
data_CrSiSe3
_symmetry_space_group_name_H-M   'P 1'
_cell_length_a   8.15354099
_cell_length_b   8.15354099
_cell_length_c   8.15354099
_cell_angle_alpha   45.29706657
_cell_angle_beta   45.29706657
_cell_angle_gamma   45.29706657
_symmetry_Int_Tables_number   1
_chemical_formula_structural   CrSiSe3
_chemical_formula_sum   'Cr2 Si2 Se6'
_cell_volume   249.39629901
_cell_formula_units_Z   2
loop_
 _symmetry_equiv_pos_site_id
 _symmetry_equiv_pos_as_xyz
  1  'x, y, z'
loop_
 _atom_site_type_symbol
 _atom_site_label
 _atom_site_symmetry_multiplicity
 _atom_site_fract_x
 _atom_site_fract_y
 _atom_site_fract_z
 _atom_site_occupancy
  Cr  Cr0  1  0.33346601  0.33346601  0.33346601  1.0
  Cr  Cr1  1  0.66653399  -0.33346601  -0.33346601  1.0
  Si  Si2  1  0.05115785  0.05115785  0.05115785  1.0
  Si  Si3  1  0.94884215  -0.05115785  -0.05115785  1.0
  Se  Se4  1  0.07381733  0.71437532  -0.56548011  1.0
  Se  Se5  1  0.56548011  0.92618267  -0.71437532  1.0
  Se  Se6  1  0.28562468  0.56548011  -0.07381733  1.0
  Se  Se7  1  0.92618267  0.28562468  -0.43451989  1.0
  Se  Se8  1  0.43451989  0.07381733  -0.28562468  1.0
  Se  Se9  1  0.71437532  0.43451989  -0.92618267  1.0
