# generated using pymatgen
data_ZrH14C2(N4F3)2
_symmetry_space_group_name_H-M   'P 1'
_cell_length_a   6.49689378
_cell_length_b   6.72702290
_cell_length_c   14.41134569
_cell_angle_alpha   90.00000000
_cell_angle_beta   98.41442619
_cell_angle_gamma   90.00000000
_symmetry_Int_Tables_number   1
_chemical_formula_structural   ZrH14C2(N4F3)2
_chemical_formula_sum   'Zr2 H28 C4 N16 F12'
_cell_volume   623.06436077
_cell_formula_units_Z   2
loop_
 _symmetry_equiv_pos_site_id
 _symmetry_equiv_pos_as_xyz
  1  'x, y, z'
loop_
 _atom_site_type_symbol
 _atom_site_label
 _atom_site_symmetry_multiplicity
 _atom_site_fract_x
 _atom_site_fract_y
 _atom_site_fract_z
 _atom_site_occupancy
  Zr  Zr0  1  -0.00000000  0.50000000  0.50000000  1.0
  Zr  Zr1  1  0.00000000  0.00000000  0.00000000  1.0
  H  H2  1  -0.00213656  0.47693084  0.73619192  1.0
  H  H3  1  1.00213656  -0.02306916  0.76380808  1.0
  H  H4  1  1.00213656  0.52306916  0.26380808  1.0
  H  H5  1  -0.00213656  1.02306916  0.23619192  1.0
  H  H6  1  0.01194064  0.43056793  0.85635935  1.0
  H  H7  1  0.98805936  -0.06943207  0.64364065  1.0
  H  H8  1  0.98805936  0.56943207  0.14364065  1.0
  H  H9  1  0.01194064  1.06943207  0.35635935  1.0
  H  H10  1  0.56214476  1.00465733  0.79034481  1.0
  H  H11  1  0.43785524  0.50465733  0.70965519  1.0
  H  H12  1  0.43785524  -0.00465733  0.20965519  1.0
  H  H13  1  0.56214476  0.49534267  0.29034481  1.0
  H  H14  1  0.35123949  0.95871923  0.85160385  1.0
  H  H15  1  0.64876051  0.45871923  0.64839615  1.0
  H  H16  1  0.64876051  0.04128077  0.14839615  1.0
  H  H17  1  0.35123949  0.54128077  0.35160385  1.0
  H  H18  1  0.25782918  0.04587693  0.56900093  1.0
  H  H19  1  0.74217082  0.54587693  0.93099907  1.0
  H  H20  1  0.74217082  0.95412307  0.43099907  1.0
  H  H21  1  0.25782918  0.45412307  0.06900093  1.0
  H  H22  1  0.61204503  0.88171495  0.59055970  1.0
  H  H23  1  0.38795497  0.38171495  0.90944030  1.0
  H  H24  1  0.38795497  0.11828505  0.40944030  1.0
  H  H25  1  0.61204503  0.61828505  0.09055970  1.0
  H  H26  1  0.61737723  0.12896187  0.59818418  1.0
  H  H27  1  0.38262277  0.62896187  0.90181582  1.0
  H  H28  1  0.38262277  0.87103813  0.40181582  1.0
  H  H29  1  0.61737723  0.37103813  0.09818418  1.0
  C  C30  1  0.72105366  0.49065074  0.79077985  1.0
  C  C31  1  0.27894634  0.99065074  0.70922015  1.0
  C  C32  1  0.27894634  0.50934926  0.20922015  1.0
  C  C33  1  0.72105366  0.00934926  0.29077985  1.0
  N  N34  1  0.92783736  0.47848726  0.79528751  1.0
  N  N35  1  0.07216264  0.97848726  0.70471249  1.0
  N  N36  1  0.07216264  0.52151274  0.20471249  1.0
  N  N37  1  0.92783736  0.02151274  0.29528751  1.0
  N  N38  1  0.40560107  0.99418780  0.79054627  1.0
  N  N39  1  0.59439893  0.49418780  0.70945373  1.0
  N  N40  1  0.59439893  0.00581220  0.20945373  1.0
  N  N41  1  0.40560107  0.50581220  0.29054627  1.0
  N  N42  1  0.35615775  1.00161461  0.62748920  1.0
  N  N43  1  0.64384225  0.50161461  0.87251080  1.0
  N  N44  1  0.64384225  -0.00161461  0.37251080  1.0
  N  N45  1  0.35615775  0.49838539  0.12748920  1.0
  N  N46  1  0.57126958  1.00107895  0.62785756  1.0
  N  N47  1  0.42873042  0.50107895  0.87214244  1.0
  N  N48  1  0.42873042  -0.00107895  0.37214244  1.0
  N  N49  1  0.57126958  0.49892105  0.12785756  1.0
  F  F50  1  0.14432104  0.49105021  0.63416480  1.0
  F  F51  1  0.85567896  0.99105021  0.86583520  1.0
  F  F52  1  0.85567896  0.50894979  0.36583520  1.0
  F  F53  1  0.14432104  0.00894979  0.13416480  1.0
  F  F54  1  0.88479510  0.77492350  0.52576282  1.0
  F  F55  1  0.11520490  0.27492350  0.97423718  1.0
  F  F56  1  0.11520490  0.22507650  0.47423718  1.0
  F  F57  1  0.88479510  0.72507650  0.02576282  1.0
  F  F58  1  0.25237667  0.87298646  0.95599494  1.0
  F  F59  1  0.74762333  0.37298646  0.54400506  1.0
  F  F60  1  0.74762333  0.12701354  0.04400506  1.0
  F  F61  1  0.25237667  0.62701354  0.45599494  1.0
