# generated using pymatgen
data_Ba3Nb8O21
_symmetry_space_group_name_H-M   'P 1'
_cell_length_a   9.35892657
_cell_length_b   9.35892657
_cell_length_c   11.92288778
_cell_angle_alpha   90.00000000
_cell_angle_beta   90.00000000
_cell_angle_gamma   120.00000000
_symmetry_Int_Tables_number   1
_chemical_formula_structural   Ba3Nb8O21
_chemical_formula_sum   'Ba6 Nb16 O42'
_cell_volume   904.40752554
_cell_formula_units_Z   2
loop_
 _symmetry_equiv_pos_site_id
 _symmetry_equiv_pos_as_xyz
  1  'x, y, z'
loop_
 _atom_site_type_symbol
 _atom_site_label
 _atom_site_symmetry_multiplicity
 _atom_site_fract_x
 _atom_site_fract_y
 _atom_site_fract_z
 _atom_site_occupancy
  Ba  Ba0  1  0.40197043  0.40197043  0.25000000  1.0
  Ba  Ba1  1  0.40197043  0.00000000  0.75000000  1.0
  Ba  Ba2  1  0.00000000  0.40197043  0.75000000  1.0
  Ba  Ba3  1  0.00000000  0.59802957  0.25000000  1.0
  Ba  Ba4  1  0.59802957  0.59802957  0.75000000  1.0
  Ba  Ba5  1  0.59802957  0.00000000  0.25000000  1.0
  Nb  Nb6  1  0.33333333  0.66666667  0.50000000  1.0
  Nb  Nb7  1  0.33333333  0.66666667  0.00000000  1.0
  Nb  Nb8  1  0.66666667  0.33333333  0.50000000  1.0
  Nb  Nb9  1  0.66666667  0.33333333  0.00000000  1.0
  Nb  Nb10  1  0.74889890  0.74889890  0.40853668  1.0
  Nb  Nb11  1  0.74889890  0.74889890  0.09146332  1.0
  Nb  Nb12  1  0.74889890  0.00000000  0.90853668  1.0
  Nb  Nb13  1  0.74889890  0.00000000  0.59146332  1.0
  Nb  Nb14  1  0.00000000  0.74889890  0.90853668  1.0
  Nb  Nb15  1  0.00000000  0.74889890  0.59146332  1.0
  Nb  Nb16  1  -0.00000000  0.25110110  0.40853668  1.0
  Nb  Nb17  1  -0.00000000  0.25110110  0.09146332  1.0
  Nb  Nb18  1  0.25110110  0.25110110  0.90853668  1.0
  Nb  Nb19  1  0.25110110  0.25110110  0.59146332  1.0
  Nb  Nb20  1  0.25110110  0.00000000  0.40853668  1.0
  Nb  Nb21  1  0.25110110  0.00000000  0.09146332  1.0
  O  O22  1  0.31294409  0.83048713  0.39961376  1.0
  O  O23  1  0.31294409  0.83048713  0.10038624  1.0
  O  O24  1  0.31294409  0.48245696  0.89961376  1.0
  O  O25  1  0.31294409  0.48245696  0.60038624  1.0
  O  O26  1  0.83048713  0.31294409  0.39961376  1.0
  O  O27  1  0.83048713  0.31294409  0.10038624  1.0
  O  O28  1  0.83048713  0.51754304  0.89961376  1.0
  O  O29  1  0.83048713  0.51754304  0.60038624  1.0
  O  O30  1  0.51754304  0.83048713  0.89961376  1.0
  O  O31  1  0.51754304  0.83048713  0.60038624  1.0
  O  O32  1  0.51754304  0.68705591  0.39961376  1.0
  O  O33  1  0.51754304  0.68705591  0.10038624  1.0
  O  O34  1  0.16951287  0.68705591  0.89961376  1.0
  O  O35  1  0.16951287  0.68705591  0.60038624  1.0
  O  O36  1  0.16951287  0.48245696  0.39961376  1.0
  O  O37  1  0.16951287  0.48245696  0.10038624  1.0
  O  O38  1  0.68705591  0.51754304  0.39961376  1.0
  O  O39  1  0.68705591  0.51754304  0.10038624  1.0
  O  O40  1  0.68705591  0.16951287  0.89961376  1.0
  O  O41  1  0.68705591  0.16951287  0.60038624  1.0
  O  O42  1  0.48245696  0.31294409  0.89961376  1.0
  O  O43  1  0.48245696  0.31294409  0.60038624  1.0
  O  O44  1  0.48245696  0.16951287  0.39961376  1.0
  O  O45  1  0.48245696  0.16951287  0.10038624  1.0
  O  O46  1  0.79327711  0.79327711  0.25000000  1.0
  O  O47  1  0.79327711  0.00000000  0.75000000  1.0
  O  O48  1  0.00000000  0.79327711  0.75000000  1.0
  O  O49  1  0.00000000  0.20672289  0.25000000  1.0
  O  O50  1  0.20672289  0.20672289  0.75000000  1.0
  O  O51  1  0.20672289  0.00000000  0.25000000  1.0
  O  O52  1  0.79812615  0.79812615  0.92399627  1.0
  O  O53  1  0.79812615  0.79812615  0.57600373  1.0
  O  O54  1  0.79812615  0.00000000  0.42399627  1.0
  O  O55  1  0.79812615  0.00000000  0.07600373  1.0
  O  O56  1  0.00000000  0.79812615  0.42399627  1.0
  O  O57  1  0.00000000  0.79812615  0.07600373  1.0
  O  O58  1  -0.00000000  0.20187385  0.92399627  1.0
  O  O59  1  -0.00000000  0.20187385  0.57600373  1.0
  O  O60  1  0.20187385  0.20187385  0.42399627  1.0
  O  O61  1  0.20187385  0.20187385  0.07600373  1.0
  O  O62  1  0.20187385  0.00000000  0.92399627  1.0
  O  O63  1  0.20187385  0.00000000  0.57600373  1.0
