# generated using pymatgen
data_CsC(NO2)3
_symmetry_space_group_name_H-M   'P 1'
_cell_length_a   8.28219396
_cell_length_b   8.75399742
_cell_length_c   11.84631001
_cell_angle_alpha   90.00000000
_cell_angle_beta   125.05359295
_cell_angle_gamma   90.00000000
_symmetry_Int_Tables_number   1
_chemical_formula_structural   CsC(NO2)3
_chemical_formula_sum   'Cs4 C4 N12 O24'
_cell_volume   703.09611273
_cell_formula_units_Z   4
loop_
 _symmetry_equiv_pos_site_id
 _symmetry_equiv_pos_as_xyz
  1  'x, y, z'
loop_
 _atom_site_type_symbol
 _atom_site_label
 _atom_site_symmetry_multiplicity
 _atom_site_fract_x
 _atom_site_fract_y
 _atom_site_fract_z
 _atom_site_occupancy
  Cs  Cs0  1  0.11905106  0.88803072  0.87616360  1.0
  Cs  Cs1  1  0.11905106  0.61196928  0.37616360  1.0
  Cs  Cs2  1  0.88094894  0.11196928  0.12383640  1.0
  Cs  Cs3  1  0.88094894  0.38803072  0.62383640  1.0
  C  C4  1  0.59368100  0.61145253  0.87804257  1.0
  C  C5  1  0.59368100  0.88854747  0.37804257  1.0
  C  C6  1  0.40631900  0.38854747  0.12195743  1.0
  C  C7  1  0.40631900  0.11145253  0.62195743  1.0
  N  N8  1  0.71536662  0.53634178  0.84462440  1.0
  N  N9  1  0.71536662  0.96365822  0.34462440  1.0
  N  N10  1  0.28463338  0.46365822  0.15537560  1.0
  N  N11  1  0.28463338  0.03634178  0.65537560  1.0
  N  N12  1  0.39614857  0.56434173  0.80746864  1.0
  N  N13  1  0.39614857  0.93565827  0.30746864  1.0
  N  N14  1  0.60385143  0.43565827  0.19253136  1.0
  N  N15  1  0.60385143  0.06434173  0.69253136  1.0
  N  N16  1  0.67536751  0.72481177  0.98014731  1.0
  N  N17  1  0.67536751  0.77518823  0.48014731  1.0
  N  N18  1  0.32463249  0.27518823  0.01985269  1.0
  N  N19  1  0.32463249  0.22481177  0.51985269  1.0
  O  O20  1  0.83440243  0.61366089  0.83715676  1.0
  O  O21  1  0.83440243  0.88633911  0.33715676  1.0
  O  O22  1  0.16559757  0.38633911  0.16284324  1.0
  O  O23  1  0.16559757  0.11366089  0.66284324  1.0
  O  O24  1  0.69419092  0.39661603  0.82430048  1.0
  O  O25  1  0.69419092  0.10338397  0.32430048  1.0
  O  O26  1  0.30580908  0.60338397  0.17569952  1.0
  O  O27  1  0.30580908  0.89661603  0.67569952  1.0
  O  O28  1  0.30386701  0.58464528  0.86034137  1.0
  O  O29  1  0.30386701  0.91535472  0.36034137  1.0
  O  O30  1  0.69613299  0.41535472  0.13965863  1.0
  O  O31  1  0.69613299  0.08464528  0.63965863  1.0
  O  O32  1  0.31924223  0.50273222  0.69207162  1.0
  O  O33  1  0.31924223  -0.00273222  0.19207162  1.0
  O  O34  1  0.68075777  0.49726778  0.30792838  1.0
  O  O35  1  0.68075777  1.00273222  0.80792838  1.0
  O  O36  1  0.56519393  0.80733917  -0.00592035  1.0
  O  O37  1  0.56519393  0.69266083  0.49407965  1.0
  O  O38  1  0.43480607  0.19266083  1.00592035  1.0
  O  O39  1  0.43480607  0.30733917  0.50592035  1.0
  O  O40  1  0.85934465  0.73910885  0.05441359  1.0
  O  O41  1  0.85934465  0.76089115  0.55441359  1.0
  O  O42  1  0.14065535  0.26089115  0.94558641  1.0
  O  O43  1  0.14065535  0.23910885  0.44558641  1.0
