# generated using pymatgen
data_H13C2Cl3O8
_symmetry_space_group_name_H-M   'P 1'
_cell_length_a   8.76707727
_cell_length_b   9.21064217
_cell_length_c   8.70439972
_cell_angle_alpha   61.70198342
_cell_angle_beta   73.45624851
_cell_angle_gamma   76.85078706
_symmetry_Int_Tables_number   1
_chemical_formula_structural   H13C2Cl3O8
_chemical_formula_sum   'H26 C4 Cl6 O16'
_cell_volume   589.69113142
_cell_formula_units_Z   2
loop_
 _symmetry_equiv_pos_site_id
 _symmetry_equiv_pos_as_xyz
  1  'x, y, z'
loop_
 _atom_site_type_symbol
 _atom_site_label
 _atom_site_symmetry_multiplicity
 _atom_site_fract_x
 _atom_site_fract_y
 _atom_site_fract_z
 _atom_site_occupancy
  H  H0  1  -0.54630125  0.80638139  -0.81925859  1.0
  H  H1  1  -0.45369875  0.19361861  -1.18074141  1.0
  H  H2  1  -0.47456664  0.71402586  -1.58316324  1.0
  H  H3  1  -0.52543336  0.28597414  -0.41683676  1.0
  H  H4  1  -0.32232158  0.72755404  -1.74491630  1.0
  H  H5  1  -0.67767842  0.27244596  -0.25508370  1.0
  H  H6  1  -0.62182732  0.82753605  -0.99448023  1.0
  H  H7  1  -0.37817268  0.17246395  -1.00551977  1.0
  H  H8  1  -0.75022009  0.85103681  -1.82223233  1.0
  H  H9  1  -0.24977991  0.14896319  -0.17776767  1.0
  H  H10  1  -0.97139802  0.95230709  -1.73706951  1.0
  H  H11  1  -0.02860198  0.04769291  -0.26293049  1.0
  H  H12  1  -0.91778615  0.77537156  -1.57944683  1.0
  H  H13  1  -0.08221385  0.22462844  -0.42055317  1.0
  H  H14  1  -0.89662909  0.53835572  -1.30444129  1.0
  H  H15  1  -0.10337091  0.46164428  -0.69555871  1.0
  H  H16  1  -0.77191681  0.66612327  -1.36611332  1.0
  H  H17  1  -0.22808319  0.33387673  -0.63388668  1.0
  H  H18  1  -0.96076049  0.77495096  -1.22903575  1.0
  H  H19  1  -0.03923951  0.22504904  -0.77096425  1.0
  H  H20  1  -0.84389665  0.82345097  -1.15996068  1.0
  H  H21  1  -0.15610335  0.17654903  -0.84003932  1.0
  H  H22  1  -0.06386500  0.73879455  -0.93549446  1.0
  H  H23  1  -0.93613500  0.26120545  -1.06450554  1.0
  H  H24  1  -0.05141817  0.73534185  -0.75853593  1.0
  H  H25  1  -0.94858183  0.26465815  -1.24146407  1.0
  C  C26  1  -0.36347970  0.70962871  -1.26248939  1.0
  C  C27  1  -0.63652030  0.29037129  -0.73751061  1.0
  C  C28  1  -0.54854786  0.73529240  -1.26042732  1.0
  C  C29  1  -0.45145214  0.26470760  -0.73957268  1.0
  Cl  Cl30  1  -0.25885300  0.56216895  -1.34411454  1.0
  Cl  Cl31  1  -0.74114700  0.43783105  -0.65588546  1.0
  Cl  Cl32  1  -0.29338711  0.90867137  -1.40948074  1.0
  Cl  Cl33  1  -0.70661289  0.09132863  -0.59051926  1.0
  Cl  Cl34  1  -0.32745093  0.64325452  -1.04674770  1.0
  Cl  Cl35  1  -0.67254907  0.35674548  -0.95325230  1.0
  O  O36  1  -0.64086222  0.78518216  -1.15048089  1.0
  O  O37  1  -0.35913778  0.21481784  -0.84951911  1.0
  O  O38  1  -0.58568593  0.70931027  -1.37327617  1.0
  O  O39  1  -0.41431407  0.29068973  -0.62672383  1.0
  O  O40  1  -0.43986354  0.72221699  -1.70525157  1.0
  O  O41  1  -0.56013646  0.27778301  -0.29474843  1.0
  O  O42  1  -0.63605717  0.86780274  -0.90089867  1.0
  O  O43  1  -0.36394283  0.13219726  -1.09910133  1.0
  O  O44  1  -0.92147209  0.83566577  -1.70918849  1.0
  O  O45  1  -0.07852791  0.16433423  -0.29081151  1.0
  O  O46  1  -0.88388456  0.65852638  -1.36426151  1.0
  O  O47  1  -0.11611544  0.34147362  -0.63573849  1.0
  O  O48  1  -0.95925840  0.83899055  -1.16461250  1.0
  O  O49  1  -0.04074160  0.16100945  -0.83538750  1.0
  O  O50  1  -0.11105347  0.69129594  -0.80545430  1.0
  O  O51  1  -0.88894653  0.30870406  -1.19454570  1.0
