# generated using pymatgen
data_Fe(SO4)2
_symmetry_space_group_name_H-M   'P 1'
_cell_length_a   6.87637674
_cell_length_b   6.87637674
_cell_length_c   6.87637674
_cell_angle_alpha   133.90644315
_cell_angle_beta   117.79695298
_cell_angle_gamma   80.80340925
_symmetry_Int_Tables_number   1
_chemical_formula_structural   Fe(SO4)2
_chemical_formula_sum   'Fe1 S2 O8'
_cell_volume   200.28555076
_cell_formula_units_Z   1
loop_
 _symmetry_equiv_pos_site_id
 _symmetry_equiv_pos_as_xyz
  1  'x, y, z'
loop_
 _atom_site_type_symbol
 _atom_site_label
 _atom_site_symmetry_multiplicity
 _atom_site_fract_x
 _atom_site_fract_y
 _atom_site_fract_z
 _atom_site_occupancy
  Fe  Fe0  1  0.00000000  0.00000000  0.00000000  1.0
  S  S1  1  0.59963606  0.09963606  0.50000000  1.0
  S  S2  1  1.40036394  0.90036394  0.50000000  1.0
  O  O3  1  0.74640219  0.00000000  0.74640219  1.0
  O  O4  1  0.25359781  0.00000000  0.25359781  1.0
  O  O5  1  0.66428407  0.92888057  1.26459650  1.0
  O  O6  1  1.33571593  1.60031243  1.26459650  1.0
  O  O7  1  1.33571593  1.07111943  0.73540350  1.0
  O  O8  1  0.66428407  0.39968757  0.73540350  1.0
  O  O9  1  1.05998586  0.55998586  0.50000000  1.0
  O  O10  1  0.94001414  0.44001414  0.50000000  1.0
