# generated using pymatgen
data_Cs2CaV2O7
_symmetry_space_group_name_H-M   'P 1'
_cell_length_a   10.69615038
_cell_length_b   6.20290330
_cell_length_c   15.67644972
_cell_angle_alpha   90.00000000
_cell_angle_beta   116.71198915
_cell_angle_gamma   90.00000000
_symmetry_Int_Tables_number   1
_chemical_formula_structural   Cs2CaV2O7
_chemical_formula_sum   'Cs8 Ca4 V8 O28'
_cell_volume   929.08734867
_cell_formula_units_Z   4
loop_
 _symmetry_equiv_pos_site_id
 _symmetry_equiv_pos_as_xyz
  1  'x, y, z'
loop_
 _atom_site_type_symbol
 _atom_site_label
 _atom_site_symmetry_multiplicity
 _atom_site_fract_x
 _atom_site_fract_y
 _atom_site_fract_z
 _atom_site_occupancy
  Cs  Cs0  1  0.97214497  0.73734036  0.33480562  1.0
  Cs  Cs1  1  0.97214497  0.76265964  0.83480562  1.0
  Cs  Cs2  1  0.02785503  0.23734036  0.16519438  1.0
  Cs  Cs3  1  0.02785503  0.26265964  0.66519438  1.0
  Cs  Cs4  1  0.49579103  0.23205888  0.36275207  1.0
  Cs  Cs5  1  0.49579103  0.26794112  0.86275207  1.0
  Cs  Cs6  1  0.50420897  0.73205888  0.13724793  1.0
  Cs  Cs7  1  0.50420897  0.76794112  0.63724793  1.0
  Ca  Ca8  1  0.23432526  0.25428804  0.48228887  1.0
  Ca  Ca9  1  0.23432526  0.24571196  0.98228887  1.0
  Ca  Ca10  1  0.76567474  0.75428804  0.01771113  1.0
  Ca  Ca11  1  0.76567474  0.74571196  0.51771113  1.0
  V  V12  1  0.82986876  0.23836125  0.37847616  1.0
  V  V13  1  0.82986876  0.26163875  0.87847616  1.0
  V  V14  1  0.17013124  0.73836125  0.12152384  1.0
  V  V15  1  0.17013124  0.76163875  0.62152384  1.0
  V  V16  1  0.66348542  0.23907676  0.13487244  1.0
  V  V17  1  0.66348542  0.26092324  0.63487244  1.0
  V  V18  1  0.33651458  0.73907676  0.36512756  1.0
  V  V19  1  0.33651458  0.76092324  0.86512756  1.0
  O  O20  1  0.99023709  0.23308020  0.38064828  1.0
  O  O21  1  0.99023709  0.26691980  0.88064828  1.0
  O  O22  1  0.00976291  0.73308020  0.11935172  1.0
  O  O23  1  0.00976291  0.76691980  0.61935172  1.0
  O  O24  1  0.81496483  0.44219439  0.44513269  1.0
  O  O25  1  0.81496483  0.05780561  0.94513269  1.0
  O  O26  1  0.18503517  0.94219439  0.05486731  1.0
  O  O27  1  0.18503517  0.55780561  0.55486731  1.0
  O  O28  1  0.79226014  0.99684934  0.41282639  1.0
  O  O29  1  0.79226014  0.50315066  0.91282639  1.0
  O  O30  1  0.20773986  0.49684934  0.08717361  1.0
  O  O31  1  0.20773986  0.00315066  0.58717361  1.0
  O  O32  1  0.74150833  0.00480738  0.12821032  1.0
  O  O33  1  0.74150833  0.49519262  0.62821032  1.0
  O  O34  1  0.25849167  0.50480738  0.37178968  1.0
  O  O35  1  0.25849167  0.99519262  0.87178968  1.0
  O  O36  1  0.72752032  0.45115837  0.09810954  1.0
  O  O37  1  0.72752032  0.04884163  0.59810954  1.0
  O  O38  1  0.27247968  0.95115837  0.40189046  1.0
  O  O39  1  0.27247968  0.54884163  0.90189046  1.0
  O  O40  1  0.69646475  0.29120971  0.25714887  1.0
  O  O41  1  0.69646475  0.20879029  0.75714887  1.0
  O  O42  1  0.30353525  0.79120971  0.24285113  1.0
  O  O43  1  0.30353525  0.70879029  0.74285113  1.0
  O  O44  1  0.48668977  0.22251667  0.07060808  1.0
  O  O45  1  0.48668977  0.27748333  0.57060808  1.0
  O  O46  1  0.51331023  0.72251667  0.42939192  1.0
  O  O47  1  0.51331023  0.77748333  0.92939192  1.0
