# generated using pymatgen
data_LaZnPb
_symmetry_space_group_name_H-M   'P 1'
_cell_length_a   4.72960371
_cell_length_b   4.72960371
_cell_length_c   17.06734140
_cell_angle_alpha   90.00000000
_cell_angle_beta   90.00000000
_cell_angle_gamma   120.00000000
_symmetry_Int_Tables_number   1
_chemical_formula_structural   LaZnPb
_chemical_formula_sum   'La4 Zn4 Pb4'
_cell_volume   330.63285939
_cell_formula_units_Z   4
loop_
 _symmetry_equiv_pos_site_id
 _symmetry_equiv_pos_as_xyz
  1  'x, y, z'
loop_
 _atom_site_type_symbol
 _atom_site_label
 _atom_site_symmetry_multiplicity
 _atom_site_fract_x
 _atom_site_fract_y
 _atom_site_fract_z
 _atom_site_occupancy
  La  La0  1  0.00000000  0.00000000  0.25000000  1.0
  La  La1  1  0.00000000  0.00000000  0.75000000  1.0
  La  La2  1  -0.00000000  -0.00000000  0.50000000  1.0
  La  La3  1  0.00000000  0.00000000  0.00000000  1.0
  Zn  Zn4  1  0.33333333  0.66666667  0.33769693  1.0
  Zn  Zn5  1  0.33333333  0.66666667  0.16230307  1.0
  Zn  Zn6  1  0.66666667  0.33333333  0.83769693  1.0
  Zn  Zn7  1  0.66666667  0.33333333  0.66230307  1.0
  Pb  Pb8  1  0.33333333  0.66666667  0.88682730  1.0
  Pb  Pb9  1  0.33333333  0.66666667  0.61317270  1.0
  Pb  Pb10  1  0.66666667  0.33333333  0.38682730  1.0
  Pb  Pb11  1  0.66666667  0.33333333  0.11317270  1.0
