# generated using pymatgen
data_Zr4Mo
_symmetry_space_group_name_H-M   'P 1'
_cell_length_a   7.01513113
_cell_length_b   7.01513113
_cell_length_c   7.01513113
_cell_angle_alpha   60.00000000
_cell_angle_beta   60.00000000
_cell_angle_gamma   60.00000000
_symmetry_Int_Tables_number   1
_chemical_formula_structural   Zr4Mo
_chemical_formula_sum   'Zr8 Mo2'
_cell_volume   244.11382927
_cell_formula_units_Z   2
loop_
 _symmetry_equiv_pos_site_id
 _symmetry_equiv_pos_as_xyz
  1  'x, y, z'
loop_
 _atom_site_type_symbol
 _atom_site_label
 _atom_site_symmetry_multiplicity
 _atom_site_fract_x
 _atom_site_fract_y
 _atom_site_fract_z
 _atom_site_occupancy
  Zr  Zr0  1  -0.10679450  0.89320550  0.32038350  1.0
  Zr  Zr1  1  0.89320550  -0.67961650  0.89320550  1.0
  Zr  Zr2  1  0.35679450  0.35679450  0.35679450  1.0
  Zr  Zr3  1  -0.07038350  0.35679450  0.35679450  1.0
  Zr  Zr4  1  -0.67961650  0.89320550  0.89320550  1.0
  Zr  Zr5  1  0.89320550  -0.10679450  0.89320550  1.0
  Zr  Zr6  1  0.35679450  -0.07038350  0.35679450  1.0
  Zr  Zr7  1  0.35679450  0.35679450  -0.07038350  1.0
  Mo  Mo8  1  0.50000000  0.50000000  -0.50000000  1.0
  Mo  Mo9  1  0.75000000  -0.25000000  0.75000000  1.0
