# generated using pymatgen
data_Ca3SiO5
_symmetry_space_group_name_H-M   'P 1'
_cell_length_a   9.43013992
_cell_length_b   9.43013992
_cell_length_c   9.43013992
_cell_angle_alpha   44.69473258
_cell_angle_beta   44.69473258
_cell_angle_gamma   44.69473258
_symmetry_Int_Tables_number   1
_chemical_formula_structural   Ca3SiO5
_chemical_formula_sum   'Ca9 Si3 O15'
_cell_volume   377.32803953
_cell_formula_units_Z   3
loop_
 _symmetry_equiv_pos_site_id
 _symmetry_equiv_pos_as_xyz
  1  'x, y, z'
loop_
 _atom_site_type_symbol
 _atom_site_label
 _atom_site_symmetry_multiplicity
 _atom_site_fract_x
 _atom_site_fract_y
 _atom_site_fract_z
 _atom_site_occupancy
  Ca  Ca0  1  1.25411286  -0.29526544  -0.29526544  1.0
  Ca  Ca1  1  0.70473456  -0.29526544  0.25411286  1.0
  Ca  Ca2  1  0.70473456  0.25411286  -0.29526544  1.0
  Ca  Ca3  1  0.74293707  0.29248293  -0.70751707  1.0
  Ca  Ca4  1  0.29248293  0.29248293  -0.25706293  1.0
  Ca  Ca5  1  0.29248293  0.74293707  -0.70751707  1.0
  Ca  Ca6  1  0.99872036  0.49790543  -0.50209457  1.0
  Ca  Ca7  1  0.49790543  0.49790543  -0.00127964  1.0
  Ca  Ca8  1  0.49790543  0.99872036  -0.50209457  1.0
  Si  Si9  1  -0.00738182  -0.00738182  -0.00738182  1.0
  Si  Si10  1  0.77851623  -0.22148377  -0.22148377  1.0
  Si  Si11  1  0.21360147  0.21360147  0.21360147  1.0
  O  O12  1  1.05044472  -0.32672757  -0.32672757  1.0
  O  O13  1  0.67327243  -0.32672757  0.05044472  1.0
  O  O14  1  0.67327243  0.05044472  -0.32672757  1.0
  O  O15  1  0.98799167  0.36080487  -0.63919513  1.0
  O  O16  1  0.36080487  0.36080487  -0.01200833  1.0
  O  O17  1  0.36080487  0.98799167  -0.63919513  1.0
  O  O18  1  0.76395992  0.14011024  -0.85988976  1.0
  O  O19  1  0.14011024  0.14011024  -0.23604008  1.0
  O  O20  1  0.14011024  0.76395992  -0.85988976  1.0
  O  O21  1  0.92691713  -0.07308287  -0.07308287  1.0
  O  O22  1  0.71410397  -0.28589603  -0.28589603  1.0
  O  O23  1  0.61375774  0.61375774  -0.38624226  1.0
  O  O24  1  0.49977353  0.49977353  -0.50022647  1.0
  O  O25  1  0.38439540  0.38439540  -0.61560460  1.0
  O  O26  1  0.14772881  0.14772881  0.14772881  1.0
