# generated using pymatgen
data_YTiGe
_symmetry_space_group_name_H-M   'P 1'
_cell_length_a   8.25424911
_cell_length_b   8.25424911
_cell_length_c   8.25424911
_cell_angle_alpha   151.62918693
_cell_angle_beta   151.62918693
_cell_angle_gamma   40.55506159
_symmetry_Int_Tables_number   1
_chemical_formula_structural   YTiGe
_chemical_formula_sum   'Y2 Ti2 Ge2'
_cell_volume   126.72244860
_cell_formula_units_Z   2
loop_
 _symmetry_equiv_pos_site_id
 _symmetry_equiv_pos_as_xyz
  1  'x, y, z'
loop_
 _atom_site_type_symbol
 _atom_site_label
 _atom_site_symmetry_multiplicity
 _atom_site_fract_x
 _atom_site_fract_y
 _atom_site_fract_z
 _atom_site_occupancy
  Y  Y0  1  0.67379549  0.67379549  1.00000000  1.0
  Y  Y1  1  0.32620451  0.32620451  -0.00000000  1.0
  Ti  Ti2  1  0.50000000  0.00000000  0.50000000  1.0
  Ti  Ti3  1  0.00000000  0.50000000  0.50000000  1.0
  Ge  Ge4  1  0.87831553  0.87831553  1.00000000  1.0
  Ge  Ge5  1  0.12168447  0.12168447  0.00000000  1.0
