# generated using pymatgen
data_KGaBP2H3O10
_symmetry_space_group_name_H-M   'P 1'
_cell_length_a   6.88694690
_cell_length_b   6.88694690
_cell_length_c   9.38389880
_cell_angle_alpha   69.55848821
_cell_angle_beta   110.44151179
_cell_angle_gamma   105.67412701
_symmetry_Int_Tables_number   1
_chemical_formula_structural   KGaBP2H3O10
_chemical_formula_sum   'K2 Ga2 B2 P4 H6 O20'
_cell_volume   385.18352577
_cell_formula_units_Z   2
loop_
 _symmetry_equiv_pos_site_id
 _symmetry_equiv_pos_as_xyz
  1  'x, y, z'
loop_
 _atom_site_type_symbol
 _atom_site_label
 _atom_site_symmetry_multiplicity
 _atom_site_fract_x
 _atom_site_fract_y
 _atom_site_fract_z
 _atom_site_occupancy
  K  K0  1  0.86751993  0.86751993  0.25000000  1.0
  K  K1  1  0.13248007  0.13248007  0.75000000  1.0
  Ga  Ga2  1  1.00000000  0.50000000  -0.00000000  1.0
  Ga  Ga3  1  1.50000000  -0.00000000  0.50000000  1.0
  B  B4  1  0.45435713  0.45435713  0.25000000  1.0
  B  B5  1  0.54564287  0.54564287  0.75000000  1.0
  P  P6  1  0.82637284  0.30048296  0.31348935  1.0
  P  P7  1  0.69951704  0.17362716  0.81348935  1.0
  P  P8  1  1.30048296  -0.17362716  0.18651065  1.0
  P  P9  1  1.17362716  -0.30048296  0.68651065  1.0
  H  H10  1  1.30858064  -0.70507274  0.08024146  1.0
  H  H11  1  1.70507274  -0.30858064  0.58024146  1.0
  H  H12  1  0.29492726  0.30858064  0.41975854  1.0
  H  H13  1  0.69141936  0.70507274  0.91975854  1.0
  H  H14  1  1.00000000  0.50000000  0.50000000  1.0
  H  H15  1  1.50000000  0.00000000  -0.00000000  1.0
  O  O16  1  0.66489527  0.45769319  0.24311881  1.0
  O  O17  1  0.54230681  0.33510473  0.74311881  1.0
  O  O18  1  1.45769319  -0.33510473  0.25688119  1.0
  O  O19  1  1.33510473  -0.45769319  0.75688119  1.0
  O  O20  1  0.97837426  0.61312703  0.56500149  1.0
  O  O21  1  0.38687297  0.02162574  0.06500149  1.0
  O  O22  1  1.61312703  -0.02162574  0.93499851  1.0
  O  O23  1  1.02162574  -0.61312703  0.43499851  1.0
  O  O24  1  1.07815571  -0.27886605  0.10679655  1.0
  O  O25  1  1.27886605  -0.07815571  0.60679655  1.0
  O  O26  1  0.72113395  0.07815571  0.39320345  1.0
  O  O27  1  0.92184429  0.27886605  0.89320345  1.0
  O  O28  1  0.89758431  0.28751187  0.17936203  1.0
  O  O29  1  0.71248813  0.10241569  0.67936203  1.0
  O  O30  1  1.28751187  -0.10241569  0.32063797  1.0
  O  O31  1  1.10241569  -0.28751187  0.82063797  1.0
  O  O32  1  1.29242215  -0.58388047  0.10447897  1.0
  O  O33  1  1.58388047  -0.29242215  0.60447897  1.0
  O  O34  1  0.41611953  0.29242215  0.39552103  1.0
  O  O35  1  0.70757785  0.58388047  0.89552103  1.0
