# generated using pymatgen
data_Li2Ge2O5
_symmetry_space_group_name_H-M   'P 1'
_cell_length_a   8.28880804
_cell_length_b   8.28880804
_cell_length_c   5.03755566
_cell_angle_alpha   89.99987851
_cell_angle_beta   90.00012149
_cell_angle_gamma   42.65993577
_symmetry_Int_Tables_number   1
_chemical_formula_structural   Li2Ge2O5
_chemical_formula_sum   'Li4 Ge4 O10'
_cell_volume   234.53445486
_cell_formula_units_Z   2
loop_
 _symmetry_equiv_pos_site_id
 _symmetry_equiv_pos_as_xyz
  1  'x, y, z'
loop_
 _atom_site_type_symbol
 _atom_site_label
 _atom_site_symmetry_multiplicity
 _atom_site_fract_x
 _atom_site_fract_y
 _atom_site_fract_z
 _atom_site_occupancy
  Li  Li0  1  0.93820162  -0.04978717  0.01323019  1.0
  Li  Li1  1  0.04978717  0.06179838  0.51323019  1.0
  Li  Li2  1  0.63807176  0.25037311  0.51324402  1.0
  Li  Li3  1  0.74962689  -0.63807176  0.01324402  1.0
  Ge  Ge4  1  0.64986447  -0.35818136  0.52126522  1.0
  Ge  Ge5  1  0.35818136  0.35013553  0.02126522  1.0
  Ge  Ge6  1  1.03791734  -0.32958112  0.52126580  1.0
  Ge  Ge7  1  0.32958112  -0.03791734  0.02126580  1.0
  O  O8  1  0.93734013  -0.07056587  0.62779944  1.0
  O  O9  1  1.07056587  -0.93734013  0.12779944  1.0
  O  O10  1  0.84382188  -0.34379048  0.61557090  1.0
  O  O11  1  0.34379048  0.15617812  0.11557090  1.0
  O  O12  1  0.75048832  -0.61722447  0.62777675  1.0
  O  O13  1  0.61722447  0.24951168  0.12777675  1.0
  O  O14  1  1.09725053  -0.36545588  0.16992278  1.0
  O  O15  1  0.36545588  -0.09725053  0.66992278  1.0
  O  O16  1  1.32233057  -0.59050013  0.66992490  1.0
  O  O17  1  0.59050013  -0.32233057  0.16992490  1.0
