# generated using pymatgen
data_K2SnP2O7
_symmetry_space_group_name_H-M   'P 1'
_cell_length_a   10.02558858
_cell_length_b   6.92049941
_cell_length_c   13.42009865
_cell_angle_alpha   90.00000000
_cell_angle_beta   117.83348629
_cell_angle_gamma   90.00000000
_symmetry_Int_Tables_number   1
_chemical_formula_structural   K2SnP2O7
_chemical_formula_sum   'K8 Sn4 P8 O28'
_cell_volume   823.39210356
_cell_formula_units_Z   4
loop_
 _symmetry_equiv_pos_site_id
 _symmetry_equiv_pos_as_xyz
  1  'x, y, z'
loop_
 _atom_site_type_symbol
 _atom_site_label
 _atom_site_symmetry_multiplicity
 _atom_site_fract_x
 _atom_site_fract_y
 _atom_site_fract_z
 _atom_site_occupancy
  K  K0  1  0.98795991  0.14832607  0.16362388  1.0
  K  K1  1  0.98795991  0.35167393  0.66362388  1.0
  K  K2  1  0.01204009  0.64832607  0.33637612  1.0
  K  K3  1  0.01204009  0.85167393  0.83637612  1.0
  K  K4  1  0.48697611  0.37365724  0.35472768  1.0
  K  K5  1  0.48697611  0.12634276  0.85472768  1.0
  K  K6  1  0.51302389  0.87365724  0.14527232  1.0
  K  K7  1  0.51302389  0.62634276  0.64527232  1.0
  Sn  Sn8  1  0.74720173  0.85701091  0.49223908  1.0
  Sn  Sn9  1  0.74720173  0.64298909  0.99223908  1.0
  Sn  Sn10  1  0.25279827  0.35701091  0.00776092  1.0
  Sn  Sn11  1  0.25279827  0.14298909  0.50776092  1.0
  P  P12  1  0.84705961  0.14534666  0.35510362  1.0
  P  P13  1  0.84705961  0.35465334  0.85510362  1.0
  P  P14  1  0.15294039  0.64534666  0.14489638  1.0
  P  P15  1  0.15294039  0.85465334  0.64489638  1.0
  P  P16  1  0.63416040  0.36937458  0.14896635  1.0
  P  P17  1  0.63416040  0.13062542  0.64896635  1.0
  P  P18  1  0.36583960  0.86937458  0.35103365  1.0
  P  P19  1  0.36583960  0.63062542  0.85103365  1.0
  O  O20  1  0.99430370  0.24517152  0.37397569  1.0
  O  O21  1  0.99430370  0.25482848  0.87397569  1.0
  O  O22  1  0.00569630  0.74517152  0.12602431  1.0
  O  O23  1  0.00569630  0.75482848  0.62602431  1.0
  O  O24  1  0.83476484  0.13063433  0.46713497  1.0
  O  O25  1  0.83476484  0.36936567  0.96713497  1.0
  O  O26  1  0.16523516  0.63063433  0.03286503  1.0
  O  O27  1  0.16523516  0.86936567  0.53286503  1.0
  O  O28  1  0.81382166  0.95324958  0.29320026  1.0
  O  O29  1  0.81382166  0.54675042  0.79320026  1.0
  O  O30  1  0.18617834  0.45324958  0.20679974  1.0
  O  O31  1  0.18617834  0.04675042  0.70679974  1.0
  O  O32  1  0.71175536  0.30308857  0.28286859  1.0
  O  O33  1  0.71175536  0.19691143  0.78286859  1.0
  O  O34  1  0.28824464  0.80308857  0.21713141  1.0
  O  O35  1  0.28824464  0.69691143  0.71713141  1.0
  O  O36  1  0.59876748  0.19192279  0.07529820  1.0
  O  O37  1  0.59876748  0.30807721  0.57529820  1.0
  O  O38  1  0.40123252  0.69192279  0.42470180  1.0
  O  O39  1  0.40123252  0.80807721  0.92470180  1.0
  O  O40  1  0.49521457  0.48452239  0.13691160  1.0
  O  O41  1  0.49521457  0.01547761  0.63691160  1.0
  O  O42  1  0.50478543  0.98452239  0.36308840  1.0
  O  O43  1  0.50478543  0.51547761  0.86308840  1.0
  O  O44  1  0.24606714  0.00631413  0.35810419  1.0
  O  O45  1  0.24606714  0.49368587  0.85810419  1.0
  O  O46  1  0.75393286  0.50631413  0.14189581  1.0
  O  O47  1  0.75393286  0.99368587  0.64189581  1.0
