# generated using pymatgen
data_LiCuSO4F
_symmetry_space_group_name_H-M   'P 1'
_cell_length_a   7.20796745
_cell_length_b   7.20796745
_cell_length_c   10.36302170
_cell_angle_alpha   66.74375389
_cell_angle_beta   113.25624611
_cell_angle_gamma   129.30433056
_symmetry_Int_Tables_number   1
_chemical_formula_structural   LiCuSO4F
_chemical_formula_sum   'Li4 Cu4 S4 O16 F4'
_cell_volume   374.74931481
_cell_formula_units_Z   4
loop_
 _symmetry_equiv_pos_site_id
 _symmetry_equiv_pos_as_xyz
  1  'x, y, z'
loop_
 _atom_site_type_symbol
 _atom_site_label
 _atom_site_symmetry_multiplicity
 _atom_site_fract_x
 _atom_site_fract_y
 _atom_site_fract_z
 _atom_site_occupancy
  Li  Li0  1  1.68597274  -0.23701512  0.01184966  1.0
  Li  Li1  1  1.23701512  -0.68597274  0.51184966  1.0
  Li  Li2  1  0.76298488  0.68597274  0.48815034  1.0
  Li  Li3  1  0.31402726  0.23701512  0.98815034  1.0
  Cu  Cu4  1  0.54689091  0.26605284  0.32772211  1.0
  Cu  Cu5  1  0.73394716  0.45310909  0.82772211  1.0
  Cu  Cu6  1  1.26605284  -0.45310909  0.17227789  1.0
  Cu  Cu7  1  1.45310909  -0.26605284  0.67227789  1.0
  S  S8  1  0.74458647  0.08340913  0.21095988  1.0
  S  S9  1  0.91659087  -0.74458647  0.71095988  1.0
  S  S10  1  1.08340913  0.74458647  0.28904013  1.0
  S  S11  1  1.25541353  -0.08340913  0.78904013  1.0
  O  O12  1  0.85216860  0.02807729  0.36220196  1.0
  O  O13  1  0.97192271  -0.85216860  0.86220196  1.0
  O  O14  1  1.02807729  0.85216860  0.13779804  1.0
  O  O15  1  1.14783140  -0.02807729  0.63779804  1.0
  O  O16  1  1.58209520  -0.13710941  0.14258093  1.0
  O  O17  1  1.13710941  -0.58209520  0.64258093  1.0
  O  O18  1  0.86289059  0.58209520  0.35741907  1.0
  O  O19  1  0.41790480  0.13710941  0.85741907  1.0
  O  O20  1  0.59362413  0.17328533  0.19390732  1.0
  O  O21  1  0.82671467  -0.59362413  0.69390732  1.0
  O  O22  1  1.17328533  0.59362413  0.30609268  1.0
  O  O23  1  1.40637587  -0.17328533  0.80609268  1.0
  O  O24  1  0.27022457  -0.06733909  0.38133563  1.0
  O  O25  1  1.06733909  0.72977543  0.88133563  1.0
  O  O26  1  0.93266091  -0.72977543  0.11866437  1.0
  O  O27  1  1.72977543  0.06733909  0.61866437  1.0
  F  F28  1  0.44643845  0.39265781  0.40148584  1.0
  F  F29  1  0.60734219  0.55356155  0.90148584  1.0
  F  F30  1  1.39265781  -0.55356155  0.09851416  1.0
  F  F31  1  1.55356155  -0.39265781  0.59851416  1.0
