# generated using pymatgen
data_Fe2Pt3(CN)12
_symmetry_space_group_name_H-M   'P 1'
_cell_length_a   10.40802134
_cell_length_b   10.40802134
_cell_length_c   7.45615126
_cell_angle_alpha   89.42489628
_cell_angle_beta   90.57510372
_cell_angle_gamma   98.35804478
_symmetry_Int_Tables_number   1
_chemical_formula_structural   Fe2Pt3(CN)12
_chemical_formula_sum   'Fe2 Pt3 C12 N12'
_cell_volume   799.05294791
_cell_formula_units_Z   1
loop_
 _symmetry_equiv_pos_site_id
 _symmetry_equiv_pos_as_xyz
  1  'x, y, z'
loop_
 _atom_site_type_symbol
 _atom_site_label
 _atom_site_symmetry_multiplicity
 _atom_site_fract_x
 _atom_site_fract_y
 _atom_site_fract_z
 _atom_site_occupancy
  Fe  Fe0  1  1.50000000  0.00000000  -0.00000000  1.0
  Fe  Fe1  1  1.00000000  -0.50000000  -0.00000000  1.0
  Pt  Pt2  1  0.68565855  -0.68565855  0.49845115  1.0
  Pt  Pt3  1  0.31434145  -0.31434145  0.50154885  1.0
  Pt  Pt4  1  0.00000000  0.00000000  0.00000000  1.0
  C  C5  1  0.41079293  -0.20734299  0.69025942  1.0
  C  C6  1  1.20734299  0.58920707  0.69025942  1.0
  C  C7  1  0.79265701  -0.58920707  0.30974058  1.0
  C  C8  1  1.58920707  0.20734299  0.30974058  1.0
  C  C9  1  1.58871028  0.20776822  0.68744169  1.0
  C  C10  1  0.79223178  -0.58871028  0.68744169  1.0
  C  C11  1  1.20776822  0.58871028  0.31255831  1.0
  C  C12  1  0.41128972  -0.20776822  0.31255831  1.0
  C  C13  1  1.19153780  0.01375708  0.99863502  1.0
  C  C14  1  0.98624292  -0.19153780  0.99863502  1.0
  C  C15  1  1.01375708  0.19153780  0.00136498  1.0
  C  C16  1  0.80846220  -0.01375708  0.00136498  1.0
  N  N17  1  0.45962478  -0.13967733  0.80340795  1.0
  N  N18  1  1.13967733  0.54037522  0.80340795  1.0
  N  N19  1  0.86032267  -0.54037522  0.19659205  1.0
  N  N20  1  1.54037522  0.13967733  0.19659205  1.0
  N  N21  1  1.53966133  0.14020419  0.80108103  1.0
  N  N22  1  0.85979581  -0.53966133  0.80108103  1.0
  N  N23  1  1.14020419  0.53966133  0.19891897  1.0
  N  N24  1  0.46033867  -0.14020419  0.19891897  1.0
  N  N25  1  1.30452513  0.02012271  0.99808719  1.0
  N  N26  1  0.97987729  -0.30452513  0.99808719  1.0
  N  N27  1  1.02012271  0.30452513  0.00191281  1.0
  N  N28  1  0.69547487  -0.02012271  0.00191281  1.0
