# generated using pymatgen
data_Li2Si3O7
_symmetry_space_group_name_H-M   'P 1'
_cell_length_a   6.04477950
_cell_length_b   4.93982117
_cell_length_c   19.89774876
_cell_angle_alpha   90.00000000
_cell_angle_beta   90.00000000
_cell_angle_gamma   90.00000000
_symmetry_Int_Tables_number   1
_chemical_formula_structural   Li2Si3O7
_chemical_formula_sum   'Li8 Si12 O28'
_cell_volume   594.14935968
_cell_formula_units_Z   4
loop_
 _symmetry_equiv_pos_site_id
 _symmetry_equiv_pos_as_xyz
  1  'x, y, z'
loop_
 _atom_site_type_symbol
 _atom_site_label
 _atom_site_symmetry_multiplicity
 _atom_site_fract_x
 _atom_site_fract_y
 _atom_site_fract_z
 _atom_site_occupancy
  Li  Li0  1  0.35479948  0.94111734  0.45602547  1.0
  Li  Li1  1  0.35479948  0.94111734  0.04397453  1.0
  Li  Li2  1  0.35479948  0.55888266  0.95602547  1.0
  Li  Li3  1  0.35479948  0.55888266  0.54397453  1.0
  Li  Li4  1  0.64520052  0.44111734  0.45602547  1.0
  Li  Li5  1  0.64520052  0.44111734  0.04397453  1.0
  Li  Li6  1  0.64520052  0.05888266  0.95602547  1.0
  Li  Li7  1  0.64520052  0.05888266  0.54397453  1.0
  Si  Si8  1  0.85364415  0.94930706  0.39580940  1.0
  Si  Si9  1  0.85364415  0.94930706  0.10419060  1.0
  Si  Si10  1  0.85364415  0.55069294  0.89580940  1.0
  Si  Si11  1  0.85364415  0.55069294  0.60419060  1.0
  Si  Si12  1  0.14635585  0.44930706  0.39580940  1.0
  Si  Si13  1  0.14635585  0.44930706  0.10419060  1.0
  Si  Si14  1  0.14635585  0.05069294  0.89580940  1.0
  Si  Si15  1  0.14635585  0.05069294  0.60419060  1.0
  Si  Si16  1  0.65118967  0.92429915  0.25000000  1.0
  Si  Si17  1  0.65118967  0.57570085  0.75000000  1.0
  Si  Si18  1  0.34881033  0.42429915  0.25000000  1.0
  Si  Si19  1  0.34881033  0.07570085  0.75000000  1.0
  O  O20  1  0.91297255  0.62374670  0.40989407  1.0
  O  O21  1  0.91297255  0.62374670  0.09010593  1.0
  O  O22  1  0.91297255  0.87625330  0.90989407  1.0
  O  O23  1  0.91297255  0.87625330  0.59010593  1.0
  O  O24  1  0.08702745  0.12374670  0.40989407  1.0
  O  O25  1  0.08702745  0.12374670  0.09010593  1.0
  O  O26  1  0.08702745  0.37625330  0.90989407  1.0
  O  O27  1  0.08702745  0.37625330  0.59010593  1.0
  O  O28  1  0.80004523  0.98833057  0.31591457  1.0
  O  O29  1  0.80004523  0.98833057  0.18408543  1.0
  O  O30  1  0.80004523  0.51166943  0.81591457  1.0
  O  O31  1  0.80004523  0.51166943  0.68408543  1.0
  O  O32  1  0.19995477  0.48833057  0.31591457  1.0
  O  O33  1  0.19995477  0.48833057  0.18408543  1.0
  O  O34  1  0.19995477  0.01166943  0.81591457  1.0
  O  O35  1  0.19995477  0.01166943  0.68408543  1.0
  O  O36  1  0.33988696  0.54756559  0.44462648  1.0
  O  O37  1  0.33988696  0.54756559  0.05537352  1.0
  O  O38  1  0.33988696  0.95243441  0.94462648  1.0
  O  O39  1  0.33988696  0.95243441  0.55537352  1.0
  O  O40  1  0.66011304  0.04756559  0.44462648  1.0
  O  O41  1  0.66011304  0.04756559  0.05537352  1.0
  O  O42  1  0.66011304  0.45243441  0.94462648  1.0
  O  O43  1  0.66011304  0.45243441  0.55537352  1.0
  O  O44  1  0.57346488  0.60825015  0.25000000  1.0
  O  O45  1  0.57346488  0.89174985  0.75000000  1.0
  O  O46  1  0.42653512  0.10825015  0.25000000  1.0
  O  O47  1  0.42653512  0.39174985  0.75000000  1.0
