# generated using pymatgen
data_Zn2Ge3O8
_symmetry_space_group_name_H-M   'P 1'
_cell_length_a   8.33690601
_cell_length_b   8.33690601
_cell_length_c   8.33690601
_cell_angle_alpha   90.00000000
_cell_angle_beta   90.00000000
_cell_angle_gamma   90.00000000
_symmetry_Int_Tables_number   1
_chemical_formula_structural   Zn2Ge3O8
_chemical_formula_sum   'Zn8 Ge12 O32'
_cell_volume   579.44833086
_cell_formula_units_Z   4
loop_
 _symmetry_equiv_pos_site_id
 _symmetry_equiv_pos_as_xyz
  1  'x, y, z'
loop_
 _atom_site_type_symbol
 _atom_site_label
 _atom_site_symmetry_multiplicity
 _atom_site_fract_x
 _atom_site_fract_y
 _atom_site_fract_z
 _atom_site_occupancy
  Zn  Zn0  1  0.50231771  1.00231771  0.49768229  1.0
  Zn  Zn1  1  0.25231771  0.74768229  0.24768229  1.0
  Zn  Zn2  1  0.75231771  0.75231771  0.75231771  1.0
  Zn  Zn3  1  1.00231771  0.49768229  0.50231771  1.0
  Zn  Zn4  1  0.49768229  0.50231771  1.00231771  1.0
  Zn  Zn5  1  0.24768229  0.25231771  0.74768229  1.0
  Zn  Zn6  1  0.74768229  0.24768229  0.25231771  1.0
  Zn  Zn7  1  -0.00231771  -0.00231771  -0.00231771  1.0
  Ge  Ge8  1  0.37500000  0.87126426  0.87873574  1.0
  Ge  Ge9  1  0.12500000  0.12873574  0.37873574  1.0
  Ge  Ge10  1  0.62500000  0.37126426  0.62126426  1.0
  Ge  Ge11  1  0.87500000  0.62873574  0.12126426  1.0
  Ge  Ge12  1  0.37126426  0.62126426  0.62500000  1.0
  Ge  Ge13  1  0.12126426  0.87500000  0.62873574  1.0
  Ge  Ge14  1  0.62126426  0.62500000  0.37126426  1.0
  Ge  Ge15  1  0.87126426  0.87873574  0.37500000  1.0
  Ge  Ge16  1  0.62873574  0.12126426  0.87500000  1.0
  Ge  Ge17  1  0.37873574  0.12500000  0.12873574  1.0
  Ge  Ge18  1  0.87873574  0.37500000  0.87126426  1.0
  Ge  Ge19  1  0.12873574  0.37873574  0.12500000  1.0
  O  O20  1  0.38975408  0.65175805  0.85439301  1.0
  O  O21  1  0.13975408  0.10439301  0.59824195  1.0
  O  O22  1  0.63975408  0.39560699  0.40175805  1.0
  O  O23  1  0.88975408  0.84824195  0.14560699  1.0
  O  O24  1  0.15175805  0.64560699  0.61024592  1.0
  O  O25  1  0.90175805  0.86024592  0.60439301  1.0
  O  O26  1  0.40175805  0.63975408  0.39560699  1.0
  O  O27  1  0.65175805  0.85439301  0.38975408  1.0
  O  O28  1  0.14560699  0.88975408  0.84824195  1.0
  O  O29  1  0.89560699  0.09824195  0.36024592  1.0
  O  O30  1  0.39560699  0.40175805  0.63975408  1.0
  O  O31  1  0.64560699  0.61024592  0.15175805  1.0
  O  O32  1  0.61024592  0.15175805  0.64560699  1.0
  O  O33  1  0.36024592  0.89560699  0.09824195  1.0
  O  O34  1  0.86024592  0.60439301  0.90175805  1.0
  O  O35  1  0.11024592  0.34824195  0.35439301  1.0
  O  O36  1  0.84824195  0.14560699  0.88975408  1.0
  O  O37  1  0.59824195  0.13975408  0.10439301  1.0
  O  O38  1  0.09824195  0.36024592  0.89560699  1.0
  O  O39  1  0.34824195  0.35439301  0.11024592  1.0
  O  O40  1  0.85439301  0.38975408  0.65175805  1.0
  O  O41  1  0.60439301  0.90175805  0.86024592  1.0
  O  O42  1  0.10439301  0.59824195  0.13975408  1.0
  O  O43  1  0.35439301  0.11024592  0.34824195  1.0
  O  O44  1  0.36209991  0.86209991  0.63790009  1.0
  O  O45  1  0.11209991  0.88790009  0.38790009  1.0
  O  O46  1  0.61209991  0.61209991  0.61209991  1.0
  O  O47  1  0.86209991  0.63790009  0.36209991  1.0
  O  O48  1  0.63790009  0.36209991  0.86209991  1.0
  O  O49  1  0.38790009  0.11209991  0.88790009  1.0
  O  O50  1  0.88790009  0.38790009  0.11209991  1.0
  O  O51  1  0.13790009  0.13790009  0.13790009  1.0
