# generated using pymatgen
data_LaYbS3
_symmetry_space_group_name_H-M   'P 1'
_cell_length_a   7.44893057
_cell_length_b   9.93255222
_cell_length_c   6.73482711
_cell_angle_alpha   90.00000000
_cell_angle_beta   90.00000000
_cell_angle_gamma   90.00000000
_symmetry_Int_Tables_number   1
_chemical_formula_structural   LaYbS3
_chemical_formula_sum   'La4 Yb4 S12'
_cell_volume   498.28892489
_cell_formula_units_Z   4
loop_
 _symmetry_equiv_pos_site_id
 _symmetry_equiv_pos_as_xyz
  1  'x, y, z'
loop_
 _atom_site_type_symbol
 _atom_site_label
 _atom_site_symmetry_multiplicity
 _atom_site_fract_x
 _atom_site_fract_y
 _atom_site_fract_z
 _atom_site_occupancy
  La  La0  1  0.09475285  0.75000000  0.53749311  1.0
  La  La1  1  0.59475285  0.75000000  0.96250689  1.0
  La  La2  1  0.90524715  0.25000000  0.46250689  1.0
  La  La3  1  0.40524715  0.25000000  0.03749311  1.0
  Yb  Yb4  1  0.50000000  0.00000000  0.50000000  1.0
  Yb  Yb5  1  0.50000000  0.50000000  0.50000000  1.0
  Yb  Yb6  1  -0.00000000  -0.00000000  -0.00000000  1.0
  Yb  Yb7  1  -0.00000000  0.50000000  -0.00000000  1.0
  S  S8  1  0.31211671  0.93025760  0.82119615  1.0
  S  S9  1  0.31211671  0.56974240  0.82119615  1.0
  S  S10  1  0.81211671  0.93025760  0.67880385  1.0
  S  S11  1  0.81211671  0.56974240  0.67880385  1.0
  S  S12  1  0.68788329  0.43025760  0.17880385  1.0
  S  S13  1  0.68788329  0.06974240  0.17880385  1.0
  S  S14  1  0.18788329  0.43025760  0.32119615  1.0
  S  S15  1  0.18788329  0.06974240  0.32119615  1.0
  S  S16  1  0.94846236  0.75000000  0.14062659  1.0
  S  S17  1  0.44846236  0.75000000  0.35937341  1.0
  S  S18  1  0.05153764  0.25000000  0.85937341  1.0
  S  S19  1  0.55153764  0.25000000  0.64062659  1.0
