# generated using pymatgen
data_BClF6
_symmetry_space_group_name_H-M   'P 1'
_cell_length_a   6.06042357
_cell_length_b   9.42768532
_cell_length_c   10.75500211
_cell_angle_alpha   90.00000000
_cell_angle_beta   113.62750581
_cell_angle_gamma   90.00000000
_symmetry_Int_Tables_number   1
_chemical_formula_structural   BClF6
_chemical_formula_sum   'B4 Cl4 F24'
_cell_volume   562.98241113
_cell_formula_units_Z   4
loop_
 _symmetry_equiv_pos_site_id
 _symmetry_equiv_pos_as_xyz
  1  'x, y, z'
loop_
 _atom_site_type_symbol
 _atom_site_label
 _atom_site_symmetry_multiplicity
 _atom_site_fract_x
 _atom_site_fract_y
 _atom_site_fract_z
 _atom_site_occupancy
  B  B0  1  0.95038714  1.01734618  0.17423474  1.0
  B  B1  1  0.95038714  0.48265382  0.67423474  1.0
  B  B2  1  0.04961286  0.51734618  0.32576526  1.0
  B  B3  1  0.04961286  -0.01734618  0.82576526  1.0
  Cl  Cl4  1  0.68870303  0.29859860  0.39622336  1.0
  Cl  Cl5  1  0.68870303  0.20140140  0.89622336  1.0
  Cl  Cl6  1  0.31129697  0.79859860  0.10377664  1.0
  Cl  Cl7  1  0.31129697  0.70140140  0.60377664  1.0
  F  F8  1  0.95210366  0.14660336  0.09637186  1.0
  F  F9  1  0.95210366  0.35339664  0.59637186  1.0
  F  F10  1  0.04789634  0.64660336  0.40362814  1.0
  F  F11  1  0.04789634  0.85339664  0.90362814  1.0
  F  F12  1  0.92095481  1.05638730  0.28943248  1.0
  F  F13  1  0.92095481  0.44361270  0.78943248  1.0
  F  F14  1  0.07904519  0.55638730  0.21056752  1.0
  F  F15  1  0.07904519  -0.05638730  0.71056752  1.0
  F  F16  1  0.80721083  0.45870817  0.28649210  1.0
  F  F17  1  0.80721083  0.04129183  0.78649210  1.0
  F  F18  1  0.19278917  0.95870817  0.21350790  1.0
  F  F19  1  0.19278917  0.54129183  0.71350790  1.0
  F  F20  1  0.78063007  0.92410624  0.09098315  1.0
  F  F21  1  0.78063007  0.57589376  0.59098315  1.0
  F  F22  1  0.21936993  0.42410624  0.40901685  1.0
  F  F23  1  0.21936993  0.07589376  0.90901685  1.0
  F  F24  1  0.59342878  0.17902816  0.47321617  1.0
  F  F25  1  0.59342878  0.32097184  0.97321617  1.0
  F  F26  1  0.40657122  0.67902816  0.02678383  1.0
  F  F27  1  0.40657122  0.82097184  0.52678383  1.0
  F  F28  1  0.49479074  0.25602864  0.24432652  1.0
  F  F29  1  0.49479074  0.24397136  0.74432652  1.0
  F  F30  1  0.50520926  0.75602864  0.25567348  1.0
  F  F31  1  0.50520926  0.74397136  0.75567348  1.0
