# generated using pymatgen
data_Rb2O2
_symmetry_space_group_name_H-M   'P 1'
_cell_length_a   5.15332406
_cell_length_b   5.15332406
_cell_length_c   5.15332406
_cell_angle_alpha   131.10215701
_cell_angle_beta   108.21983601
_cell_angle_gamma   91.71526795
_symmetry_Int_Tables_number   1
_chemical_formula_structural   Rb2O2
_chemical_formula_sum   'Rb2 O2'
_cell_volume   92.50268010
_cell_formula_units_Z   1
loop_
 _symmetry_equiv_pos_site_id
 _symmetry_equiv_pos_as_xyz
  1  'x, y, z'
loop_
 _atom_site_type_symbol
 _atom_site_label
 _atom_site_symmetry_multiplicity
 _atom_site_fract_x
 _atom_site_fract_y
 _atom_site_fract_z
 _atom_site_occupancy
  Rb  Rb0  1  0.74083574  0.74083574  1.00000000  1.0
  Rb  Rb1  1  1.25916426  1.25916426  1.00000000  1.0
  O  O2  1  0.62594738  -0.00000000  0.62594738  1.0
  O  O3  1  0.37405262  -0.00000000  0.37405262  1.0
