# generated using pymatgen
data_ZnO2
_symmetry_space_group_name_H-M   'P 1'
_cell_length_a   10.68625991
_cell_length_b   10.68625991
_cell_length_c   10.68625991
_cell_angle_alpha   143.71712944
_cell_angle_beta   40.78617139
_cell_angle_gamma   161.99832875
_symmetry_Int_Tables_number   1
_chemical_formula_structural   ZnO2
_chemical_formula_sum   'Zn6 O12'
_cell_volume   222.87811200
_cell_formula_units_Z   6
loop_
 _symmetry_equiv_pos_site_id
 _symmetry_equiv_pos_as_xyz
  1  'x, y, z'
loop_
 _atom_site_type_symbol
 _atom_site_label
 _atom_site_symmetry_multiplicity
 _atom_site_fract_x
 _atom_site_fract_y
 _atom_site_fract_z
 _atom_site_occupancy
  Zn  Zn0  1  0.86329491  1.20438227  1.15516249  1.0
  Zn  Zn1  1  1.04921978  1.20438227  0.34108736  1.0
  Zn  Zn2  1  0.86329491  0.70813242  0.65891264  1.0
  Zn  Zn3  1  1.04921978  1.70813242  0.84483751  1.0
  Zn  Zn4  1  0.70536094  0.95720368  0.74815725  1.0
  Zn  Zn5  1  1.20904643  0.95720368  0.25184275  1.0
  O  O6  1  0.51878313  1.06225148  0.66813570  1.0
  O  O7  1  1.39411578  1.06225148  0.54346835  1.0
  O  O8  1  0.51878313  0.85064744  0.45653165  1.0
  O  O9  1  1.39411578  1.85064743  1.33186430  1.0
  O  O10  1  0.77352498  1.17228954  1.02821046  1.0
  O  O11  1  1.14407908  1.17228954  0.39876456  1.0
  O  O12  1  0.77352498  0.74531452  0.60123544  1.0
  O  O13  1  1.14407908  1.74531452  0.97178954  1.0
  O  O14  1  0.91898271  0.95553622  0.96344649  1.0
  O  O15  1  0.99208974  0.95553622  0.03655351  1.0
  O  O16  1  0.15025696  0.45744243  0.69281453  1.0
  O  O17  1  0.76462790  0.45744243  0.30718547  1.0
