# generated using pymatgen
data_NaCaMn2P3(HO6)2
_symmetry_space_group_name_H-M   'P 1'
_cell_length_a   8.89178028
_cell_length_b   8.89178028
_cell_length_c   6.81956297
_cell_angle_alpha   72.34546256
_cell_angle_beta   107.65453744
_cell_angle_gamma   90.28834610
_symmetry_Int_Tables_number   1
_chemical_formula_structural   NaCaMn2P3(HO6)2
_chemical_formula_sum   'Na2 Ca2 Mn4 P6 H4 O24'
_cell_volume   487.33858120
_cell_formula_units_Z   2
loop_
 _symmetry_equiv_pos_site_id
 _symmetry_equiv_pos_as_xyz
  1  'x, y, z'
loop_
 _atom_site_type_symbol
 _atom_site_label
 _atom_site_symmetry_multiplicity
 _atom_site_fract_x
 _atom_site_fract_y
 _atom_site_fract_z
 _atom_site_occupancy
  Na  Na0  1  0.94947687  -0.05052313  0.75000000  1.0
  Na  Na1  1  1.05052313  0.05052313  0.25000000  1.0
  Ca  Ca2  1  1.28468721  0.28468721  0.75000000  1.0
  Ca  Ca3  1  0.71531279  -0.28468721  0.25000000  1.0
  Mn  Mn4  1  0.38164173  -0.05452307  0.63911703  1.0
  Mn  Mn5  1  1.05452307  0.61835827  0.13911703  1.0
  Mn  Mn6  1  0.94547693  -0.61835827  0.86088297  1.0
  Mn  Mn7  1  1.61835827  0.05452307  0.36088297  1.0
  P  P8  1  1.68137728  0.11100369  0.88629804  1.0
  P  P9  1  0.88899631  -0.68137728  0.38629804  1.0
  P  P10  1  1.11100369  0.68137728  0.61370196  1.0
  P  P11  1  0.31862272  -0.11100369  0.11370196  1.0
  P  P12  1  0.68976917  -0.31023083  0.75000000  1.0
  P  P13  1  1.31023083  0.31023083  0.25000000  1.0
  H  H14  1  1.62648372  0.37609499  0.80159003  1.0
  H  H15  1  0.62390501  -0.62648372  0.30159003  1.0
  H  H16  1  1.37609499  0.62648372  0.69840997  1.0
  H  H17  1  0.37351628  -0.37609499  0.19840997  1.0
  O  O18  1  0.71829262  -0.19318942  0.54373533  1.0
  O  O19  1  1.19318942  0.28170738  0.04373533  1.0
  O  O20  1  0.80681058  -0.28170738  0.95626467  1.0
  O  O21  1  1.28170738  0.19318942  0.45626467  1.0
  O  O22  1  0.51693189  -0.28270710  0.75399594  1.0
  O  O23  1  1.28270710  0.48306811  0.25399594  1.0
  O  O24  1  0.71729290  -0.48306811  0.74600406  1.0
  O  O25  1  1.48306811  0.28270710  0.24600406  1.0
  O  O26  1  1.84648072  0.14744782  0.40610650  1.0
  O  O27  1  0.85255218  -0.84648072  0.90610650  1.0
  O  O28  1  1.14744782  0.84648072  0.09389350  1.0
  O  O29  1  0.15351928  -0.14744782  0.59389350  1.0
  O  O30  1  1.61128467  0.04549834  0.69547020  1.0
  O  O31  1  0.95450166  -0.61128467  0.19547020  1.0
  O  O32  1  1.04549834  0.61128467  0.80452980  1.0
  O  O33  1  0.38871533  -0.04549834  0.30452980  1.0
  O  O34  1  1.32856133  0.00712211  0.89913798  1.0
  O  O35  1  0.99287789  -0.32856133  0.39913798  1.0
  O  O36  1  1.00712211  0.32856133  0.60086202  1.0
  O  O37  1  0.67143867  -0.00712211  0.10086202  1.0
  O  O38  1  1.57206255  0.27156040  0.83912789  1.0
  O  O39  1  0.72843960  -0.57206255  0.33912789  1.0
  O  O40  1  1.27156040  0.57206255  0.66087211  1.0
  O  O41  1  0.42793745  -0.27156040  0.16087211  1.0
