# generated using pymatgen
data_Cu4SnP10
_symmetry_space_group_name_H-M   'P 1'
_cell_length_a   7.32673074
_cell_length_b   7.32673074
_cell_length_c   7.32673074
_cell_angle_alpha   60.08113103
_cell_angle_beta   60.08113103
_cell_angle_gamma   60.08113103
_symmetry_Int_Tables_number   1
_chemical_formula_structural   Cu4SnP10
_chemical_formula_sum   'Cu4 Sn1 P10'
_cell_volume   278.62072182
_cell_formula_units_Z   1
loop_
 _symmetry_equiv_pos_site_id
 _symmetry_equiv_pos_as_xyz
  1  'x, y, z'
loop_
 _atom_site_type_symbol
 _atom_site_label
 _atom_site_symmetry_multiplicity
 _atom_site_fract_x
 _atom_site_fract_y
 _atom_site_fract_z
 _atom_site_occupancy
  Cu  Cu0  1  0.87169022  -0.12830978  -0.12830978  1.0
  Cu  Cu1  1  0.99085567  0.50159228  -0.49840772  1.0
  Cu  Cu2  1  0.50159228  0.50159228  -0.00914433  1.0
  Cu  Cu3  1  0.50159228  0.99085567  -0.49840772  1.0
  Sn  Sn4  1  0.44303003  0.44303003  -0.55696997  1.0
  P  P5  1  0.88150169  0.36742941  -0.63257059  1.0
  P  P6  1  0.36742941  0.36742941  -0.11849831  1.0
  P  P7  1  0.36742941  0.88150169  -0.63257059  1.0
  P  P8  1  0.49147912  -0.00215624  -0.00215624  1.0
  P  P9  1  0.99784376  -0.00215624  -0.50852088  1.0
  P  P10  1  0.99784376  -0.50852088  -0.00215624  1.0
  P  P11  1  0.36561195  -0.12315284  -0.12315284  1.0
  P  P12  1  0.87684716  -0.12315284  -0.63438805  1.0
  P  P13  1  0.87684716  -0.63438805  -0.12315284  1.0
  P  P14  1  -0.00139390  -0.00139390  -0.00139390  1.0
