# generated using pymatgen
data_MnP
_symmetry_space_group_name_H-M   'P 1'
_cell_length_a   5.18892692
_cell_length_b   3.15939062
_cell_length_c   5.84289563
_cell_angle_alpha   90.00000000
_cell_angle_beta   90.00000000
_cell_angle_gamma   90.00000000
_symmetry_Int_Tables_number   1
_chemical_formula_structural   MnP
_chemical_formula_sum   'Mn4 P4'
_cell_volume   95.78753739
_cell_formula_units_Z   4
loop_
 _symmetry_equiv_pos_site_id
 _symmetry_equiv_pos_as_xyz
  1  'x, y, z'
loop_
 _atom_site_type_symbol
 _atom_site_label
 _atom_site_symmetry_multiplicity
 _atom_site_fract_x
 _atom_site_fract_y
 _atom_site_fract_z
 _atom_site_occupancy
  Mn  Mn0  1  0.99588975  0.75000000  0.19577490  1.0
  Mn  Mn1  1  0.49588975  0.75000000  0.30422510  1.0
  Mn  Mn2  1  0.00411025  0.25000000  0.80422510  1.0
  Mn  Mn3  1  0.50411025  0.25000000  0.69577490  1.0
  P  P4  1  0.81299694  0.75000000  0.56987761  1.0
  P  P5  1  0.31299694  0.75000000  0.93012239  1.0
  P  P6  1  0.18700306  0.25000000  0.43012239  1.0
  P  P7  1  0.68700306  0.25000000  0.06987761  1.0
