# generated using pymatgen
data_Fe4C
_symmetry_space_group_name_H-M   'P 1'
_cell_length_a   5.98569813
_cell_length_b   2.52638790
_cell_length_c   6.23064746
_cell_angle_alpha   90.00000000
_cell_angle_beta   103.04381917
_cell_angle_gamma   90.00000000
_symmetry_Int_Tables_number   1
_chemical_formula_structural   Fe4C
_chemical_formula_sum   'Fe8 C2'
_cell_volume   91.78995143
_cell_formula_units_Z   2
loop_
 _symmetry_equiv_pos_site_id
 _symmetry_equiv_pos_as_xyz
  1  'x, y, z'
loop_
 _atom_site_type_symbol
 _atom_site_label
 _atom_site_symmetry_multiplicity
 _atom_site_fract_x
 _atom_site_fract_y
 _atom_site_fract_z
 _atom_site_occupancy
  Fe  Fe0  1  0.89045073  0.25000000  0.83669215  1.0
  Fe  Fe1  1  0.10954927  0.75000000  0.16330785  1.0
  Fe  Fe2  1  0.18301066  0.25000000  0.51787828  1.0
  Fe  Fe3  1  0.81698934  0.75000000  0.48212172  1.0
  Fe  Fe4  1  0.68486614  0.75000000  0.08008329  1.0
  Fe  Fe5  1  0.31513386  0.25000000  0.91991671  1.0
  Fe  Fe6  1  0.52625249  0.75000000  0.68013712  1.0
  Fe  Fe7  1  0.47374751  0.25000000  0.31986288  1.0
  C  C8  1  0.10767126  0.75000000  0.73628874  1.0
  C  C9  1  0.89232874  0.25000000  0.26371126  1.0
