# generated using pymatgen
data_Mn3P3PbO12
_symmetry_space_group_name_H-M   'P 1'
_cell_length_a   9.33928177
_cell_length_b   9.33928177
_cell_length_c   9.33928177
_cell_angle_alpha   83.55127332
_cell_angle_beta   111.84276987
_cell_angle_gamma   137.75298958
_symmetry_Int_Tables_number   1
_chemical_formula_structural   Mn3P3PbO12
_chemical_formula_sum   'Mn6 P6 Pb2 O24'
_cell_volume   490.68527608
_cell_formula_units_Z   2
loop_
 _symmetry_equiv_pos_site_id
 _symmetry_equiv_pos_as_xyz
  1  'x, y, z'
loop_
 _atom_site_type_symbol
 _atom_site_label
 _atom_site_symmetry_multiplicity
 _atom_site_fract_x
 _atom_site_fract_y
 _atom_site_fract_z
 _atom_site_occupancy
  Mn  Mn0  1  0.00000000  0.11834875  0.11834875  1.0
  Mn  Mn1  1  0.50000000  0.11834875  0.61834875  1.0
  Mn  Mn2  1  0.50000000  0.88165125  0.38165125  1.0
  Mn  Mn3  1  1.00000000  0.88165125  0.88165125  1.0
  Mn  Mn4  1  1.00000000  1.00000000  0.50000000  1.0
  Mn  Mn5  1  1.00000000  0.50000000  1.00000000  1.0
  P  P6  1  1.00000000  0.67828819  0.67828819  1.0
  P  P7  1  0.50000000  0.67828819  0.17828819  1.0
  P  P8  1  0.50000000  0.32171181  0.82171181  1.0
  P  P9  1  0.00000000  0.32171181  0.32171181  1.0
  P  P10  1  1.09068886  0.84068886  1.25000000  1.0
  P  P11  1  0.90931114  0.15931114  0.75000000  1.0
  Pb  Pb12  1  1.61483812  1.36483812  1.25000000  1.0
  Pb  Pb13  1  1.38516188  0.63516188  0.75000000  1.0
  O  O14  1  1.05925072  1.19519740  0.35678328  1.0
  O  O15  1  0.66158588  0.29753256  0.85678328  1.0
  O  O16  1  0.66158588  0.80480260  0.36405332  1.0
  O  O17  1  1.05925072  0.70246744  0.86405332  1.0
  O  O18  1  1.33841412  1.19519740  0.63594668  1.0
  O  O19  1  0.94074928  0.29753256  1.13594668  1.0
  O  O20  1  0.94074928  0.80480260  0.64321672  1.0
  O  O21  1  1.33841412  0.70246744  1.14321672  1.0
  O  O22  1  0.36393452  0.43826083  0.15989224  1.0
  O  O23  1  1.22163141  0.79595772  0.65989224  1.0
  O  O24  1  0.22163141  0.56173917  0.42567369  1.0
  O  O25  1  1.36393452  1.20404228  0.92567369  1.0
  O  O26  1  0.77836859  0.43826083  0.57432631  1.0
  O  O27  1  1.63606548  0.79595772  1.07432631  1.0
  O  O28  1  0.63606548  0.56173917  0.84010776  1.0
  O  O29  1  1.77836859  1.20404228  1.34010776  1.0
  O  O30  1  1.11502024  0.98408074  1.13093950  1.0
  O  O31  1  0.64685876  0.01591926  0.63093950  1.0
  O  O32  1  1.35314124  0.98408074  1.36906050  1.0
  O  O33  1  0.88497976  0.01591926  0.86906050  1.0
  O  O34  1  1.04240177  0.38278037  0.84037859  1.0
  O  O35  1  0.95759823  0.79797682  1.34037859  1.0
  O  O36  1  0.95759823  0.61721963  1.15962141  1.0
  O  O37  1  1.04240177  1.20202318  1.65962141  1.0
