# generated using pymatgen
data_Na4CO4
_symmetry_space_group_name_H-M   'P 1'
_cell_length_a   5.62382332
_cell_length_b   5.62382332
_cell_length_c   5.62382332
_cell_angle_alpha   128.61659718
_cell_angle_beta   128.61659718
_cell_angle_gamma   75.62827225
_symmetry_Int_Tables_number   1
_chemical_formula_structural   Na4CO4
_chemical_formula_sum   'Na4 C1 O4'
_cell_volume   105.63786310
_cell_formula_units_Z   1
loop_
 _symmetry_equiv_pos_site_id
 _symmetry_equiv_pos_as_xyz
  1  'x, y, z'
loop_
 _atom_site_type_symbol
 _atom_site_label
 _atom_site_symmetry_multiplicity
 _atom_site_fract_x
 _atom_site_fract_y
 _atom_site_fract_z
 _atom_site_occupancy
  Na  Na0  1  0.84527930  0.44260347  1.00000000  1.0
  Na  Na1  1  0.44260347  0.84527930  1.00000000  1.0
  Na  Na2  1  1.15472070  1.15472070  1.59732417  1.0
  Na  Na3  1  0.55739653  0.55739653  0.40267583  1.0
  C  C4  1  0.00000000  0.00000000  0.00000000  1.0
  O  O5  1  0.73591472  1.07255552  1.00000000  1.0
  O  O6  1  1.07255552  0.73591472  1.00000000  1.0
  O  O7  1  0.26408528  0.26408528  0.33664080  1.0
  O  O8  1  0.92744448  0.92744448  1.66335920  1.0
