# generated using pymatgen
data_Y5(Si7Os2)2
_symmetry_space_group_name_H-M   'P 1'
_cell_length_a   12.79544825
_cell_length_b   8.05015743
_cell_length_c   7.97084198
_cell_angle_alpha   90.00000000
_cell_angle_beta   98.64901307
_cell_angle_gamma   90.00000000
_symmetry_Int_Tables_number   1
_chemical_formula_structural   Y5(Si7Os2)2
_chemical_formula_sum   'Y10 Si28 Os8'
_cell_volume   811.70277051
_cell_formula_units_Z   2
loop_
 _symmetry_equiv_pos_site_id
 _symmetry_equiv_pos_as_xyz
  1  'x, y, z'
loop_
 _atom_site_type_symbol
 _atom_site_label
 _atom_site_symmetry_multiplicity
 _atom_site_fract_x
 _atom_site_fract_y
 _atom_site_fract_z
 _atom_site_occupancy
  Y  Y0  1  0.63428784  0.24872876  0.16202551  1.0
  Y  Y1  1  0.63428784  0.25127124  0.66202551  1.0
  Y  Y2  1  0.36571216  0.74872876  0.33797449  1.0
  Y  Y3  1  0.36571216  0.75127124  0.83797449  1.0
  Y  Y4  1  0.36443070  0.24592986  0.34259037  1.0
  Y  Y5  1  0.36443070  0.25407014  0.84259037  1.0
  Y  Y6  1  0.63556930  0.74592986  0.15740963  1.0
  Y  Y7  1  0.63556930  0.75407014  0.65740963  1.0
  Y  Y8  1  -0.00000000  0.50000000  0.50000000  1.0
  Y  Y9  1  0.00000000  0.00000000  0.00000000  1.0
  Si  Si10  1  0.99966110  0.16756420  0.33364303  1.0
  Si  Si11  1  0.99966110  0.33243580  0.83364303  1.0
  Si  Si12  1  0.00033890  0.66756420  0.16635697  1.0
  Si  Si13  1  0.00033890  0.83243580  0.66635697  1.0
  Si  Si14  1  0.82101213  0.49439372  0.17704119  1.0
  Si  Si15  1  0.82101213  0.00560628  0.67704119  1.0
  Si  Si16  1  0.17898787  0.99439372  0.32295881  1.0
  Si  Si17  1  0.17898787  0.50560628  0.82295881  1.0
  Si  Si18  1  0.82115416  0.77916433  0.45036859  1.0
  Si  Si19  1  0.82115416  0.72083567  0.95036859  1.0
  Si  Si20  1  0.17884584  0.27916433  0.04963141  1.0
  Si  Si21  1  0.17884584  0.22083567  0.54963141  1.0
  Si  Si22  1  0.82105875  0.99376971  0.23732595  1.0
  Si  Si23  1  0.82105875  0.50623029  0.73732595  1.0
  Si  Si24  1  0.17894125  0.49376971  0.26267405  1.0
  Si  Si25  1  0.17894125  0.00623029  0.76267405  1.0
  Si  Si26  1  0.82061886  0.22065087  0.46206086  1.0
  Si  Si27  1  0.82061886  0.27934913  0.96206086  1.0
  Si  Si28  1  0.17938114  0.72065087  0.03793914  1.0
  Si  Si29  1  0.17938114  0.77934913  0.53793914  1.0
  Si  Si30  1  0.55853955  0.49974006  0.39234975  1.0
  Si  Si31  1  0.55853955  0.00025994  0.89234975  1.0
  Si  Si32  1  0.44146045  0.99974006  0.10765025  1.0
  Si  Si33  1  0.44146045  0.50025994  0.60765025  1.0
  Si  Si34  1  0.55310063  0.00029037  0.38740263  1.0
  Si  Si35  1  0.55310063  0.49970963  0.88740263  1.0
  Si  Si36  1  0.44689937  0.50029037  0.11259737  1.0
  Si  Si37  1  0.44689937  0.99970963  0.61259737  1.0
  Os  Os38  1  0.99939434  0.37373474  0.12840247  1.0
  Os  Os39  1  0.99939434  0.12626526  0.62840247  1.0
  Os  Os40  1  0.00060566  0.87373474  0.37159753  1.0
  Os  Os41  1  0.00060566  0.62626526  0.87159753  1.0
  Os  Os42  1  0.74687351  1.00000754  0.93935303  1.0
  Os  Os43  1  0.74687351  0.49999246  0.43935303  1.0
  Os  Os44  1  0.25312649  0.50000754  0.56064697  1.0
  Os  Os45  1  0.25312649  -0.00000754  0.06064697  1.0
