# generated using pymatgen
data_Si5P6O25
_symmetry_space_group_name_H-M   'P 1'
_cell_length_a   9.34704086
_cell_length_b   9.34704086
_cell_length_c   9.34704086
_cell_angle_alpha   50.59940852
_cell_angle_beta   50.59940852
_cell_angle_gamma   50.59940852
_symmetry_Int_Tables_number   1
_chemical_formula_structural   Si5P6O25
_chemical_formula_sum   'Si5 P6 O25'
_cell_volume   449.35463308
_cell_formula_units_Z   1
loop_
 _symmetry_equiv_pos_site_id
 _symmetry_equiv_pos_as_xyz
  1  'x, y, z'
loop_
 _atom_site_type_symbol
 _atom_site_label
 _atom_site_symmetry_multiplicity
 _atom_site_fract_x
 _atom_site_fract_y
 _atom_site_fract_z
 _atom_site_occupancy
  Si  Si0  1  0.18063012  0.18063012  0.18063012  1.0
  Si  Si1  1  0.81936988  -0.18063012  -0.18063012  1.0
  Si  Si2  1  0.43408644  0.43408644  -0.56591356  1.0
  Si  Si3  1  0.56591356  0.56591356  -0.43408644  1.0
  Si  Si4  1  0.00000000  0.00000000  0.00000000  1.0
  P  P5  1  0.37725515  0.07443102  -0.17418937  1.0
  P  P6  1  1.17418937  -0.37725515  -0.07443102  1.0
  P  P7  1  0.92556898  0.17418937  -0.37725515  1.0
  P  P8  1  0.62274485  -0.07443102  0.17418937  1.0
  P  P9  1  0.82581063  -0.62274485  0.07443102  1.0
  P  P10  1  1.07443102  -0.17418937  -0.62274485  1.0
  O  O11  1  0.42454238  0.21191258  -0.40712224  1.0
  O  O12  1  0.40712224  0.57545762  -0.21191258  1.0
  O  O13  1  0.78808742  0.40712224  -0.42454238  1.0
  O  O14  1  0.57545762  0.78808742  -0.59287776  1.0
  O  O15  1  0.59287776  0.42454238  -0.78808742  1.0
  O  O16  1  0.21191258  0.59287776  -0.57545762  1.0
  O  O17  1  0.21806427  0.92658038  -0.72972296  1.0
  O  O18  1  0.72972296  -0.21806427  0.07341962  1.0
  O  O19  1  1.07341962  -0.27027704  -0.21806427  1.0
  O  O20  1  0.78193573  0.07341962  -0.27027704  1.0
  O  O21  1  0.27027704  0.21806427  -0.07341962  1.0
  O  O22  1  0.92658038  0.27027704  -0.78193573  1.0
  O  O23  1  0.42700005  0.09466124  0.14699355  1.0
  O  O24  1  0.85300645  -0.42700005  -0.09466124  1.0
  O  O25  1  0.90533876  -0.14699355  -0.42700005  1.0
  O  O26  1  0.57299995  -0.09466124  -0.14699355  1.0
  O  O27  1  1.14699355  -0.57299995  0.09466124  1.0
  O  O28  1  1.09466124  0.14699355  -0.57299995  1.0
  O  O29  1  0.24918744  -0.02344325  -0.10392856  1.0
  O  O30  1  1.10392856  -0.24918744  0.02344325  1.0
  O  O31  1  1.02344325  0.10392856  -0.24918744  1.0
  O  O32  1  0.75081256  0.02344325  0.10392856  1.0
  O  O33  1  0.89607144  -0.75081256  -0.02344325  1.0
  O  O34  1  0.97655675  -0.10392856  -0.75081256  1.0
  O  O35  1  0.50000000  0.50000000  -0.50000000  1.0
