# generated using pymatgen
data_Sr2Br3
_symmetry_space_group_name_H-M   'P 1'
_cell_length_a   14.96418575
_cell_length_b   14.96418575
_cell_length_c   8.46088651
_cell_angle_alpha   90.00000000
_cell_angle_beta   90.00000000
_cell_angle_gamma   90.00000000
_symmetry_Int_Tables_number   1
_chemical_formula_structural   Sr2Br3
_chemical_formula_sum   'Sr16 Br24'
_cell_volume   1894.61970782
_cell_formula_units_Z   8
loop_
 _symmetry_equiv_pos_site_id
 _symmetry_equiv_pos_as_xyz
  1  'x, y, z'
loop_
 _atom_site_type_symbol
 _atom_site_label
 _atom_site_symmetry_multiplicity
 _atom_site_fract_x
 _atom_site_fract_y
 _atom_site_fract_z
 _atom_site_occupancy
  Sr  Sr0  1  0.36461401  0.86466190  0.75060942  1.0
  Sr  Sr1  1  0.86461401  0.36466190  0.24939058  1.0
  Sr  Sr2  1  0.86466190  0.63538599  0.24939058  1.0
  Sr  Sr3  1  0.36466190  0.13538599  0.75060942  1.0
  Sr  Sr4  1  0.63538599  0.13533810  0.75060942  1.0
  Sr  Sr5  1  0.13538599  0.63533810  0.24939058  1.0
  Sr  Sr6  1  0.13533810  0.36461401  0.24939058  1.0
  Sr  Sr7  1  0.63533810  0.86461401  0.75060942  1.0
  Sr  Sr8  1  0.13533365  0.36461546  0.74939367  1.0
  Sr  Sr9  1  0.63533365  0.86461546  0.25060633  1.0
  Sr  Sr10  1  0.36461546  0.86466635  0.25060633  1.0
  Sr  Sr11  1  0.86461546  0.36466635  0.74939367  1.0
  Sr  Sr12  1  0.86466635  0.63538454  0.74939367  1.0
  Sr  Sr13  1  0.36466635  0.13538454  0.25060633  1.0
  Sr  Sr14  1  0.63538454  0.13533365  0.25060633  1.0
  Sr  Sr15  1  0.13538454  0.63533365  0.74939367  1.0
  Br  Br16  1  0.50003113  0.21359783  0.50076506  1.0
  Br  Br17  1  1.00003113  0.71359783  0.49923494  1.0
  Br  Br18  1  0.21359783  0.49996887  0.49923494  1.0
  Br  Br19  1  0.71359783  -0.00003113  0.50076506  1.0
  Br  Br20  1  0.49996887  0.78640217  0.50076506  1.0
  Br  Br21  1  -0.00003113  0.28640217  0.49923494  1.0
  Br  Br22  1  0.78640217  0.50003113  0.49923494  1.0
  Br  Br23  1  0.28640217  1.00003113  0.50076506  1.0
  Br  Br24  1  0.21361375  0.49997391  0.99919225  1.0
  Br  Br25  1  0.71361375  0.99997391  0.00080775  1.0
  Br  Br26  1  0.49997391  0.78638625  0.00080775  1.0
  Br  Br27  1  0.99997391  0.28638625  0.99919225  1.0
  Br  Br28  1  0.78638625  0.50002609  0.99919225  1.0
  Br  Br29  1  0.28638625  0.00002609  0.00080775  1.0
  Br  Br30  1  0.50002609  0.21361375  0.00080775  1.0
  Br  Br31  1  0.00002609  0.71361375  0.99919225  1.0
  Br  Br32  1  0.25000000  0.75000000  0.50000000  1.0
  Br  Br33  1  0.75000000  0.25000000  0.50000000  1.0
  Br  Br34  1  0.75000000  0.75000000  0.50000000  1.0
  Br  Br35  1  0.25000000  0.25000000  0.50000000  1.0
  Br  Br36  1  0.25000000  0.75000000  0.00000000  1.0
  Br  Br37  1  0.75000000  0.25000000  0.00000000  1.0
  Br  Br38  1  0.75000000  0.75000000  0.00000000  1.0
  Br  Br39  1  0.25000000  0.25000000  0.00000000  1.0
