# generated using pymatgen
data_Ti2P2O10F
_symmetry_space_group_name_H-M   'P 1'
_cell_length_a   5.23258218
_cell_length_b   14.82011326
_cell_length_c   12.49039249
_cell_angle_alpha   90.00000000
_cell_angle_beta   113.31553986
_cell_angle_gamma   90.00000000
_symmetry_Int_Tables_number   1
_chemical_formula_structural   Ti2P2O10F
_chemical_formula_sum   'Ti8 P8 O40 F4'
_cell_volume   889.50158493
_cell_formula_units_Z   4
loop_
 _symmetry_equiv_pos_site_id
 _symmetry_equiv_pos_as_xyz
  1  'x, y, z'
loop_
 _atom_site_type_symbol
 _atom_site_label
 _atom_site_symmetry_multiplicity
 _atom_site_fract_x
 _atom_site_fract_y
 _atom_site_fract_z
 _atom_site_occupancy
  O  O0  1  0.91810665  0.38685976  0.40822500  1.0
  O  O1  1  0.91810665  0.11314024  0.90822500  1.0
  O  O2  1  0.08189335  0.88685976  0.09177500  1.0
  O  O3  1  0.08189335  0.61314024  0.59177500  1.0
  O  O4  1  0.80091218  0.01817386  0.29094477  1.0
  O  O5  1  0.80091218  0.48182614  0.79094477  1.0
  O  O6  1  0.19908782  0.51817386  0.20905523  1.0
  O  O7  1  0.19908782  0.98182614  0.70905523  1.0
  O  O8  1  0.78974622  0.05254148  0.06906266  1.0
  O  O9  1  0.78974622  0.44745852  0.56906266  1.0
  O  O10  1  0.21025378  0.55254148  0.43093734  1.0
  O  O11  1  0.21025378  0.94745852  0.93093734  1.0
  O  O12  1  0.61830559  0.93127391  0.42391207  1.0
  O  O13  1  0.61830559  0.56872609  0.92391207  1.0
  O  O14  1  0.38169441  0.43127391  0.07608793  1.0
  O  O15  1  0.38169441  0.06872609  0.57608793  1.0
  O  O16  1  0.65445486  0.10020386  0.43091229  1.0
  O  O17  1  0.65445486  0.39979614  0.93091229  1.0
  O  O18  1  0.34554514  0.60020386  0.06908771  1.0
  O  O19  1  0.34554514  0.89979614  0.56908771  1.0
  O  O20  1  0.40955355  0.39389181  0.37981595  1.0
  O  O21  1  0.40955355  0.10610819  0.87981595  1.0
  O  O22  1  0.59044645  0.89389181  0.12018405  1.0
  O  O23  1  0.59044645  0.60610819  0.62018405  1.0
  O  O24  1  0.28768751  0.02279366  0.25489281  1.0
  O  O25  1  0.28768751  0.47720634  0.75489281  1.0
  O  O26  1  0.71231249  0.52279366  0.24510719  1.0
  O  O27  1  0.71231249  0.97720634  0.74510719  1.0
  O  O28  1  0.40837601  0.27706712  0.14036111  1.0
  O  O29  1  0.40837601  0.22293288  0.64036111  1.0
  O  O30  1  0.59162399  0.77706712  0.35963889  1.0
  O  O31  1  0.59162399  0.72293288  0.85963889  1.0
  O  O32  1  0.21853278  0.20757795  0.45260549  1.0
  O  O33  1  0.21853278  0.29242205  0.95260549  1.0
  O  O34  1  0.78146722  0.70757795  0.04739451  1.0
  O  O35  1  0.78146722  0.79242205  0.54739451  1.0
  O  O36  1  0.72768572  0.21793094  0.01980596  1.0
  O  O37  1  0.72768572  0.28206906  0.51980596  1.0
  O  O38  1  0.27231428  0.71793094  0.48019404  1.0
  O  O39  1  0.27231428  0.78206906  0.98019404  1.0
  Ti  Ti40  1  0.93174685  0.96301840  0.18219963  1.0
  Ti  Ti41  1  0.93174685  0.53698160  0.68219963  1.0
  Ti  Ti42  1  0.06825315  0.46301840  0.31780037  1.0
  Ti  Ti43  1  0.06825315  0.03698160  0.81780037  1.0
  Ti  Ti44  1  0.59596131  0.32978375  0.04896300  1.0
  Ti  Ti45  1  0.59596131  0.17021625  0.54896300  1.0
  Ti  Ti46  1  0.40403869  0.82978375  0.45103700  1.0
  Ti  Ti47  1  0.40403869  0.67021625  0.95103700  1.0
  P  P48  1  0.71102930  0.37868071  0.46698082  1.0
  P  P49  1  0.71102930  0.12131929  0.96698082  1.0
  P  P50  1  0.28897070  0.87868071  0.03301918  1.0
  P  P51  1  0.28897070  0.62131929  0.53301918  1.0
  P  P52  1  0.58931117  0.01789549  0.34843789  1.0
  P  P53  1  0.58931117  0.48210451  0.84843789  1.0
  P  P54  1  0.41068883  0.51789549  0.15156211  1.0
  P  P55  1  0.41068883  0.98210451  0.65156211  1.0
  F  F56  1  0.90954898  0.36672087  0.18927863  1.0
  F  F57  1  0.90954898  0.13327913  0.68927863  1.0
  F  F58  1  0.09045102  0.86672087  0.31072137  1.0
  F  F59  1  0.09045102  0.63327913  0.81072137  1.0
