# generated using pymatgen
data_Ba(SbAu)2
_symmetry_space_group_name_H-M   'P 1'
_cell_length_a   4.99986391
_cell_length_b   4.86596404
_cell_length_c   11.19694569
_cell_angle_alpha   90.00000000
_cell_angle_beta   91.20120399
_cell_angle_gamma   90.00000000
_symmetry_Int_Tables_number   1
_chemical_formula_structural   Ba(SbAu)2
_chemical_formula_sum   'Ba2 Sb4 Au4'
_cell_volume   272.35239617
_cell_formula_units_Z   2
loop_
 _symmetry_equiv_pos_site_id
 _symmetry_equiv_pos_as_xyz
  1  'x, y, z'
loop_
 _atom_site_type_symbol
 _atom_site_label
 _atom_site_symmetry_multiplicity
 _atom_site_fract_x
 _atom_site_fract_y
 _atom_site_fract_z
 _atom_site_occupancy
  Ba  Ba0  1  0.73664288  0.25000000  0.24367690  1.0
  Ba  Ba1  1  0.26335712  0.75000000  0.75632310  1.0
  Sb  Sb2  1  0.80433867  0.25000000  0.87691606  1.0
  Sb  Sb3  1  0.19566133  0.75000000  0.12308394  1.0
  Sb  Sb4  1  0.24833340  0.25000000  0.50163602  1.0
  Sb  Sb5  1  0.75166660  0.75000000  0.49836398  1.0
  Au  Au6  1  0.75100722  0.25000000  0.63250723  1.0
  Au  Au7  1  0.24899278  0.75000000  0.36749277  1.0
  Au  Au8  1  0.30911112  0.25000000  0.00008528  1.0
  Au  Au9  1  0.69088888  0.75000000  0.99991472  1.0
