# generated using pymatgen
data_CaFeNi2(PO4)3
_symmetry_space_group_name_H-M   'P 1'
_cell_length_a   8.91222673
_cell_length_b   8.91222673
_cell_length_c   8.91222673
_cell_angle_alpha   85.24350680
_cell_angle_beta   110.58267241
_cell_angle_gamma   137.00074754
_symmetry_Int_Tables_number   1
_chemical_formula_structural   CaFeNi2(PO4)3
_chemical_formula_sum   'Ca2 Fe2 Ni4 P6 O24'
_cell_volume   434.80118376
_cell_formula_units_Z   2
loop_
 _symmetry_equiv_pos_site_id
 _symmetry_equiv_pos_as_xyz
  1  'x, y, z'
loop_
 _atom_site_type_symbol
 _atom_site_label
 _atom_site_symmetry_multiplicity
 _atom_site_fract_x
 _atom_site_fract_y
 _atom_site_fract_z
 _atom_site_occupancy
  Ca  Ca0  1  1.41556415  1.16556415  1.25000000  1.0
  Ca  Ca1  1  1.58443585  0.83443585  0.75000000  1.0
  Fe  Fe2  1  1.00000000  0.50000000  1.00000000  1.0
  Fe  Fe3  1  1.00000000  1.00000000  0.50000000  1.0
  Ni  Ni4  1  1.00000000  0.61747831  0.61747831  1.0
  Ni  Ni5  1  0.50000000  0.38252169  0.88252169  1.0
  Ni  Ni6  1  -0.00000000  0.38252169  0.38252169  1.0
  Ni  Ni7  1  0.50000000  0.61747831  0.11747831  1.0
  P  P8  1  1.00000000  0.82364003  0.82364003  1.0
  P  P9  1  0.50000000  0.17635997  0.67635997  1.0
  P  P10  1  -0.00000000  0.17635997  0.17635997  1.0
  P  P11  1  0.50000000  0.82364003  0.32364003  1.0
  P  P12  1  0.92201090  0.67201090  1.25000000  1.0
  P  P13  1  1.07798910  0.32798910  0.75000000  1.0
  O  O14  1  1.06037122  0.68921618  0.85449627  1.0
  O  O15  1  1.33471991  1.20587495  0.64550373  1.0
  O  O16  1  0.93962878  0.79412505  0.62884496  1.0
  O  O17  1  0.66528009  0.31078382  0.87115504  1.0
  O  O18  1  0.93962878  0.31078382  1.14550373  1.0
  O  O19  1  0.66528009  0.79412505  0.35449627  1.0
  O  O20  1  1.06037122  1.20587495  0.37115504  1.0
  O  O21  1  1.33471991  0.68921618  1.12884496  1.0
  O  O22  1  0.88935060  0.51989318  1.36945742  1.0
  O  O23  1  0.65043576  0.51989318  1.13054258  1.0
  O  O24  1  1.11064940  0.48010682  0.63054258  1.0
  O  O25  1  1.34956424  0.48010682  0.86945742  1.0
  O  O26  1  1.06327962  0.71826949  1.15498987  1.0
  O  O27  1  1.06327962  0.90828975  1.34501013  1.0
  O  O28  1  0.93672038  1.09171025  1.65498987  1.0
  O  O29  1  0.93672038  0.28173051  0.84501013  1.0
  O  O30  1  0.76914744  0.70571673  0.83849017  1.0
  O  O31  1  1.36722656  0.93065726  0.66150983  1.0
  O  O32  1  1.23085256  1.06934274  0.93656929  1.0
  O  O33  1  0.63277344  0.29428327  0.56343071  1.0
  O  O34  1  0.23085256  0.29428327  0.16150983  1.0
  O  O35  1  1.63277344  1.06934274  1.33849017  1.0
  O  O36  1  1.76914744  0.93065726  1.06343071  1.0
  O  O37  1  0.36722656  0.70571673  0.43656929  1.0
