# generated using pymatgen
data_LiCa2
_symmetry_space_group_name_H-M   'P 1'
_cell_length_a   5.80039413
_cell_length_b   5.80039413
_cell_length_c   7.49164622
_cell_angle_alpha   89.85499213
_cell_angle_beta   90.14500787
_cell_angle_gamma   119.86413457
_symmetry_Int_Tables_number   1
_chemical_formula_structural   LiCa2
_chemical_formula_sum   'Li2 Ca4'
_cell_volume   218.58179916
_cell_formula_units_Z   2
loop_
 _symmetry_equiv_pos_site_id
 _symmetry_equiv_pos_as_xyz
  1  'x, y, z'
loop_
 _atom_site_type_symbol
 _atom_site_label
 _atom_site_symmetry_multiplicity
 _atom_site_fract_x
 _atom_site_fract_y
 _atom_site_fract_z
 _atom_site_occupancy
  Li  Li0  1  0.00000000  0.00000000  0.00000000  1.0
  Li  Li1  1  -0.00000000  0.00000000  0.50000000  1.0
  Ca  Ca2  1  0.66686731  -0.66686731  0.63942397  1.0
  Ca  Ca3  1  0.33313269  -0.33313269  0.36057603  1.0
  Ca  Ca4  1  0.33313310  -0.33313310  0.86057928  1.0
  Ca  Ca5  1  0.66686690  -0.66686690  0.13942072  1.0
