# generated using pymatgen
data_Ba2TeP2O9
_symmetry_space_group_name_H-M   'P 1'
_cell_length_a   7.07398720
_cell_length_b   9.04129435
_cell_length_c   7.55803499
_cell_angle_alpha   76.92286739
_cell_angle_beta   74.96701755
_cell_angle_gamma   79.72591752
_symmetry_Int_Tables_number   1
_chemical_formula_structural   Ba2TeP2O9
_chemical_formula_sum   'Ba4 Te2 P4 O18'
_cell_volume   451.05170624
_cell_formula_units_Z   2
loop_
 _symmetry_equiv_pos_site_id
 _symmetry_equiv_pos_as_xyz
  1  'x, y, z'
loop_
 _atom_site_type_symbol
 _atom_site_label
 _atom_site_symmetry_multiplicity
 _atom_site_fract_x
 _atom_site_fract_y
 _atom_site_fract_z
 _atom_site_occupancy
  Ba  Ba0  1  -0.87164263  -0.41882844  -0.80541283  1.0
  Ba  Ba1  1  -0.12835737  -0.58117156  -0.19458717  1.0
  Ba  Ba2  1  -0.40184014  -0.75553728  -0.61654417  1.0
  Ba  Ba3  1  -0.59815986  -0.24446272  -0.38345583  1.0
  Te  Te4  1  -0.85603655  -0.95526859  -0.88567426  1.0
  Te  Te5  1  -0.14396345  -0.04473141  -0.11432574  1.0
  P  P6  1  -0.87793314  -0.81656613  -0.52053175  1.0
  P  P7  1  -0.12206686  -0.18343387  -0.47946825  1.0
  P  P8  1  -0.36592105  -0.35315457  -0.87925018  1.0
  P  P9  1  -0.63407895  -0.64684543  -0.12074982  1.0
  O  O10  1  -0.97780282  -0.80221287  -0.69346304  1.0
  O  O11  1  -0.02219718  -0.19778713  -0.30653696  1.0
  O  O12  1  -0.95136362  -0.14710421  -0.65798959  1.0
  O  O13  1  -0.04863638  -0.85289579  -0.34201041  1.0
  O  O14  1  -0.82806593  -0.65663477  -0.52437953  1.0
  O  O15  1  -0.17193407  -0.34336523  -0.47562047  1.0
  O  O16  1  -0.77093677  -0.77626042  -0.11286250  1.0
  O  O17  1  -0.22906323  -0.22373958  -0.88713750  1.0
  O  O18  1  -0.69980410  -0.94037074  -0.53456929  1.0
  O  O19  1  -0.30019590  -0.05962926  -0.46543071  1.0
  O  O20  1  -0.56872455  -0.67472938  -0.93518167  1.0
  O  O21  1  -0.43127545  -0.32527062  -0.06481833  1.0
  O  O22  1  -0.54228915  -0.34813780  -0.70942319  1.0
  O  O23  1  -0.45771085  -0.65186220  -0.29057681  1.0
  O  O24  1  -0.22422983  -0.50604718  -0.85163004  1.0
  O  O25  1  -0.77577017  -0.49395282  -0.14836996  1.0
  O  O26  1  -0.12849091  -0.89612036  -0.92853235  1.0
  O  O27  1  -0.87150909  -0.10387964  -0.07146765  1.0
