# generated using pymatgen
data_RbTa(GeO3)3
_symmetry_space_group_name_H-M   'P 1'
_cell_length_a   7.17061935
_cell_length_b   7.17061935
_cell_length_c   10.28433902
_cell_angle_alpha   90.00000000
_cell_angle_beta   90.00000000
_cell_angle_gamma   120.00000000
_symmetry_Int_Tables_number   1
_chemical_formula_structural   RbTa(GeO3)3
_chemical_formula_sum   'Rb2 Ta2 Ge6 O18'
_cell_volume   457.95241528
_cell_formula_units_Z   2
loop_
 _symmetry_equiv_pos_site_id
 _symmetry_equiv_pos_as_xyz
  1  'x, y, z'
loop_
 _atom_site_type_symbol
 _atom_site_label
 _atom_site_symmetry_multiplicity
 _atom_site_fract_x
 _atom_site_fract_y
 _atom_site_fract_z
 _atom_site_occupancy
  Rb  Rb0  1  0.00000000  -0.00000000  0.50000000  1.0
  Rb  Rb1  1  0.00000000  0.00000000  -0.00000000  1.0
  Ta  Ta2  1  0.33333333  0.66666667  0.50000000  1.0
  Ta  Ta3  1  0.33333333  0.66666667  0.00000000  1.0
  Ge  Ge4  1  0.58812997  0.54355036  0.25000000  1.0
  Ge  Ge5  1  0.58812997  0.04457960  0.75000000  1.0
  Ge  Ge6  1  0.95542040  0.54355036  0.75000000  1.0
  Ge  Ge7  1  0.95542040  0.41187003  0.25000000  1.0
  Ge  Ge8  1  0.45644964  0.41187003  0.75000000  1.0
  Ge  Ge9  1  0.45644964  0.04457960  0.25000000  1.0
  O  O10  1  0.10581202  0.43787074  0.38990136  1.0
  O  O11  1  0.10581202  0.43787074  0.11009864  1.0
  O  O12  1  0.10581202  0.66794128  0.88990136  1.0
  O  O13  1  0.10581202  0.66794128  0.61009864  1.0
  O  O14  1  0.33205872  0.43787074  0.88990136  1.0
  O  O15  1  0.33205872  0.43787074  0.61009864  1.0
  O  O16  1  0.33205872  0.89418798  0.38990136  1.0
  O  O17  1  0.33205872  0.89418798  0.11009864  1.0
  O  O18  1  0.56212926  0.89418798  0.88990136  1.0
  O  O19  1  0.56212926  0.89418798  0.61009864  1.0
  O  O20  1  0.56212926  0.66794128  0.38990136  1.0
  O  O21  1  0.56212926  0.66794128  0.11009864  1.0
  O  O22  1  0.86007421  0.59838768  0.25000000  1.0
  O  O23  1  0.86007421  0.26168653  0.75000000  1.0
  O  O24  1  0.73831347  0.59838768  0.75000000  1.0
  O  O25  1  0.73831347  0.13992579  0.25000000  1.0
  O  O26  1  0.40161232  0.13992579  0.75000000  1.0
  O  O27  1  0.40161232  0.26168653  0.25000000  1.0
