# generated using pymatgen
data_Nb6Co16Ge7
_symmetry_space_group_name_H-M   'P 1'
_cell_length_a   8.03388435
_cell_length_b   8.03388435
_cell_length_c   8.03388435
_cell_angle_alpha   60.00000000
_cell_angle_beta   60.00000000
_cell_angle_gamma   60.00000000
_symmetry_Int_Tables_number   1
_chemical_formula_structural   Nb6Co16Ge7
_chemical_formula_sum   'Nb6 Co16 Ge7'
_cell_volume   366.65847678
_cell_formula_units_Z   1
loop_
 _symmetry_equiv_pos_site_id
 _symmetry_equiv_pos_as_xyz
  1  'x, y, z'
loop_
 _atom_site_type_symbol
 _atom_site_label
 _atom_site_symmetry_multiplicity
 _atom_site_fract_x
 _atom_site_fract_y
 _atom_site_fract_z
 _atom_site_occupancy
  Nb  Nb0  1  -0.70244529  0.70244529  0.70244529  1.0
  Nb  Nb1  1  -0.29755471  0.29755471  0.70244529  1.0
  Nb  Nb2  1  0.70244529  0.70244529  -0.70244529  1.0
  Nb  Nb3  1  0.29755471  1.29755471  -0.29755471  1.0
  Nb  Nb4  1  0.29755471  -0.29755471  1.29755471  1.0
  Nb  Nb5  1  -0.29755471  0.29755471  0.29755471  1.0
  Co  Co6  1  0.88081389  0.88081389  -0.11918611  1.0
  Co  Co7  1  1.11918611  0.11918611  0.64244167  1.0
  Co  Co8  1  1.11918611  0.64244167  0.11918611  1.0
  Co  Co9  1  0.35755833  0.88081389  -0.11918611  1.0
  Co  Co10  1  1.64244167  0.11918611  0.11918611  1.0
  Co  Co11  1  0.88081389  0.35755833  -0.11918611  1.0
  Co  Co12  1  0.88081389  0.88081389  -0.64244167  1.0
  Co  Co13  1  1.11918611  0.11918611  0.11918611  1.0
  Co  Co14  1  0.66551477  0.66551477  -0.33448523  1.0
  Co  Co15  1  1.33448523  0.33448523  -0.00345568  1.0
  Co  Co16  1  1.33448523  -0.00345568  0.33448523  1.0
  Co  Co17  1  1.00345568  0.66551477  -0.33448523  1.0
  Co  Co18  1  0.99654432  0.33448523  0.33448523  1.0
  Co  Co19  1  0.66551477  1.00345568  -0.33448523  1.0
  Co  Co20  1  0.66551477  0.66551477  0.00345568  1.0
  Co  Co21  1  1.33448523  0.33448523  0.33448523  1.0
  Ge  Ge22  1  1.50000000  -0.00000000  0.00000000  1.0
  Ge  Ge23  1  1.00000000  0.50000000  -0.50000000  1.0
  Ge  Ge24  1  -0.00000000  1.50000000  0.00000000  1.0
  Ge  Ge25  1  0.50000000  1.00000000  -0.50000000  1.0
  Ge  Ge26  1  0.00000000  -0.00000000  0.50000000  1.0
  Ge  Ge27  1  0.50000000  -0.50000000  1.00000000  1.0
  Ge  Ge28  1  -0.00000000  0.00000000  0.00000000  1.0
