# generated using pymatgen
data_KH4C6O3F5
_symmetry_space_group_name_H-M   'P 1'
_cell_length_a   10.49966659
_cell_length_b   10.49966659
_cell_length_c   7.00259539
_cell_angle_alpha   72.20796879
_cell_angle_beta   107.79203121
_cell_angle_gamma   54.37121648
_symmetry_Int_Tables_number   1
_chemical_formula_structural   KH4C6O3F5
_chemical_formula_sum   'K2 H8 C12 O6 F10'
_cell_volume   466.48690305
_cell_formula_units_Z   2
loop_
 _symmetry_equiv_pos_site_id
 _symmetry_equiv_pos_as_xyz
  1  'x, y, z'
loop_
 _atom_site_type_symbol
 _atom_site_label
 _atom_site_symmetry_multiplicity
 _atom_site_fract_x
 _atom_site_fract_y
 _atom_site_fract_z
 _atom_site_occupancy
  K  K0  1  1.43420464  0.43420464  0.75000000  1.0
  K  K1  1  0.56579536  0.56579536  0.25000000  1.0
  H  H2  1  1.79942940  0.13086271  0.41055971  1.0
  H  H3  1  0.86913729  0.20057060  0.91055971  1.0
  H  H4  1  1.13086271  0.79942940  0.08944029  1.0
  H  H5  1  1.20057060  -0.13086271  0.58944029  1.0
  H  H6  1  1.81550000  0.13978268  0.75218077  1.0
  H  H7  1  0.86021732  0.18450000  0.25218077  1.0
  H  H8  1  1.13978268  0.81550000  0.74781923  1.0
  H  H9  1  1.18450000  -0.13978268  0.24781923  1.0
  C  C10  1  1.68200909  -0.19911524  0.85553706  1.0
  C  C11  1  1.19911524  0.31799091  0.35553706  1.0
  C  C12  1  0.80088476  0.68200909  0.64446294  1.0
  C  C13  1  1.31799091  0.19911524  0.14446294  1.0
  C  C14  1  1.75544163  -0.12365583  0.85331729  1.0
  C  C15  1  1.12365583  0.24455837  0.35331729  1.0
  C  C16  1  0.87634417  0.75544163  0.64668271  1.0
  C  C17  1  1.24455837  0.12365583  0.14668271  1.0
  C  C18  1  0.85710052  0.85710052  0.75000000  1.0
  C  C19  1  1.14289948  0.14289948  0.25000000  1.0
  C  C20  1  0.70349445  0.70349445  0.75000000  1.0
  C  C21  1  1.29650555  0.29650555  0.25000000  1.0
  O  O22  1  1.25782149  -0.23938018  0.75499814  1.0
  O  O23  1  1.23938018  0.74217851  0.25499814  1.0
  O  O24  1  0.76061982  0.25782149  0.74500186  1.0
  O  O25  1  1.74217851  0.23938018  0.24500186  1.0
  O  O26  1  0.92751885  0.92751885  0.75000000  1.0
  O  O27  1  1.07248115  0.07248115  0.25000000  1.0
  F  F28  1  1.58712918  -0.17718244  0.95900794  1.0
  F  F29  1  1.17718244  0.41287082  0.45900794  1.0
  F  F30  1  0.82281756  0.58712918  0.54099206  1.0
  F  F31  1  1.41287082  0.17718244  0.04099206  1.0
  F  F32  1  1.72695936  -0.02556991  0.95325100  1.0
  F  F33  1  1.02556991  0.27304064  0.45325100  1.0
  F  F34  1  0.97443009  0.72695936  0.54674900  1.0
  F  F35  1  1.27304064  0.02556991  0.04674900  1.0
  F  F36  1  0.63070646  0.63070646  0.75000000  1.0
  F  F37  1  1.36929354  0.36929354  0.25000000  1.0
