# generated using pymatgen
data_RhN5(Cl2O)3
_symmetry_space_group_name_H-M   'P 1'
_cell_length_a   11.32510959
_cell_length_b   11.32510959
_cell_length_c   11.32510959
_cell_angle_alpha   32.81232295
_cell_angle_beta   32.81232295
_cell_angle_gamma   32.81232295
_symmetry_Int_Tables_number   1
_chemical_formula_structural   RhN5(Cl2O)3
_chemical_formula_sum   'Rh1 N5 Cl6 O3'
_cell_volume   379.45839175
_cell_formula_units_Z   1
loop_
 _symmetry_equiv_pos_site_id
 _symmetry_equiv_pos_as_xyz
  1  'x, y, z'
loop_
 _atom_site_type_symbol
 _atom_site_label
 _atom_site_symmetry_multiplicity
 _atom_site_fract_x
 _atom_site_fract_y
 _atom_site_fract_z
 _atom_site_occupancy
  O  O0  1  0.65294467  -0.00825180  -0.00825180  1.0
  O  O1  1  0.99174820  -0.00825180  -0.34705533  1.0
  O  O2  1  0.99174820  -0.34705533  -0.00825180  1.0
  Rh  Rh3  1  0.39203614  0.39203614  -0.60796386  1.0
  Cl  Cl4  1  1.09665814  -0.39131510  -0.39131510  1.0
  Cl  Cl5  1  0.60868490  -0.39131510  0.09665814  1.0
  Cl  Cl6  1  0.60868490  0.09665814  -0.39131510  1.0
  Cl  Cl7  1  0.68794632  0.17513118  0.17513118  1.0
  Cl  Cl8  1  1.17513118  0.17513118  -0.31205368  1.0
  Cl  Cl9  1  1.17513118  -0.31205368  0.17513118  1.0
  N  N10  1  0.87891392  -0.12108608  -0.12108608  1.0
  N  N11  1  0.52171626  0.52171626  -0.47828374  1.0
  N  N12  1  0.26788537  0.26788537  0.26788537  1.0
  N  N13  1  0.75179806  -0.24820194  -0.24820194  1.0
  N  N14  1  0.03237255  0.03237255  0.03237255  1.0
