# generated using pymatgen
data_Ag3SbS3
_symmetry_space_group_name_H-M   'P 1'
_cell_length_a   7.08152472
_cell_length_b   7.08152472
_cell_length_c   7.08152472
_cell_angle_alpha   101.27587016
_cell_angle_beta   101.27587016
_cell_angle_gamma   101.27587016
_symmetry_Int_Tables_number   1
_chemical_formula_structural   Ag3SbS3
_chemical_formula_sum   'Ag6 Sb2 S6'
_cell_volume   331.30421130
_cell_formula_units_Z   2
loop_
 _symmetry_equiv_pos_site_id
 _symmetry_equiv_pos_as_xyz
  1  'x, y, z'
loop_
 _atom_site_type_symbol
 _atom_site_label
 _atom_site_symmetry_multiplicity
 _atom_site_fract_x
 _atom_site_fract_y
 _atom_site_fract_z
 _atom_site_occupancy
  Ag  Ag0  1  1.04595920  0.26365775  -0.40780932  1.0
  Ag  Ag1  1  0.54595920  1.09219068  -0.23634225  1.0
  Ag  Ag2  1  0.76365775  0.54595920  0.09219068  1.0
  Ag  Ag3  1  1.26365775  -0.40780932  0.04595920  1.0
  Ag  Ag4  1  1.09219068  0.76365775  -0.45404080  1.0
  Ag  Ag5  1  0.59219068  0.04595920  0.26365775  1.0
  Sb  Sb6  1  0.00239672  0.00239672  0.00239672  1.0
  Sb  Sb7  1  0.50239672  0.50239672  0.50239672  1.0
  S  S8  1  1.24438734  -0.09446469  0.25087300  1.0
  S  S9  1  0.74438734  0.75087300  0.40553531  1.0
  S  S10  1  1.40553531  0.74438734  -0.24912700  1.0
  S  S11  1  0.90553531  0.25087300  0.24438734  1.0
  S  S12  1  0.75087300  1.40553531  -0.25561266  1.0
  S  S13  1  1.25087300  0.24438734  -0.09446469  1.0
