# generated using pymatgen
data_Al2Pt
_symmetry_space_group_name_H-M   'P 1'
_cell_length_a   6.67681153
_cell_length_b   3.48850321
_cell_length_c   8.18667527
_cell_angle_alpha   90.00000000
_cell_angle_beta   90.00000000
_cell_angle_gamma   90.00000000
_symmetry_Int_Tables_number   1
_chemical_formula_structural   Al2Pt
_chemical_formula_sum   'Al8 Pt4'
_cell_volume   190.68468283
_cell_formula_units_Z   4
loop_
 _symmetry_equiv_pos_site_id
 _symmetry_equiv_pos_as_xyz
  1  'x, y, z'
loop_
 _atom_site_type_symbol
 _atom_site_label
 _atom_site_symmetry_multiplicity
 _atom_site_fract_x
 _atom_site_fract_y
 _atom_site_fract_z
 _atom_site_occupancy
  Al  Al0  1  0.95090238  0.75000000  0.65305215  1.0
  Al  Al1  1  0.45090238  0.75000000  0.84694785  1.0
  Al  Al2  1  0.04909762  0.25000000  0.34694785  1.0
  Al  Al3  1  0.54909762  0.25000000  0.15305215  1.0
  Al  Al4  1  0.86446336  0.75000000  0.06749867  1.0
  Al  Al5  1  0.36446336  0.75000000  0.43250133  1.0
  Al  Al6  1  0.13553664  0.25000000  0.93250133  1.0
  Al  Al7  1  0.63553664  0.25000000  0.56749867  1.0
  Pt  Pt8  1  0.74542862  0.75000000  0.35964430  1.0
  Pt  Pt9  1  0.24542862  0.75000000  0.14035570  1.0
  Pt  Pt10  1  0.25457138  0.25000000  0.64035570  1.0
  Pt  Pt11  1  0.75457138  0.25000000  0.85964430  1.0
