# generated using pymatgen
data_AgCS(OF)3
_symmetry_space_group_name_H-M   'P 1'
_cell_length_a   11.79872535
_cell_length_b   11.79872535
_cell_length_c   11.79872535
_cell_angle_alpha   26.56124973
_cell_angle_beta   26.56124973
_cell_angle_gamma   26.56124973
_symmetry_Int_Tables_number   1
_chemical_formula_structural   AgCS(OF)3
_chemical_formula_sum   'Ag2 C2 S2 O6 F6'
_cell_volume   289.50283607
_cell_formula_units_Z   2
loop_
 _symmetry_equiv_pos_site_id
 _symmetry_equiv_pos_as_xyz
  1  'x, y, z'
loop_
 _atom_site_type_symbol
 _atom_site_label
 _atom_site_symmetry_multiplicity
 _atom_site_fract_x
 _atom_site_fract_y
 _atom_site_fract_z
 _atom_site_occupancy
  Ag  Ag0  1  0.33408214  0.33408214  -0.66591786  1.0
  Ag  Ag1  1  0.66591786  0.66591786  -0.33408214  1.0
  C  C2  1  0.11068375  0.11068375  0.11068375  1.0
  C  C3  1  0.88931625  -0.11068375  -0.11068375  1.0
  S  S4  1  0.05556045  0.05556045  0.05556045  1.0
  S  S5  1  0.94443955  -0.05556045  -0.05556045  1.0
  O  O6  1  0.31058476  0.04178471  -0.21760410  1.0
  O  O7  1  1.21760410  -0.31058476  -0.04178471  1.0
  O  O8  1  0.95821529  0.21760410  -0.31058476  1.0
  O  O9  1  0.68941524  -0.04178471  0.21760410  1.0
  O  O10  1  0.78239590  -0.68941524  0.04178471  1.0
  O  O11  1  1.04178471  -0.21760410  -0.68941524  1.0
  F  F12  1  0.35286671  0.88490857  -0.86601759  1.0
  F  F13  1  0.86601759  -0.35286671  0.11509143  1.0
  F  F14  1  1.11509143  -0.13398241  -0.35286671  1.0
  F  F15  1  0.64713329  0.11509143  -0.13398241  1.0
  F  F16  1  0.13398241  0.35286671  -0.11509143  1.0
  F  F17  1  0.88490857  0.13398241  -0.64713329  1.0
