# generated using pymatgen
data_RbSn
_symmetry_space_group_name_H-M   'P 1'
_cell_length_a   12.90710222
_cell_length_b   12.90710222
_cell_length_c   12.90710222
_cell_angle_alpha   124.94560230
_cell_angle_beta   124.94560230
_cell_angle_gamma   81.62815303
_symmetry_Int_Tables_number   1
_chemical_formula_structural   RbSn
_chemical_formula_sum   'Rb16 Sn16'
_cell_volume   1390.43270626
_cell_formula_units_Z   16
loop_
 _symmetry_equiv_pos_site_id
 _symmetry_equiv_pos_as_xyz
  1  'x, y, z'
loop_
 _atom_site_type_symbol
 _atom_site_label
 _atom_site_symmetry_multiplicity
 _atom_site_fract_x
 _atom_site_fract_y
 _atom_site_fract_z
 _atom_site_occupancy
  Rb  Rb0  1  1.48720281  1.37500000  1.61220281  1.0
  Rb  Rb1  1  0.98720281  1.37500000  1.11220281  1.0
  Rb  Rb2  1  1.62500000  1.23720281  1.11220281  1.0
  Rb  Rb3  1  1.12500000  1.01279719  0.38779719  1.0
  Rb  Rb4  1  1.26279719  0.87500000  0.88779719  1.0
  Rb  Rb5  1  0.76279719  0.87500000  0.38779719  1.0
  Rb  Rb6  1  1.62500000  1.73720281  1.61220281  1.0
  Rb  Rb7  1  1.12500000  1.51279719  0.88779719  1.0
  Rb  Rb8  1  1.12767241  1.12767241  0.75534481  1.0
  Rb  Rb9  1  1.62767241  0.87232759  1.00000000  1.0
  Rb  Rb10  1  0.37767241  0.87767241  1.25534481  1.0
  Rb  Rb11  1  0.87767241  0.62232759  1.50000000  1.0
  Rb  Rb12  1  0.62232759  0.12232759  0.74465519  1.0
  Rb  Rb13  1  0.12232759  0.37767241  0.50000000  1.0
  Rb  Rb14  1  1.37232759  1.37232759  1.24465519  1.0
  Rb  Rb15  1  0.87232759  1.62767241  1.00000000  1.0
  Sn  Sn16  1  1.00801346  1.83659284  0.95406120  1.0
  Sn  Sn17  1  1.50801346  1.55395226  1.17142062  1.0
  Sn  Sn18  1  1.08659284  0.75801346  0.45406120  1.0
  Sn  Sn19  1  1.58659284  1.13253164  1.32857938  1.0
  Sn  Sn20  1  1.74198654  1.41340716  1.54593880  1.0
  Sn  Sn21  1  1.24198654  1.69604774  1.32857938  1.0
  Sn  Sn22  1  0.66340716  0.49198654  1.04593880  1.0
  Sn  Sn23  1  0.16340716  0.11746836  0.17142062  1.0
  Sn  Sn24  1  1.38253164  1.33659284  0.82857938  1.0
  Sn  Sn25  1  1.88253164  1.05395226  1.04593880  1.0
  Sn  Sn26  1  0.80395226  1.25801346  0.67142062  1.0
  Sn  Sn27  1  1.30395226  1.63253164  1.54593880  1.0
  Sn  Sn28  1  1.36746836  0.91340716  0.67142062  1.0
  Sn  Sn29  1  0.86746836  1.19604774  0.45406120  1.0
  Sn  Sn30  1  0.94604774  0.99198654  1.82857938  1.0
  Sn  Sn31  1  0.44604774  0.61746836  0.95406120  1.0
