# generated using pymatgen
data_PPdSe
_symmetry_space_group_name_H-M   'P 1'
_cell_length_a   14.67197203
_cell_length_b   5.86083110
_cell_length_c   5.90956862
_cell_angle_alpha   90.00000000
_cell_angle_beta   90.00000000
_cell_angle_gamma   90.00000000
_symmetry_Int_Tables_number   1
_chemical_formula_structural   PPdSe
_chemical_formula_sum   'P8 Pd8 Se8'
_cell_volume   508.16350989
_cell_formula_units_Z   8
loop_
 _symmetry_equiv_pos_site_id
 _symmetry_equiv_pos_as_xyz
  1  'x, y, z'
loop_
 _atom_site_type_symbol
 _atom_site_label
 _atom_site_symmetry_multiplicity
 _atom_site_fract_x
 _atom_site_fract_y
 _atom_site_fract_z
 _atom_site_occupancy
  P  P0  1  0.42569256  0.12380366  0.78585936  1.0
  P  P1  1  0.42569256  0.87619634  0.28585936  1.0
  P  P2  1  0.92569256  0.62380366  0.71414064  1.0
  P  P3  1  0.92569256  0.37619634  0.21414064  1.0
  P  P4  1  0.57430744  0.12380366  0.71414064  1.0
  P  P5  1  0.57430744  0.87619634  0.21414064  1.0
  P  P6  1  0.07430744  0.62380366  0.78585936  1.0
  P  P7  1  0.07430744  0.37619634  0.28585936  1.0
  Pd  Pd8  1  0.10249283  0.25798159  0.65396994  1.0
  Pd  Pd9  1  0.10249283  0.74201841  0.15396994  1.0
  Pd  Pd10  1  0.60249283  0.75798159  0.84603006  1.0
  Pd  Pd11  1  0.60249283  0.24201841  0.34603006  1.0
  Pd  Pd12  1  0.89750717  0.25798159  0.84603006  1.0
  Pd  Pd13  1  0.89750717  0.74201841  0.34603006  1.0
  Pd  Pd14  1  0.39750717  0.75798159  0.65396994  1.0
  Pd  Pd15  1  0.39750717  0.24201841  0.15396994  1.0
  Se  Se16  1  0.35077141  0.36469286  0.53928775  1.0
  Se  Se17  1  0.35077141  0.63530714  0.03928775  1.0
  Se  Se18  1  0.85077141  0.86469286  0.96071225  1.0
  Se  Se19  1  0.85077141  0.13530714  0.46071225  1.0
  Se  Se20  1  0.64922859  0.36469286  0.96071225  1.0
  Se  Se21  1  0.64922859  0.63530714  0.46071225  1.0
  Se  Se22  1  0.14922859  0.86469286  0.53928775  1.0
  Se  Se23  1  0.14922859  0.13530714  0.03928775  1.0
