# generated using pymatgen
data_GdPS4
_symmetry_space_group_name_H-M   'P 1'
_cell_length_a   12.30449694
_cell_length_b   12.30449694
_cell_length_c   12.30449694
_cell_angle_alpha   127.34754391
_cell_angle_beta   127.34754391
_cell_angle_gamma   77.68439135
_symmetry_Int_Tables_number   1
_chemical_formula_structural   GdPS4
_chemical_formula_sum   'Gd8 P8 S32'
_cell_volume   1141.48741406
_cell_formula_units_Z   8
loop_
 _symmetry_equiv_pos_site_id
 _symmetry_equiv_pos_as_xyz
  1  'x, y, z'
loop_
 _atom_site_type_symbol
 _atom_site_label
 _atom_site_symmetry_multiplicity
 _atom_site_fract_x
 _atom_site_fract_y
 _atom_site_fract_z
 _atom_site_occupancy
  Gd  Gd0  1  0.75000000  0.75000000  0.00000000  1.0
  Gd  Gd1  1  1.25000000  1.25000000  1.00000000  1.0
  Gd  Gd2  1  0.00000000  0.50000000  0.50000000  1.0
  Gd  Gd3  1  0.50000000  -0.00000000  0.50000000  1.0
  Gd  Gd4  1  0.75000000  1.25000000  0.50000000  1.0
  Gd  Gd5  1  1.25000000  0.75000000  0.50000000  1.0
  Gd  Gd6  1  0.50000000  0.50000000  1.00000000  1.0
  Gd  Gd7  1  0.00000000  0.00000000  0.00000000  1.0
  P  P8  1  0.66316608  1.37500000  0.78816608  1.0
  P  P9  1  1.16316608  1.37500000  1.28816608  1.0
  P  P10  1  1.62500000  1.41316608  1.28816608  1.0
  P  P11  1  1.12500000  1.83683392  1.21183392  1.0
  P  P12  1  1.08683392  0.87500000  0.71183392  1.0
  P  P13  1  1.58683392  0.87500000  1.21183392  1.0
  P  P14  1  1.62500000  0.91316608  0.78816608  1.0
  P  P15  1  1.12500000  1.33683392  0.71183392  1.0
  S  S16  1  1.64999897  1.46136965  1.68215829  1.0
  S  S17  1  1.14999897  1.46784067  1.18862932  1.0
  S  S18  1  1.71136965  1.39999897  1.18215829  1.0
  S  S19  1  1.21136965  1.02921135  0.31137068  1.0
  S  S20  1  0.10000103  0.78863035  0.81784171  1.0
  S  S21  1  0.60000103  0.78215933  1.31137068  1.0
  S  S22  1  1.03863035  0.85000103  0.31784171  1.0
  S  S23  1  1.53863035  1.22078865  1.18862932  1.0
  S  S24  1  1.27921135  0.96136965  0.81137068  1.0
  S  S25  1  0.77921135  0.96784067  0.31784171  1.0
  S  S26  1  1.71784067  1.89999897  1.68862932  1.0
  S  S27  1  1.21784067  1.52921135  0.81784171  1.0
  S  S28  1  0.47078865  0.28863035  0.68862932  1.0
  S  S29  1  0.97078865  0.28215933  1.18215829  1.0
  S  S30  1  1.03215933  1.35000103  0.81137068  1.0
  S  S31  1  1.53215933  1.72078865  1.68215829  1.0
  S  S32  1  0.76374270  1.53846751  1.04698413  1.0
  S  S33  1  1.26374270  1.21675856  1.22527518  1.0
  S  S34  1  1.78846751  1.51374270  1.54698413  1.0
  S  S35  1  1.28846751  1.74148338  1.27472482  1.0
  S  S36  1  0.98625730  0.71153249  1.45301587  1.0
  S  S37  1  0.48625730  1.03324144  1.27472482  1.0
  S  S38  1  0.96153249  1.73625730  0.95301587  1.0
  S  S39  1  1.46153249  1.50851662  1.22527518  1.0
  S  S40  1  0.99148338  1.03846751  0.77472482  1.0
  S  S41  1  1.49148338  0.71675856  0.95301587  1.0
  S  S42  1  1.46675856  1.01374270  0.72527518  1.0
  S  S43  1  0.96675856  1.24148338  0.45301587  1.0
  S  S44  1  0.75851662  0.21153249  0.72527518  1.0
  S  S45  1  0.25851662  0.53324144  0.54698413  1.0
  S  S46  1  1.28324144  1.23625730  0.77472482  1.0
  S  S47  1  1.78324144  1.00851662  1.04698413  1.0
