# generated using pymatgen
data_Na2Zn2O3
_symmetry_space_group_name_H-M   'P 1'
_cell_length_a   6.25751158
_cell_length_b   6.25751158
_cell_length_c   9.50740146
_cell_angle_alpha   90.00000000
_cell_angle_beta   90.00000000
_cell_angle_gamma   90.00000000
_symmetry_Int_Tables_number   1
_chemical_formula_structural   Na2Zn2O3
_chemical_formula_sum   'Na8 Zn8 O12'
_cell_volume   372.27610132
_cell_formula_units_Z   4
loop_
 _symmetry_equiv_pos_site_id
 _symmetry_equiv_pos_as_xyz
  1  'x, y, z'
loop_
 _atom_site_type_symbol
 _atom_site_label
 _atom_site_symmetry_multiplicity
 _atom_site_fract_x
 _atom_site_fract_y
 _atom_site_fract_z
 _atom_site_occupancy
  Na  Na0  1  0.46805438  0.74755440  0.10561399  1.0
  Na  Na1  1  0.96805438  0.75244560  0.64438601  1.0
  Na  Na2  1  0.25244560  0.53194562  0.39438601  1.0
  Na  Na3  1  0.75244560  0.96805438  0.35561399  1.0
  Na  Na4  1  0.53194562  0.25244560  0.60561399  1.0
  Na  Na5  1  0.03194562  0.24755440  0.14438601  1.0
  Na  Na6  1  0.74755440  0.46805438  0.89438601  1.0
  Na  Na7  1  0.24755440  0.03194562  0.85561399  1.0
  Zn  Zn8  1  0.25706980  0.54329869  0.86510474  1.0
  Zn  Zn9  1  0.75706980  0.95670131  0.88489526  1.0
  Zn  Zn10  1  0.45670131  0.74293020  0.63489526  1.0
  Zn  Zn11  1  0.95670131  0.75706980  0.11510474  1.0
  Zn  Zn12  1  0.74293020  0.45670131  0.36510474  1.0
  Zn  Zn13  1  0.24293020  0.04329869  0.38489526  1.0
  Zn  Zn14  1  0.54329869  0.25706980  0.13489526  1.0
  Zn  Zn15  1  0.04329869  0.24293020  0.61510474  1.0
  O  O16  1  0.01516107  0.74189439  0.90825251  1.0
  O  O17  1  0.51516107  0.75810561  0.84174749  1.0
  O  O18  1  0.25810561  0.98483893  0.59174749  1.0
  O  O19  1  0.75810561  0.51516107  0.15825251  1.0
  O  O20  1  0.98483893  0.25810561  0.40825251  1.0
  O  O21  1  0.48483893  0.24189439  0.34174749  1.0
  O  O22  1  0.74189439  0.01516107  0.09174749  1.0
  O  O23  1  0.24189439  0.48483893  0.65825251  1.0
  O  O24  1  0.17800682  0.82199318  0.25000000  1.0
  O  O25  1  0.67800682  0.67800682  0.50000000  1.0
  O  O26  1  0.82199318  0.17800682  0.75000000  1.0
  O  O27  1  0.32199318  0.32199318  -0.00000000  1.0
