# generated using pymatgen
data_SO5
_symmetry_space_group_name_H-M   'P 1'
_cell_length_a   8.00721784
_cell_length_b   6.76773144
_cell_length_c   9.07545216
_cell_angle_alpha   90.00000000
_cell_angle_beta   109.28816795
_cell_angle_gamma   90.00000000
_symmetry_Int_Tables_number   1
_chemical_formula_structural   SO5
_chemical_formula_sum   'S4 O20'
_cell_volume   464.19968358
_cell_formula_units_Z   4
loop_
 _symmetry_equiv_pos_site_id
 _symmetry_equiv_pos_as_xyz
  1  'x, y, z'
loop_
 _atom_site_type_symbol
 _atom_site_label
 _atom_site_symmetry_multiplicity
 _atom_site_fract_x
 _atom_site_fract_y
 _atom_site_fract_z
 _atom_site_occupancy
  O  O0  1  0.82324125  0.24608435  0.98505738  1.0
  O  O1  1  0.82324125  0.25391565  0.48505738  1.0
  O  O2  1  0.17675875  0.74608435  0.51494262  1.0
  O  O3  1  0.17675875  0.75391565  0.01494262  1.0
  O  O4  1  0.58422240  0.78560696  -0.01952345  1.0
  O  O5  1  0.58422240  0.71439304  0.48047655  1.0
  O  O6  1  0.41577760  0.28560696  0.51952345  1.0
  O  O7  1  0.41577760  0.21439304  0.01952345  1.0
  O  O8  1  0.88450189  0.69646849  0.99751079  1.0
  O  O9  1  0.88450189  0.80353151  0.49751079  1.0
  O  O10  1  0.11549811  0.19646849  0.50248921  1.0
  O  O11  1  0.11549811  0.30353151  0.00248921  1.0
  O  O12  1  0.74275923  0.98408068  0.84447675  1.0
  O  O13  1  0.74275923  0.51591932  0.34447675  1.0
  O  O14  1  0.25724077  0.48408068  0.65552325  1.0
  O  O15  1  0.25724077  0.01591932  0.15552325  1.0
  O  O16  1  0.83280452  0.50765715  0.63055364  1.0
  O  O17  1  0.83280452  0.99234285  0.13055364  1.0
  O  O18  1  0.16719548  0.00765715  0.86944636  1.0
  O  O19  1  0.16719548  0.49234285  0.36944636  1.0
  S  S20  1  0.75886503  0.86249497  0.98828892  1.0
  S  S21  1  0.75886503  0.63750503  0.48828892  1.0
  S  S22  1  0.24113497  0.36249497  0.51171108  1.0
  S  S23  1  0.24113497  0.13750503  0.01171108  1.0
