# generated using pymatgen
data_TcCl4
_symmetry_space_group_name_H-M   'P 1'
_cell_length_a   6.14875723
_cell_length_b   13.11521432
_cell_length_c   15.56585661
_cell_angle_alpha   90.00000000
_cell_angle_beta   90.00000000
_cell_angle_gamma   90.00000000
_symmetry_Int_Tables_number   1
_chemical_formula_structural   TcCl4
_chemical_formula_sum   'Tc8 Cl32'
_cell_volume   1255.26599503
_cell_formula_units_Z   8
loop_
 _symmetry_equiv_pos_site_id
 _symmetry_equiv_pos_as_xyz
  1  'x, y, z'
loop_
 _atom_site_type_symbol
 _atom_site_label
 _atom_site_symmetry_multiplicity
 _atom_site_fract_x
 _atom_site_fract_y
 _atom_site_fract_z
 _atom_site_occupancy
  Tc  Tc0  1  0.10132538  0.87155051  0.68510773  1.0
  Tc  Tc1  1  0.10132538  0.62844949  0.18510773  1.0
  Tc  Tc2  1  0.60132538  0.87155051  0.81489227  1.0
  Tc  Tc3  1  0.60132538  0.62844949  0.31489227  1.0
  Tc  Tc4  1  0.89867462  0.37155051  0.81489227  1.0
  Tc  Tc5  1  0.89867462  0.12844949  0.31489227  1.0
  Tc  Tc6  1  0.39867462  0.37155051  0.68510773  1.0
  Tc  Tc7  1  0.39867462  0.12844949  0.18510773  1.0
  Cl  Cl8  1  0.42496123  0.77022147  0.69765605  1.0
  Cl  Cl9  1  0.42496123  0.72977853  0.19765605  1.0
  Cl  Cl10  1  0.92496123  0.77022147  0.80234395  1.0
  Cl  Cl11  1  0.92496123  0.72977853  0.30234395  1.0
  Cl  Cl12  1  0.57503877  0.27022147  0.80234395  1.0
  Cl  Cl13  1  0.57503877  0.22977853  0.30234395  1.0
  Cl  Cl14  1  0.07503877  0.27022147  0.69765605  1.0
  Cl  Cl15  1  0.07503877  0.22977853  0.19765605  1.0
  Cl  Cl16  1  0.27740098  0.97275941  0.80260532  1.0
  Cl  Cl17  1  0.27740098  0.52724059  0.30260532  1.0
  Cl  Cl18  1  0.77740098  0.97275941  0.69739468  1.0
  Cl  Cl19  1  0.77740098  0.52724059  0.19739468  1.0
  Cl  Cl20  1  0.72259902  0.47275941  0.69739468  1.0
  Cl  Cl21  1  0.72259902  0.02724059  0.19739468  1.0
  Cl  Cl22  1  0.22259902  0.47275941  0.80260532  1.0
  Cl  Cl23  1  0.22259902  0.02724059  0.30260532  1.0
  Cl  Cl24  1  0.46152413  0.76333281  0.91310469  1.0
  Cl  Cl25  1  0.46152413  0.73666719  0.41310469  1.0
  Cl  Cl26  1  0.96152413  0.76333281  0.58689531  1.0
  Cl  Cl27  1  0.96152413  0.73666719  0.08689531  1.0
  Cl  Cl28  1  0.53847587  0.26333281  0.58689531  1.0
  Cl  Cl29  1  0.53847587  0.23666719  0.08689531  1.0
  Cl  Cl30  1  0.03847587  0.26333281  0.91310469  1.0
  Cl  Cl31  1  0.03847587  0.23666719  0.41310469  1.0
  Cl  Cl32  1  0.24155101  0.97994299  0.58710202  1.0
  Cl  Cl33  1  0.24155101  0.52005701  0.08710202  1.0
  Cl  Cl34  1  0.74155101  0.97994299  0.91289798  1.0
  Cl  Cl35  1  0.74155101  0.52005701  0.41289798  1.0
  Cl  Cl36  1  0.75844899  0.47994299  0.91289798  1.0
  Cl  Cl37  1  0.75844899  0.02005701  0.41289798  1.0
  Cl  Cl38  1  0.25844899  0.47994299  0.58710202  1.0
  Cl  Cl39  1  0.25844899  0.02005701  0.08710202  1.0
