# generated using pymatgen
data_SrSiO3
_symmetry_space_group_name_H-M   'P 1'
_cell_length_a   7.21292331
_cell_length_b   7.21292331
_cell_length_c   10.98174859
_cell_angle_alpha   71.36387761
_cell_angle_beta   108.63612239
_cell_angle_gamma   119.82806729
_symmetry_Int_Tables_number   1
_chemical_formula_structural   SrSiO3
_chemical_formula_sum   'Sr6 Si6 O18'
_cell_volume   460.60954388
_cell_formula_units_Z   6
loop_
 _symmetry_equiv_pos_site_id
 _symmetry_equiv_pos_as_xyz
  1  'x, y, z'
loop_
 _atom_site_type_symbol
 _atom_site_label
 _atom_site_symmetry_multiplicity
 _atom_site_fract_x
 _atom_site_fract_y
 _atom_site_fract_z
 _atom_site_occupancy
  O  O0  1  0.77994973  0.03471431  0.89488164  1.0
  O  O1  1  0.96528569  0.22005027  0.39488164  1.0
  O  O2  1  1.03471431  -0.22005027  0.60511836  1.0
  O  O3  1  1.22005027  -0.03471431  0.10511836  1.0
  O  O4  1  0.48143324  0.38670219  0.88957232  1.0
  O  O5  1  0.61329781  0.51856676  0.38957232  1.0
  O  O6  1  1.38670219  -0.51856676  0.61042768  1.0
  O  O7  1  1.51856676  -0.38670219  0.11042768  1.0
  O  O8  1  0.86767155  0.86767155  0.75000000  1.0
  O  O9  1  0.13232845  0.13232845  0.25000000  1.0
  O  O10  1  0.68400901  0.12825518  0.61460969  1.0
  O  O11  1  0.87174482  0.31599099  0.11460969  1.0
  O  O12  1  1.12825518  -0.31599099  0.88539031  1.0
  O  O13  1  1.31599099  -0.12825518  0.38539031  1.0
  O  O14  1  1.08264458  0.29643317  0.75201085  1.0
  O  O15  1  0.70356683  -0.08264458  0.25201085  1.0
  O  O16  1  1.29643317  0.08264458  0.74798915  1.0
  O  O17  1  0.91735542  -0.29643317  0.24798915  1.0
  Sr  Sr18  1  1.65146384  -0.17366843  0.50082992  1.0
  Sr  Sr19  1  1.17366843  -0.65146384  0.00082992  1.0
  Sr  Sr20  1  0.82633157  0.65146384  0.99917008  1.0
  Sr  Sr21  1  0.34853616  0.17366843  0.49917008  1.0
  Sr  Sr22  1  1.50000000  0.00000000  0.00000000  1.0
  Sr  Sr23  1  1.00000000  0.50000000  0.50000000  1.0
  Si  Si24  1  0.83390372  0.08155448  0.75366953  1.0
  Si  Si25  1  0.91844552  0.16609628  0.25366953  1.0
  Si  Si26  1  1.08155448  -0.16609628  0.74633047  1.0
  Si  Si27  1  1.16609628  -0.08155448  0.24633047  1.0
  Si  Si28  1  0.33097561  0.33097561  0.75000000  1.0
  Si  Si29  1  0.66902439  0.66902439  0.25000000  1.0
