# generated using pymatgen
data_Al3Ni5
_symmetry_space_group_name_H-M   'P 1'
_cell_length_a   5.01022746
_cell_length_b   5.01022746
_cell_length_c   3.76302370
_cell_angle_alpha   90.00000000
_cell_angle_beta   90.00000000
_cell_angle_gamma   96.48321389
_symmetry_Int_Tables_number   1
_chemical_formula_structural   Al3Ni5
_chemical_formula_sum   'Al3 Ni5'
_cell_volume   93.85676860
_cell_formula_units_Z   1
loop_
 _symmetry_equiv_pos_site_id
 _symmetry_equiv_pos_as_xyz
  1  'x, y, z'
loop_
 _atom_site_type_symbol
 _atom_site_label
 _atom_site_symmetry_multiplicity
 _atom_site_fract_x
 _atom_site_fract_y
 _atom_site_fract_z
 _atom_site_occupancy
  Al  Al0  1  0.22046037  0.77953963  0.50000000  1.0
  Al  Al1  1  -0.22046037  1.22046037  0.50000000  1.0
  Al  Al2  1  0.50000000  0.50000000  0.00000000  1.0
  Ni  Ni3  1  0.72346475  0.72346475  0.50000000  1.0
  Ni  Ni4  1  0.27653525  0.27653525  0.50000000  1.0
  Ni  Ni5  1  0.00000000  1.50000000  0.00000000  1.0
  Ni  Ni6  1  0.50000000  1.00000000  0.00000000  1.0
  Ni  Ni7  1  0.00000000  0.00000000  0.00000000  1.0
