# generated using pymatgen
data_Sc4OsCl4
_symmetry_space_group_name_H-M   'P 1'
_cell_length_a   8.08880300
_cell_length_b   8.08880300
_cell_length_c   6.14557251
_cell_angle_alpha   89.45356275
_cell_angle_beta   90.54643725
_cell_angle_gamma   90.80478787
_symmetry_Int_Tables_number   1
_chemical_formula_structural   Sc4OsCl4
_chemical_formula_sum   'Sc8 Os2 Cl8'
_cell_volume   402.02129995
_cell_formula_units_Z   2
loop_
 _symmetry_equiv_pos_site_id
 _symmetry_equiv_pos_as_xyz
  1  'x, y, z'
loop_
 _atom_site_type_symbol
 _atom_site_label
 _atom_site_symmetry_multiplicity
 _atom_site_fract_x
 _atom_site_fract_y
 _atom_site_fract_z
 _atom_site_occupancy
  Sc  Sc0  1  0.74323774  0.10211544  0.48710374  1.0
  Sc  Sc1  1  0.89788456  0.25676226  0.98710374  1.0
  Sc  Sc2  1  1.10211544  -0.25676226  0.01289626  1.0
  Sc  Sc3  1  1.25676226  -0.10211544  0.51289626  1.0
  Sc  Sc4  1  0.25896868  0.10447349  0.98436975  1.0
  Sc  Sc5  1  0.89552651  0.74103132  0.48436975  1.0
  Sc  Sc6  1  1.10447349  -0.74103132  0.51563025  1.0
  Sc  Sc7  1  1.74103132  -0.10447349  0.01563025  1.0
  Os  Os8  1  0.99097523  0.99097523  0.75000000  1.0
  Os  Os9  1  0.00902477  0.00902477  0.25000000  1.0
  Cl  Cl10  1  1.41646193  -0.19015099  0.89956350  1.0
  Cl  Cl11  1  1.19015099  -0.41646193  0.39956350  1.0
  Cl  Cl12  1  0.80984901  0.41646193  0.60043650  1.0
  Cl  Cl13  1  0.58353807  0.19015099  0.10043650  1.0
  Cl  Cl14  1  0.42122811  0.18152889  0.59900222  1.0
  Cl  Cl15  1  0.81847111  0.57877189  0.09900222  1.0
  Cl  Cl16  1  1.18152889  -0.57877189  0.90099778  1.0
  Cl  Cl17  1  1.57877189  -0.18152889  0.40099778  1.0
