# generated using pymatgen
data_MnNb2O6
_symmetry_space_group_name_H-M   'P 1'
_cell_length_a   14.44313017
_cell_length_b   5.82240422
_cell_length_c   5.09860668
_cell_angle_alpha   90.00000000
_cell_angle_beta   90.00000000
_cell_angle_gamma   90.00000000
_symmetry_Int_Tables_number   1
_chemical_formula_structural   MnNb2O6
_chemical_formula_sum   'Mn4 Nb8 O24'
_cell_volume   428.76091496
_cell_formula_units_Z   4
loop_
 _symmetry_equiv_pos_site_id
 _symmetry_equiv_pos_as_xyz
  1  'x, y, z'
loop_
 _atom_site_type_symbol
 _atom_site_label
 _atom_site_symmetry_multiplicity
 _atom_site_fract_x
 _atom_site_fract_y
 _atom_site_fract_z
 _atom_site_occupancy
  Mn  Mn0  1  -0.00000000  0.67372057  0.75000000  1.0
  Mn  Mn1  1  0.00000000  0.32627943  0.25000000  1.0
  Mn  Mn2  1  0.50000000  0.17372057  0.75000000  1.0
  Mn  Mn3  1  0.50000000  0.82627943  0.25000000  1.0
  Nb  Nb4  1  0.66157777  0.68019360  0.74171859  1.0
  Nb  Nb5  1  0.66157777  0.31980640  0.24171859  1.0
  Nb  Nb6  1  0.16157777  0.18019360  0.75828141  1.0
  Nb  Nb7  1  0.16157777  0.81980640  0.25828141  1.0
  Nb  Nb8  1  0.33842223  0.68019360  0.75828141  1.0
  Nb  Nb9  1  0.33842223  0.31980640  0.25828141  1.0
  Nb  Nb10  1  0.83842223  0.18019360  0.74171859  1.0
  Nb  Nb11  1  0.83842223  0.81980640  0.24171859  1.0
  O  O12  1  0.90241250  0.89651681  0.56336735  1.0
  O  O13  1  0.90241250  0.10348319  0.06336735  1.0
  O  O14  1  0.40241250  0.39651681  0.93663265  1.0
  O  O15  1  0.40241250  0.60348319  0.43663265  1.0
  O  O16  1  0.09758750  0.89651681  0.93663265  1.0
  O  O17  1  0.09758750  0.10348319  0.43663265  1.0
  O  O18  1  0.59758750  0.39651681  0.56336735  1.0
  O  O19  1  0.59758750  0.60348319  0.06336735  1.0
  O  O20  1  0.75550861  0.87235075  0.91221554  1.0
  O  O21  1  0.75550861  0.12764925  0.41221554  1.0
  O  O22  1  0.25550861  0.37235075  0.58778446  1.0
  O  O23  1  0.25550861  0.62764925  0.08778446  1.0
  O  O24  1  0.24449139  0.87235075  0.58778446  1.0
  O  O25  1  0.24449139  0.12764925  0.08778446  1.0
  O  O26  1  0.74449139  0.37235075  0.91221554  1.0
  O  O27  1  0.74449139  0.62764925  0.41221554  1.0
  O  O28  1  0.58007434  0.88039087  0.59043247  1.0
  O  O29  1  0.58007434  0.11960913  0.09043247  1.0
  O  O30  1  0.08007434  0.38039087  0.90956753  1.0
  O  O31  1  0.08007434  0.61960913  0.40956753  1.0
  O  O32  1  0.41992566  0.88039087  0.90956753  1.0
  O  O33  1  0.41992566  0.11960913  0.40956753  1.0
  O  O34  1  0.91992566  0.38039087  0.59043247  1.0
  O  O35  1  0.91992566  0.61960913  0.09043247  1.0
