# generated using pymatgen
data_Rb3MgH5
_symmetry_space_group_name_H-M   'P 1'
_cell_length_a   8.38086850
_cell_length_b   8.38086850
_cell_length_c   8.38086850
_cell_angle_alpha   123.14708973
_cell_angle_beta   123.14708973
_cell_angle_gamma   84.63037287
_symmetry_Int_Tables_number   1
_chemical_formula_structural   Rb3MgH5
_chemical_formula_sum   'Rb6 Mg2 H10'
_cell_volume   394.55421534
_cell_formula_units_Z   2
loop_
 _symmetry_equiv_pos_site_id
 _symmetry_equiv_pos_as_xyz
  1  'x, y, z'
loop_
 _atom_site_type_symbol
 _atom_site_label
 _atom_site_symmetry_multiplicity
 _atom_site_fract_x
 _atom_site_fract_y
 _atom_site_fract_z
 _atom_site_occupancy
  Rb  Rb0  1  0.81835273  0.31835273  1.13670546  1.0
  Rb  Rb1  1  0.68164727  0.81835273  1.50000000  1.0
  Rb  Rb2  1  0.31835273  0.18164727  0.50000000  1.0
  Rb  Rb3  1  0.18164727  0.68164727  0.86329454  1.0
  Rb  Rb4  1  0.75000000  0.75000000  1.00000000  1.0
  Rb  Rb5  1  0.25000000  0.25000000  0.00000000  1.0
  Mg  Mg6  1  0.25000000  0.75000000  0.50000000  1.0
  Mg  Mg7  1  0.75000000  0.25000000  0.50000000  1.0
  H  H8  1  1.21169813  0.71169813  1.24003705  1.0
  H  H9  1  0.52833892  1.02833892  1.24003705  1.0
  H  H10  1  0.97166108  1.21169813  1.50000000  1.0
  H  H11  1  0.28830187  0.52833892  0.50000000  1.0
  H  H12  1  0.71169813  0.47166108  0.50000000  1.0
  H  H13  1  1.02833892  0.78830187  1.50000000  1.0
  H  H14  1  0.47166108  0.97166108  0.75996295  1.0
  H  H15  1  0.78830187  0.28830187  0.75996295  1.0
  H  H16  1  0.00000000  0.00000000  0.00000000  1.0
  H  H17  1  0.50000000  0.50000000  1.00000000  1.0
