# generated using pymatgen
data_H6C3N8O5
_symmetry_space_group_name_H-M   'P 1'
_cell_length_a   7.34328133
_cell_length_b   7.88100650
_cell_length_c   9.00918797
_cell_angle_alpha   76.32917037
_cell_angle_beta   76.75804952
_cell_angle_gamma   92.00371224
_symmetry_Int_Tables_number   1
_chemical_formula_structural   H6C3N8O5
_chemical_formula_sum   'H12 C6 N16 O10'
_cell_volume   490.94956282
_cell_formula_units_Z   2
loop_
 _symmetry_equiv_pos_site_id
 _symmetry_equiv_pos_as_xyz
  1  'x, y, z'
loop_
 _atom_site_type_symbol
 _atom_site_label
 _atom_site_symmetry_multiplicity
 _atom_site_fract_x
 _atom_site_fract_y
 _atom_site_fract_z
 _atom_site_occupancy
  H  H0  1  0.22820243  0.09814933  0.74849184  1.0
  H  H1  1  0.77179757  0.90185067  0.25150816  1.0
  H  H2  1  0.28532071  0.13049772  0.55856660  1.0
  H  H3  1  0.71467929  0.86950228  0.44143340  1.0
  H  H4  1  0.74253481  0.37190596  0.00303269  1.0
  H  H5  1  0.25746519  0.62809404  0.99696731  1.0
  H  H6  1  0.01555368  0.48610558  0.19668997  1.0
  H  H7  1  0.98444632  0.51389442  0.80331003  1.0
  H  H8  1  0.16772694  0.56340262  0.26621649  1.0
  H  H9  1  0.83227306  0.43659738  0.73378351  1.0
  H  H10  1  -0.01911730  0.97602472  0.34065527  1.0
  H  H11  1  1.01911730  0.02397528  0.65934473  1.0
  C  C12  1  0.38370661  0.17783089  0.12597767  1.0
  C  C13  1  0.61629339  0.82216911  0.87402233  1.0
  C  C14  1  0.50636104  0.24640347  0.20621563  1.0
  C  C15  1  0.49363896  0.75359653  0.79378437  1.0
  C  C16  1  0.63851431  0.32167786  0.36444633  1.0
  C  C17  1  0.36148569  0.67832214  0.63555367  1.0
  N  N18  1  0.15074345  0.04161542  0.07272633  1.0
  N  N19  1  0.84925655  0.95838458  0.92727367  1.0
  N  N20  1  0.21780550  0.07701872  0.18859999  1.0
  N  N21  1  0.78219450  0.92298128  0.81140001  1.0
  N  N22  1  0.27381291  0.12107073  0.94121849  1.0
  N  N23  1  0.72618709  0.87892927  0.05878151  1.0
  N  N24  1  0.47746727  0.23844292  0.35985854  1.0
  N  N25  1  0.52253273  0.76155708  0.64014146  1.0
  N  N26  1  0.67771973  0.33253433  0.12682304  1.0
  N  N27  1  0.32228027  0.66746567  0.87317696  1.0
  N  N28  1  0.76381243  0.38127778  0.22756039  1.0
  N  N29  1  0.23618757  0.61872222  0.77243961  1.0
  N  N30  1  0.32861998  0.64907101  0.49100629  1.0
  N  N31  1  0.67138002  0.35092899  0.50899371  1.0
  N  N32  1  0.58118137  0.79534807  0.03050462  1.0
  N  N33  1  0.41881863  0.20465193  0.96949538  1.0
  O  O34  1  0.12790588  0.01617617  0.33942143  1.0
  O  O35  1  0.87209412  0.98382383  0.66057857  1.0
  O  O36  1  0.20221322  0.05866603  0.65752275  1.0
  O  O37  1  0.79778678  0.94133397  0.34247725  1.0
  O  O38  1  0.53593302  0.31895906  0.62414458  1.0
  O  O39  1  0.46406698  0.68104094  0.37585542  1.0
  O  O40  1  0.14955721  0.52845547  0.17304039  1.0
  O  O41  1  0.85044279  0.47154453  0.82695961  1.0
  O  O42  1  0.16889771  0.59226853  0.49273878  1.0
  O  O43  1  0.83110229  0.40773147  0.50726122  1.0
