# generated using pymatgen
data_Al2Te5
_symmetry_space_group_name_H-M   'P 1'
_cell_length_a   7.72686967
_cell_length_b   7.72686967
_cell_length_c   10.49803994
_cell_angle_alpha   52.79240329
_cell_angle_beta   127.20759671
_cell_angle_gamma   148.50282298
_symmetry_Int_Tables_number   1
_chemical_formula_structural   Al2Te5
_chemical_formula_sum   'Al2 Te5'
_cell_volume   254.76150332
_cell_formula_units_Z   1
loop_
 _symmetry_equiv_pos_site_id
 _symmetry_equiv_pos_as_xyz
  1  'x, y, z'
loop_
 _atom_site_type_symbol
 _atom_site_label
 _atom_site_symmetry_multiplicity
 _atom_site_fract_x
 _atom_site_fract_y
 _atom_site_fract_z
 _atom_site_occupancy
  Al  Al0  1  0.63317361  0.36682639  0.40067757  1.0
  Al  Al1  1  1.36682639  -0.36682639  0.59932243  1.0
  Te  Te2  1  0.81331514  -0.81331514  0.39954336  1.0
  Te  Te3  1  0.18668486  -0.18668486  0.60045664  1.0
  Te  Te4  1  0.57540725  0.42459275  0.87506784  1.0
  Te  Te5  1  1.42459275  -0.42459275  0.12493216  1.0
  Te  Te6  1  0.00000000  0.00000000  0.00000000  1.0
