# generated using pymatgen
data_C6OF4
_symmetry_space_group_name_H-M   'P 1'
_cell_length_a   6.20610426
_cell_length_b   10.43450588
_cell_length_c   11.12410834
_cell_angle_alpha   90.00000000
_cell_angle_beta   114.31521765
_cell_angle_gamma   90.00000000
_symmetry_Int_Tables_number   1
_chemical_formula_structural   C6OF4
_chemical_formula_sum   'C24 O4 F16'
_cell_volume   656.46964737
_cell_formula_units_Z   4
loop_
 _symmetry_equiv_pos_site_id
 _symmetry_equiv_pos_as_xyz
  1  'x, y, z'
loop_
 _atom_site_type_symbol
 _atom_site_label
 _atom_site_symmetry_multiplicity
 _atom_site_fract_x
 _atom_site_fract_y
 _atom_site_fract_z
 _atom_site_occupancy
  C  C0  1  0.91546297  0.48884092  0.22345493  1.0
  C  C1  1  0.91546297  0.01115908  0.72345493  1.0
  C  C2  1  0.08453703  0.98884092  0.27654507  1.0
  C  C3  1  0.08453703  0.51115908  0.77654507  1.0
  C  C4  1  1.07052566  0.91375190  0.16976597  1.0
  C  C5  1  1.07052566  0.58624810  0.66976597  1.0
  C  C6  1  -0.07052566  0.41375190  0.33023403  1.0
  C  C7  1  -0.07052566  0.08624810  0.83023403  1.0
  C  C8  1  0.73227074  0.34503291  0.32315716  1.0
  C  C9  1  0.73227074  0.15496709  0.82315716  1.0
  C  C10  1  0.26772926  0.84503291  0.17684284  1.0
  C  C11  1  0.26772926  0.65496709  0.67684284  1.0
  C  C12  1  0.70619054  0.49546824  0.10949059  1.0
  C  C13  1  0.70619054  0.00453176  0.60949059  1.0
  C  C14  1  0.29380946  0.99546824  0.39050941  1.0
  C  C15  1  0.29380946  0.50453176  0.89050941  1.0
  C  C16  1  0.52260972  0.35120833  0.20905796  1.0
  C  C17  1  0.52260972  0.14879167  0.70905796  1.0
  C  C18  1  0.47739028  0.85120833  0.29094204  1.0
  C  C19  1  0.47739028  0.64879167  0.79094204  1.0
  C  C20  1  0.50828399  0.42605809  0.10218399  1.0
  C  C21  1  0.50828399  0.07394191  0.60218399  1.0
  C  C22  1  0.49171601  0.92605809  0.39781601  1.0
  C  C23  1  0.49171601  0.57394191  0.89781601  1.0
  O  O24  1  0.29645822  0.07142983  0.49241797  1.0
  O  O25  1  0.29645822  0.42857017  0.99241797  1.0
  O  O26  1  0.70354178  0.57142983  0.00758203  1.0
  O  O27  1  0.70354178  0.92857017  0.50758203  1.0
  F  F28  1  0.74283987  0.27292801  0.42596260  1.0
  F  F29  1  0.74283987  0.22707199  0.92596260  1.0
  F  F30  1  0.25716013  0.77292801  0.07403740  1.0
  F  F31  1  0.25716013  0.72707199  0.57403740  1.0
  F  F32  1  0.89308046  0.05580049  0.26873646  1.0
  F  F33  1  0.89308046  0.44419951  0.76873646  1.0
  F  F34  1  0.10691954  0.55580049  0.23126354  1.0
  F  F35  1  0.10691954  0.94419951  0.73126354  1.0
  F  F36  1  0.33238369  0.28406973  0.20282174  1.0
  F  F37  1  0.33238369  0.21593027  0.70282174  1.0
  F  F38  1  0.66761631  0.78406973  0.29717826  1.0
  F  F39  1  0.66761631  0.71593027  0.79717826  1.0
  F  F40  1  0.13306288  0.40853711  0.43973078  1.0
  F  F41  1  0.13306288  0.09146289  0.93973078  1.0
  F  F42  1  0.86693712  0.90853711  0.06026922  1.0
  F  F43  1  0.86693712  0.59146289  0.56026922  1.0
