# generated using pymatgen
data_K2TiH2O3F4
_symmetry_space_group_name_H-M   'P 1'
_cell_length_a   6.13909879
_cell_length_b   14.70720264
_cell_length_c   8.53191467
_cell_angle_alpha   90.00000000
_cell_angle_beta   119.85302756
_cell_angle_gamma   90.00000000
_symmetry_Int_Tables_number   1
_chemical_formula_structural   K2TiH2O3F4
_chemical_formula_sum   'K8 Ti4 H8 O12 F16'
_cell_volume   668.11791474
_cell_formula_units_Z   4
loop_
 _symmetry_equiv_pos_site_id
 _symmetry_equiv_pos_as_xyz
  1  'x, y, z'
loop_
 _atom_site_type_symbol
 _atom_site_label
 _atom_site_symmetry_multiplicity
 _atom_site_fract_x
 _atom_site_fract_y
 _atom_site_fract_z
 _atom_site_occupancy
  K  K0  1  0.72884075  0.08390431  0.29038396  1.0
  K  K1  1  0.72884075  0.41609569  0.79038396  1.0
  K  K2  1  0.27115925  0.58390431  0.20961604  1.0
  K  K3  1  0.27115925  0.91609569  0.70961604  1.0
  K  K4  1  0.30672276  0.28727603  0.21648920  1.0
  K  K5  1  0.30672276  0.21272397  0.71648920  1.0
  K  K6  1  0.69327724  0.78727603  0.28351080  1.0
  K  K7  1  0.69327724  0.71272397  0.78351080  1.0
  Ti  Ti8  1  0.93349725  0.40189773  0.36789643  1.0
  Ti  Ti9  1  0.93349725  0.09810227  0.86789643  1.0
  Ti  Ti10  1  0.06650275  0.90189773  0.13210357  1.0
  Ti  Ti11  1  0.06650275  0.59810227  0.63210357  1.0
  H  H12  1  0.44215786  0.09489738  0.51233935  1.0
  H  H13  1  0.44215786  0.40510262  1.01233935  1.0
  H  H14  1  0.55784214  0.59489738  -0.01233935  1.0
  H  H15  1  0.55784214  0.90510262  0.48766065  1.0
  H  H16  1  0.22806703  0.09047708  0.30959031  1.0
  H  H17  1  0.22806703  0.40952292  0.80959031  1.0
  H  H18  1  0.77193297  0.59047708  0.19040969  1.0
  H  H19  1  0.77193297  0.90952292  0.69040969  1.0
  O  O20  1  0.84025359  0.29664203  0.44694352  1.0
  O  O21  1  0.84025359  0.20335797  0.94694352  1.0
  O  O22  1  0.15974641  0.79664203  0.05305648  1.0
  O  O23  1  0.15974641  0.70335797  0.55305648  1.0
  O  O24  1  0.83354348  0.28343623  0.27432588  1.0
  O  O25  1  0.83354348  0.21656377  0.77432588  1.0
  O  O26  1  0.16645652  0.78343623  0.22567412  1.0
  O  O27  1  0.16645652  0.71656377  0.72567412  1.0
  O  O28  1  0.33637472  0.13276410  0.40617718  1.0
  O  O29  1  0.33637472  0.36723590  0.90617718  1.0
  O  O30  1  0.66362528  0.63276410  0.09382282  1.0
  O  O31  1  0.66362528  0.86723590  0.59382282  1.0
  F  F32  1  0.97174330  0.42254005  0.15565846  1.0
  F  F33  1  0.97174330  0.07745995  0.65565846  1.0
  F  F34  1  0.02825670  0.92254005  0.34434154  1.0
  F  F35  1  0.02825670  0.57745995  0.84434154  1.0
  F  F36  1  0.96289356  0.04552425  0.10272668  1.0
  F  F37  1  0.96289356  0.45447575  0.60272668  1.0
  F  F38  1  0.03710644  0.54552425  0.39727332  1.0
  F  F39  1  0.03710644  0.95447575  0.89727332  1.0
  F  F40  1  0.59634430  0.45039358  0.23503938  1.0
  F  F41  1  0.59634430  0.04960642  0.73503938  1.0
  F  F42  1  0.40365570  0.95039358  0.26496062  1.0
  F  F43  1  0.40365570  0.54960642  0.76496062  1.0
  F  F44  1  0.28435882  0.37643058  0.50195144  1.0
  F  F45  1  0.28435882  0.12356942  1.00195144  1.0
  F  F46  1  0.71564118  0.87643058  -0.00195144  1.0
  F  F47  1  0.71564118  0.62356942  0.49804856  1.0
