# generated using pymatgen
data_Hf2Al3C5
_symmetry_space_group_name_H-M   'P 1'
_cell_length_a   3.22692583
_cell_length_b   3.22692583
_cell_length_c   24.34331013
_cell_angle_alpha   90.00000000
_cell_angle_beta   90.00000000
_cell_angle_gamma   120.00000000
_symmetry_Int_Tables_number   1
_chemical_formula_structural   Hf2Al3C5
_chemical_formula_sum   'Hf4 Al6 C10'
_cell_volume   219.52714490
_cell_formula_units_Z   2
loop_
 _symmetry_equiv_pos_site_id
 _symmetry_equiv_pos_as_xyz
  1  'x, y, z'
loop_
 _atom_site_type_symbol
 _atom_site_label
 _atom_site_symmetry_multiplicity
 _atom_site_fract_x
 _atom_site_fract_y
 _atom_site_fract_z
 _atom_site_occupancy
  Hf  Hf0  1  0.33333333  0.66666667  0.94386821  1.0
  Hf  Hf1  1  0.33333333  0.66666667  0.55613179  1.0
  Hf  Hf2  1  0.66666667  0.33333333  0.44386821  1.0
  Hf  Hf3  1  0.66666667  0.33333333  0.05613179  1.0
  Al  Al4  1  -0.00000000  0.00000000  0.34623829  1.0
  Al  Al5  1  0.00000000  0.00000000  0.15376171  1.0
  Al  Al6  1  0.00000000  0.00000000  0.84623829  1.0
  Al  Al7  1  -0.00000000  -0.00000000  0.65376171  1.0
  Al  Al8  1  0.33333333  0.66666667  0.25000000  1.0
  Al  Al9  1  0.66666667  0.33333333  0.75000000  1.0
  C  C10  1  0.33333333  0.66666667  0.38769302  1.0
  C  C11  1  0.33333333  0.66666667  0.11230698  1.0
  C  C12  1  0.66666667  0.33333333  0.88769302  1.0
  C  C13  1  0.66666667  0.33333333  0.61230698  1.0
  C  C14  1  0.33333333  0.66666667  0.78380787  1.0
  C  C15  1  0.33333333  0.66666667  0.71619213  1.0
  C  C16  1  0.66666667  0.33333333  0.28380787  1.0
  C  C17  1  0.66666667  0.33333333  0.21619213  1.0
  C  C18  1  -0.00000000  -0.00000000  0.50000000  1.0
  C  C19  1  0.00000000  0.00000000  0.00000000  1.0
