# generated using pymatgen
data_LaSiNO2
_symmetry_space_group_name_H-M   'P 1'
_cell_length_a   7.45422779
_cell_length_b   7.45422779
_cell_length_c   9.72495123
_cell_angle_alpha   90.00000000
_cell_angle_beta   90.00000000
_cell_angle_gamma   120.00000000
_symmetry_Int_Tables_number   1
_chemical_formula_structural   LaSiNO2
_chemical_formula_sum   'La6 Si6 N6 O12'
_cell_volume   467.97578719
_cell_formula_units_Z   6
loop_
 _symmetry_equiv_pos_site_id
 _symmetry_equiv_pos_as_xyz
  1  'x, y, z'
loop_
 _atom_site_type_symbol
 _atom_site_label
 _atom_site_symmetry_multiplicity
 _atom_site_fract_x
 _atom_site_fract_y
 _atom_site_fract_z
 _atom_site_occupancy
  La  La0  1  0.00000000  0.00000000  0.00000000  1.0
  La  La1  1  0.00000000  0.00000000  0.50000000  1.0
  La  La2  1  0.33333333  0.66666667  0.00000000  1.0
  La  La3  1  0.33333333  0.66666667  0.50000000  1.0
  La  La4  1  0.66666667  0.33333333  0.00000000  1.0
  La  La5  1  0.66666667  0.33333333  0.50000000  1.0
  Si  Si6  1  0.66597733  0.78259109  0.75000000  1.0
  Si  Si7  1  0.21740891  0.88338624  0.75000000  1.0
  Si  Si8  1  0.11661376  0.33402267  0.75000000  1.0
  Si  Si9  1  0.21740891  0.33402267  0.25000000  1.0
  Si  Si10  1  0.11661376  0.78259109  0.25000000  1.0
  Si  Si11  1  0.66597733  0.88338624  0.25000000  1.0
  N  N12  1  0.66659005  0.22298400  0.75000000  1.0
  N  N13  1  0.77701600  0.44360605  0.75000000  1.0
  N  N14  1  0.55639395  0.33340995  0.75000000  1.0
  N  N15  1  0.77701600  0.33340995  0.25000000  1.0
  N  N16  1  0.55639395  0.22298400  0.25000000  1.0
  N  N17  1  0.66659005  0.44360605  0.25000000  1.0
  O  O18  1  0.66682817  0.68836903  0.90428941  1.0
  O  O19  1  0.31163097  -0.02154086  0.90428941  1.0
  O  O20  1  1.02154086  0.33317183  0.90428941  1.0
  O  O21  1  0.66682817  0.68836903  0.59571059  1.0
  O  O22  1  0.31163097  -0.02154086  0.59571059  1.0
  O  O23  1  1.02154086  0.33317183  0.59571059  1.0
  O  O24  1  0.31163097  0.33317183  0.40428941  1.0
  O  O25  1  1.02154086  0.68836903  0.40428941  1.0
  O  O26  1  0.66682817  -0.02154086  0.40428941  1.0
  O  O27  1  0.31163097  0.33317183  0.09571059  1.0
  O  O28  1  1.02154086  0.68836903  0.09571059  1.0
  O  O29  1  0.66682817  -0.02154086  0.09571059  1.0
