# generated using pymatgen
data_Lu2In8Rh
_symmetry_space_group_name_H-M   'P 1'
_cell_length_a   4.63836880
_cell_length_b   4.63836880
_cell_length_c   12.07672468
_cell_angle_alpha   90.00000000
_cell_angle_beta   90.00000000
_cell_angle_gamma   90.00000000
_symmetry_Int_Tables_number   1
_chemical_formula_structural   Lu2In8Rh
_chemical_formula_sum   'Lu2 In8 Rh1'
_cell_volume   259.82427147
_cell_formula_units_Z   1
loop_
 _symmetry_equiv_pos_site_id
 _symmetry_equiv_pos_as_xyz
  1  'x, y, z'
loop_
 _atom_site_type_symbol
 _atom_site_label
 _atom_site_symmetry_multiplicity
 _atom_site_fract_x
 _atom_site_fract_y
 _atom_site_fract_z
 _atom_site_occupancy
  Lu  Lu0  1  0.00000000  0.00000000  0.69098217  1.0
  Lu  Lu1  1  0.00000000  0.00000000  0.30901783  1.0
  In  In2  1  0.00000000  0.50000000  0.87507777  1.0
  In  In3  1  0.00000000  0.50000000  0.12492223  1.0
  In  In4  1  0.50000000  0.00000000  0.87507777  1.0
  In  In5  1  0.50000000  0.00000000  0.12492223  1.0
  In  In6  1  0.50000000  0.50000000  0.69021061  1.0
  In  In7  1  0.50000000  0.50000000  0.30978939  1.0
  In  In8  1  0.00000000  0.50000000  0.50000000  1.0
  In  In9  1  0.50000000  0.00000000  0.50000000  1.0
  Rh  Rh10  1  0.00000000  0.00000000  0.00000000  1.0
