# generated using pymatgen
data_EuMoO5
_symmetry_space_group_name_H-M   'P 1'
_cell_length_a   5.38809230
_cell_length_b   12.76256735
_cell_length_c   6.90263841
_cell_angle_alpha   90.00000000
_cell_angle_beta   113.39219198
_cell_angle_gamma   90.00000000
_symmetry_Int_Tables_number   1
_chemical_formula_structural   EuMoO5
_chemical_formula_sum   'Eu4 Mo4 O20'
_cell_volume   435.65267571
_cell_formula_units_Z   4
loop_
 _symmetry_equiv_pos_site_id
 _symmetry_equiv_pos_as_xyz
  1  'x, y, z'
loop_
 _atom_site_type_symbol
 _atom_site_label
 _atom_site_symmetry_multiplicity
 _atom_site_fract_x
 _atom_site_fract_y
 _atom_site_fract_z
 _atom_site_occupancy
  O  O0  1  0.99623997  0.92669794  0.33640232  1.0
  O  O1  1  0.99623997  0.57330206  0.83640232  1.0
  O  O2  1  0.00376003  0.42669794  0.16359768  1.0
  O  O3  1  0.00376003  0.07330206  0.66359768  1.0
  O  O4  1  0.79598966  0.23369234  0.28629715  1.0
  O  O5  1  0.79598966  0.26630766  0.78629715  1.0
  O  O6  1  0.20401034  0.73369234  0.21370285  1.0
  O  O7  1  0.20401034  0.76630766  0.71370285  1.0
  O  O8  1  0.76926415  0.65557457  0.41817172  1.0
  O  O9  1  0.76926415  0.84442543  0.91817172  1.0
  O  O10  1  0.23073585  0.15557457  0.08182828  1.0
  O  O11  1  0.23073585  0.34442543  0.58182828  1.0
  O  O12  1  0.71043537  0.43745842  0.46269341  1.0
  O  O13  1  0.71043537  0.06254158  0.96269341  1.0
  O  O14  1  0.28956463  0.93745842  0.03730659  1.0
  O  O15  1  0.28956463  0.56254158  0.53730659  1.0
  O  O16  1  0.47352483  0.41822195  0.04227962  1.0
  O  O17  1  0.47352483  0.08177805  0.54227962  1.0
  O  O18  1  0.52647517  0.91822195  0.45772038  1.0
  O  O19  1  0.52647517  0.58177805  0.95772038  1.0
  Mo  Mo20  1  0.92342019  0.36053286  0.36570939  1.0
  Mo  Mo21  1  0.92342019  0.13946714  0.86570939  1.0
  Mo  Mo22  1  0.07657981  0.86053286  0.13429061  1.0
  Mo  Mo23  1  0.07657981  0.63946714  0.63429061  1.0
  Eu  Eu24  1  0.64314749  0.05877487  0.29514240  1.0
  Eu  Eu25  1  0.64314749  0.44122513  0.79514240  1.0
  Eu  Eu26  1  0.35685251  0.55877487  0.20485760  1.0
  Eu  Eu27  1  0.35685251  0.94122513  0.70485760  1.0
