# generated using pymatgen
data_MnAsH2O5
_symmetry_space_group_name_H-M   'P 1'
_cell_length_a   5.34822455
_cell_length_b   5.34822455
_cell_length_c   7.60180865
_cell_angle_alpha   76.61128400
_cell_angle_beta   103.38871600
_cell_angle_gamma   82.42056748
_symmetry_Int_Tables_number   1
_chemical_formula_structural   MnAsH2O5
_chemical_formula_sum   'Mn2 As2 H4 O10'
_cell_volume   201.78715038
_cell_formula_units_Z   2
loop_
 _symmetry_equiv_pos_site_id
 _symmetry_equiv_pos_as_xyz
  1  'x, y, z'
loop_
 _atom_site_type_symbol
 _atom_site_label
 _atom_site_symmetry_multiplicity
 _atom_site_fract_x
 _atom_site_fract_y
 _atom_site_fract_z
 _atom_site_occupancy
  H  H0  1  1.55111002  0.38162054  0.20197086  1.0
  H  H1  1  0.61837946  -0.55111002  0.70197086  1.0
  H  H2  1  1.38162054  0.55111002  0.29802914  1.0
  H  H3  1  0.44888998  -0.38162054  0.79802914  1.0
  As  As4  1  0.93608286  -0.06391714  0.25000000  1.0
  As  As5  1  1.06391714  0.06391714  0.75000000  1.0
  O  O6  1  0.78328148  -0.15885994  0.42531238  1.0
  O  O7  1  1.15885994  0.21671852  0.92531238  1.0
  O  O8  1  0.84114006  -0.21671852  0.07468762  1.0
  O  O9  1  1.21671852  0.15885994  0.57468762  1.0
  O  O10  1  0.27491729  -0.16437235  0.34429448  1.0
  O  O11  1  1.16437235  0.72508271  0.84429448  1.0
  O  O12  1  0.83562765  -0.72508271  0.15570552  1.0
  O  O13  1  1.72508271  0.16437235  0.65570552  1.0
  O  O14  1  1.39215045  0.39215045  0.25000000  1.0
  O  O15  1  0.60784955  -0.39215045  0.75000000  1.0
  Mn  Mn16  1  1.50000000  0.00000000  0.50000000  1.0
  Mn  Mn17  1  1.00000000  -0.50000000  0.00000000  1.0
