# generated using pymatgen
data_Ba6YFe(BO3)6
_symmetry_space_group_name_H-M   'P 1'
_cell_length_a   8.10413648
_cell_length_b   8.10413648
_cell_length_c   8.10413648
_cell_angle_alpha   105.83582795
_cell_angle_beta   105.83582795
_cell_angle_gamma   105.83582795
_symmetry_Int_Tables_number   1
_chemical_formula_structural   Ba6YFe(BO3)6
_chemical_formula_sum   'Ba6 Y1 Fe1 B6 O18'
_cell_volume   456.61400884
_cell_formula_units_Z   1
loop_
 _symmetry_equiv_pos_site_id
 _symmetry_equiv_pos_as_xyz
  1  'x, y, z'
loop_
 _atom_site_type_symbol
 _atom_site_label
 _atom_site_symmetry_multiplicity
 _atom_site_fract_x
 _atom_site_fract_y
 _atom_site_fract_z
 _atom_site_occupancy
  Fe  Fe0  1  0.00000000  0.00000000  0.00000000  1.0
  B  B1  1  1.55439850  0.79600744  -0.12742851  1.0
  B  B2  1  1.20399256  0.12742851  -0.55439850  1.0
  B  B3  1  1.12742851  -0.55439850  0.20399256  1.0
  B  B4  1  0.44560150  0.20399256  0.12742851  1.0
  B  B5  1  0.79600744  0.87257149  0.55439850  1.0
  B  B6  1  0.87257149  1.55439850  -0.20399256  1.0
  Ba  Ba7  1  0.76768806  0.66893812  0.15399304  1.0
  Ba  Ba8  1  1.33106188  -0.15399304  0.23231194  1.0
  Ba  Ba9  1  0.84600696  0.23231194  0.33106188  1.0
  Ba  Ba10  1  1.23231194  0.33106188  -0.15399304  1.0
  Ba  Ba11  1  0.66893812  1.15399304  -0.23231194  1.0
  Ba  Ba12  1  1.15399304  0.76768806  -0.33106188  1.0
  Y  Y13  1  0.50000000  0.50000000  0.50000000  1.0
  O  O14  1  1.49232553  0.76648544  -0.31540296  1.0
  O  O15  1  1.23351456  0.31540296  -0.49232553  1.0
  O  O16  1  1.31540296  -0.49232553  0.23351456  1.0
  O  O17  1  0.50767447  0.23351456  0.31540296  1.0
  O  O18  1  0.76648544  0.68459704  0.49232553  1.0
  O  O19  1  0.68459704  1.49232553  -0.23351456  1.0
  O  O20  1  0.55965176  0.29334294  0.05427848  1.0
  O  O21  1  0.70665706  0.94572152  0.44034824  1.0
  O  O22  1  0.94572152  1.44034824  -0.29334294  1.0
  O  O23  1  1.44034824  0.70665706  -0.05427848  1.0
  O  O24  1  1.29334294  0.05427848  -0.44034824  1.0
  O  O25  1  1.05427848  -0.44034824  0.29334294  1.0
  O  O26  1  0.73103271  0.92841356  -0.00985430  1.0
  O  O27  1  1.07158644  0.00985430  -0.73103271  1.0
  O  O28  1  1.00985430  -0.73103271  0.07158644  1.0
  O  O29  1  0.26896729  0.07158644  0.00985430  1.0
  O  O30  1  0.92841356  0.99014570  -0.26896729  1.0
  O  O31  1  0.99014570  0.73103271  -0.07158644  1.0
