# generated using pymatgen
data_Na3Sc2(WO4)3
_symmetry_space_group_name_H-M   'P 1'
_cell_length_a   9.19270878
_cell_length_b   9.19270878
_cell_length_c   7.39409932
_cell_angle_alpha   73.55581336
_cell_angle_beta   106.44418664
_cell_angle_gamma   83.94106252
_symmetry_Int_Tables_number   1
_chemical_formula_structural   Na3Sc2(WO4)3
_chemical_formula_sum   'Na6 Sc4 W6 O24'
_cell_volume   562.94067914
_cell_formula_units_Z   2
loop_
 _symmetry_equiv_pos_site_id
 _symmetry_equiv_pos_as_xyz
  1  'x, y, z'
loop_
 _atom_site_type_symbol
 _atom_site_label
 _atom_site_symmetry_multiplicity
 _atom_site_fract_x
 _atom_site_fract_y
 _atom_site_fract_z
 _atom_site_occupancy
  W  W0  1  0.37973411  -0.16392220  0.88493711  1.0
  W  W1  1  1.16392220  0.62026589  0.38493711  1.0
  W  W2  1  0.83607780  -0.62026589  0.61506289  1.0
  W  W3  1  1.62026589  0.16392220  0.11506289  1.0
  W  W4  1  0.77317893  -0.22682107  0.75000000  1.0
  W  W5  1  1.22682107  0.22682107  0.25000000  1.0
  O  O6  1  0.65866892  -0.30016044  0.54818386  1.0
  O  O7  1  1.30016044  0.34133108  0.04818386  1.0
  O  O8  1  0.69983956  -0.34133108  0.95181614  1.0
  O  O9  1  1.34133108  0.30016044  0.45181614  1.0
  O  O10  1  0.75994625  -0.04038882  0.80224622  1.0
  O  O11  1  1.04038882  0.24005375  0.30224622  1.0
  O  O12  1  0.95961118  -0.24005375  0.69775378  1.0
  O  O13  1  1.24005375  0.04038882  0.19775378  1.0
  O  O14  1  0.43587391  -0.09538986  0.65710180  1.0
  O  O15  1  1.09538986  0.56412609  0.15710180  1.0
  O  O16  1  0.90461014  -0.56412609  0.84289820  1.0
  O  O17  1  1.56412609  0.09538986  0.34289820  1.0
  O  O18  1  1.50322746  0.15554683  0.87305397  1.0
  O  O19  1  0.84445317  -0.50322746  0.37305397  1.0
  O  O20  1  1.15554683  0.50322746  0.62694603  1.0
  O  O21  1  0.49677254  -0.15554683  0.12694603  1.0
  O  O22  1  1.64530703  0.33171643  0.58358148  1.0
  O  O23  1  0.66828357  -0.64530703  0.08358148  1.0
  O  O24  1  1.33171643  0.64530703  0.91641852  1.0
  O  O25  1  0.35469297  -0.33171643  0.41641852  1.0
  O  O26  1  0.20158683  -0.03652938  0.81698174  1.0
  O  O27  1  1.03652938  0.79841317  0.31698174  1.0
  O  O28  1  0.96347062  -0.79841317  0.68301826  1.0
  O  O29  1  1.79841317  0.03652938  0.18301826  1.0
  Na  Na30  1  0.52602733  -0.47397267  0.75000000  1.0
  Na  Na31  1  1.47397267  0.47397267  0.25000000  1.0
  Na  Na32  1  1.23101375  0.23101375  0.75000000  1.0
  Na  Na33  1  0.76898625  -0.23101375  0.25000000  1.0
  Na  Na34  1  0.00000000  0.00000000  0.00000000  1.0
  Na  Na35  1  -0.00000000  0.00000000  0.50000000  1.0
  Sc  Sc36  1  1.54282338  0.11808928  0.61930540  1.0
  Sc  Sc37  1  0.88191072  -0.54282338  0.11930540  1.0
  Sc  Sc38  1  1.11808928  0.54282338  0.88069460  1.0
  Sc  Sc39  1  0.45717662  -0.11808928  0.38069460  1.0
