# generated using pymatgen
data_Cs2NbAgSe4
_symmetry_space_group_name_H-M   'P 1'
_cell_length_a   14.94820041
_cell_length_b   13.31062576
_cell_length_c   8.07701820
_cell_angle_alpha   84.94060796
_cell_angle_beta   62.49626022
_cell_angle_gamma   32.56313181
_symmetry_Int_Tables_number   1
_chemical_formula_structural   Cs2NbAgSe4
_chemical_formula_sum   'Cs4 Nb2 Ag2 Se8'
_cell_volume   595.47841983
_cell_formula_units_Z   2
loop_
 _symmetry_equiv_pos_site_id
 _symmetry_equiv_pos_as_xyz
  1  'x, y, z'
loop_
 _atom_site_type_symbol
 _atom_site_label
 _atom_site_symmetry_multiplicity
 _atom_site_fract_x
 _atom_site_fract_y
 _atom_site_fract_z
 _atom_site_occupancy
  Cs  Cs0  1  1.42932484  0.42932484  0.07067516  1.0
  Cs  Cs1  1  0.07067516  0.07067516  1.42932484  1.0
  Cs  Cs2  1  0.82067516  0.82067516  -0.82067516  1.0
  Cs  Cs3  1  0.17932484  1.17932484  -0.17932484  1.0
  Nb  Nb4  1  0.00000000  0.00000000  0.00000000  1.0
  Nb  Nb5  1  1.25000000  0.25000000  0.25000000  1.0
  Ag  Ag6  1  -0.50000000  0.50000000  0.50000000  1.0
  Ag  Ag7  1  0.75000000  0.75000000  0.75000000  1.0
  Se  Se8  1  1.06783172  0.82219042  0.73905988  1.0
  Se  Se9  1  -0.62908203  0.73905988  0.82219042  1.0
  Se  Se10  1  0.73905988  -0.62908203  1.06783172  1.0
  Se  Se11  1  0.82219042  1.06783172  -0.62908203  1.0
  Se  Se12  1  1.18216828  0.42780958  0.51094012  1.0
  Se  Se13  1  0.87908203  0.51094012  0.42780958  1.0
  Se  Se14  1  1.51094012  -0.12091797  0.18216828  1.0
  Se  Se15  1  1.42780958  0.18216828  -0.12091797  1.0
