# generated using pymatgen
data_Tb4(FeB2)3
_symmetry_space_group_name_H-M   'P 1'
_cell_length_a   7.91825813
_cell_length_b   7.91825813
_cell_length_c   7.91825813
_cell_angle_alpha   38.89701183
_cell_angle_beta   38.89701183
_cell_angle_gamma   38.89701183
_symmetry_Int_Tables_number   1
_chemical_formula_structural   Tb4(FeB2)3
_chemical_formula_sum   'Tb4 Fe3 B6'
_cell_volume   176.00668724
_cell_formula_units_Z   1
loop_
 _symmetry_equiv_pos_site_id
 _symmetry_equiv_pos_as_xyz
  1  'x, y, z'
loop_
 _atom_site_type_symbol
 _atom_site_label
 _atom_site_symmetry_multiplicity
 _atom_site_fract_x
 _atom_site_fract_y
 _atom_site_fract_z
 _atom_site_occupancy
  Tb  Tb0  1  0.74305118  -0.25694882  -0.25694882  1.0
  Tb  Tb1  1  0.25694882  0.25694882  0.25694882  1.0
  Tb  Tb2  1  0.58918664  0.58918664  -0.41081336  1.0
  Tb  Tb3  1  0.41081336  0.41081336  -0.58918664  1.0
  Fe  Fe4  1  0.00000000  0.00000000  -0.00000000  1.0
  Fe  Fe5  1  0.88674856  -0.11325144  -0.11325144  1.0
  Fe  Fe6  1  0.11325144  0.11325144  0.11325144  1.0
  B  B7  1  0.83230571  0.16769429  -0.50000000  1.0
  B  B8  1  1.16769429  -0.50000000  -0.16769429  1.0
  B  B9  1  0.50000000  -0.16769429  0.16769429  1.0
  B  B10  1  0.83230571  -0.50000000  0.16769429  1.0
  B  B11  1  0.50000000  0.16769429  -0.16769429  1.0
  B  B12  1  1.16769429  -0.16769429  -0.50000000  1.0
