# generated using pymatgen
data_Bi2SO2
_symmetry_space_group_name_H-M   'P 1'
_cell_length_a   3.98648098
_cell_length_b   12.07469045
_cell_length_c   3.88347237
_cell_angle_alpha   90.00000000
_cell_angle_beta   90.00000000
_cell_angle_gamma   90.00000000
_symmetry_Int_Tables_number   1
_chemical_formula_structural   Bi2SO2
_chemical_formula_sum   'Bi4 S2 O4'
_cell_volume   186.93297641
_cell_formula_units_Z   2
loop_
 _symmetry_equiv_pos_site_id
 _symmetry_equiv_pos_as_xyz
  1  'x, y, z'
loop_
 _atom_site_type_symbol
 _atom_site_label
 _atom_site_symmetry_multiplicity
 _atom_site_fract_x
 _atom_site_fract_y
 _atom_site_fract_z
 _atom_site_occupancy
  Bi  Bi0  1  0.36585994  0.85554969  0.50000000  1.0
  Bi  Bi1  1  0.86585994  0.64445031  0.00000000  1.0
  Bi  Bi2  1  0.63414006  0.14445031  0.50000000  1.0
  Bi  Bi3  1  0.13414006  0.35554969  0.00000000  1.0
  S  S4  1  0.50000000  0.50000000  0.50000000  1.0
  S  S5  1  0.00000000  0.00000000  0.00000000  1.0
  O  O6  1  0.90186143  0.75258011  0.50000000  1.0
  O  O7  1  0.40186143  0.74741989  0.00000000  1.0
  O  O8  1  0.09813857  0.24741989  0.50000000  1.0
  O  O9  1  0.59813857  0.25258011  0.00000000  1.0
