# generated using pymatgen
data_RbBe2P3O10
_symmetry_space_group_name_H-M   'P 1'
_cell_length_a   7.60193745
_cell_length_b   7.60193745
_cell_length_c   9.10115699
_cell_angle_alpha   68.40376372
_cell_angle_beta   111.59623628
_cell_angle_gamma   108.69991245
_symmetry_Int_Tables_number   1
_chemical_formula_structural   RbBe2P3O10
_chemical_formula_sum   'Rb2 Be4 P6 O20'
_cell_volume   444.15104065
_cell_formula_units_Z   2
loop_
 _symmetry_equiv_pos_site_id
 _symmetry_equiv_pos_as_xyz
  1  'x, y, z'
loop_
 _atom_site_type_symbol
 _atom_site_label
 _atom_site_symmetry_multiplicity
 _atom_site_fract_x
 _atom_site_fract_y
 _atom_site_fract_z
 _atom_site_occupancy
  Rb  Rb0  1  0.30076343  0.30076343  0.25000000  1.0
  Rb  Rb1  1  0.69923657  0.69923657  0.75000000  1.0
  Be  Be2  1  0.69896801  0.20747424  0.06599620  1.0
  Be  Be3  1  0.79252576  0.30103199  0.56599620  1.0
  Be  Be4  1  1.20747424  -0.30103199  0.43400380  1.0
  Be  Be5  1  1.30103199  -0.20747424  0.93400380  1.0
  P  P6  1  1.49783292  -0.13330898  0.25029690  1.0
  P  P7  1  1.13330898  -0.49783292  0.75029690  1.0
  P  P8  1  0.86669102  0.49783292  0.24970310  1.0
  P  P9  1  0.50216708  0.13330898  0.74970310  1.0
  P  P10  1  0.87620867  0.87620867  0.25000000  1.0
  P  P11  1  0.12379133  0.12379133  0.75000000  1.0
  O  O12  1  1.71627703  -0.18435318  0.34634034  1.0
  O  O13  1  1.18435318  -0.71627703  0.84634034  1.0
  O  O14  1  0.81564682  0.71627703  0.15365966  1.0
  O  O15  1  0.28372297  0.18435318  0.65365966  1.0
  O  O16  1  0.86285247  0.07267012  0.12483021  1.0
  O  O17  1  0.92732988  0.13714753  0.62483021  1.0
  O  O18  1  1.07267012  -0.13714753  0.37516979  1.0
  O  O19  1  1.13714753  -0.07267012  0.87516979  1.0
  O  O20  1  1.39422837  -0.25941624  0.13240548  1.0
  O  O21  1  1.25941624  -0.39422837  0.63240548  1.0
  O  O22  1  0.74058376  0.39422837  0.36759452  1.0
  O  O23  1  0.60577163  0.25941624  0.86759452  1.0
  O  O24  1  1.41268909  -0.19113384  0.39317062  1.0
  O  O25  1  1.19113384  -0.41268909  0.89317062  1.0
  O  O26  1  0.80886616  0.41268909  0.10682938  1.0
  O  O27  1  0.58731091  0.19113384  0.60682938  1.0
  O  O28  1  0.53397015  0.08480739  0.16424273  1.0
  O  O29  1  0.91519261  0.46602985  0.66424273  1.0
  O  O30  1  1.08480739  -0.46602985  0.33575727  1.0
  O  O31  1  1.46602985  -0.08480739  0.83575727  1.0
