# generated using pymatgen
data_Sr(LuS2)2
_symmetry_space_group_name_H-M   'P 1'
_cell_length_a   11.95202975
_cell_length_b   3.92296305
_cell_length_c   14.15304366
_cell_angle_alpha   90.00000000
_cell_angle_beta   90.00000000
_cell_angle_gamma   90.00000000
_symmetry_Int_Tables_number   1
_chemical_formula_structural   Sr(LuS2)2
_chemical_formula_sum   'Sr4 Lu8 S16'
_cell_volume   663.59900923
_cell_formula_units_Z   4
loop_
 _symmetry_equiv_pos_site_id
 _symmetry_equiv_pos_as_xyz
  1  'x, y, z'
loop_
 _atom_site_type_symbol
 _atom_site_label
 _atom_site_symmetry_multiplicity
 _atom_site_fract_x
 _atom_site_fract_y
 _atom_site_fract_z
 _atom_site_occupancy
  Sr  Sr0  1  0.75980424  0.75000000  0.66379829  1.0
  Sr  Sr1  1  0.25980424  0.75000000  0.83620171  1.0
  Sr  Sr2  1  0.24019576  0.25000000  0.33620171  1.0
  Sr  Sr3  1  0.74019576  0.25000000  0.16379829  1.0
  Lu  Lu4  1  0.91775294  0.75000000  0.40062982  1.0
  Lu  Lu5  1  0.41775294  0.75000000  0.09937018  1.0
  Lu  Lu6  1  0.08224706  0.25000000  0.59937018  1.0
  Lu  Lu7  1  0.58224706  0.25000000  0.90062982  1.0
  Lu  Lu8  1  0.43732590  0.75000000  0.61051437  1.0
  Lu  Lu9  1  0.93732590  0.75000000  0.88948563  1.0
  Lu  Lu10  1  0.56267410  0.25000000  0.38948563  1.0
  Lu  Lu11  1  0.06267410  0.25000000  0.11051437  1.0
  S  S12  1  0.91208576  0.75000000  0.07649636  1.0
  S  S13  1  0.41208576  0.75000000  0.42350364  1.0
  S  S14  1  0.08791424  0.25000000  0.92350364  1.0
  S  S15  1  0.58791424  0.25000000  0.57649636  1.0
  S  S16  1  0.70492566  0.75000000  0.33146851  1.0
  S  S17  1  0.20492566  0.75000000  0.16853149  1.0
  S  S18  1  0.29507434  0.25000000  0.66853149  1.0
  S  S19  1  0.79507434  0.25000000  0.83146851  1.0
  S  S20  1  0.62664105  0.75000000  0.02821094  1.0
  S  S21  1  0.12664105  0.75000000  0.47178906  1.0
  S  S22  1  0.37335895  0.25000000  0.97178906  1.0
  S  S23  1  0.87335895  0.25000000  0.52821094  1.0
  S  S24  1  0.52670898  0.75000000  0.78421289  1.0
  S  S25  1  0.02670898  0.75000000  0.71578711  1.0
  S  S26  1  0.47329102  0.25000000  0.21578711  1.0
  S  S27  1  0.97329102  0.25000000  0.28421289  1.0
