# generated using pymatgen
data_Na2Mn(SO4)2
_symmetry_space_group_name_H-M   'P 1'
_cell_length_a   6.57120910
_cell_length_b   6.57120910
_cell_length_c   8.93858931
_cell_angle_alpha   68.95836822
_cell_angle_beta   111.04163178
_cell_angle_gamma   101.83432423
_symmetry_Int_Tables_number   1
_chemical_formula_structural   Na2Mn(SO4)2
_chemical_formula_sum   'Na4 Mn2 S4 O16'
_cell_volume   334.92984422
_cell_formula_units_Z   2
loop_
 _symmetry_equiv_pos_site_id
 _symmetry_equiv_pos_as_xyz
  1  'x, y, z'
loop_
 _atom_site_type_symbol
 _atom_site_label
 _atom_site_symmetry_multiplicity
 _atom_site_fract_x
 _atom_site_fract_y
 _atom_site_fract_z
 _atom_site_occupancy
  Na  Na0  1  0.81351997  0.09059091  0.55633013  1.0
  Na  Na1  1  0.90940909  0.18648003  0.05633013  1.0
  Na  Na2  1  1.09059091  -0.18648003  0.94366987  1.0
  Na  Na3  1  1.18648003  -0.09059091  0.44366987  1.0
  Mn  Mn4  1  0.41373805  0.41373805  0.75000000  1.0
  Mn  Mn5  1  0.58626195  0.58626195  0.25000000  1.0
  S  S6  1  1.52124497  -0.10298051  0.81708530  1.0
  S  S7  1  1.10298051  -0.52124497  0.31708530  1.0
  S  S8  1  0.89701949  0.52124497  0.68291470  1.0
  S  S9  1  0.47875503  0.10298051  0.18291470  1.0
  O  O10  1  1.75854101  -0.02656672  0.85796495  1.0
  O  O11  1  1.02656672  -0.75854101  0.35796495  1.0
  O  O12  1  0.97343328  0.75854101  0.64203505  1.0
  O  O13  1  0.24145899  0.02656672  0.14203505  1.0
  O  O14  1  1.46287392  -0.24787054  0.97090555  1.0
  O  O15  1  1.24787054  -0.46287392  0.47090555  1.0
  O  O16  1  0.75212946  0.46287392  0.52909445  1.0
  O  O17  1  0.53712608  0.24787054  0.02909445  1.0
  O  O18  1  1.46567966  -0.22663300  0.69276094  1.0
  O  O19  1  1.22663300  -0.46567966  0.19276094  1.0
  O  O20  1  0.77336700  0.46567966  0.80723906  1.0
  O  O21  1  0.53432034  0.22663300  0.30723906  1.0
  O  O22  1  0.38362967  0.08820282  0.73349800  1.0
  O  O23  1  0.91179718  0.61637033  0.23349800  1.0
  O  O24  1  1.08820282  -0.61637033  0.76650200  1.0
  O  O25  1  1.61637033  -0.08820282  0.26650200  1.0
