# generated using pymatgen
data_TiNi
_symmetry_space_group_name_H-M   'P 1'
_cell_length_a   2.94128529
_cell_length_b   4.02345935
_cell_length_c   4.78102382
_cell_angle_alpha   90.00000000
_cell_angle_beta   102.39626900
_cell_angle_gamma   90.00000000
_symmetry_Int_Tables_number   1
_chemical_formula_structural   TiNi
_chemical_formula_sum   'Ti2 Ni2'
_cell_volume   55.26023830
_cell_formula_units_Z   2
loop_
 _symmetry_equiv_pos_site_id
 _symmetry_equiv_pos_as_xyz
  1  'x, y, z'
loop_
 _atom_site_type_symbol
 _atom_site_label
 _atom_site_symmetry_multiplicity
 _atom_site_fract_x
 _atom_site_fract_y
 _atom_site_fract_z
 _atom_site_occupancy
  Ti  Ti0  1  0.61414049  0.75000000  0.28429954  1.0
  Ti  Ti1  1  0.38585951  0.25000000  0.71570046  1.0
  Ni  Ni2  1  0.93505781  0.75000000  0.82878628  1.0
  Ni  Ni3  1  0.06494219  0.25000000  0.17121372  1.0
