# generated using pymatgen
data_TmFe2
_symmetry_space_group_name_H-M   'P 1'
_cell_length_a   5.11135676
_cell_length_b   5.11135676
_cell_length_c   8.31543535
_cell_angle_alpha   90.00000000
_cell_angle_beta   90.00000000
_cell_angle_gamma   120.00000000
_symmetry_Int_Tables_number   1
_chemical_formula_structural   TmFe2
_chemical_formula_sum   'Tm4 Fe8'
_cell_volume   188.14297754
_cell_formula_units_Z   4
loop_
 _symmetry_equiv_pos_site_id
 _symmetry_equiv_pos_as_xyz
  1  'x, y, z'
loop_
 _atom_site_type_symbol
 _atom_site_label
 _atom_site_symmetry_multiplicity
 _atom_site_fract_x
 _atom_site_fract_y
 _atom_site_fract_z
 _atom_site_occupancy
  Tm  Tm0  1  0.33333333  0.66666667  0.93694183  1.0
  Tm  Tm1  1  0.33333333  0.66666667  0.56305817  1.0
  Tm  Tm2  1  0.66666667  0.33333333  0.43694183  1.0
  Tm  Tm3  1  0.66666667  0.33333333  0.06305817  1.0
  Fe  Fe4  1  0.16462813  0.83537187  0.25000000  1.0
  Fe  Fe5  1  0.16462813  0.32925625  0.25000000  1.0
  Fe  Fe6  1  0.83537187  0.16462813  0.75000000  1.0
  Fe  Fe7  1  0.83537187  0.67074375  0.75000000  1.0
  Fe  Fe8  1  0.67074375  0.83537187  0.25000000  1.0
  Fe  Fe9  1  0.32925625  0.16462813  0.75000000  1.0
  Fe  Fe10  1  -0.00000000  -0.00000000  0.50000000  1.0
  Fe  Fe11  1  0.00000000  0.00000000  0.00000000  1.0
