# generated using pymatgen
data_AsCS3INF6
_symmetry_space_group_name_H-M   'P 1'
_cell_length_a   10.39052020
_cell_length_b   8.62333827
_cell_length_c   6.78510397
_cell_angle_alpha   70.46702628
_cell_angle_beta   86.26341600
_cell_angle_gamma   88.88371117
_symmetry_Int_Tables_number   1
_chemical_formula_structural   AsCS3INF6
_chemical_formula_sum   'As2 C2 S6 I2 N2 F12'
_cell_volume   571.74407772
_cell_formula_units_Z   2
loop_
 _symmetry_equiv_pos_site_id
 _symmetry_equiv_pos_as_xyz
  1  'x, y, z'
loop_
 _atom_site_type_symbol
 _atom_site_label
 _atom_site_symmetry_multiplicity
 _atom_site_fract_x
 _atom_site_fract_y
 _atom_site_fract_z
 _atom_site_occupancy
  As  As0  1  -0.75484083  -0.73614115  -0.49125856  1.0
  As  As1  1  -0.24515917  -0.26385885  -0.50874144  1.0
  C  C2  1  -0.24596237  -0.77524979  -0.97262620  1.0
  C  C3  1  -0.75403763  -0.22475021  -0.02737380  1.0
  S  S4  1  -0.48462895  -0.77559456  -0.03672039  1.0
  S  S5  1  -0.51537105  -0.22440544  -0.96327961  1.0
  S  S6  1  -0.39645146  -0.89206661  -0.24018350  1.0
  S  S7  1  -0.60354854  -0.10793339  -0.75981650  1.0
  S  S8  1  -0.21122139  -0.87098752  -0.16014062  1.0
  S  S9  1  -0.78877861  -0.12901248  -0.83985938  1.0
  I  I10  1  -0.08338568  -0.72371920  -0.84005806  1.0
  I  I11  1  -0.91661432  -0.27628080  -0.15994194  1.0
  N  N12  1  -0.36184956  -0.73698455  -0.92615614  1.0
  N  N13  1  -0.63815044  -0.26301545  -0.07384386  1.0
  F  F14  1  -0.77669387  -0.91531616  -0.56700872  1.0
  F  F15  1  -0.22330613  -0.08468384  -0.43299128  1.0
  F  F16  1  -0.72883869  -0.56131443  -0.41487588  1.0
  F  F17  1  -0.27116131  -0.43868557  -0.58512412  1.0
  F  F18  1  -0.61425910  -0.68397426  -0.66880890  1.0
  F  F19  1  -0.38574090  -0.31602574  -0.33119110  1.0
  F  F20  1  -0.65435929  -0.86093323  -0.28471879  1.0
  F  F21  1  -0.34564071  -0.13906677  -0.71528121  1.0
  F  F22  1  -0.89295024  -0.79551707  -0.31156252  1.0
  F  F23  1  -0.10704976  -0.20448293  -0.68843748  1.0
  F  F24  1  -0.85486278  -0.61813502  -0.69605611  1.0
  F  F25  1  -0.14513722  -0.38186498  -0.30394389  1.0
