# generated using pymatgen
data_Ti4Co4Si7
_symmetry_space_group_name_H-M   'P 1'
_cell_length_a   9.17863487
_cell_length_b   9.17863487
_cell_length_c   9.17863487
_cell_angle_alpha   94.12586212
_cell_angle_beta   94.12586212
_cell_angle_gamma   148.88198994
_symmetry_Int_Tables_number   1
_chemical_formula_structural   Ti4Co4Si7
_chemical_formula_sum   'Ti8 Co8 Si14'
_cell_volume   384.98613245
_cell_formula_units_Z   2
loop_
 _symmetry_equiv_pos_site_id
 _symmetry_equiv_pos_as_xyz
  1  'x, y, z'
loop_
 _atom_site_type_symbol
 _atom_site_label
 _atom_site_symmetry_multiplicity
 _atom_site_fract_x
 _atom_site_fract_y
 _atom_site_fract_z
 _atom_site_occupancy
  Ti  Ti0  1  0.00000000  0.80702826  0.80702826  1.0
  Ti  Ti1  1  0.80702826  1.00000000  0.80702826  1.0
  Ti  Ti2  1  1.19297174  1.00000000  1.19297174  1.0
  Ti  Ti3  1  -0.00000000  0.19297174  0.19297174  1.0
  Ti  Ti4  1  0.63556699  0.63556699  0.27113399  1.0
  Ti  Ti5  1  1.36443301  0.63556699  1.00000000  1.0
  Ti  Ti6  1  0.63556699  0.36443301  1.00000000  1.0
  Ti  Ti7  1  0.36443301  0.36443301  0.72886601  1.0
  Co  Co8  1  1.10050770  0.60050770  1.20101540  1.0
  Co  Co9  1  1.60050770  1.10050770  1.20101540  1.0
  Co  Co10  1  0.39949230  0.60050770  0.50000000  1.0
  Co  Co11  1  0.89949230  1.10050770  0.50000000  1.0
  Co  Co12  1  1.10050770  0.89949230  1.50000000  1.0
  Co  Co13  1  1.60050770  1.39949230  1.50000000  1.0
  Co  Co14  1  0.39949230  0.89949230  0.79898460  1.0
  Co  Co15  1  0.89949230  1.39949230  0.79898460  1.0
  Si  Si16  1  0.50000000  0.79357780  0.29357780  1.0
  Si  Si17  1  0.79357780  0.50000000  1.29357780  1.0
  Si  Si18  1  0.20642220  0.50000000  0.70642220  1.0
  Si  Si19  1  0.50000000  1.20642220  0.70642220  1.0
  Si  Si20  1  -0.00000000  0.59444870  0.59444870  1.0
  Si  Si21  1  0.59444870  1.00000000  0.59444870  1.0
  Si  Si22  1  1.40555130  1.00000000  1.40555130  1.0
  Si  Si23  1  -0.00000000  0.40555130  0.40555130  1.0
  Si  Si24  1  0.79359025  0.79359025  0.58718049  1.0
  Si  Si25  1  1.20640975  0.79359025  1.00000000  1.0
  Si  Si26  1  0.79359025  0.20640975  1.00000000  1.0
  Si  Si27  1  0.20640975  0.20640975  0.41281951  1.0
  Si  Si28  1  0.75015775  0.75015775  -0.00000000  1.0
  Si  Si29  1  0.24984225  0.24984225  0.00000000  1.0
