# generated using pymatgen
data_Li2MgH4
_symmetry_space_group_name_H-M   'P 1'
_cell_length_a   4.89244597
_cell_length_b   9.27770374
_cell_length_c   2.91853879
_cell_angle_alpha   90.00000000
_cell_angle_beta   90.00000000
_cell_angle_gamma   90.00000000
_symmetry_Int_Tables_number   1
_chemical_formula_structural   Li2MgH4
_chemical_formula_sum   'Li4 Mg2 H8'
_cell_volume   132.47441443
_cell_formula_units_Z   2
loop_
 _symmetry_equiv_pos_site_id
 _symmetry_equiv_pos_as_xyz
  1  'x, y, z'
loop_
 _atom_site_type_symbol
 _atom_site_label
 _atom_site_symmetry_multiplicity
 _atom_site_fract_x
 _atom_site_fract_y
 _atom_site_fract_z
 _atom_site_occupancy
  Li  Li0  1  0.98382568  0.28904456  0.50000000  1.0
  Li  Li1  1  0.01617432  0.71095544  0.50000000  1.0
  Li  Li2  1  0.48382568  0.21095544  0.50000000  1.0
  Li  Li3  1  0.51617432  0.78904456  0.50000000  1.0
  Mg  Mg4  1  0.50000000  0.50000000  0.00000000  1.0
  Mg  Mg5  1  0.00000000  0.00000000  0.00000000  1.0
  H  H6  1  0.70564044  0.58803059  0.50000000  1.0
  H  H7  1  0.29435956  0.41196941  0.50000000  1.0
  H  H8  1  0.20564044  0.91196941  0.50000000  1.0
  H  H9  1  0.79435956  0.08803059  0.50000000  1.0
  H  H10  1  0.72109079  0.32315227  0.00000000  1.0
  H  H11  1  0.27890921  0.67684773  0.00000000  1.0
  H  H12  1  0.22109079  0.17684773  0.00000000  1.0
  H  H13  1  0.77890921  0.82315227  0.00000000  1.0
