# generated using pymatgen
data_KPC4(N2F)2
_symmetry_space_group_name_H-M   'P 1'
_cell_length_a   7.76944449
_cell_length_b   12.61115048
_cell_length_c   9.14684491
_cell_angle_alpha   90.00000000
_cell_angle_beta   90.00000000
_cell_angle_gamma   90.00000000
_symmetry_Int_Tables_number   1
_chemical_formula_structural   KPC4(N2F)2
_chemical_formula_sum   'K4 P4 C16 N16 F8'
_cell_volume   896.22280594
_cell_formula_units_Z   4
loop_
 _symmetry_equiv_pos_site_id
 _symmetry_equiv_pos_as_xyz
  1  'x, y, z'
loop_
 _atom_site_type_symbol
 _atom_site_label
 _atom_site_symmetry_multiplicity
 _atom_site_fract_x
 _atom_site_fract_y
 _atom_site_fract_z
 _atom_site_occupancy
  K  K0  1  0.75000000  0.50000000  0.28531212  1.0
  K  K1  1  0.75000000  0.00000000  0.21468788  1.0
  K  K2  1  0.25000000  0.50000000  0.71468788  1.0
  K  K3  1  0.25000000  0.00000000  0.78531212  1.0
  P  P4  1  0.65280154  0.25000000  0.75000000  1.0
  P  P5  1  0.15280154  0.25000000  0.25000000  1.0
  P  P6  1  0.34719846  0.75000000  0.25000000  1.0
  P  P7  1  0.84719846  0.75000000  0.75000000  1.0
  C  C8  1  0.82309051  0.34071497  0.68360207  1.0
  C  C9  1  0.82309051  0.15928503  0.81639793  1.0
  C  C10  1  0.32309051  0.34071497  0.31639793  1.0
  C  C11  1  0.32309051  0.15928503  0.18360207  1.0
  C  C12  1  0.17690949  0.84071497  0.18360207  1.0
  C  C13  1  0.17690949  0.65928503  0.31639793  1.0
  C  C14  1  0.67690949  0.84071497  0.81639793  1.0
  C  C15  1  0.67690949  0.65928503  0.68360207  1.0
  C  C16  1  0.65549627  0.18022262  0.57188671  1.0
  C  C17  1  0.65549627  0.31977738  0.92811329  1.0
  C  C18  1  0.15549627  0.18022262  0.42811329  1.0
  C  C19  1  0.15549627  0.31977738  0.07188671  1.0
  C  C20  1  0.34450373  0.68022262  0.07188671  1.0
  C  C21  1  0.34450373  0.81977738  0.42811329  1.0
  C  C22  1  0.84450373  0.68022262  0.92811329  1.0
  C  C23  1  0.84450373  0.81977738  0.57188671  1.0
  N  N24  1  0.92931173  0.39869510  0.64296167  1.0
  N  N25  1  0.92931173  0.10130490  0.85703833  1.0
  N  N26  1  0.42931173  0.39869510  0.35703833  1.0
  N  N27  1  0.42931173  0.10130490  0.14296167  1.0
  N  N28  1  0.07068827  0.89869510  0.14296167  1.0
  N  N29  1  0.07068827  0.60130490  0.35703833  1.0
  N  N30  1  0.57068827  0.89869510  0.85703833  1.0
  N  N31  1  0.57068827  0.60130490  0.64296167  1.0
  N  N32  1  0.66611885  0.36527681  0.03836847  1.0
  N  N33  1  0.66611885  0.13472319  0.46163153  1.0
  N  N34  1  0.16611885  0.36527681  0.96163153  1.0
  N  N35  1  0.16611885  0.13472319  0.53836847  1.0
  N  N36  1  0.33388115  0.86527681  0.53836847  1.0
  N  N37  1  0.33388115  0.63472319  0.96163153  1.0
  N  N38  1  0.83388115  0.86527681  0.46163153  1.0
  N  N39  1  0.83388115  0.63472319  0.03836847  1.0
  F  F40  1  0.50351294  0.33215761  0.68995002  1.0
  F  F41  1  0.50351294  0.16784239  0.81004998  1.0
  F  F42  1  1.00351294  0.33215761  0.31004998  1.0
  F  F43  1  1.00351294  0.16784239  0.18995002  1.0
  F  F44  1  0.49648706  0.83215761  0.18995002  1.0
  F  F45  1  0.49648706  0.66784239  0.31004998  1.0
  F  F46  1  -0.00351294  0.83215761  0.81004998  1.0
  F  F47  1  -0.00351294  0.66784239  0.68995002  1.0
