# generated using pymatgen
data_LuCd3
_symmetry_space_group_name_H-M   'P 1'
_cell_length_a   6.42341191
_cell_length_b   6.42341191
_cell_length_c   4.81676434
_cell_angle_alpha   90.00000000
_cell_angle_beta   90.00000000
_cell_angle_gamma   111.46464410
_symmetry_Int_Tables_number   1
_chemical_formula_structural   LuCd3
_chemical_formula_sum   'Lu2 Cd6'
_cell_volume   184.95680556
_cell_formula_units_Z   2
loop_
 _symmetry_equiv_pos_site_id
 _symmetry_equiv_pos_as_xyz
  1  'x, y, z'
loop_
 _atom_site_type_symbol
 _atom_site_label
 _atom_site_symmetry_multiplicity
 _atom_site_fract_x
 _atom_site_fract_y
 _atom_site_fract_z
 _atom_site_occupancy
  Lu  Lu0  1  0.12754728  0.87245272  0.25000000  1.0
  Lu  Lu1  1  -0.12754728  1.12754728  0.75000000  1.0
  Cd  Cd2  1  0.18759012  0.38315437  0.25000000  1.0
  Cd  Cd3  1  -0.61684563  1.18759012  0.75000000  1.0
  Cd  Cd4  1  0.61684563  0.81240988  0.25000000  1.0
  Cd  Cd5  1  -0.18759012  1.61684563  0.75000000  1.0
  Cd  Cd6  1  -0.32099202  1.32099202  0.25000000  1.0
  Cd  Cd7  1  0.32099202  0.67900798  0.75000000  1.0
