# generated using pymatgen
data_MgNiGe
_symmetry_space_group_name_H-M   'P 1'
_cell_length_a   6.49130812
_cell_length_b   4.09643710
_cell_length_c   6.93821912
_cell_angle_alpha   90.00000000
_cell_angle_beta   90.00000000
_cell_angle_gamma   90.00000000
_symmetry_Int_Tables_number   1
_chemical_formula_structural   MgNiGe
_chemical_formula_sum   'Mg4 Ni4 Ge4'
_cell_volume   184.49581806
_cell_formula_units_Z   4
loop_
 _symmetry_equiv_pos_site_id
 _symmetry_equiv_pos_as_xyz
  1  'x, y, z'
loop_
 _atom_site_type_symbol
 _atom_site_label
 _atom_site_symmetry_multiplicity
 _atom_site_fract_x
 _atom_site_fract_y
 _atom_site_fract_z
 _atom_site_occupancy
  Mg  Mg0  1  0.00336669  0.75000000  0.68813523  1.0
  Mg  Mg1  1  0.50336669  0.75000000  0.81186477  1.0
  Mg  Mg2  1  0.99663331  0.25000000  0.31186477  1.0
  Mg  Mg3  1  0.49663331  0.25000000  0.18813523  1.0
  Ni  Ni4  1  0.84422280  0.75000000  0.05500737  1.0
  Ni  Ni5  1  0.34422280  0.75000000  0.44499263  1.0
  Ni  Ni6  1  0.15577720  0.25000000  0.94499263  1.0
  Ni  Ni7  1  0.65577720  0.25000000  0.55500737  1.0
  Ge  Ge8  1  0.70947143  0.75000000  0.38225622  1.0
  Ge  Ge9  1  0.20947143  0.75000000  0.11774378  1.0
  Ge  Ge10  1  0.29052857  0.25000000  0.61774378  1.0
  Ge  Ge11  1  0.79052857  0.25000000  0.88225622  1.0
