# generated using pymatgen
data_In3Pd5
_symmetry_space_group_name_H-M   'P 1'
_cell_length_a   5.72315217
_cell_length_b   11.28281883
_cell_length_c   4.27474258
_cell_angle_alpha   90.00000000
_cell_angle_beta   90.00000000
_cell_angle_gamma   90.00000000
_symmetry_Int_Tables_number   1
_chemical_formula_structural   In3Pd5
_chemical_formula_sum   'In6 Pd10'
_cell_volume   276.03418816
_cell_formula_units_Z   2
loop_
 _symmetry_equiv_pos_site_id
 _symmetry_equiv_pos_as_xyz
  1  'x, y, z'
loop_
 _atom_site_type_symbol
 _atom_site_label
 _atom_site_symmetry_multiplicity
 _atom_site_fract_x
 _atom_site_fract_y
 _atom_site_fract_z
 _atom_site_occupancy
  In  In0  1  0.32081185  0.64264709  0.50000000  1.0
  In  In1  1  0.82081185  0.85735291  0.50000000  1.0
  In  In2  1  0.67918815  0.35735291  0.50000000  1.0
  In  In3  1  0.17918815  0.14264709  0.50000000  1.0
  In  In4  1  0.50000000  0.00000000  0.00000000  1.0
  In  In5  1  0.00000000  0.50000000  0.00000000  1.0
  Pd  Pd6  1  0.30014985  0.89011747  0.50000000  1.0
  Pd  Pd7  1  0.80014985  0.60988253  0.50000000  1.0
  Pd  Pd8  1  0.69985015  0.10988253  0.50000000  1.0
  Pd  Pd9  1  0.19985015  0.39011747  0.50000000  1.0
  Pd  Pd10  1  0.06605955  0.74433730  0.00000000  1.0
  Pd  Pd11  1  0.56605955  0.75566270  0.00000000  1.0
  Pd  Pd12  1  0.93394045  0.25566270  0.00000000  1.0
  Pd  Pd13  1  0.43394045  0.24433730  0.00000000  1.0
  Pd  Pd14  1  0.50000000  0.50000000  0.00000000  1.0
  Pd  Pd15  1  0.00000000  0.00000000  0.00000000  1.0
