# generated using pymatgen
data_KNaLaTaO5
_symmetry_space_group_name_H-M   'P 1'
_cell_length_a   5.84654751
_cell_length_b   5.84654751
_cell_length_c   8.39510327
_cell_angle_alpha   90.00000000
_cell_angle_beta   90.00000000
_cell_angle_gamma   90.00000000
_symmetry_Int_Tables_number   1
_chemical_formula_structural   KNaLaTaO5
_chemical_formula_sum   'K2 Na2 La2 Ta2 O10'
_cell_volume   286.96240896
_cell_formula_units_Z   2
loop_
 _symmetry_equiv_pos_site_id
 _symmetry_equiv_pos_as_xyz
  1  'x, y, z'
loop_
 _atom_site_type_symbol
 _atom_site_label
 _atom_site_symmetry_multiplicity
 _atom_site_fract_x
 _atom_site_fract_y
 _atom_site_fract_z
 _atom_site_occupancy
  K  K0  1  0.00000000  0.00000000  0.00000000  1.0
  K  K1  1  0.50000000  0.50000000  0.00000000  1.0
  Na  Na2  1  0.50000000  0.00000000  0.76005587  1.0
  Na  Na3  1  0.00000000  0.50000000  0.23994413  1.0
  La  La4  1  0.00000000  0.00000000  0.50000000  1.0
  La  La5  1  0.50000000  0.50000000  0.50000000  1.0
  Ta  Ta6  1  0.50000000  0.00000000  0.25616897  1.0
  Ta  Ta7  1  0.00000000  0.50000000  0.74383103  1.0
  O  O8  1  0.72782311  0.22782311  0.32608427  1.0
  O  O9  1  0.72782311  0.77217689  0.32608427  1.0
  O  O10  1  0.22782311  0.72782311  0.67391573  1.0
  O  O11  1  0.22782311  0.27217689  0.67391573  1.0
  O  O12  1  0.77217689  0.72782311  0.67391573  1.0
  O  O13  1  0.77217689  0.27217689  0.67391573  1.0
  O  O14  1  0.27217689  0.22782311  0.32608427  1.0
  O  O15  1  0.27217689  0.77217689  0.32608427  1.0
  O  O16  1  0.50000000  0.00000000  0.03487051  1.0
  O  O17  1  0.00000000  0.50000000  0.96512949  1.0
