# generated using pymatgen
data_CsReP3H5O12
_symmetry_space_group_name_H-M   'P 1'
_cell_length_a   8.93183898
_cell_length_b   8.87304847
_cell_length_c   9.38595865
_cell_angle_alpha   72.00342917
_cell_angle_beta   57.27901328
_cell_angle_gamma   76.90350824
_symmetry_Int_Tables_number   1
_chemical_formula_structural   CsReP3H5O12
_chemical_formula_sum   'Cs2 Re2 P6 H10 O24'
_cell_volume   593.54985777
_cell_formula_units_Z   2
loop_
 _symmetry_equiv_pos_site_id
 _symmetry_equiv_pos_as_xyz
  1  'x, y, z'
loop_
 _atom_site_type_symbol
 _atom_site_label
 _atom_site_symmetry_multiplicity
 _atom_site_fract_x
 _atom_site_fract_y
 _atom_site_fract_z
 _atom_site_occupancy
  Cs  Cs0  1  0.17747241  0.33662275  -0.74582610  1.0
  Cs  Cs1  1  -0.17747241  0.66337725  -0.25417390  1.0
  Re  Re2  1  -0.40001414  0.44239024  -0.46231718  1.0
  Re  Re3  1  0.40001414  0.55760976  -0.53768282  1.0
  P  P4  1  0.19030680  0.86052740  -0.73714182  1.0
  P  P5  1  -0.19030680  0.13947260  -0.26285818  1.0
  P  P6  1  -0.26311408  0.75703358  -0.73750796  1.0
  P  P7  1  0.26311408  0.24296642  -0.26249204  1.0
  P  P8  1  -0.66611974  0.67356142  -0.22744605  1.0
  P  P9  1  0.66611974  0.32643858  -0.77255395  1.0
  H  H10  1  -0.08325314  0.93321609  -0.69946602  1.0
  H  H11  1  0.08325314  0.06678391  -0.30053398  1.0
  H  H12  1  0.40736661  0.91465186  -0.72873760  1.0
  H  H13  1  -0.40736661  0.08534814  -0.27126240  1.0
  H  H14  1  -0.64396011  0.93150314  -0.29294870  1.0
  H  H15  1  0.64396011  0.06849686  -0.70705130  1.0
  H  H16  1  0.23307796  0.78364933  -0.96437143  1.0
  H  H17  1  -0.23307796  0.21635067  -0.03562857  1.0
  H  H18  1  0.98680011  0.69762569  -0.96931501  1.0
  H  H19  1  0.01319989  0.30237431  -0.03068499  1.0
  O  O20  1  0.30361388  0.97593993  -0.73930301  1.0
  O  O21  1  -0.30361388  0.02406007  -0.26069699  1.0
  O  O22  1  -0.00023076  0.95058412  -0.66239413  1.0
  O  O23  1  0.00023076  0.04941588  -0.33760587  1.0
  O  O24  1  -0.21795183  0.91555856  -0.74486877  1.0
  O  O25  1  0.21795183  0.08444144  -0.25513123  1.0
  O  O26  1  0.27138958  0.86346689  -0.93374062  1.0
  O  O27  1  -0.27138958  0.13653311  -0.06625938  1.0
  O  O28  1  -0.56278723  0.82975933  -0.31340597  1.0
  O  O29  1  0.56278723  0.17024067  -0.68659403  1.0
  O  O30  1  0.53768500  0.75946485  -0.68861217  1.0
  O  O31  1  -0.53768500  0.24053515  -0.31138783  1.0
  O  O32  1  0.85201640  0.70973517  -0.91976038  1.0
  O  O33  1  -0.85201640  0.29026483  -0.08023962  1.0
  O  O34  1  0.19305829  0.69404297  -0.62709085  1.0
  O  O35  1  -0.19305829  0.30595703  -0.37290915  1.0
  O  O36  1  -0.80798257  0.67021394  -0.03619110  1.0
  O  O37  1  0.80798257  0.32978606  -0.96380890  1.0
  O  O38  1  -0.23465977  0.62003799  -0.59794404  1.0
  O  O39  1  0.23465977  0.37996201  -0.40205596  1.0
  O  O40  1  -0.51788460  0.53323771  -0.24702804  1.0
  O  O41  1  0.51788460  0.46676229  -0.75297196  1.0
  O  O42  1  -0.24879673  0.33638508  -0.66678500  1.0
  O  O43  1  0.24879673  0.66361492  -0.33321500  1.0
