# generated using pymatgen
data_Ce2WC2
_symmetry_space_group_name_H-M   'P 1'
_cell_length_a   5.66723094
_cell_length_b   5.66723094
_cell_length_c   10.42847290
_cell_angle_alpha   90.00000000
_cell_angle_beta   90.00000000
_cell_angle_gamma   90.00000000
_symmetry_Int_Tables_number   1
_chemical_formula_structural   Ce2WC2
_chemical_formula_sum   'Ce8 W4 C8'
_cell_volume   334.93654633
_cell_formula_units_Z   4
loop_
 _symmetry_equiv_pos_site_id
 _symmetry_equiv_pos_as_xyz
  1  'x, y, z'
loop_
 _atom_site_type_symbol
 _atom_site_label
 _atom_site_symmetry_multiplicity
 _atom_site_fract_x
 _atom_site_fract_y
 _atom_site_fract_z
 _atom_site_occupancy
  Ce  Ce0  1  0.31580690  0.68419310  0.15574544  1.0
  Ce  Ce1  1  0.31580690  0.68419310  0.84425456  1.0
  Ce  Ce2  1  0.81580690  0.81580690  0.65574544  1.0
  Ce  Ce3  1  0.81580690  0.81580690  0.34425456  1.0
  Ce  Ce4  1  0.68419310  0.31580690  0.15574544  1.0
  Ce  Ce5  1  0.68419310  0.31580690  0.84425456  1.0
  Ce  Ce6  1  0.18419310  0.18419310  0.65574544  1.0
  Ce  Ce7  1  0.18419310  0.18419310  0.34425456  1.0
  W  W8  1  0.32043194  0.67956806  0.50000000  1.0
  W  W9  1  0.82043194  0.82043194  0.00000000  1.0
  W  W10  1  0.67956806  0.32043194  0.50000000  1.0
  W  W11  1  0.17956806  0.17956806  0.00000000  1.0
  C  C12  1  0.50000000  0.50000000  0.35512862  1.0
  C  C13  1  0.50000000  0.50000000  0.64487138  1.0
  C  C14  1  0.00000000  0.00000000  0.85512862  1.0
  C  C15  1  0.00000000  0.00000000  0.14487138  1.0
  C  C16  1  0.50000000  0.00000000  0.50000000  1.0
  C  C17  1  0.00000000  0.50000000  -0.00000000  1.0
  C  C18  1  0.00000000  0.50000000  0.50000000  1.0
  C  C19  1  0.50000000  0.00000000  -0.00000000  1.0
