# generated using pymatgen
data_Na3MnO4
_symmetry_space_group_name_H-M   'P 1'
_cell_length_a   12.32155295
_cell_length_b   7.10159931
_cell_length_c   5.64027136
_cell_angle_alpha   90.00000000
_cell_angle_beta   90.00000000
_cell_angle_gamma   90.00000000
_symmetry_Int_Tables_number   1
_chemical_formula_structural   Na3MnO4
_chemical_formula_sum   'Na12 Mn4 O16'
_cell_volume   493.53915261
_cell_formula_units_Z   4
loop_
 _symmetry_equiv_pos_site_id
 _symmetry_equiv_pos_as_xyz
  1  'x, y, z'
loop_
 _atom_site_type_symbol
 _atom_site_label
 _atom_site_symmetry_multiplicity
 _atom_site_fract_x
 _atom_site_fract_y
 _atom_site_fract_z
 _atom_site_occupancy
  Na  Na0  1  0.66264193  1.00332101  0.28430261  1.0
  Na  Na1  1  0.66264193  0.49667899  0.28430261  1.0
  Na  Na2  1  0.16264193  1.00332101  0.21569739  1.0
  Na  Na3  1  0.16264193  0.49667899  0.21569739  1.0
  Na  Na4  1  0.33735807  0.50332101  0.71569739  1.0
  Na  Na5  1  0.33735807  -0.00332101  0.71569739  1.0
  Na  Na6  1  0.83735807  0.50332101  0.78430261  1.0
  Na  Na7  1  0.83735807  -0.00332101  0.78430261  1.0
  Na  Na8  1  0.57130545  0.25000000  0.72268556  1.0
  Na  Na9  1  0.07130545  0.25000000  0.77731444  1.0
  Na  Na10  1  0.42869455  0.75000000  0.27731444  1.0
  Na  Na11  1  0.92869455  0.75000000  0.22268556  1.0
  Mn  Mn12  1  0.90927534  0.25000000  0.29353074  1.0
  Mn  Mn13  1  0.40927534  0.25000000  0.20646926  1.0
  Mn  Mn14  1  0.09072466  0.75000000  0.70646926  1.0
  Mn  Mn15  1  0.59072466  0.75000000  0.79353074  1.0
  O  O16  1  0.84395843  0.44830418  0.19651043  1.0
  O  O17  1  0.84395843  0.05169582  0.19651043  1.0
  O  O18  1  0.34395843  0.44830418  0.30348957  1.0
  O  O19  1  0.34395843  0.05169582  0.30348957  1.0
  O  O20  1  0.15604157  0.94830418  0.80348957  1.0
  O  O21  1  0.15604157  0.55169582  0.80348957  1.0
  O  O22  1  0.65604157  0.94830418  0.69651043  1.0
  O  O23  1  0.65604157  0.55169582  0.69651043  1.0
  O  O24  1  0.90651948  0.25000000  0.59566243  1.0
  O  O25  1  0.40651948  0.25000000  0.90433757  1.0
  O  O26  1  0.09348052  0.75000000  0.40433757  1.0
  O  O27  1  0.59348052  0.75000000  0.09566243  1.0
  O  O28  1  0.54087519  0.25000000  0.30059133  1.0
  O  O29  1  0.04087519  0.25000000  0.19940867  1.0
  O  O30  1  0.45912481  0.75000000  0.69940867  1.0
  O  O31  1  0.95912481  0.75000000  0.80059133  1.0
