# generated using pymatgen
data_AsS2
_symmetry_space_group_name_H-M   'P 1'
_cell_length_a   7.43250611
_cell_length_b   10.57513166
_cell_length_c   8.18957958
_cell_angle_alpha   90.00000000
_cell_angle_beta   106.57402355
_cell_angle_gamma   90.00000000
_symmetry_Int_Tables_number   1
_chemical_formula_structural   AsS2
_chemical_formula_sum   'As8 S16'
_cell_volume   616.95435378
_cell_formula_units_Z   8
loop_
 _symmetry_equiv_pos_site_id
 _symmetry_equiv_pos_as_xyz
  1  'x, y, z'
loop_
 _atom_site_type_symbol
 _atom_site_label
 _atom_site_symmetry_multiplicity
 _atom_site_fract_x
 _atom_site_fract_y
 _atom_site_fract_z
 _atom_site_occupancy
  As  As0  1  0.90374077  0.20615273  0.96713716  1.0
  As  As1  1  0.09625923  0.70615273  0.03286284  1.0
  As  As2  1  0.77073226  0.21315074  0.43983301  1.0
  As  As3  1  0.22926774  0.71315074  0.56016699  1.0
  As  As4  1  0.60308209  0.00773904  0.65605001  1.0
  As  As5  1  0.39691791  0.50773904  0.34394999  1.0
  As  As6  1  0.53368830  0.51797621  0.87485743  1.0
  As  As7  1  0.46631170  1.01797621  0.12514257  1.0
  S  S8  1  0.90136465  0.67908309  0.75307409  1.0
  S  S9  1  0.09863535  0.17908309  0.24692591  1.0
  S  S10  1  0.79933540  0.00004156  0.47721164  1.0
  S  S11  1  0.20066460  0.50004156  0.52278836  1.0
  S  S12  1  0.81292033  0.00153230  0.92846547  1.0
  S  S13  1  0.18707967  0.50153230  0.07153453  1.0
  S  S14  1  0.76496626  0.50802679  0.72820666  1.0
  S  S15  1  0.23503374  0.00802679  0.27179334  1.0
  S  S16  1  0.56851900  0.22126450  0.61411680  1.0
  S  S17  1  0.43148100  0.72126450  0.38588320  1.0
  S  S18  1  0.44446352  0.72233115  0.83217418  1.0
  S  S19  1  0.55553648  0.22233115  0.16782582  1.0
  S  S20  1  0.26914585  0.04440893  0.84746122  1.0
  S  S21  1  0.73085415  0.54440893  0.15253878  1.0
  S  S22  1  0.13211653  0.21529295  0.82037940  1.0
  S  S23  1  0.86788347  0.71529295  0.17962060  1.0
