# generated using pymatgen
data_GdZnPO
_symmetry_space_group_name_H-M   'P 1'
_cell_length_a   10.47344821
_cell_length_b   10.47344821
_cell_length_c   10.47344821
_cell_angle_alpha   21.64748633
_cell_angle_beta   21.64748633
_cell_angle_gamma   21.64748633
_symmetry_Int_Tables_number   1
_chemical_formula_structural   GdZnPO
_chemical_formula_sum   'Gd2 Zn2 P2 O2'
_cell_volume   137.00583399
_cell_formula_units_Z   2
loop_
 _symmetry_equiv_pos_site_id
 _symmetry_equiv_pos_as_xyz
  1  'x, y, z'
loop_
 _atom_site_type_symbol
 _atom_site_label
 _atom_site_symmetry_multiplicity
 _atom_site_fract_x
 _atom_site_fract_y
 _atom_site_fract_z
 _atom_site_occupancy
  Gd  Gd0  1  1.61951690  0.61951690  0.61951690  1.0
  Gd  Gd1  1  1.38048310  0.38048310  0.38048310  1.0
  Zn  Zn2  1  0.80369645  0.80369645  0.80369645  1.0
  Zn  Zn3  1  1.19630355  1.19630355  0.19630355  1.0
  P  P4  1  0.88732285  0.88732285  0.88732285  1.0
  P  P5  1  1.11267715  1.11267715  0.11267715  1.0
  O  O6  1  0.69477248  0.69477248  0.69477248  1.0
  O  O7  1  1.30522752  1.30522752  0.30522752  1.0
