# generated using pymatgen
data_LuTc2
_symmetry_space_group_name_H-M   'P 1'
_cell_length_a   5.31635560
_cell_length_b   5.31635560
_cell_length_c   8.77243297
_cell_angle_alpha   90.00000000
_cell_angle_beta   90.00000000
_cell_angle_gamma   120.00000000
_symmetry_Int_Tables_number   1
_chemical_formula_structural   LuTc2
_chemical_formula_sum   'Lu4 Tc8'
_cell_volume   214.72308365
_cell_formula_units_Z   4
loop_
 _symmetry_equiv_pos_site_id
 _symmetry_equiv_pos_as_xyz
  1  'x, y, z'
loop_
 _atom_site_type_symbol
 _atom_site_label
 _atom_site_symmetry_multiplicity
 _atom_site_fract_x
 _atom_site_fract_y
 _atom_site_fract_z
 _atom_site_occupancy
  Lu  Lu0  1  0.33333333  0.66666667  0.93718368  1.0
  Lu  Lu1  1  0.33333333  0.66666667  0.56281632  1.0
  Lu  Lu2  1  0.66666667  0.33333333  0.43718368  1.0
  Lu  Lu3  1  0.66666667  0.33333333  0.06281632  1.0
  Tc  Tc4  1  0.17167178  0.82832822  0.25000000  1.0
  Tc  Tc5  1  0.17167178  0.34334356  0.25000000  1.0
  Tc  Tc6  1  0.82832822  0.17167178  0.75000000  1.0
  Tc  Tc7  1  0.82832822  0.65665644  0.75000000  1.0
  Tc  Tc8  1  0.65665644  0.82832822  0.25000000  1.0
  Tc  Tc9  1  0.34334356  0.17167178  0.75000000  1.0
  Tc  Tc10  1  0.00000000  0.00000000  0.50000000  1.0
  Tc  Tc11  1  0.00000000  0.00000000  0.00000000  1.0
