# generated using pymatgen
data_Nb2Tl5S4Br9
_symmetry_space_group_name_H-M   'P 1'
_cell_length_a   10.34832153
_cell_length_b   10.34832153
_cell_length_c   10.34832153
_cell_angle_alpha   137.98965434
_cell_angle_beta   119.93754949
_cell_angle_gamma   75.99067823
_symmetry_Int_Tables_number   1
_chemical_formula_structural   Nb2Tl5S4Br9
_chemical_formula_sum   'Nb2 Tl5 S4 Br9'
_cell_volume   626.67224928
_cell_formula_units_Z   1
loop_
 _symmetry_equiv_pos_site_id
 _symmetry_equiv_pos_as_xyz
  1  'x, y, z'
loop_
 _atom_site_type_symbol
 _atom_site_label
 _atom_site_symmetry_multiplicity
 _atom_site_fract_x
 _atom_site_fract_y
 _atom_site_fract_z
 _atom_site_occupancy
  Nb  Nb0  1  0.58882294  0.58882294  1.00000000  1.0
  Nb  Nb1  1  0.41117706  0.41117706  0.00000000  1.0
  Tl  Tl2  1  0.61840008  0.83207754  0.78632254  1.0
  Tl  Tl3  1  0.95424500  0.16792246  0.78632254  1.0
  Tl  Tl4  1  1.04575500  0.83207754  1.21367746  1.0
  Tl  Tl5  1  0.38159992  0.16792246  0.21367746  1.0
  Tl  Tl6  1  0.00000000  0.50000000  0.50000000  1.0
  S  S7  1  0.59780370  0.73901649  1.33682019  1.0
  S  S8  1  0.40219630  0.73901649  1.14121279  1.0
  S  S9  1  0.59780370  0.26098351  0.85878721  1.0
  S  S10  1  0.40219630  0.26098351  0.66317981  1.0
  Br  Br11  1  0.71150334  0.46542063  0.75391728  1.0
  Br  Br12  1  0.28849666  1.04241394  0.75391728  1.0
  Br  Br13  1  0.71150334  0.95758606  1.24608272  1.0
  Br  Br14  1  0.28849666  0.53457937  0.24608272  1.0
  Br  Br15  1  0.37156884  0.63321002  0.73835882  1.0
  Br  Br16  1  1.10514880  0.36678998  0.73835882  1.0
  Br  Br17  1  0.89485120  0.63321002  1.26164118  1.0
  Br  Br18  1  0.62843116  0.36678998  0.26164118  1.0
  Br  Br19  1  0.00000000  0.00000000  0.00000000  1.0
