# generated using pymatgen
data_Rb3V5O14
_symmetry_space_group_name_H-M   'P 1'
_cell_length_a   8.72717670
_cell_length_b   8.72717670
_cell_length_c   5.65212161
_cell_angle_alpha   90.00000000
_cell_angle_beta   90.00000000
_cell_angle_gamma   120.00000000
_symmetry_Int_Tables_number   1
_chemical_formula_structural   Rb3V5O14
_chemical_formula_sum   'Rb3 V5 O14'
_cell_volume   372.81181504
_cell_formula_units_Z   1
loop_
 _symmetry_equiv_pos_site_id
 _symmetry_equiv_pos_as_xyz
  1  'x, y, z'
loop_
 _atom_site_type_symbol
 _atom_site_label
 _atom_site_symmetry_multiplicity
 _atom_site_fract_x
 _atom_site_fract_y
 _atom_site_fract_z
 _atom_site_occupancy
  Rb  Rb0  1  0.38553020  0.38553020  0.77545601  1.0
  Rb  Rb1  1  0.00000000  0.61446980  0.77545601  1.0
  Rb  Rb2  1  0.61446980  0.00000000  0.77545601  1.0
  V  V3  1  0.77102908  0.77102908  0.29098578  1.0
  V  V4  1  -0.00000000  0.22897092  0.29098578  1.0
  V  V5  1  0.22897092  -0.00000000  0.29098578  1.0
  V  V6  1  0.33333333  0.66666667  0.30159311  1.0
  V  V7  1  0.66666667  0.33333333  0.30159311  1.0
  O  O8  1  0.29165901  0.83059148  0.40900034  1.0
  O  O9  1  0.83059148  0.29165901  0.40900034  1.0
  O  O10  1  0.53893247  0.70834099  0.40900034  1.0
  O  O11  1  0.16940852  0.46106753  0.40900034  1.0
  O  O12  1  0.70834099  0.53893247  0.40900034  1.0
  O  O13  1  0.46106753  0.16940852  0.40900034  1.0
  O  O14  1  0.75133510  0.75133510  1.00746419  1.0
  O  O15  1  -0.00000000  0.24866490  1.00746419  1.0
  O  O16  1  0.24866490  -0.00000000  1.00746419  1.0
  O  O17  1  0.16634053  0.16634053  0.35427152  1.0
  O  O18  1  -0.00000000  0.83365947  0.35427152  1.0
  O  O19  1  0.83365947  -0.00000000  0.35427152  1.0
  O  O20  1  0.33333333  0.66666667  0.01138961  1.0
  O  O21  1  0.66666667  0.33333333  0.01138961  1.0
