# generated using pymatgen
data_Nb5Pt3O
_symmetry_space_group_name_H-M   'P 1'
_cell_length_a   8.02928643
_cell_length_b   8.02928643
_cell_length_c   5.05382894
_cell_angle_alpha   90.00000000
_cell_angle_beta   90.00000000
_cell_angle_gamma   120.00000000
_symmetry_Int_Tables_number   1
_chemical_formula_structural   Nb5Pt3O
_chemical_formula_sum   'Nb10 Pt6 O2'
_cell_volume   282.16625348
_cell_formula_units_Z   2
loop_
 _symmetry_equiv_pos_site_id
 _symmetry_equiv_pos_as_xyz
  1  'x, y, z'
loop_
 _atom_site_type_symbol
 _atom_site_label
 _atom_site_symmetry_multiplicity
 _atom_site_fract_x
 _atom_site_fract_y
 _atom_site_fract_z
 _atom_site_occupancy
  Nb  Nb0  1  0.76327966  0.76327966  0.25000000  1.0
  Nb  Nb1  1  0.76327966  0.00000000  0.75000000  1.0
  Nb  Nb2  1  -0.00000000  0.76327966  0.75000000  1.0
  Nb  Nb3  1  0.00000000  0.23672034  0.25000000  1.0
  Nb  Nb4  1  0.23672034  0.23672034  0.75000000  1.0
  Nb  Nb5  1  0.23672034  0.00000000  0.25000000  1.0
  Nb  Nb6  1  0.33333333  0.66666667  0.50000000  1.0
  Nb  Nb7  1  0.33333333  0.66666667  0.00000000  1.0
  Nb  Nb8  1  0.66666667  0.33333333  0.50000000  1.0
  Nb  Nb9  1  0.66666667  0.33333333  0.00000000  1.0
  Pt  Pt10  1  0.40455007  0.40455007  0.25000000  1.0
  Pt  Pt11  1  0.40455007  0.00000000  0.75000000  1.0
  Pt  Pt12  1  -0.00000000  0.40455007  0.75000000  1.0
  Pt  Pt13  1  -0.00000000  0.59544993  0.25000000  1.0
  Pt  Pt14  1  0.59544993  0.59544993  0.75000000  1.0
  Pt  Pt15  1  0.59544993  0.00000000  0.25000000  1.0
  O  O16  1  0.00000000  0.00000000  0.50000000  1.0
  O  O17  1  0.00000000  0.00000000  0.00000000  1.0
