# generated using pymatgen
data_Li2Sn(H5O4)2
_symmetry_space_group_name_H-M   'P 1'
_cell_length_a   6.13559716
_cell_length_b   10.42849186
_cell_length_c   6.06739075
_cell_angle_alpha   90.00000000
_cell_angle_beta   117.87766589
_cell_angle_gamma   90.00000000
_symmetry_Int_Tables_number   1
_chemical_formula_structural   Li2Sn(H5O4)2
_chemical_formula_sum   'Li4 Sn2 H20 O16'
_cell_volume   343.16817812
_cell_formula_units_Z   2
loop_
 _symmetry_equiv_pos_site_id
 _symmetry_equiv_pos_as_xyz
  1  'x, y, z'
loop_
 _atom_site_type_symbol
 _atom_site_label
 _atom_site_symmetry_multiplicity
 _atom_site_fract_x
 _atom_site_fract_y
 _atom_site_fract_z
 _atom_site_occupancy
  Li  Li0  1  0.67350670  0.56665497  0.84457493  1.0
  Li  Li1  1  0.67350670  0.93334503  0.34457493  1.0
  Li  Li2  1  0.32649330  0.06665497  0.65542507  1.0
  Li  Li3  1  0.32649330  0.43334503  0.15542507  1.0
  Sn  Sn4  1  0.00000000  0.00000000  0.00000000  1.0
  Sn  Sn5  1  -0.00000000  0.50000000  0.50000000  1.0
  H  H6  1  0.93073275  0.12228966  0.61125373  1.0
  H  H7  1  0.93073275  0.37771034  0.11125373  1.0
  H  H8  1  0.06926725  0.62228966  0.88874627  1.0
  H  H9  1  0.06926725  0.87771034  0.38874627  1.0
  H  H10  1  0.84695826  0.79105175  0.71370450  1.0
  H  H11  1  0.84695826  0.70894825  0.21370450  1.0
  H  H12  1  0.15304174  0.29105175  0.78629550  1.0
  H  H13  1  0.15304174  0.20894825  0.28629550  1.0
  H  H14  1  0.52159563  0.86891409  0.69578818  1.0
  H  H15  1  0.52159563  0.63108591  0.19578818  1.0
  H  H16  1  0.47840437  0.36891409  0.80421182  1.0
  H  H17  1  0.47840437  0.13108591  0.30421182  1.0
  H  H18  1  0.35476998  0.87540848  0.84654857  1.0
  H  H19  1  0.35476998  0.62459152  0.34654857  1.0
  H  H20  1  0.64523002  0.37540848  0.65345143  1.0
  H  H21  1  0.64523002  0.12459152  0.15345143  1.0
  H  H22  1  0.30118002  0.69690721  0.62676908  1.0
  H  H23  1  0.30118002  0.80309279  0.12676908  1.0
  H  H24  1  0.69881998  0.19690721  0.87323092  1.0
  H  H25  1  0.69881998  0.30309279  0.37323092  1.0
  O  O26  1  0.34797345  0.87112619  0.67651025  1.0
  O  O27  1  0.34797345  0.62887381  0.17651025  1.0
  O  O28  1  0.65202655  0.37112619  0.82348975  1.0
  O  O29  1  0.65202655  0.12887381  0.32348975  1.0
  O  O30  1  0.32569367  0.60597086  0.59752237  1.0
  O  O31  1  0.32569367  0.89402914  0.09752237  1.0
  O  O32  1  0.67430633  0.10597086  0.90247763  1.0
  O  O33  1  0.67430633  0.39402914  0.40247763  1.0
  O  O34  1  0.91410173  0.61670186  0.73024011  1.0
  O  O35  1  0.91410173  0.88329814  0.23024011  1.0
  O  O36  1  0.08589827  0.11670186  0.76975989  1.0
  O  O37  1  0.08589827  0.38329814  0.26975989  1.0
  O  O38  1  0.78372545  0.88025547  0.69295797  1.0
  O  O39  1  0.78372545  0.61974453  0.19295797  1.0
  O  O40  1  0.21627455  0.38025547  0.80704203  1.0
  O  O41  1  0.21627455  0.11974453  0.30704203  1.0
