# generated using pymatgen
data_NbRh
_symmetry_space_group_name_H-M   'P 1'
_cell_length_a   4.88596713
_cell_length_b   2.85298497
_cell_length_c   7.04522640
_cell_angle_alpha   90.00000000
_cell_angle_beta   104.11393717
_cell_angle_gamma   90.00000000
_symmetry_Int_Tables_number   1
_chemical_formula_structural   NbRh
_chemical_formula_sum   'Nb3 Rh3'
_cell_volume   95.24295434
_cell_formula_units_Z   3
loop_
 _symmetry_equiv_pos_site_id
 _symmetry_equiv_pos_as_xyz
  1  'x, y, z'
loop_
 _atom_site_type_symbol
 _atom_site_label
 _atom_site_symmetry_multiplicity
 _atom_site_fract_x
 _atom_site_fract_y
 _atom_site_fract_z
 _atom_site_occupancy
  Nb  Nb0  1  0.00000000  0.00000000  0.00000000  1.0
  Nb  Nb1  1  0.74652525  0.00000000  0.33512975  1.0
  Nb  Nb2  1  0.25347475  0.00000000  0.66487025  1.0
  Rh  Rh3  1  0.50000000  0.50000000  0.00000000  1.0
  Rh  Rh4  1  0.25583243  0.50000000  0.33244610  1.0
  Rh  Rh5  1  0.74416757  0.50000000  0.66755390  1.0
