# generated using pymatgen
data_Bi14PdBr16
_symmetry_space_group_name_H-M   'P 1'
_cell_length_a   11.59027733
_cell_length_b   11.28350339
_cell_length_c   11.28828098
_cell_angle_alpha   67.97113831
_cell_angle_beta   61.87421897
_cell_angle_gamma   75.18631211
_symmetry_Int_Tables_number   1
_chemical_formula_structural   Bi14PdBr16
_chemical_formula_sum   'Bi14 Pd1 Br16'
_cell_volume   1201.26688150
_cell_formula_units_Z   1
loop_
 _symmetry_equiv_pos_site_id
 _symmetry_equiv_pos_as_xyz
  1  'x, y, z'
loop_
 _atom_site_type_symbol
 _atom_site_label
 _atom_site_symmetry_multiplicity
 _atom_site_fract_x
 _atom_site_fract_y
 _atom_site_fract_z
 _atom_site_occupancy
  Bi  Bi0  1  -0.38426846  0.88466584  -0.14656348  1.0
  Bi  Bi1  1  0.38426846  0.11533416  -0.85343652  1.0
  Bi  Bi2  1  0.11100899  0.84080625  -0.90268392  1.0
  Bi  Bi3  1  -0.11100899  0.15919375  -0.09731608  1.0
  Bi  Bi4  1  -0.52336504  0.75399328  -0.45407993  1.0
  Bi  Bi5  1  0.52336504  0.24600672  -0.54592007  1.0
  Bi  Bi6  1  -0.24874036  0.62789379  -0.64495240  1.0
  Bi  Bi7  1  0.24874036  0.37210621  -0.35504760  1.0
  Bi  Bi8  1  -0.37678904  0.50146645  -0.31617042  1.0
  Bi  Bi9  1  0.37678904  0.49853355  -0.68382958  1.0
  Bi  Bi10  1  -0.68710519  0.53068470  -0.21238765  1.0
  Bi  Bi11  1  0.68710519  0.46931530  -0.78761235  1.0
  Bi  Bi12  1  -0.24900329  0.33030676  -0.51896376  1.0
  Bi  Bi13  1  0.24900329  0.66969324  -0.48103624  1.0
  Pd  Pd14  1  0.50000000  0.50000000  -0.50000000  1.0
  Br  Br15  1  -0.15213942  0.96330227  -0.81027741  1.0
  Br  Br16  1  0.15213942  0.03669773  -0.18972259  1.0
  Br  Br17  1  0.16738719  0.97399962  -0.73617656  1.0
  Br  Br18  1  -0.16738719  0.02600038  -0.26382344  1.0
  Br  Br19  1  -0.35516565  0.94135813  -0.42611011  1.0
  Br  Br20  1  0.35516565  0.05864187  -0.57388989  1.0
  Br  Br21  1  0.56992081  0.87141348  -0.86453920  1.0
  Br  Br22  1  -0.56992081  0.12858652  -0.13546080  1.0
  Br  Br23  1  0.03022841  0.68961398  -0.98659320  1.0
  Br  Br24  1  -0.03022841  0.31038602  -0.01340680  1.0
  Br  Br25  1  0.04561466  0.65548796  -0.64150983  1.0
  Br  Br26  1  -0.04561466  0.34451204  -0.35849017  1.0
  Br  Br27  1  0.23880299  0.35310581  -0.86369916  1.0
  Br  Br28  1  -0.23880299  0.64689419  -0.13630084  1.0
  Br  Br29  1  0.61620427  0.27657208  -0.98427578  1.0
  Br  Br30  1  -0.61620427  0.72342792  -0.01572422  1.0
