# generated using pymatgen
data_Gd3InSe6
_symmetry_space_group_name_H-M   'P 1'
_cell_length_a   14.22185582
_cell_length_b   17.49654248
_cell_length_c   4.06568458
_cell_angle_alpha   90.00000000
_cell_angle_beta   90.00000000
_cell_angle_gamma   90.00000000
_symmetry_Int_Tables_number   1
_chemical_formula_structural   Gd3InSe6
_chemical_formula_sum   'Gd12 In4 Se24'
_cell_volume   1011.67772816
_cell_formula_units_Z   4
loop_
 _symmetry_equiv_pos_site_id
 _symmetry_equiv_pos_as_xyz
  1  'x, y, z'
loop_
 _atom_site_type_symbol
 _atom_site_label
 _atom_site_symmetry_multiplicity
 _atom_site_fract_x
 _atom_site_fract_y
 _atom_site_fract_z
 _atom_site_occupancy
  Gd  Gd0  1  0.18776886  0.64410605  0.50000000  1.0
  Gd  Gd1  1  0.68776886  0.85589395  0.00000000  1.0
  Gd  Gd2  1  0.81223114  0.35589395  0.50000000  1.0
  Gd  Gd3  1  0.31223114  0.14410605  -0.00000000  1.0
  Gd  Gd4  1  0.96141781  0.77504283  0.50000000  1.0
  Gd  Gd5  1  0.46141781  0.72495717  -0.00000000  1.0
  Gd  Gd6  1  0.03858219  0.22495717  0.50000000  1.0
  Gd  Gd7  1  0.53858219  0.27504283  0.00000000  1.0
  Gd  Gd8  1  0.74907610  0.60748715  0.50000000  1.0
  Gd  Gd9  1  0.24907610  0.89251285  0.00000000  1.0
  Gd  Gd10  1  0.25092390  0.39251285  0.50000000  1.0
  Gd  Gd11  1  0.75092390  0.10748715  -0.00000000  1.0
  In  In12  1  0.50000000  0.00000000  0.50000000  1.0
  In  In13  1  0.00000000  0.50000000  0.00000000  1.0
  In  In14  1  0.50000000  0.50000000  0.50000000  1.0
  In  In15  1  0.00000000  0.00000000  -0.00000000  1.0
  Se  Se16  1  0.38667250  0.24623759  0.50000000  1.0
  Se  Se17  1  0.88667250  0.25376241  -0.00000000  1.0
  Se  Se18  1  0.61332750  0.75376241  0.50000000  1.0
  Se  Se19  1  0.11332750  0.74623759  -0.00000000  1.0
  Se  Se20  1  0.38884986  0.61839059  0.50000000  1.0
  Se  Se21  1  0.88884986  0.88160941  -0.00000000  1.0
  Se  Se22  1  0.61115014  0.38160941  0.50000000  1.0
  Se  Se23  1  0.11115014  0.11839059  0.00000000  1.0
  Se  Se24  1  0.30660910  0.01965532  0.50000000  1.0
  Se  Se25  1  0.80660910  0.48034468  0.00000000  1.0
  Se  Se26  1  0.69339090  0.98034468  0.50000000  1.0
  Se  Se27  1  0.19339090  0.51965532  -0.00000000  1.0
  Se  Se28  1  0.31837992  0.78524003  0.50000000  1.0
  Se  Se29  1  0.81837992  0.71475997  0.00000000  1.0
  Se  Se30  1  0.68162008  0.21475997  0.50000000  1.0
  Se  Se31  1  0.18162008  0.28524003  0.00000000  1.0
  Se  Se32  1  0.09647047  0.91130171  0.50000000  1.0
  Se  Se33  1  0.59647047  0.58869829  0.00000000  1.0
  Se  Se34  1  0.90352953  0.08869829  0.50000000  1.0
  Se  Se35  1  0.40352953  0.41130171  0.00000000  1.0
  Se  Se36  1  0.97819036  0.60479765  0.50000000  1.0
  Se  Se37  1  0.47819036  0.89520235  0.00000000  1.0
  Se  Se38  1  0.02180964  0.39520235  0.50000000  1.0
  Se  Se39  1  0.52180964  0.10479765  0.00000000  1.0
