# generated using pymatgen
data_NaGa(WO4)2
_symmetry_space_group_name_H-M   'P 1'
_cell_length_a   9.97702606
_cell_length_b   5.81940572
_cell_length_c   4.98424810
_cell_angle_alpha   90.00000000
_cell_angle_beta   90.30543341
_cell_angle_gamma   90.00000000
_symmetry_Int_Tables_number   1
_chemical_formula_structural   NaGa(WO4)2
_chemical_formula_sum   'Na2 Ga2 W4 O16'
_cell_volume   289.38314003
_cell_formula_units_Z   2
loop_
 _symmetry_equiv_pos_site_id
 _symmetry_equiv_pos_as_xyz
  1  'x, y, z'
loop_
 _atom_site_type_symbol
 _atom_site_label
 _atom_site_symmetry_multiplicity
 _atom_site_fract_x
 _atom_site_fract_y
 _atom_site_fract_z
 _atom_site_occupancy
  Na  Na0  1  0.50000000  0.69377934  0.25000000  1.0
  Na  Na1  1  0.50000000  0.30622066  0.75000000  1.0
  Ga  Ga2  1  0.00000000  0.66718239  0.25000000  1.0
  Ga  Ga3  1  0.00000000  0.33281761  0.75000000  1.0
  W  W4  1  0.76630815  0.81707820  0.74276113  1.0
  W  W5  1  0.76630815  0.18292180  0.24276113  1.0
  W  W6  1  0.23369185  0.81707820  0.75723887  1.0
  W  W7  1  0.23369185  0.18292180  0.25723887  1.0
  O  O8  1  0.89279326  0.37839389  0.41189387  1.0
  O  O9  1  0.89279326  0.62160611  0.91189387  1.0
  O  O10  1  0.10720674  0.37839389  0.08810613  1.0
  O  O11  1  0.10720674  0.62160611  0.58810613  1.0
  O  O12  1  0.87691020  0.87549777  0.42462566  1.0
  O  O13  1  0.87691020  0.12450223  0.92462566  1.0
  O  O14  1  0.12308980  0.87549777  0.07537434  1.0
  O  O15  1  0.12308980  0.12450223  0.57537434  1.0
  O  O16  1  0.67345178  0.91243548  0.04971969  1.0
  O  O17  1  0.67345178  0.08756452  0.54971969  1.0
  O  O18  1  0.32654822  0.91243548  0.45028031  1.0
  O  O19  1  0.32654822  0.08756452  0.95028031  1.0
  O  O20  1  0.64753845  0.37744763  0.12215643  1.0
  O  O21  1  0.64753845  0.62255237  0.62215643  1.0
  O  O22  1  0.35246155  0.37744763  0.37784357  1.0
  O  O23  1  0.35246155  0.62255237  0.87784357  1.0
