# generated using pymatgen
data_Cu2H6Pt(C3N4)2
_symmetry_space_group_name_H-M   'P 1'
_cell_length_a   7.76168552
_cell_length_b   7.76168552
_cell_length_c   6.88407171
_cell_angle_alpha   90.00000000
_cell_angle_beta   90.00000000
_cell_angle_gamma   120.00000000
_symmetry_Int_Tables_number   1
_chemical_formula_structural   Cu2H6Pt(C3N4)2
_chemical_formula_sum   'Cu2 H6 Pt1 C6 N8'
_cell_volume   359.16011524
_cell_formula_units_Z   1
loop_
 _symmetry_equiv_pos_site_id
 _symmetry_equiv_pos_as_xyz
  1  'x, y, z'
loop_
 _atom_site_type_symbol
 _atom_site_label
 _atom_site_symmetry_multiplicity
 _atom_site_fract_x
 _atom_site_fract_y
 _atom_site_fract_z
 _atom_site_occupancy
  Cu  Cu0  1  0.33333333  0.66666667  0.64721075  1.0
  Cu  Cu1  1  0.66666667  0.33333333  0.35278925  1.0
  H  H2  1  0.19214409  0.59607204  0.28774792  1.0
  H  H3  1  0.59607204  0.19214409  0.71225208  1.0
  H  H4  1  0.59607204  0.40392796  0.71225208  1.0
  H  H5  1  0.40392796  0.59607204  0.28774792  1.0
  H  H6  1  0.40392796  0.80785591  0.28774792  1.0
  H  H7  1  0.80785591  0.40392796  0.71225208  1.0
  Pt  Pt8  1  -0.00000000  -0.00000000  -0.00000000  1.0
  C  C9  1  0.24749330  0.12374665  0.16639443  1.0
  C  C10  1  0.12374665  0.24749330  0.83360557  1.0
  C  C11  1  0.12374665  0.87625335  0.83360557  1.0
  C  C12  1  0.87625335  0.12374665  0.16639443  1.0
  C  C13  1  0.87625335  0.75250670  0.16639443  1.0
  C  C14  1  0.75250670  0.87625335  0.83360557  1.0
  N  N15  1  0.39614836  0.19807418  0.25381201  1.0
  N  N16  1  0.19807418  0.39614836  0.74618799  1.0
  N  N17  1  0.19807418  0.80192582  0.74618799  1.0
  N  N18  1  0.80192582  0.19807418  0.25381201  1.0
  N  N19  1  0.80192582  0.60385164  0.25381201  1.0
  N  N20  1  0.60385164  0.80192582  0.74618799  1.0
  N  N21  1  0.33333333  0.66666667  0.34278188  1.0
  N  N22  1  0.66666667  0.33333333  0.65721812  1.0
