# generated using pymatgen
data_Nb3InS4
_symmetry_space_group_name_H-M   'P 1'
_cell_length_a   8.88045305
_cell_length_b   8.88045305
_cell_length_c   4.49742496
_cell_angle_alpha   90.00000000
_cell_angle_beta   90.00000000
_cell_angle_gamma   120.00000000
_symmetry_Int_Tables_number   1
_chemical_formula_structural   Nb3InS4
_chemical_formula_sum   'Nb6 In2 S8'
_cell_volume   307.16010179
_cell_formula_units_Z   2
loop_
 _symmetry_equiv_pos_site_id
 _symmetry_equiv_pos_as_xyz
  1  'x, y, z'
loop_
 _atom_site_type_symbol
 _atom_site_label
 _atom_site_symmetry_multiplicity
 _atom_site_fract_x
 _atom_site_fract_y
 _atom_site_fract_z
 _atom_site_occupancy
  Nb  Nb0  1  0.35263968  0.86192404  0.25000000  1.0
  Nb  Nb1  1  0.86192404  0.50928437  0.75000000  1.0
  Nb  Nb2  1  0.50928437  0.64736032  0.25000000  1.0
  Nb  Nb3  1  0.13807596  0.49071563  0.25000000  1.0
  Nb  Nb4  1  0.64736032  0.13807596  0.75000000  1.0
  Nb  Nb5  1  0.49071563  0.35263968  0.75000000  1.0
  In  In6  1  -0.00000000  -0.00000000  0.25000000  1.0
  In  In7  1  0.00000000  0.00000000  0.75000000  1.0
  S  S8  1  0.01480338  0.68560808  0.25000000  1.0
  S  S9  1  0.68560808  0.67080469  0.75000000  1.0
  S  S10  1  0.67080469  0.98519662  0.25000000  1.0
  S  S11  1  0.31439192  0.32919531  0.25000000  1.0
  S  S12  1  0.98519662  0.31439192  0.75000000  1.0
  S  S13  1  0.32919531  0.01480338  0.75000000  1.0
  S  S14  1  0.66666667  0.33333333  0.25000000  1.0
  S  S15  1  0.33333333  0.66666667  0.75000000  1.0
