# generated using pymatgen
data_ZnS
_symmetry_space_group_name_H-M   'P 1'
_cell_length_a   9.71030567
_cell_length_b   9.71030567
_cell_length_c   9.71030567
_cell_angle_alpha   22.85279424
_cell_angle_beta   22.85279424
_cell_angle_gamma   22.85279424
_symmetry_Int_Tables_number   1
_chemical_formula_structural   ZnS
_chemical_formula_sum   'Zn3 S3'
_cell_volume   121.17866854
_cell_formula_units_Z   3
loop_
 _symmetry_equiv_pos_site_id
 _symmetry_equiv_pos_as_xyz
  1  'x, y, z'
loop_
 _atom_site_type_symbol
 _atom_site_label
 _atom_site_symmetry_multiplicity
 _atom_site_fract_x
 _atom_site_fract_y
 _atom_site_fract_z
 _atom_site_occupancy
  Zn  Zn0  1  0.69449775  -0.30550225  -0.30550225  1.0
  Zn  Zn1  1  0.91677266  -0.08322734  -0.08322734  1.0
  Zn  Zn2  1  0.47220678  0.47220678  -0.52779322  1.0
  S  S3  1  0.00007135  0.00007135  0.00007135  1.0
  S  S4  1  0.77763752  -0.22236248  -0.22236248  1.0
  S  S5  1  0.55551393  0.55551393  -0.44448607  1.0
