# generated using pymatgen
data_C4S(Cl2O)2
_symmetry_space_group_name_H-M   'P 1'
_cell_length_a   10.57740108
_cell_length_b   10.57740108
_cell_length_c   13.62745733
_cell_angle_alpha   95.01189766
_cell_angle_beta   84.98810234
_cell_angle_gamma   134.24797924
_symmetry_Int_Tables_number   1
_chemical_formula_structural   C4S(Cl2O)2
_chemical_formula_sum   'C16 S4 Cl16 O8'
_cell_volume   1087.23305087
_cell_formula_units_Z   4
loop_
 _symmetry_equiv_pos_site_id
 _symmetry_equiv_pos_as_xyz
  1  'x, y, z'
loop_
 _atom_site_type_symbol
 _atom_site_label
 _atom_site_symmetry_multiplicity
 _atom_site_fract_x
 _atom_site_fract_y
 _atom_site_fract_z
 _atom_site_occupancy
  C  C0  1  0.72129520  0.06360418  0.61742025  1.0
  C  C1  1  1.06360418  0.72129520  0.88257975  1.0
  C  C2  1  0.27870480  -0.06360418  0.38257975  1.0
  C  C3  1  0.93639582  0.27870480  0.11742025  1.0
  C  C4  1  0.85346235  0.14606643  0.54791625  1.0
  C  C5  1  0.14606643  -0.14653765  0.95208375  1.0
  C  C6  1  1.14653765  0.85393357  0.45208375  1.0
  C  C7  1  0.85393357  0.14653765  0.04791625  1.0
  C  C8  1  0.82508087  0.02717998  0.46594639  1.0
  C  C9  1  1.02717998  0.82508087  0.03405361  1.0
  C  C10  1  0.17491913  -0.02717998  0.53405361  1.0
  C  C11  1  0.97282002  0.17491913  0.96594639  1.0
  C  C12  1  0.67149882  -0.14366929  0.47375206  1.0
  C  C13  1  0.85633071  0.67149882  0.02624794  1.0
  C  C14  1  0.32850118  0.14366929  0.52624794  1.0
  C  C15  1  1.14366929  0.32850118  0.97375206  1.0
  S  S16  1  0.55355421  -0.16890993  0.58629820  1.0
  S  S17  1  0.83109007  0.55355421  0.91370180  1.0
  S  S18  1  0.44644579  0.16890993  0.41370180  1.0
  S  S19  1  1.16890993  0.44644579  0.08629820  1.0
  Cl  Cl20  1  0.69679602  0.14603624  0.72062599  1.0
  Cl  Cl21  1  1.14603624  0.69679602  0.77937401  1.0
  Cl  Cl22  1  0.30320398  -0.14603624  0.27937401  1.0
  Cl  Cl23  1  0.85396376  0.30320398  0.22062599  1.0
  Cl  Cl24  1  1.03859547  0.36603283  0.55052888  1.0
  Cl  Cl25  1  0.36603283  0.03859547  0.94947112  1.0
  Cl  Cl26  1  0.96140453  0.63396717  0.44947112  1.0
  Cl  Cl27  1  0.63396717  -0.03859547  0.05052888  1.0
  Cl  Cl28  1  0.97931513  0.10647389  0.37245044  1.0
  Cl  Cl29  1  0.10647389  -0.02068487  0.12754956  1.0
  Cl  Cl30  1  1.02068487  0.89352611  0.62754956  1.0
  Cl  Cl31  1  0.89352611  0.02068487  0.87245044  1.0
  Cl  Cl32  1  0.58759686  -0.32194519  0.40008352  1.0
  Cl  Cl33  1  0.67805481  0.58759686  0.09991648  1.0
  Cl  Cl34  1  0.41240314  0.32194519  0.59991648  1.0
  Cl  Cl35  1  1.32194519  0.41240314  0.90008352  1.0
  O  O36  1  0.54941440  -0.26928128  0.65506397  1.0
  O  O37  1  0.73071872  0.54941440  0.84493603  1.0
  O  O38  1  0.45058560  0.26928128  0.34493603  1.0
  O  O39  1  1.26928128  0.45058560  0.15506397  1.0
  O  O40  1  0.38961731  -0.22114112  0.56557071  1.0
  O  O41  1  0.77885888  0.38961731  0.93442929  1.0
  O  O42  1  0.61038269  0.22114112  0.43442929  1.0
  O  O43  1  1.22114112  0.61038269  0.06557071  1.0
