# generated using pymatgen
data_TlReO4
_symmetry_space_group_name_H-M   'P 1'
_cell_length_a   5.73549328
_cell_length_b   5.98479839
_cell_length_c   13.80583337
_cell_angle_alpha   90.00000000
_cell_angle_beta   90.00000000
_cell_angle_gamma   90.00000000
_symmetry_Int_Tables_number   1
_chemical_formula_structural   TlReO4
_chemical_formula_sum   'Tl4 Re4 O16'
_cell_volume   473.89587453
_cell_formula_units_Z   4
loop_
 _symmetry_equiv_pos_site_id
 _symmetry_equiv_pos_as_xyz
  1  'x, y, z'
loop_
 _atom_site_type_symbol
 _atom_site_label
 _atom_site_symmetry_multiplicity
 _atom_site_fract_x
 _atom_site_fract_y
 _atom_site_fract_z
 _atom_site_occupancy
  Tl  Tl0  1  0.47591508  0.75000000  0.13373292  1.0
  Tl  Tl1  1  0.97591508  0.75000000  0.36626708  1.0
  Tl  Tl2  1  0.52408492  0.25000000  0.86626708  1.0
  Tl  Tl3  1  0.02408492  0.25000000  0.63373292  1.0
  Re  Re4  1  0.01354200  0.75000000  0.88084678  1.0
  Re  Re5  1  0.51354200  0.75000000  0.61915322  1.0
  Re  Re6  1  0.98645800  0.25000000  0.11915322  1.0
  Re  Re7  1  0.48645800  0.25000000  0.38084678  1.0
  O  O8  1  0.35207699  0.75000000  0.51235251  1.0
  O  O9  1  0.85207699  0.75000000  0.98764749  1.0
  O  O10  1  0.64792301  0.25000000  0.48764749  1.0
  O  O11  1  0.14792301  0.25000000  0.01235251  1.0
  O  O12  1  0.31113056  0.75000000  0.90829723  1.0
  O  O13  1  0.81113056  0.75000000  0.59170277  1.0
  O  O14  1  0.68886944  0.25000000  0.09170277  1.0
  O  O15  1  0.18886944  0.25000000  0.40829723  1.0
  O  O16  1  0.44241607  0.98824380  0.68637809  1.0
  O  O17  1  0.44241607  0.51175620  0.68637809  1.0
  O  O18  1  0.94241607  0.98824380  0.81362191  1.0
  O  O19  1  0.94241607  0.51175620  0.81362191  1.0
  O  O20  1  0.55758393  0.48824380  0.31362191  1.0
  O  O21  1  0.55758393  0.01175620  0.31362191  1.0
  O  O22  1  0.05758393  0.48824380  0.18637809  1.0
  O  O23  1  0.05758393  0.01175620  0.18637809  1.0
