# generated using pymatgen
data_HIO3
_symmetry_space_group_name_H-M   'P 1'
_cell_length_a   5.61933630
_cell_length_b   6.10835915
_cell_length_c   15.41060702
_cell_angle_alpha   90.00000000
_cell_angle_beta   90.00000000
_cell_angle_gamma   90.00000000
_symmetry_Int_Tables_number   1
_chemical_formula_structural   HIO3
_chemical_formula_sum   'H8 I8 O24'
_cell_volume   528.96791935
_cell_formula_units_Z   8
loop_
 _symmetry_equiv_pos_site_id
 _symmetry_equiv_pos_as_xyz
  1  'x, y, z'
loop_
 _atom_site_type_symbol
 _atom_site_label
 _atom_site_symmetry_multiplicity
 _atom_site_fract_x
 _atom_site_fract_y
 _atom_site_fract_z
 _atom_site_occupancy
  H  H0  1  0.63334958  0.33597028  0.49754251  1.0
  H  H1  1  0.13334958  0.16402972  0.50245749  1.0
  H  H2  1  0.36665042  0.83597028  0.00245749  1.0
  H  H3  1  0.86665042  0.66402972  0.99754251  1.0
  H  H4  1  0.36665042  0.66402972  0.50245749  1.0
  H  H5  1  0.86665042  0.83597028  0.49754251  1.0
  H  H6  1  0.63334958  0.16402972  0.99754251  1.0
  H  H7  1  0.13334958  0.33597028  0.00245749  1.0
  I  I8  1  0.50300375  0.33821287  0.34243111  1.0
  I  I9  1  0.00300375  0.16178713  0.65756889  1.0
  I  I10  1  0.49699625  0.83821287  0.15756889  1.0
  I  I11  1  0.99699625  0.66178713  0.84243111  1.0
  I  I12  1  0.49699625  0.66178713  0.65756889  1.0
  I  I13  1  0.99699625  0.83821287  0.34243111  1.0
  I  I14  1  0.50300375  0.16178713  0.84243111  1.0
  I  I15  1  0.00300375  0.33821287  0.15756889  1.0
  O  O16  1  0.76352039  0.49056762  0.28963275  1.0
  O  O17  1  0.26352039  0.00943238  0.71036725  1.0
  O  O18  1  0.23647961  0.99056762  0.21036725  1.0
  O  O19  1  0.73647961  0.50943238  0.78963275  1.0
  O  O20  1  0.23647961  0.50943238  0.71036725  1.0
  O  O21  1  0.73647961  0.99056762  0.28963275  1.0
  O  O22  1  0.76352039  0.00943238  0.78963275  1.0
  O  O23  1  0.26352039  0.49056762  0.21036725  1.0
  O  O24  1  0.34226682  0.56875965  0.39693135  1.0
  O  O25  1  0.84226682  0.93124035  0.60306865  1.0
  O  O26  1  0.65773318  0.06875965  0.10306865  1.0
  O  O27  1  0.15773318  0.43124035  0.89693135  1.0
  O  O28  1  0.65773318  0.43124035  0.60306865  1.0
  O  O29  1  0.15773318  0.06875965  0.39693135  1.0
  O  O30  1  0.34226682  0.93124035  0.89693135  1.0
  O  O31  1  0.84226682  0.56875965  0.10306865  1.0
  O  O32  1  0.65797886  0.23097327  0.44804187  1.0
  O  O33  1  0.15797886  0.26902673  0.55195813  1.0
  O  O34  1  0.34202114  0.73097327  0.05195813  1.0
  O  O35  1  0.84202114  0.76902673  0.94804187  1.0
  O  O36  1  0.34202114  0.76902673  0.55195813  1.0
  O  O37  1  0.84202114  0.73097327  0.44804187  1.0
  O  O38  1  0.65797886  0.26902673  0.94804187  1.0
  O  O39  1  0.15797886  0.23097327  0.05195813  1.0
