# generated using pymatgen
data_KP2WO8
_symmetry_space_group_name_H-M   'P 1'
_cell_length_a   5.13937634
_cell_length_b   11.96025606
_cell_length_c   12.78712758
_cell_angle_alpha   90.00000000
_cell_angle_beta   112.51277657
_cell_angle_gamma   90.00000000
_symmetry_Int_Tables_number   1
_chemical_formula_structural   KP2WO8
_chemical_formula_sum   'K4 P8 W4 O32'
_cell_volume   726.10447878
_cell_formula_units_Z   4
loop_
 _symmetry_equiv_pos_site_id
 _symmetry_equiv_pos_as_xyz
  1  'x, y, z'
loop_
 _atom_site_type_symbol
 _atom_site_label
 _atom_site_symmetry_multiplicity
 _atom_site_fract_x
 _atom_site_fract_y
 _atom_site_fract_z
 _atom_site_occupancy
  K  K0  1  0.31546782  0.12881286  0.04998733  1.0
  K  K1  1  0.31546782  0.37118714  0.54998733  1.0
  K  K2  1  0.68453218  0.62881286  0.45001267  1.0
  K  K3  1  0.68453218  0.87118714  0.95001267  1.0
  P  P4  1  0.61121906  0.93500905  0.36790056  1.0
  P  P5  1  0.61121906  0.56499095  0.86790056  1.0
  P  P6  1  0.38878094  0.43500905  0.13209944  1.0
  P  P7  1  0.38878094  0.06499095  0.63209944  1.0
  P  P8  1  0.61167616  0.30590187  0.34752995  1.0
  P  P9  1  0.61167616  0.19409813  0.84752995  1.0
  P  P10  1  0.38832384  0.80590187  0.15247005  1.0
  P  P11  1  0.38832384  0.69409813  0.65247005  1.0
  W  W12  1  0.90831445  0.61838604  0.16663992  1.0
  W  W13  1  0.90831445  0.88161396  0.66663992  1.0
  W  W14  1  0.09168555  0.11838604  0.33336008  1.0
  W  W15  1  0.09168555  0.38161396  0.83336008  1.0
  O  O16  1  -0.00165506  0.12854319  0.18896484  1.0
  O  O17  1  -0.00165506  0.37145681  0.68896484  1.0
  O  O18  1  1.00165506  0.62854319  0.31103516  1.0
  O  O19  1  1.00165506  0.87145681  0.81103516  1.0
  O  O20  1  0.90322001  0.26072700  0.35573920  1.0
  O  O21  1  0.90322001  0.23927300  0.85573920  1.0
  O  O22  1  0.09677999  0.76072700  0.14426080  1.0
  O  O23  1  0.09677999  0.73927300  0.64426080  1.0
  O  O24  1  0.78870075  0.89122736  0.48515629  1.0
  O  O25  1  0.78870075  0.60877264  0.98515629  1.0
  O  O26  1  0.21129925  0.39122736  0.01484371  1.0
  O  O27  1  0.21129925  0.10877264  0.51484371  1.0
  O  O28  1  0.75335902  0.02517204  0.32273594  1.0
  O  O29  1  0.75335902  0.47482796  0.82273594  1.0
  O  O30  1  0.24664098  0.52517204  0.17726406  1.0
  O  O31  1  0.24664098  0.97482796  0.67726406  1.0
  O  O32  1  0.68616417  0.47317837  0.14446668  1.0
  O  O33  1  0.68616417  0.02682163  0.64446668  1.0
  O  O34  1  0.31383583  0.97317837  0.35553332  1.0
  O  O35  1  0.31383583  0.52682163  0.85553332  1.0
  O  O36  1  0.63929348  0.41146399  0.41390513  1.0
  O  O37  1  0.63929348  0.08853601  0.91390513  1.0
  O  O38  1  0.36070652  0.91146399  0.08609487  1.0
  O  O39  1  0.36070652  0.58853601  0.58609487  1.0
  O  O40  1  0.43423279  0.32482366  0.21128108  1.0
  O  O41  1  0.43423279  0.17517634  0.71128108  1.0
  O  O42  1  0.56576721  0.82482366  0.28871892  1.0
  O  O43  1  0.56576721  0.67517634  0.78871892  1.0
  O  O44  1  0.44672672  0.21184430  0.37815174  1.0
  O  O45  1  0.44672672  0.28815570  0.87815174  1.0
  O  O46  1  0.55327328  0.71184430  0.12184826  1.0
  O  O47  1  0.55327328  0.78815570  0.62184826  1.0
