# generated using pymatgen
data_Li2MgMn3O8
_symmetry_space_group_name_H-M   'P 1'
_cell_length_a   8.24004384
_cell_length_b   8.24004384
_cell_length_c   8.24004384
_cell_angle_alpha   90.00000000
_cell_angle_beta   90.00000000
_cell_angle_gamma   90.00000000
_symmetry_Int_Tables_number   1
_chemical_formula_structural   Li2MgMn3O8
_chemical_formula_sum   'Li8 Mg4 Mn12 O32'
_cell_volume   559.48515306
_cell_formula_units_Z   4
loop_
 _symmetry_equiv_pos_site_id
 _symmetry_equiv_pos_as_xyz
  1  'x, y, z'
loop_
 _atom_site_type_symbol
 _atom_site_label
 _atom_site_symmetry_multiplicity
 _atom_site_fract_x
 _atom_site_fract_y
 _atom_site_fract_z
 _atom_site_occupancy
  Li  Li0  1  0.74724398  0.24724398  0.25275602  1.0
  Li  Li1  1  0.49724398  0.50275602  0.00275602  1.0
  Li  Li2  1  0.99724398  0.99724398  0.99724398  1.0
  Li  Li3  1  0.24724398  0.25275602  0.74724398  1.0
  Li  Li4  1  0.25275602  0.74724398  0.24724398  1.0
  Li  Li5  1  0.00275602  0.49724398  0.50275602  1.0
  Li  Li6  1  0.50275602  0.00275602  0.49724398  1.0
  Li  Li7  1  0.75275602  0.75275602  0.75275602  1.0
  Mg  Mg8  1  0.12500000  0.62500000  0.87500000  1.0
  Mg  Mg9  1  0.87500000  0.12500000  0.62500000  1.0
  Mg  Mg10  1  0.37500000  0.37500000  0.37500000  1.0
  Mg  Mg11  1  0.62500000  0.87500000  0.12500000  1.0
  Mn  Mn12  1  0.37500000  0.88035806  0.86964194  1.0
  Mn  Mn13  1  0.12500000  0.11964194  0.36964194  1.0
  Mn  Mn14  1  0.62500000  0.38035806  0.63035806  1.0
  Mn  Mn15  1  0.87500000  0.61964194  0.13035806  1.0
  Mn  Mn16  1  0.38035806  0.63035806  0.62500000  1.0
  Mn  Mn17  1  0.13035806  0.87500000  0.61964194  1.0
  Mn  Mn18  1  0.63035806  0.62500000  0.38035806  1.0
  Mn  Mn19  1  0.88035806  0.86964194  0.37500000  1.0
  Mn  Mn20  1  0.61964194  0.13035806  0.87500000  1.0
  Mn  Mn21  1  0.36964194  0.12500000  0.11964194  1.0
  Mn  Mn22  1  0.86964194  0.37500000  0.88035806  1.0
  Mn  Mn23  1  0.11964194  0.36964194  0.12500000  1.0
  O  O24  1  0.37632125  0.65205096  0.85717793  1.0
  O  O25  1  0.12632125  0.10717793  0.59794904  1.0
  O  O26  1  0.62632125  0.39282207  0.40205096  1.0
  O  O27  1  0.87632125  0.84794904  0.14282207  1.0
  O  O28  1  0.15205096  0.64282207  0.62367875  1.0
  O  O29  1  0.90205096  0.87367875  0.60717793  1.0
  O  O30  1  0.40205096  0.62632125  0.39282207  1.0
  O  O31  1  0.65205096  0.85717793  0.37632125  1.0
  O  O32  1  0.14282207  0.87632125  0.84794904  1.0
  O  O33  1  0.89282207  0.09794904  0.37367875  1.0
  O  O34  1  0.39282207  0.40205096  0.62632125  1.0
  O  O35  1  0.64282207  0.62367875  0.15205096  1.0
  O  O36  1  0.62367875  0.15205096  0.64282207  1.0
  O  O37  1  0.37367875  0.89282207  0.09794904  1.0
  O  O38  1  0.87367875  0.60717793  0.90205096  1.0
  O  O39  1  0.12367875  0.34794904  0.35717793  1.0
  O  O40  1  0.84794904  0.14282207  0.87632125  1.0
  O  O41  1  0.59794904  0.12632125  0.10717793  1.0
  O  O42  1  0.09794904  0.37367875  0.89282207  1.0
  O  O43  1  0.34794904  0.35717793  0.12367875  1.0
  O  O44  1  0.85717793  0.37632125  0.65205096  1.0
  O  O45  1  0.60717793  0.90205096  0.87367875  1.0
  O  O46  1  0.10717793  0.59794904  0.12632125  1.0
  O  O47  1  0.35717793  0.12367875  0.34794904  1.0
  O  O48  1  0.36601667  0.86601667  0.63398333  1.0
  O  O49  1  0.11601667  0.88398333  0.38398333  1.0
  O  O50  1  0.61601667  0.61601667  0.61601667  1.0
  O  O51  1  0.86601667  0.63398333  0.36601667  1.0
  O  O52  1  0.63398333  0.36601667  0.86601667  1.0
  O  O53  1  0.38398333  0.11601667  0.88398333  1.0
  O  O54  1  0.88398333  0.38398333  0.11601667  1.0
  O  O55  1  0.13398333  0.13398333  0.13398333  1.0
