# generated using pymatgen
data_La3Sn3Au4
_symmetry_space_group_name_H-M   'P 1'
_cell_length_a   12.72415972
_cell_length_b   12.72415972
_cell_length_c   12.72415972
_cell_angle_alpha   22.13783648
_cell_angle_beta   22.13783648
_cell_angle_gamma   22.13783648
_symmetry_Int_Tables_number   1
_chemical_formula_structural   La3Sn3Au4
_chemical_formula_sum   'La3 Sn3 Au4'
_cell_volume   256.50165081
_cell_formula_units_Z   1
loop_
 _symmetry_equiv_pos_site_id
 _symmetry_equiv_pos_as_xyz
  1  'x, y, z'
loop_
 _atom_site_type_symbol
 _atom_site_label
 _atom_site_symmetry_multiplicity
 _atom_site_fract_x
 _atom_site_fract_y
 _atom_site_fract_z
 _atom_site_occupancy
  La  La0  1  0.89254080  0.89254080  0.89254080  1.0
  La  La1  1  1.10745920  1.10745920  0.10745920  1.0
  La  La2  1  0.00000000  -0.00000000  -0.00000000  1.0
  Sn  Sn3  1  0.72089264  0.72089264  0.72089264  1.0
  Sn  Sn4  1  1.27910736  1.27910736  0.27910736  1.0
  Sn  Sn5  1  1.50000000  0.50000000  0.50000000  1.0
  Au  Au6  1  0.80362360  0.80362360  0.80362360  1.0
  Au  Au7  1  1.19637640  1.19637640  0.19637640  1.0
  Au  Au8  1  1.62001273  0.62001273  0.62001273  1.0
  Au  Au9  1  1.37998727  0.37998727  0.37998727  1.0
