# generated using pymatgen
data_TlHg3As2Cl3
_symmetry_space_group_name_H-M   'P 1'
_cell_length_a   6.34458684
_cell_length_b   12.64324681
_cell_length_c   12.60981592
_cell_angle_alpha   90.00000000
_cell_angle_beta   90.00000000
_cell_angle_gamma   90.00000000
_symmetry_Int_Tables_number   1
_chemical_formula_structural   TlHg3As2Cl3
_chemical_formula_sum   'Tl4 Hg12 As8 Cl12'
_cell_volume   1011.51122962
_cell_formula_units_Z   4
loop_
 _symmetry_equiv_pos_site_id
 _symmetry_equiv_pos_as_xyz
  1  'x, y, z'
loop_
 _atom_site_type_symbol
 _atom_site_label
 _atom_site_symmetry_multiplicity
 _atom_site_fract_x
 _atom_site_fract_y
 _atom_site_fract_z
 _atom_site_occupancy
  Tl  Tl0  1  1.01016982  0.73816889  0.25000000  1.0
  Tl  Tl1  1  1.01016982  0.76183111  0.75000000  1.0
  Tl  Tl2  1  -0.01016982  0.23816889  0.25000000  1.0
  Tl  Tl3  1  -0.01016982  0.26183111  0.75000000  1.0
  Hg  Hg4  1  0.45667118  0.47864242  0.25000000  1.0
  Hg  Hg5  1  0.45667118  0.02135758  0.75000000  1.0
  Hg  Hg6  1  0.54332882  0.97864242  0.25000000  1.0
  Hg  Hg7  1  0.54332882  0.52135758  0.75000000  1.0
  Hg  Hg8  1  0.45101294  0.25000000  0.50000000  1.0
  Hg  Hg9  1  0.45101294  0.25000000  0.00000000  1.0
  Hg  Hg10  1  0.54898706  0.75000000  0.50000000  1.0
  Hg  Hg11  1  0.54898706  0.75000000  0.00000000  1.0
  Hg  Hg12  1  0.00000000  0.50000000  0.50000000  1.0
  Hg  Hg13  1  0.00000000  0.50000000  0.00000000  1.0
  Hg  Hg14  1  0.00000000  0.00000000  0.00000000  1.0
  Hg  Hg15  1  0.00000000  0.00000000  0.50000000  1.0
  As  As16  1  0.37828520  0.44476542  0.44880471  1.0
  As  As17  1  0.37828520  0.44476542  0.05119529  1.0
  As  As18  1  0.37828520  0.05523458  0.94880471  1.0
  As  As19  1  0.37828520  0.05523458  0.55119529  1.0
  As  As20  1  0.62171480  0.94476542  0.44880471  1.0
  As  As21  1  0.62171480  0.94476542  0.05119529  1.0
  As  As22  1  0.62171480  0.55523458  0.94880471  1.0
  As  As23  1  0.62171480  0.55523458  0.55119529  1.0
  Cl  Cl24  1  0.90333575  0.48513610  0.25000000  1.0
  Cl  Cl25  1  0.90333575  0.01486390  0.75000000  1.0
  Cl  Cl26  1  0.09666425  0.98513610  0.25000000  1.0
  Cl  Cl27  1  0.09666425  0.51486390  0.75000000  1.0
  Cl  Cl28  1  0.51231605  0.20385203  0.25000000  1.0
  Cl  Cl29  1  0.51231605  0.29614797  0.75000000  1.0
  Cl  Cl30  1  0.48768395  0.70385203  0.25000000  1.0
  Cl  Cl31  1  0.48768395  0.79614797  0.75000000  1.0
  Cl  Cl32  1  0.90005886  0.25000000  0.50000000  1.0
  Cl  Cl33  1  0.90005886  0.25000000  0.00000000  1.0
  Cl  Cl34  1  0.09994114  0.75000000  0.50000000  1.0
  Cl  Cl35  1  0.09994114  0.75000000  0.00000000  1.0
