# generated using pymatgen
data_Cr(CuO3)2
_symmetry_space_group_name_H-M   'P 1'
_cell_length_a   5.74035732
_cell_length_b   5.11938695
_cell_length_c   15.12192972
_cell_angle_alpha   90.00000000
_cell_angle_beta   106.24793784
_cell_angle_gamma   90.00000000
_symmetry_Int_Tables_number   1
_chemical_formula_structural   Cr(CuO3)2
_chemical_formula_sum   'Cr4 Cu8 O24'
_cell_volume   426.64085470
_cell_formula_units_Z   4
loop_
 _symmetry_equiv_pos_site_id
 _symmetry_equiv_pos_as_xyz
  1  'x, y, z'
loop_
 _atom_site_type_symbol
 _atom_site_label
 _atom_site_symmetry_multiplicity
 _atom_site_fract_x
 _atom_site_fract_y
 _atom_site_fract_z
 _atom_site_occupancy
  O  O0  1  0.91057272  0.10872402  0.39953899  1.0
  O  O1  1  0.91057272  0.39127598  0.89953899  1.0
  O  O2  1  0.08942728  0.60872402  0.10046101  1.0
  O  O3  1  0.08942728  0.89127598  0.60046101  1.0
  O  O4  1  0.91185493  0.42420267  0.23432582  1.0
  O  O5  1  0.91185493  0.07579733  0.73432582  1.0
  O  O6  1  0.08814507  0.92420267  0.26567418  1.0
  O  O7  1  0.08814507  0.57579733  0.76567418  1.0
  O  O8  1  0.80993670  0.13811835  0.07295194  1.0
  O  O9  1  0.80993670  0.36188165  0.57295194  1.0
  O  O10  1  0.19006330  0.63811835  0.42704806  1.0
  O  O11  1  0.19006330  0.86188165  0.92704806  1.0
  O  O12  1  0.69331343  0.94608878  0.91692559  1.0
  O  O13  1  0.69331343  0.55391122  0.41692559  1.0
  O  O14  1  0.30668657  0.44608878  0.58307441  1.0
  O  O15  1  0.30668657  0.05391122  0.08307441  1.0
  O  O16  1  0.38907586  0.11888606  0.41318270  1.0
  O  O17  1  0.38907586  0.38111394  0.91318270  1.0
  O  O18  1  0.61092414  0.61888606  0.08681730  1.0
  O  O19  1  0.61092414  0.88111394  0.58681730  1.0
  O  O20  1  0.39770799  0.52514281  0.26266147  1.0
  O  O21  1  0.39770799  -0.02514281  0.76266147  1.0
  O  O22  1  0.60229201  1.02514281  0.23733853  1.0
  O  O23  1  0.60229201  0.47485719  0.73733853  1.0
  Cu  Cu24  1  0.63305002  0.29548579  0.32058445  1.0
  Cu  Cu25  1  0.63305002  0.20451421  0.82058445  1.0
  Cu  Cu26  1  0.36694998  0.79548579  0.17941555  1.0
  Cu  Cu27  1  0.36694998  0.70451421  0.67941555  1.0
  Cu  Cu28  1  0.50000000  0.50000000  0.50000000  1.0
  Cu  Cu29  1  0.50000000  0.00000000  -0.00000000  1.0
  Cu  Cu30  1  0.00000000  0.50000000  0.50000000  1.0
  Cu  Cu31  1  0.00000000  0.00000000  0.00000000  1.0
  Cr  Cr32  1  0.85888507  0.45227111  0.12549412  1.0
  Cr  Cr33  1  0.85888507  0.04772889  0.62549412  1.0
  Cr  Cr34  1  0.14111493  0.95227111  0.37450588  1.0
  Cr  Cr35  1  0.14111493  0.54772889  0.87450588  1.0
