# generated using pymatgen
data_SrCo2(PO4)2
_symmetry_space_group_name_H-M   'P 1'
_cell_length_a   8.69419512
_cell_length_b   5.05217080
_cell_length_c   9.44388678
_cell_angle_alpha   102.63912969
_cell_angle_beta   113.90607454
_cell_angle_gamma   92.94078498
_symmetry_Int_Tables_number   1
_chemical_formula_structural   SrCo2(PO4)2
_chemical_formula_sum   'Sr2 Co4 P4 O16'
_cell_volume   365.45815213
_cell_formula_units_Z   2
loop_
 _symmetry_equiv_pos_site_id
 _symmetry_equiv_pos_as_xyz
  1  'x, y, z'
loop_
 _atom_site_type_symbol
 _atom_site_label
 _atom_site_symmetry_multiplicity
 _atom_site_fract_x
 _atom_site_fract_y
 _atom_site_fract_z
 _atom_site_occupancy
  O  O0  1  -0.56027930  -0.95205647  -0.70570917  1.0
  O  O1  1  -0.43972070  -0.04794353  -0.29429083  1.0
  O  O2  1  -0.79179317  -0.91796193  -0.19563793  1.0
  O  O3  1  -0.20820683  -0.08203807  -0.80436207  1.0
  O  O4  1  -0.75964554  -0.86101929  -0.56005587  1.0
  O  O5  1  -0.24035446  -0.13898071  -0.43994413  1.0
  O  O6  1  -0.93402502  -0.53798122  -0.32577656  1.0
  O  O7  1  -0.06597498  -0.46201878  -0.67422344  1.0
  O  O8  1  -0.38310550  -0.48435679  -0.78778222  1.0
  O  O9  1  -0.61689450  -0.51564321  -0.21221778  1.0
  O  O10  1  -0.66760247  -0.49715916  -0.66528041  1.0
  O  O11  1  -0.33239753  -0.50284084  -0.33471959  1.0
  O  O12  1  -0.87085263  -0.92900745  -0.86282582  1.0
  O  O13  1  -0.12914737  -0.07099255  -0.13717418  1.0
  O  O14  1  -0.23184008  -0.57675299  -0.97168175  1.0
  O  O15  1  -0.76815992  -0.42324701  -0.02831825  1.0
  Sr  Sr16  1  -0.23631836  -0.72345137  -0.55068135  1.0
  Sr  Sr17  1  -0.76368164  -0.27654863  -0.44931865  1.0
  P  P18  1  -0.71241045  -0.81430109  -0.69256963  1.0
  P  P19  1  -0.28758955  -0.18569891  -0.30743037  1.0
  P  P20  1  -0.77940155  -0.60863446  -0.19349233  1.0
  P  P21  1  -0.22059845  -0.39136554  -0.80650767  1.0
  Co  Co22  1  -0.59237708  -0.34921562  -0.80450391  1.0
  Co  Co23  1  -0.40762292  -0.65078438  -0.19549609  1.0
  Co  Co24  1  -0.10992912  -0.89075985  -0.91550524  1.0
  Co  Co25  1  -0.89007088  -0.10924015  -0.08449476  1.0
