# generated using pymatgen
data_LaTaO4
_symmetry_space_group_name_H-M   'P 1'
_cell_length_a   6.84528972
_cell_length_b   6.84528972
_cell_length_c   5.19008175
_cell_angle_alpha   70.22733898
_cell_angle_beta   109.77266102
_cell_angle_gamma   64.36023987
_symmetry_Int_Tables_number   1
_chemical_formula_structural   LaTaO4
_chemical_formula_sum   'La2 Ta2 O8'
_cell_volume   169.33964824
_cell_formula_units_Z   2
loop_
 _symmetry_equiv_pos_site_id
 _symmetry_equiv_pos_as_xyz
  1  'x, y, z'
loop_
 _atom_site_type_symbol
 _atom_site_label
 _atom_site_symmetry_multiplicity
 _atom_site_fract_x
 _atom_site_fract_y
 _atom_site_fract_z
 _atom_site_occupancy
  La  La0  1  1.36729206  0.36729206  0.75000000  1.0
  La  La1  1  0.63270794  0.63270794  0.25000000  1.0
  Ta  Ta2  1  0.90331988  0.90331988  0.75000000  1.0
  Ta  Ta3  1  1.09668012  0.09668012  0.25000000  1.0
  O  O4  1  1.64893910  -0.05438755  0.83888787  1.0
  O  O5  1  1.05438755  0.35106090  0.33888787  1.0
  O  O6  1  0.94561245  0.64893910  0.66111213  1.0
  O  O7  1  1.35106090  0.05438755  0.16111213  1.0
  O  O8  1  1.26369613  -0.19992465  0.69672153  1.0
  O  O9  1  1.19992465  0.73630387  0.19672153  1.0
  O  O10  1  0.80007535  0.26369613  0.80327847  1.0
  O  O11  1  1.73630387  0.19992465  0.30327847  1.0
