# generated using pymatgen
data_LuBr3
_symmetry_space_group_name_H-M   'P 1'
_cell_length_a   8.13208342
_cell_length_b   8.13208342
_cell_length_c   8.13208342
_cell_angle_alpha   51.67263531
_cell_angle_beta   51.67263531
_cell_angle_gamma   51.67263531
_symmetry_Int_Tables_number   1
_chemical_formula_structural   LuBr3
_chemical_formula_sum   'Lu2 Br6'
_cell_volume   305.75045527
_cell_formula_units_Z   2
loop_
 _symmetry_equiv_pos_site_id
 _symmetry_equiv_pos_as_xyz
  1  'x, y, z'
loop_
 _atom_site_type_symbol
 _atom_site_label
 _atom_site_symmetry_multiplicity
 _atom_site_fract_x
 _atom_site_fract_y
 _atom_site_fract_z
 _atom_site_occupancy
  Lu  Lu0  1  0.16668053  0.16668053  0.16668053  1.0
  Lu  Lu1  1  0.83331947  -0.16668053  -0.16668053  1.0
  Br  Br2  1  0.42453114  0.06128878  -0.21239750  1.0
  Br  Br3  1  0.21239750  0.57546886  -0.06128878  1.0
  Br  Br4  1  0.93871122  0.21239750  -0.42453114  1.0
  Br  Br5  1  0.57546886  0.93871122  -0.78760250  1.0
  Br  Br6  1  0.78760250  -0.57546886  0.06128878  1.0
  Br  Br7  1  1.06128878  -0.21239750  -0.57546886  1.0
