# generated using pymatgen
data_Co2CuGe2
_symmetry_space_group_name_H-M   'P 1'
_cell_length_a   5.01274856
_cell_length_b   3.86972956
_cell_length_c   6.67579861
_cell_angle_alpha   90.00000000
_cell_angle_beta   90.00000000
_cell_angle_gamma   90.00000000
_symmetry_Int_Tables_number   1
_chemical_formula_structural   Co2CuGe2
_chemical_formula_sum   'Co4 Cu2 Ge4'
_cell_volume   129.49701649
_cell_formula_units_Z   2
loop_
 _symmetry_equiv_pos_site_id
 _symmetry_equiv_pos_as_xyz
  1  'x, y, z'
loop_
 _atom_site_type_symbol
 _atom_site_label
 _atom_site_symmetry_multiplicity
 _atom_site_fract_x
 _atom_site_fract_y
 _atom_site_fract_z
 _atom_site_occupancy
  Co  Co0  1  0.00000000  0.50000000  0.50000000  1.0
  Co  Co1  1  0.50000000  0.50000000  0.50000000  1.0
  Co  Co2  1  0.75000000  0.50000000  0.16033696  1.0
  Co  Co3  1  0.25000000  0.50000000  0.83966304  1.0
  Cu  Cu4  1  0.00000000  0.00000000  -0.00000000  1.0
  Cu  Cu5  1  0.50000000  0.00000000  -0.00000000  1.0
  Ge  Ge6  1  0.75000000  0.00000000  0.37900456  1.0
  Ge  Ge7  1  0.25000000  0.00000000  0.62099544  1.0
  Ge  Ge8  1  0.25000000  0.50000000  0.19609166  1.0
  Ge  Ge9  1  0.75000000  0.50000000  0.80390834  1.0
