# generated using pymatgen
data_Li4Ca(BO3)2
_symmetry_space_group_name_H-M   'P 1'
_cell_length_a   8.12831624
_cell_length_b   9.30396554
_cell_length_c   3.50289833
_cell_angle_alpha   90.00000000
_cell_angle_beta   90.00000000
_cell_angle_gamma   90.00000000
_symmetry_Int_Tables_number   1
_chemical_formula_structural   Li4Ca(BO3)2
_chemical_formula_sum   'Li8 Ca2 B4 O12'
_cell_volume   264.90869751
_cell_formula_units_Z   2
loop_
 _symmetry_equiv_pos_site_id
 _symmetry_equiv_pos_as_xyz
  1  'x, y, z'
loop_
 _atom_site_type_symbol
 _atom_site_label
 _atom_site_symmetry_multiplicity
 _atom_site_fract_x
 _atom_site_fract_y
 _atom_site_fract_z
 _atom_site_occupancy
  Li  Li0  1  0.33081952  0.04893889  0.50000000  1.0
  Li  Li1  1  0.83081952  0.45106111  0.00000000  1.0
  Li  Li2  1  0.66918048  0.95106111  0.50000000  1.0
  Li  Li3  1  0.16918048  0.54893889  0.00000000  1.0
  Li  Li4  1  0.01228269  0.69813586  0.50000000  1.0
  Li  Li5  1  0.51228269  0.80186414  0.00000000  1.0
  Li  Li6  1  0.98771731  0.30186414  0.50000000  1.0
  Li  Li7  1  0.48771731  0.19813586  0.00000000  1.0
  Ca  Ca8  1  0.50000000  0.50000000  0.50000000  1.0
  Ca  Ca9  1  0.00000000  0.00000000  0.00000000  1.0
  B  B10  1  0.27096830  0.79113830  0.50000000  1.0
  B  B11  1  0.77096830  0.70886170  0.00000000  1.0
  B  B12  1  0.72903170  0.20886170  0.50000000  1.0
  B  B13  1  0.22903170  0.29113830  0.00000000  1.0
  O  O14  1  0.42654135  0.85138158  0.50000000  1.0
  O  O15  1  0.92654135  0.64861842  0.00000000  1.0
  O  O16  1  0.57345865  0.14861842  0.50000000  1.0
  O  O17  1  0.07345865  0.35138158  0.00000000  1.0
  O  O18  1  0.24656789  0.64290110  0.50000000  1.0
  O  O19  1  0.74656789  0.85709890  0.00000000  1.0
  O  O20  1  0.75343211  0.35709890  0.50000000  1.0
  O  O21  1  0.25343211  0.14290110  0.00000000  1.0
  O  O22  1  0.13344690  0.88127201  0.50000000  1.0
  O  O23  1  0.63344690  0.61872799  0.00000000  1.0
  O  O24  1  0.86655310  0.11872799  0.50000000  1.0
  O  O25  1  0.36655310  0.38127201  0.00000000  1.0
