# generated using pymatgen
data_Gd3Sb5Pd6
_symmetry_space_group_name_H-M   'P 1'
_cell_length_a   4.43357468
_cell_length_b   13.37791283
_cell_length_c   10.13900925
_cell_angle_alpha   90.00000000
_cell_angle_beta   90.00000000
_cell_angle_gamma   90.00000000
_symmetry_Int_Tables_number   1
_chemical_formula_structural   Gd3Sb5Pd6
_chemical_formula_sum   'Gd6 Sb10 Pd12'
_cell_volume   601.36466912
_cell_formula_units_Z   2
loop_
 _symmetry_equiv_pos_site_id
 _symmetry_equiv_pos_as_xyz
  1  'x, y, z'
loop_
 _atom_site_type_symbol
 _atom_site_label
 _atom_site_symmetry_multiplicity
 _atom_site_fract_x
 _atom_site_fract_y
 _atom_site_fract_z
 _atom_site_occupancy
  Gd  Gd0  1  0.50000000  0.67842911  0.74489495  1.0
  Gd  Gd1  1  0.50000000  0.32157089  0.74489495  1.0
  Gd  Gd2  1  0.00000000  0.17842911  0.25510505  1.0
  Gd  Gd3  1  0.00000000  0.82157089  0.25510505  1.0
  Gd  Gd4  1  0.50000000  0.00000000  0.74551481  1.0
  Gd  Gd5  1  0.00000000  0.50000000  0.25448519  1.0
  Sb  Sb6  1  0.50000000  0.66170979  0.36309341  1.0
  Sb  Sb7  1  0.50000000  0.33829021  0.36309341  1.0
  Sb  Sb8  1  0.00000000  0.16170979  0.63690659  1.0
  Sb  Sb9  1  0.00000000  0.83829021  0.63690659  1.0
  Sb  Sb10  1  0.50000000  0.12739168  0.02583815  1.0
  Sb  Sb11  1  0.50000000  0.87260832  0.02583815  1.0
  Sb  Sb12  1  0.00000000  0.62739168  0.97416185  1.0
  Sb  Sb13  1  0.00000000  0.37260832  0.97416185  1.0
  Sb  Sb14  1  0.50000000  0.00000000  0.31737423  1.0
  Sb  Sb15  1  0.00000000  0.50000000  0.68262577  1.0
  Pd  Pd16  1  0.50000000  0.67959232  0.10675408  1.0
  Pd  Pd17  1  0.50000000  0.32040768  0.10675408  1.0
  Pd  Pd18  1  0.00000000  0.17959232  0.89324592  1.0
  Pd  Pd19  1  0.00000000  0.82040768  0.89324592  1.0
  Pd  Pd20  1  0.50000000  0.15788554  0.48691617  1.0
  Pd  Pd21  1  0.50000000  0.84211446  0.48691617  1.0
  Pd  Pd22  1  0.00000000  0.65788554  0.51308383  1.0
  Pd  Pd23  1  0.00000000  0.34211446  0.51308383  1.0
  Pd  Pd24  1  0.50000000  0.50000000  0.52280513  1.0
  Pd  Pd25  1  0.00000000  0.00000000  0.47719487  1.0
  Pd  Pd26  1  0.50000000  0.50000000  0.96281977  1.0
  Pd  Pd27  1  0.00000000  0.00000000  0.03718023  1.0
