# generated using pymatgen
data_Rb2Pd(NO3)4
_symmetry_space_group_name_H-M   'P 1'
_cell_length_a   8.01907641
_cell_length_b   8.17002988
_cell_length_c   10.04503178
_cell_angle_alpha   90.00000000
_cell_angle_beta   99.22293526
_cell_angle_gamma   90.00000000
_symmetry_Int_Tables_number   1
_chemical_formula_structural   Rb2Pd(NO3)4
_chemical_formula_sum   'Rb4 Pd2 N8 O24'
_cell_volume   649.60330595
_cell_formula_units_Z   2
loop_
 _symmetry_equiv_pos_site_id
 _symmetry_equiv_pos_as_xyz
  1  'x, y, z'
loop_
 _atom_site_type_symbol
 _atom_site_label
 _atom_site_symmetry_multiplicity
 _atom_site_fract_x
 _atom_site_fract_y
 _atom_site_fract_z
 _atom_site_occupancy
  Rb  Rb0  1  0.17206195  0.56969649  0.83474164  1.0
  Rb  Rb1  1  0.17206195  0.93030351  0.33474164  1.0
  Rb  Rb2  1  0.82793805  0.06969649  0.66525836  1.0
  Rb  Rb3  1  0.82793805  0.43030351  0.16525836  1.0
  Pd  Pd4  1  0.50000000  0.00000000  -0.00000000  1.0
  Pd  Pd5  1  0.50000000  0.50000000  0.50000000  1.0
  N  N6  1  0.81635002  0.84368591  0.96575423  1.0
  N  N7  1  0.81635002  0.65631409  0.46575423  1.0
  N  N8  1  0.18364998  0.34368591  0.53424577  1.0
  N  N9  1  0.18364998  0.15631409  0.03424577  1.0
  N  N10  1  0.66818472  0.45398692  0.77783279  1.0
  N  N11  1  0.66818472  0.04601308  0.27783279  1.0
  N  N12  1  0.33181528  0.95398692  0.72216721  1.0
  N  N13  1  0.33181528  0.54601308  0.22216721  1.0
  O  O14  1  0.93680316  0.82139216  0.90383929  1.0
  O  O15  1  0.93680316  0.67860784  0.40383929  1.0
  O  O16  1  0.06319684  0.32139216  0.59616071  1.0
  O  O17  1  0.06319684  0.17860784  0.09616071  1.0
  O  O18  1  0.79924248  0.72461776  0.57239335  1.0
  O  O19  1  0.79924248  0.77538224  0.07239335  1.0
  O  O20  1  0.20075752  0.22461776  0.92760665  1.0
  O  O21  1  0.20075752  0.27538224  0.42760665  1.0
  O  O22  1  0.78189440  0.39222552  0.86214295  1.0
  O  O23  1  0.78189440  0.10777448  0.36214295  1.0
  O  O24  1  0.21810560  0.89222552  0.63785705  1.0
  O  O25  1  0.21810560  0.60777448  0.13785705  1.0
  O  O26  1  0.70209767  0.94977852  0.90926577  1.0
  O  O27  1  0.70209767  0.55022148  0.40926577  1.0
  O  O28  1  0.29790233  0.44977852  0.59073423  1.0
  O  O29  1  0.29790233  0.05022148  0.09073423  1.0
  O  O30  1  0.56938611  0.56061632  0.80324045  1.0
  O  O31  1  0.56938611  0.93938368  0.30324045  1.0
  O  O32  1  0.43061389  0.06061632  0.69675955  1.0
  O  O33  1  0.43061389  0.43938368  0.19675955  1.0
  O  O34  1  0.34041915  0.89622614  0.84634102  1.0
  O  O35  1  0.34041915  0.60377386  0.34634102  1.0
  O  O36  1  0.65958085  0.39622614  0.65365898  1.0
  O  O37  1  0.65958085  0.10377386  0.15365898  1.0
