# generated using pymatgen
data_V3AsC
_symmetry_space_group_name_H-M   'P 1'
_cell_length_a   5.30952881
_cell_length_b   5.30952881
_cell_length_c   7.68506959
_cell_angle_alpha   90.00000000
_cell_angle_beta   90.00000000
_cell_angle_gamma   145.85100318
_symmetry_Int_Tables_number   1
_chemical_formula_structural   V3AsC
_chemical_formula_sum   'V6 As2 C2'
_cell_volume   121.61610881
_cell_formula_units_Z   2
loop_
 _symmetry_equiv_pos_site_id
 _symmetry_equiv_pos_as_xyz
  1  'x, y, z'
loop_
 _atom_site_type_symbol
 _atom_site_label
 _atom_site_symmetry_multiplicity
 _atom_site_fract_x
 _atom_site_fract_y
 _atom_site_fract_z
 _atom_site_occupancy
  V  V0  1  0.37381076  0.62618924  0.94936565  1.0
  V  V1  1  0.37381076  0.62618924  0.55063435  1.0
  V  V2  1  -0.37381076  0.37381076  0.44936565  1.0
  V  V3  1  -0.37381076  0.37381076  0.05063435  1.0
  V  V4  1  0.04504211  0.95495789  0.75000000  1.0
  V  V5  1  -0.04504211  0.04504211  0.25000000  1.0
  As  As6  1  -0.25821778  0.25821778  0.75000000  1.0
  As  As7  1  0.25821778  0.74178222  0.25000000  1.0
  C  C8  1  0.00000000  0.00000000  0.00000000  1.0
  C  C9  1  0.00000000  0.00000000  0.50000000  1.0
