# generated using pymatgen
data_CaSi2O5
_symmetry_space_group_name_H-M   'P 1'
_cell_length_a   5.32058072
_cell_length_b   5.32058072
_cell_length_c   6.64118910
_cell_angle_alpha   75.92831013
_cell_angle_beta   104.07168987
_cell_angle_gamma   74.52725857
_symmetry_Int_Tables_number   1
_chemical_formula_structural   CaSi2O5
_chemical_formula_sum   'Ca2 Si4 O10'
_cell_volume   165.93903635
_cell_formula_units_Z   2
loop_
 _symmetry_equiv_pos_site_id
 _symmetry_equiv_pos_as_xyz
  1  'x, y, z'
loop_
 _atom_site_type_symbol
 _atom_site_label
 _atom_site_symmetry_multiplicity
 _atom_site_fract_x
 _atom_site_fract_y
 _atom_site_fract_z
 _atom_site_occupancy
  Ca  Ca0  1  0.67228415  -0.32771585  0.25000000  1.0
  Ca  Ca1  1  1.32771585  0.32771585  0.75000000  1.0
  Si  Si2  1  1.31472573  0.31472573  0.25000000  1.0
  Si  Si3  1  0.68527427  -0.31472573  0.75000000  1.0
  Si  Si4  1  -0.00000000  0.00000000  0.50000000  1.0
  Si  Si5  1  0.00000000  -0.00000000  0.00000000  1.0
  O  O6  1  1.63246915  0.23694059  0.41092135  1.0
  O  O7  1  0.76305941  -0.63246915  0.91092135  1.0
  O  O8  1  1.23694059  0.63246915  0.08907865  1.0
  O  O9  1  0.36753085  -0.23694059  0.58907865  1.0
  O  O10  1  1.29586410  0.10629718  0.10307772  1.0
  O  O11  1  0.89370282  -0.29586410  0.60307772  1.0
  O  O12  1  1.10629718  0.29586410  0.39692228  1.0
  O  O13  1  0.70413590  -0.10629718  0.89692228  1.0
  O  O14  1  0.94033625  -0.05966375  0.25000000  1.0
  O  O15  1  1.05966375  0.05966375  0.75000000  1.0
