# generated using pymatgen
data_Na4Ag
_symmetry_space_group_name_H-M   'P 1'
_cell_length_a   8.15199213
_cell_length_b   8.15199213
_cell_length_c   8.15199213
_cell_angle_alpha   60.00000000
_cell_angle_beta   60.00000000
_cell_angle_gamma   60.00000000
_symmetry_Int_Tables_number   1
_chemical_formula_structural   Na4Ag
_chemical_formula_sum   'Na8 Ag2'
_cell_volume   383.06833848
_cell_formula_units_Z   2
loop_
 _symmetry_equiv_pos_site_id
 _symmetry_equiv_pos_as_xyz
  1  'x, y, z'
loop_
 _atom_site_type_symbol
 _atom_site_label
 _atom_site_symmetry_multiplicity
 _atom_site_fract_x
 _atom_site_fract_y
 _atom_site_fract_z
 _atom_site_occupancy
  Na  Na0  1  -0.10785641  0.89214359  0.32356922  1.0
  Na  Na1  1  0.89214359  -0.67643078  0.89214359  1.0
  Na  Na2  1  0.35785641  0.35785641  0.35785641  1.0
  Na  Na3  1  -0.07356922  0.35785641  0.35785641  1.0
  Na  Na4  1  -0.67643078  0.89214359  0.89214359  1.0
  Na  Na5  1  0.89214359  -0.10785641  0.89214359  1.0
  Na  Na6  1  0.35785641  -0.07356922  0.35785641  1.0
  Na  Na7  1  0.35785641  0.35785641  -0.07356922  1.0
  Ag  Ag8  1  0.50000000  0.50000000  -0.50000000  1.0
  Ag  Ag9  1  0.75000000  -0.25000000  0.75000000  1.0
