# generated using pymatgen
data_Tl4Si5O12
_symmetry_space_group_name_H-M   'P 1'
_cell_length_a   7.56317355
_cell_length_b   7.56317355
_cell_length_c   13.52801681
_cell_angle_alpha   86.71657722
_cell_angle_beta   93.28342278
_cell_angle_gamma   76.97998864
_symmetry_Int_Tables_number   1
_chemical_formula_structural   Tl4Si5O12
_chemical_formula_sum   'Tl8 Si10 O24'
_cell_volume   750.73097289
_cell_formula_units_Z   2
loop_
 _symmetry_equiv_pos_site_id
 _symmetry_equiv_pos_as_xyz
  1  'x, y, z'
loop_
 _atom_site_type_symbol
 _atom_site_label
 _atom_site_symmetry_multiplicity
 _atom_site_fract_x
 _atom_site_fract_y
 _atom_site_fract_z
 _atom_site_occupancy
  Tl  Tl0  1  1.87306613  0.06476898  0.12169304  1.0
  Tl  Tl1  1  0.93523102  -0.87306613  0.62169304  1.0
  Tl  Tl2  1  1.06476898  0.87306613  0.37830696  1.0
  Tl  Tl3  1  0.12693387  -0.06476898  0.87830696  1.0
  Tl  Tl4  1  1.37555307  0.03204523  0.12695904  1.0
  Tl  Tl5  1  0.96795477  -0.37555307  0.62695904  1.0
  Tl  Tl6  1  1.03204523  0.37555307  0.37304096  1.0
  Tl  Tl7  1  0.62444693  -0.03204523  0.87304096  1.0
  Si  Si8  1  0.63061948  -0.24103976  0.41617421  1.0
  Si  Si9  1  1.24103976  0.36938052  0.91617421  1.0
  Si  Si10  1  0.75896024  -0.36938052  0.08382579  1.0
  Si  Si11  1  1.36938052  0.24103976  0.58382579  1.0
  Si  Si12  1  1.61820850  0.17136107  0.40088488  1.0
  Si  Si13  1  0.82863893  -0.61820850  0.90088488  1.0
  Si  Si14  1  1.17136107  0.61820850  0.09911512  1.0
  Si  Si15  1  0.38179150  -0.17136107  0.59911512  1.0
  Si  Si16  1  0.51369552  -0.48630448  0.25000000  1.0
  Si  Si17  1  1.48630448  0.48630448  0.75000000  1.0
  O  O18  1  0.52844982  -0.34603993  0.33514189  1.0
  O  O19  1  1.34603993  0.47155018  0.83514189  1.0
  O  O20  1  0.65396007  -0.47155018  0.16485811  1.0
  O  O21  1  1.47155018  0.34603993  0.66485811  1.0
  O  O22  1  0.67375902  -0.15327628  0.06490493  1.0
  O  O23  1  1.15327628  0.32624098  0.56490493  1.0
  O  O24  1  0.84672372  -0.32624098  0.43509507  1.0
  O  O25  1  1.32624098  0.15327628  0.93509507  1.0
  O  O26  1  1.82664459  0.15642960  0.44092850  1.0
  O  O27  1  0.84357040  -0.82664459  0.94092850  1.0
  O  O28  1  1.15642960  0.82664459  0.05907150  1.0
  O  O29  1  0.17335541  -0.15642960  0.55907150  1.0
  O  O30  1  0.58347062  -0.02709165  0.37027395  1.0
  O  O31  1  1.02709165  0.41652938  0.87027395  1.0
  O  O32  1  0.97290835  -0.41652938  0.12972605  1.0
  O  O33  1  1.41652938  0.02709165  0.62972605  1.0
  O  O34  1  1.56289224  0.30362014  0.29710702  1.0
  O  O35  1  0.69637986  -0.56289224  0.79710702  1.0
  O  O36  1  1.30362014  0.56289224  0.20289298  1.0
  O  O37  1  0.43710776  -0.30362014  0.70289298  1.0
  O  O38  1  1.46906927  0.25368541  0.47975170  1.0
  O  O39  1  0.74631459  -0.46906927  0.97975170  1.0
  O  O40  1  1.25368541  0.46906927  0.02024830  1.0
  O  O41  1  0.53093073  -0.25368541  0.52024830  1.0
