# generated using pymatgen
data_Cs2CuBr4
_symmetry_space_group_name_H-M   'P 1'
_cell_length_a   10.49795146
_cell_length_b   8.03611142
_cell_length_c   13.22659575
_cell_angle_alpha   90.00000000
_cell_angle_beta   90.00000000
_cell_angle_gamma   90.00000000
_symmetry_Int_Tables_number   1
_chemical_formula_structural   Cs2CuBr4
_chemical_formula_sum   'Cs8 Cu4 Br16'
_cell_volume   1115.83142900
_cell_formula_units_Z   4
loop_
 _symmetry_equiv_pos_site_id
 _symmetry_equiv_pos_as_xyz
  1  'x, y, z'
loop_
 _atom_site_type_symbol
 _atom_site_label
 _atom_site_symmetry_multiplicity
 _atom_site_fract_x
 _atom_site_fract_y
 _atom_site_fract_z
 _atom_site_occupancy
  Br  Br0  1  -0.00568810  0.75000000  0.12159769  1.0
  Br  Br1  1  0.49431190  0.75000000  0.37840231  1.0
  Br  Br2  1  0.00568810  0.25000000  0.87840231  1.0
  Br  Br3  1  0.50568810  0.25000000  0.62159769  1.0
  Br  Br4  1  0.70473484  0.01751863  0.14134547  1.0
  Br  Br5  1  0.70473484  0.48248137  0.14134547  1.0
  Br  Br6  1  0.20473484  0.01751863  0.35865453  1.0
  Br  Br7  1  0.20473484  0.48248137  0.35865453  1.0
  Br  Br8  1  0.29526516  0.51751863  0.85865453  1.0
  Br  Br9  1  0.29526516  0.98248137  0.85865453  1.0
  Br  Br10  1  0.79526516  0.51751863  0.64134547  1.0
  Br  Br11  1  0.79526516  0.98248137  0.64134547  1.0
  Br  Br12  1  0.15952501  0.75000000  0.58058302  1.0
  Br  Br13  1  0.65952501  0.75000000  0.91941698  1.0
  Br  Br14  1  0.84047499  0.25000000  0.41941698  1.0
  Br  Br15  1  0.34047499  0.25000000  0.08058302  1.0
  Cs  Cs16  1  0.87775088  0.75000000  0.39739222  1.0
  Cs  Cs17  1  0.37775088  0.75000000  0.10260778  1.0
  Cs  Cs18  1  0.12224912  0.25000000  0.60260778  1.0
  Cs  Cs19  1  0.62224912  0.25000000  0.89739222  1.0
  Cs  Cs20  1  0.49506723  0.75000000  0.66669103  1.0
  Cs  Cs21  1  -0.00493277  0.75000000  0.83330897  1.0
  Cs  Cs22  1  0.50493277  0.25000000  0.33330897  1.0
  Cs  Cs23  1  0.00493277  0.25000000  0.16669103  1.0
  Cu  Cu24  1  0.77035349  0.75000000  0.07951267  1.0
  Cu  Cu25  1  0.27035349  0.75000000  0.42048733  1.0
  Cu  Cu26  1  0.22964651  0.25000000  0.92048733  1.0
  Cu  Cu27  1  0.72964651  0.25000000  0.57951267  1.0
