# generated using pymatgen
data_CaMgSiO4
_symmetry_space_group_name_H-M   'P 1'
_cell_length_a   9.16713417
_cell_length_b   6.83061825
_cell_length_c   5.21960236
_cell_angle_alpha   90.00000000
_cell_angle_beta   90.00000000
_cell_angle_gamma   90.00000000
_symmetry_Int_Tables_number   1
_chemical_formula_structural   CaMgSiO4
_chemical_formula_sum   'Ca4 Mg4 Si4 O16'
_cell_volume   326.83685343
_cell_formula_units_Z   4
loop_
 _symmetry_equiv_pos_site_id
 _symmetry_equiv_pos_as_xyz
  1  'x, y, z'
loop_
 _atom_site_type_symbol
 _atom_site_label
 _atom_site_symmetry_multiplicity
 _atom_site_fract_x
 _atom_site_fract_y
 _atom_site_fract_z
 _atom_site_occupancy
  Ca  Ca0  1  0.35376457  0.75000000  0.02702380  1.0
  Ca  Ca1  1  0.85376457  0.75000000  0.47297620  1.0
  Ca  Ca2  1  0.64623543  0.25000000  0.97297620  1.0
  Ca  Ca3  1  0.14623543  0.25000000  0.52702380  1.0
  Mg  Mg4  1  0.00000000  0.00000000  0.00000000  1.0
  Mg  Mg5  1  0.50000000  0.50000000  0.50000000  1.0
  Mg  Mg6  1  0.00000000  0.50000000  0.00000000  1.0
  Mg  Mg7  1  0.50000000  0.00000000  0.50000000  1.0
  Si  Si8  1  0.18021285  0.75000000  0.53376012  1.0
  Si  Si9  1  0.68021285  0.75000000  0.96623988  1.0
  Si  Si10  1  0.81978715  0.25000000  0.46623988  1.0
  Si  Si11  1  0.31978715  0.25000000  0.03376012  1.0
  O  O12  1  0.12026704  0.75000000  0.23416020  1.0
  O  O13  1  0.62026704  0.75000000  0.26583980  1.0
  O  O14  1  0.87973296  0.25000000  0.76583980  1.0
  O  O15  1  0.37973296  0.25000000  0.73416020  1.0
  O  O16  1  0.36098018  0.75000000  0.55918013  1.0
  O  O17  1  0.86098018  0.75000000  -0.05918013  1.0
  O  O18  1  0.63901982  0.25000000  0.44081987  1.0
  O  O19  1  0.13901982  0.25000000  1.05918013  1.0
  O  O20  1  0.11842601  0.94164960  0.68736448  1.0
  O  O21  1  0.61842601  0.55835040  0.81263552  1.0
  O  O22  1  0.88157399  0.44164960  0.31263552  1.0
  O  O23  1  0.38157399  0.05835040  0.18736448  1.0
  O  O24  1  0.88157399  0.05835040  0.31263552  1.0
  O  O25  1  0.38157399  0.44164960  0.18736448  1.0
  O  O26  1  0.11842601  0.55835040  0.68736448  1.0
  O  O27  1  0.61842601  0.94164960  0.81263552  1.0
