# generated using pymatgen
data_CsSO3
_symmetry_space_group_name_H-M   'P 1'
_cell_length_a   4.97966619
_cell_length_b   4.97966619
_cell_length_c   4.97966619
_cell_angle_alpha   79.30944459
_cell_angle_beta   79.30944459
_cell_angle_gamma   79.30944459
_symmetry_Int_Tables_number   1
_chemical_formula_structural   CsSO3
_chemical_formula_sum   'Cs1 S1 O3'
_cell_volume   117.76317441
_cell_formula_units_Z   1
loop_
 _symmetry_equiv_pos_site_id
 _symmetry_equiv_pos_as_xyz
  1  'x, y, z'
loop_
 _atom_site_type_symbol
 _atom_site_label
 _atom_site_symmetry_multiplicity
 _atom_site_fract_x
 _atom_site_fract_y
 _atom_site_fract_z
 _atom_site_occupancy
  Cs  Cs0  1  -0.02964853  -0.02964853  -0.02964853  1.0
  S  S1  1  0.45005084  0.45005084  -0.54994916  1.0
  O  O2  1  0.14791101  0.54119334  -0.45880666  1.0
  O  O3  1  0.54119334  0.14791101  -0.45880666  1.0
  O  O4  1  0.54119334  0.54119334  -0.85208899  1.0
