# generated using pymatgen
data_Cs6ZnGe8
_symmetry_space_group_name_H-M   'P 1'
_cell_length_a   13.55205390
_cell_length_b   12.89098456
_cell_length_c   16.41180030
_cell_angle_alpha   53.46967025
_cell_angle_beta   49.84876383
_cell_angle_gamma   76.68156592
_symmetry_Int_Tables_number   1
_chemical_formula_structural   Cs6ZnGe8
_chemical_formula_sum   'Cs18 Zn3 Ge24'
_cell_volume   1705.09151139
_cell_formula_units_Z   3
loop_
 _symmetry_equiv_pos_site_id
 _symmetry_equiv_pos_as_xyz
  1  'x, y, z'
loop_
 _atom_site_type_symbol
 _atom_site_label
 _atom_site_symmetry_multiplicity
 _atom_site_fract_x
 _atom_site_fract_y
 _atom_site_fract_z
 _atom_site_occupancy
  Cs  Cs0  1  1.08517259  0.43694043  0.27474424  1.0
  Cs  Cs1  1  0.72525576  -0.20314275  0.91482741  1.0
  Cs  Cs2  1  0.79685725  -0.27474424  0.56305957  1.0
  Cs  Cs3  1  1.43694043  0.08517259  0.20314275  1.0
  Cs  Cs4  1  1.47116902  0.41959990  0.19468529  1.0
  Cs  Cs5  1  0.80531471  0.08545421  0.52883098  1.0
  Cs  Cs6  1  1.08545421  -0.19468529  0.58040010  1.0
  Cs  Cs7  1  1.41959990  0.47116902  -0.08545421  1.0
  Cs  Cs8  1  0.62533436  1.24968299  -0.62533436  1.0
  Cs  Cs9  1  0.24968299  0.62533436  -0.24968299  1.0
  Cs  Cs10  1  0.62751524  0.92035165  -0.62751524  1.0
  Cs  Cs11  1  -0.07964835  0.62751524  0.07964835  1.0
  Cs  Cs12  1  0.85263578  -0.81075737  0.81075737  1.0
  Cs  Cs13  1  1.18924263  -0.14736422  0.14736422  1.0
  Cs  Cs14  1  1.15767001  -0.48596722  0.48596722  1.0
  Cs  Cs15  1  1.51403278  0.15767001  -0.15767001  1.0
  Cs  Cs16  1  0.00172458  0.00172458  -0.00172458  1.0
  Cs  Cs17  1  0.33420838  0.33420838  -0.33420838  1.0
  Zn  Zn18  1  0.29034712  0.95711758  -0.29034712  1.0
  Zn  Zn19  1  -0.04288242  0.29034712  0.04288242  1.0
  Zn  Zn20  1  0.63029569  0.63029569  -0.63029569  1.0
  Ge  Ge21  1  0.71733014  0.41582281  0.46526766  1.0
  Ge  Ge22  1  0.53473234  -0.40157939  1.28266986  1.0
  Ge  Ge23  1  0.59842061  -0.46526766  0.58417719  1.0
  Ge  Ge24  1  1.41582281  -0.28266986  0.40157939  1.0
  Ge  Ge25  1  1.22355568  0.18209286  0.59270885  1.0
  Ge  Ge26  1  0.40729115  -0.00164261  0.77644432  1.0
  Ge  Ge27  1  0.99835739  -0.59270885  0.81790714  1.0
  Ge  Ge28  1  1.18209286  0.22355568  0.00164261  1.0
  Ge  Ge29  1  1.07223740  -0.05688388  0.74157821  1.0
  Ge  Ge30  1  0.25842179  -0.24306827  0.92776260  1.0
  Ge  Ge31  1  0.75693173  -0.74157821  1.05688388  1.0
  Ge  Ge32  1  0.94311612  0.07223740  0.24306827  1.0
  Ge  Ge33  1  1.11734504  0.14033633  0.52627124  1.0
  Ge  Ge34  1  0.47372876  -0.21604740  0.88265496  1.0
  Ge  Ge35  1  0.78395260  -0.52627124  0.85966367  1.0
  Ge  Ge36  1  1.14033633  0.11734504  0.21604740  1.0
  Ge  Ge37  1  1.31421527  0.03775975  0.50345537  1.0
  Ge  Ge38  1  0.49654463  -0.14456962  0.68578473  1.0
  Ge  Ge39  1  0.85543038  -0.50345537  0.96224025  1.0
  Ge  Ge40  1  1.03775975  0.31421527  0.14456962  1.0
  Ge  Ge41  1  0.80318513  -0.55125352  0.55125352  1.0
  Ge  Ge42  1  1.44874648  -0.19681487  0.19681487  1.0
  Ge  Ge43  1  0.84265996  -0.34283698  0.34283698  1.0
  Ge  Ge44  1  1.65716302  -0.15734004  0.15734004  1.0
