# generated using pymatgen
data_Y(HO)3
_symmetry_space_group_name_H-M   'P 1'
_cell_length_a   6.35531881
_cell_length_b   6.35531881
_cell_length_c   3.53625485
_cell_angle_alpha   90.00000000
_cell_angle_beta   90.00000000
_cell_angle_gamma   120.00000000
_symmetry_Int_Tables_number   1
_chemical_formula_structural   Y(HO)3
_chemical_formula_sum   'Y2 H6 O6'
_cell_volume   123.69406777
_cell_formula_units_Z   2
loop_
 _symmetry_equiv_pos_site_id
 _symmetry_equiv_pos_as_xyz
  1  'x, y, z'
loop_
 _atom_site_type_symbol
 _atom_site_label
 _atom_site_symmetry_multiplicity
 _atom_site_fract_x
 _atom_site_fract_y
 _atom_site_fract_z
 _atom_site_occupancy
  Y  Y0  1  0.33333333  0.66666667  0.25000000  1.0
  Y  Y1  1  0.66666667  0.33333333  0.75000000  1.0
  H  H2  1  0.86098342  0.72011489  0.25000000  1.0
  H  H3  1  0.72011489  0.85913146  0.75000000  1.0
  H  H4  1  0.85913146  0.13901658  0.25000000  1.0
  H  H5  1  0.27988511  0.14086854  0.25000000  1.0
  H  H6  1  0.13901658  0.27988511  0.75000000  1.0
  H  H7  1  0.14086854  0.86098342  0.75000000  1.0
  O  O8  1  0.68825933  0.60211560  0.25000000  1.0
  O  O9  1  0.60211560  0.91385627  0.75000000  1.0
  O  O10  1  0.91385627  0.31174067  0.25000000  1.0
  O  O11  1  0.39788440  0.08614373  0.25000000  1.0
  O  O12  1  0.31174067  0.39788440  0.75000000  1.0
  O  O13  1  0.08614373  0.68825933  0.75000000  1.0
