# generated using pymatgen
data_Na2MgCl4
_symmetry_space_group_name_H-M   'P 1'
_cell_length_a   6.95479229
_cell_length_b   12.09245423
_cell_length_c   3.84453173
_cell_angle_alpha   90.00000000
_cell_angle_beta   90.00000000
_cell_angle_gamma   90.00000000
_symmetry_Int_Tables_number   1
_chemical_formula_structural   Na2MgCl4
_chemical_formula_sum   'Na4 Mg2 Cl8'
_cell_volume   323.32706925
_cell_formula_units_Z   2
loop_
 _symmetry_equiv_pos_site_id
 _symmetry_equiv_pos_as_xyz
  1  'x, y, z'
loop_
 _atom_site_type_symbol
 _atom_site_label
 _atom_site_symmetry_multiplicity
 _atom_site_fract_x
 _atom_site_fract_y
 _atom_site_fract_z
 _atom_site_occupancy
  Na  Na0  1  0.41663264  0.81939628  0.50000000  1.0
  Na  Na1  1  0.91663264  0.68060372  0.50000000  1.0
  Na  Na2  1  0.58336736  0.18060372  0.50000000  1.0
  Na  Na3  1  0.08336736  0.31939628  0.50000000  1.0
  Mg  Mg4  1  0.50000000  0.50000000  0.00000000  1.0
  Mg  Mg5  1  0.00000000  0.00000000  0.00000000  1.0
  Cl  Cl6  1  0.26406758  0.54289420  0.50000000  1.0
  Cl  Cl7  1  0.76406758  0.95710580  0.50000000  1.0
  Cl  Cl8  1  0.73593242  0.45710580  0.50000000  1.0
  Cl  Cl9  1  0.23593242  0.04289420  0.50000000  1.0
  Cl  Cl10  1  0.12031721  0.80646573  0.00000000  1.0
  Cl  Cl11  1  0.62031721  0.69353427  0.00000000  1.0
  Cl  Cl12  1  0.87968279  0.19353427  0.00000000  1.0
  Cl  Cl13  1  0.37968279  0.30646573  0.00000000  1.0
