# generated using pymatgen
data_CrB4
_symmetry_space_group_name_H-M   'P 1'
_cell_length_a   4.71861606
_cell_length_b   5.46646994
_cell_length_c   2.84946013
_cell_angle_alpha   90.00000000
_cell_angle_beta   90.00000000
_cell_angle_gamma   90.00000000
_symmetry_Int_Tables_number   1
_chemical_formula_structural   CrB4
_chemical_formula_sum   'Cr2 B8'
_cell_volume   73.49946723
_cell_formula_units_Z   2
loop_
 _symmetry_equiv_pos_site_id
 _symmetry_equiv_pos_as_xyz
  1  'x, y, z'
loop_
 _atom_site_type_symbol
 _atom_site_label
 _atom_site_symmetry_multiplicity
 _atom_site_fract_x
 _atom_site_fract_y
 _atom_site_fract_z
 _atom_site_occupancy
  Cr  Cr0  1  0.50000000  0.50000000  0.50000000  1.0
  Cr  Cr1  1  0.00000000  0.00000000  0.00000000  1.0
  B  B2  1  0.33521469  0.13329396  0.50000000  1.0
  B  B3  1  0.83521469  0.36670604  0.00000000  1.0
  B  B4  1  0.66478531  0.86670604  0.50000000  1.0
  B  B5  1  0.16478531  0.63329396  0.00000000  1.0
  B  B6  1  0.27624650  0.82086980  0.50000000  1.0
  B  B7  1  0.77624650  0.67913020  0.00000000  1.0
  B  B8  1  0.72375350  0.17913020  0.50000000  1.0
  B  B9  1  0.22375350  0.32086980  0.00000000  1.0
