# generated using pymatgen
data_K3CuO2
_symmetry_space_group_name_H-M   'P 1'
_cell_length_a   8.67165387
_cell_length_b   8.67165387
_cell_length_c   13.53074064
_cell_angle_alpha   90.00000000
_cell_angle_beta   90.00000000
_cell_angle_gamma   90.00000000
_symmetry_Int_Tables_number   1
_chemical_formula_structural   K3CuO2
_chemical_formula_sum   'K24 Cu8 O16'
_cell_volume   1017.47896322
_cell_formula_units_Z   8
loop_
 _symmetry_equiv_pos_site_id
 _symmetry_equiv_pos_as_xyz
  1  'x, y, z'
loop_
 _atom_site_type_symbol
 _atom_site_label
 _atom_site_symmetry_multiplicity
 _atom_site_fract_x
 _atom_site_fract_y
 _atom_site_fract_z
 _atom_site_occupancy
  K  K0  1  0.46638788  0.93603843  0.24899525  1.0
  K  K1  1  0.96638788  0.56396157  0.50100475  1.0
  K  K2  1  0.06396157  0.53361212  0.25100475  1.0
  K  K3  1  0.56396157  0.96638788  0.49899525  1.0
  K  K4  1  0.53361212  0.06396157  0.74899525  1.0
  K  K5  1  0.03361212  0.43603843  0.00100475  1.0
  K  K6  1  0.93603843  0.46638788  0.75100475  1.0
  K  K7  1  0.43603843  0.03361212  0.99899525  1.0
  K  K8  1  0.15897845  0.73469408  0.85834753  1.0
  K  K9  1  0.65897845  0.76530592  0.89165247  1.0
  K  K10  1  0.26530592  0.84102155  0.64165247  1.0
  K  K11  1  0.76530592  0.65897845  0.10834753  1.0
  K  K12  1  0.84102155  0.26530592  0.35834753  1.0
  K  K13  1  0.34102155  0.23469408  0.39165247  1.0
  K  K14  1  0.73469408  0.15897845  0.14165247  1.0
  K  K15  1  0.23469408  0.34102155  0.60834753  1.0
  K  K16  1  0.47490497  0.52509503  0.25000000  1.0
  K  K17  1  0.97490497  0.97490497  0.50000000  1.0
  K  K18  1  0.52509503  0.47490497  0.75000000  1.0
  K  K19  1  0.02509503  0.02509503  0.00000000  1.0
  K  K20  1  0.05644577  0.94355423  0.25000000  1.0
  K  K21  1  0.55644577  0.55644577  0.50000000  1.0
  K  K22  1  0.94355423  0.05644577  0.75000000  1.0
  K  K23  1  0.44355423  0.44355423  0.00000000  1.0
  Cu  Cu24  1  0.26469851  0.73581573  0.08432340  1.0
  Cu  Cu25  1  0.76469851  0.76418427  0.66567660  1.0
  Cu  Cu26  1  0.26418427  0.73530149  0.41567660  1.0
  Cu  Cu27  1  0.76418427  0.76469851  0.33432340  1.0
  Cu  Cu28  1  0.73530149  0.26418427  0.58432340  1.0
  Cu  Cu29  1  0.23530149  0.23581573  0.16567660  1.0
  Cu  Cu30  1  0.73581573  0.26469851  0.91567660  1.0
  Cu  Cu31  1  0.23581573  0.23530149  0.83432340  1.0
  O  O32  1  0.47429480  0.73629151  0.08415102  1.0
  O  O33  1  0.97429480  0.76370849  0.66584898  1.0
  O  O34  1  0.26370849  0.52570520  0.41584898  1.0
  O  O35  1  0.76370849  0.97429480  0.33415102  1.0
  O  O36  1  0.52570520  0.26370849  0.58415102  1.0
  O  O37  1  0.02570520  0.23629151  0.16584898  1.0
  O  O38  1  0.73629151  0.47429480  0.91584898  1.0
  O  O39  1  0.23629151  0.02570520  0.83415102  1.0
  O  O40  1  0.05569222  0.73261827  0.07959073  1.0
  O  O41  1  0.55569222  0.76738173  0.67040927  1.0
  O  O42  1  0.26738173  0.94430778  0.42040927  1.0
  O  O43  1  0.76738173  0.55569222  0.32959073  1.0
  O  O44  1  0.94430778  0.26738173  0.57959073  1.0
  O  O45  1  0.44430778  0.23261827  0.17040927  1.0
  O  O46  1  0.73261827  0.05569222  0.92040927  1.0
  O  O47  1  0.23261827  0.44430778  0.82959073  1.0
