# generated using pymatgen
data_IrC3
_symmetry_space_group_name_H-M   'P 1'
_cell_length_a   13.80309961
_cell_length_b   2.60569364
_cell_length_c   4.35021895
_cell_angle_alpha   90.00000000
_cell_angle_beta   90.00000000
_cell_angle_gamma   90.00000000
_symmetry_Int_Tables_number   1
_chemical_formula_structural   IrC3
_chemical_formula_sum   'Ir4 C12'
_cell_volume   156.46279747
_cell_formula_units_Z   4
loop_
 _symmetry_equiv_pos_site_id
 _symmetry_equiv_pos_as_xyz
  1  'x, y, z'
loop_
 _atom_site_type_symbol
 _atom_site_label
 _atom_site_symmetry_multiplicity
 _atom_site_fract_x
 _atom_site_fract_y
 _atom_site_fract_z
 _atom_site_occupancy
  Ir  Ir0  1  0.66452971  0.25000000  0.52002086  1.0
  Ir  Ir1  1  0.16452971  0.25000000  -0.02002086  1.0
  Ir  Ir2  1  0.33547029  0.75000000  0.47997914  1.0
  Ir  Ir3  1  0.83547029  0.75000000  1.02002086  1.0
  C  C4  1  0.47664134  0.25000000  0.02292391  1.0
  C  C5  1  -0.02335866  0.25000000  0.47707609  1.0
  C  C6  1  0.52335866  0.75000000  0.97707609  1.0
  C  C7  1  1.02335866  0.75000000  0.52292391  1.0
  C  C8  1  0.87198764  0.25000000  0.38631019  1.0
  C  C9  1  0.37198764  0.25000000  0.11368981  1.0
  C  C10  1  0.12801236  0.75000000  0.61368981  1.0
  C  C11  1  0.62801236  0.75000000  0.88631019  1.0
  C  C12  1  0.80468067  0.25000000  0.64625095  1.0
  C  C13  1  0.30468067  0.25000000  0.85374905  1.0
  C  C14  1  0.19531933  0.75000000  0.35374905  1.0
  C  C15  1  0.69531933  0.75000000  0.14625095  1.0
