# generated using pymatgen
data_Ba5Ge3
_symmetry_space_group_name_H-M   'P 1'
_cell_length_a   8.58948263
_cell_length_b   8.58948263
_cell_length_c   16.74912631
_cell_angle_alpha   90.00000000
_cell_angle_beta   90.00000000
_cell_angle_gamma   90.00000000
_symmetry_Int_Tables_number   1
_chemical_formula_structural   Ba5Ge3
_chemical_formula_sum   'Ba20 Ge12'
_cell_volume   1235.73733803
_cell_formula_units_Z   4
loop_
 _symmetry_equiv_pos_site_id
 _symmetry_equiv_pos_as_xyz
  1  'x, y, z'
loop_
 _atom_site_type_symbol
 _atom_site_label
 _atom_site_symmetry_multiplicity
 _atom_site_fract_x
 _atom_site_fract_y
 _atom_site_fract_z
 _atom_site_occupancy
  Ba  Ba0  1  0.00000000  0.50000000  0.28207003  1.0
  Ba  Ba1  1  0.00000000  0.50000000  0.78207003  1.0
  Ba  Ba2  1  0.50000000  0.00000000  0.71792997  1.0
  Ba  Ba3  1  0.50000000  0.00000000  0.21792997  1.0
  Ba  Ba4  1  0.80415042  0.83450119  0.39097586  1.0
  Ba  Ba5  1  0.19584958  0.83450119  0.89097586  1.0
  Ba  Ba6  1  0.80415042  0.16549881  0.89097586  1.0
  Ba  Ba7  1  0.19584958  0.16549881  0.39097586  1.0
  Ba  Ba8  1  0.33450119  0.30415042  0.89097586  1.0
  Ba  Ba9  1  0.66549881  0.30415042  0.39097586  1.0
  Ba  Ba10  1  0.33450119  0.69584958  0.39097586  1.0
  Ba  Ba11  1  0.66549881  0.69584958  0.89097586  1.0
  Ba  Ba12  1  0.69584958  0.66549881  0.60902414  1.0
  Ba  Ba13  1  0.30415042  0.66549881  0.10902414  1.0
  Ba  Ba14  1  0.69584958  0.33450119  0.10902414  1.0
  Ba  Ba15  1  0.30415042  0.33450119  0.60902414  1.0
  Ba  Ba16  1  0.16549881  0.19584958  0.10902414  1.0
  Ba  Ba17  1  0.83450119  0.19584958  0.60902414  1.0
  Ba  Ba18  1  0.16549881  0.80415042  0.60902414  1.0
  Ba  Ba19  1  0.83450119  0.80415042  0.10902414  1.0
  Ge  Ge20  1  0.00000000  0.50000000  0.49057305  1.0
  Ge  Ge21  1  0.00000000  0.50000000  0.99057305  1.0
  Ge  Ge22  1  0.50000000  0.00000000  0.50942695  1.0
  Ge  Ge23  1  0.50000000  0.00000000  0.00942695  1.0
  Ge  Ge24  1  0.89189352  0.10810648  0.25000000  1.0
  Ge  Ge25  1  0.10810648  0.10810648  0.75000000  1.0
  Ge  Ge26  1  0.89189352  0.89189352  0.75000000  1.0
  Ge  Ge27  1  0.10810648  0.89189352  0.25000000  1.0
  Ge  Ge28  1  0.60810648  0.39189352  0.75000000  1.0
  Ge  Ge29  1  0.39189352  0.39189352  0.25000000  1.0
  Ge  Ge30  1  0.60810648  0.60810648  0.25000000  1.0
  Ge  Ge31  1  0.39189352  0.60810648  0.75000000  1.0
