# generated using pymatgen
data_YCuSeO
_symmetry_space_group_name_H-M   'P 1'
_cell_length_a   3.89041360
_cell_length_b   3.89041360
_cell_length_c   8.78807563
_cell_angle_alpha   90.00000000
_cell_angle_beta   90.00000000
_cell_angle_gamma   90.00000000
_symmetry_Int_Tables_number   1
_chemical_formula_structural   YCuSeO
_chemical_formula_sum   'Y2 Cu2 Se2 O2'
_cell_volume   133.01031934
_cell_formula_units_Z   2
loop_
 _symmetry_equiv_pos_site_id
 _symmetry_equiv_pos_as_xyz
  1  'x, y, z'
loop_
 _atom_site_type_symbol
 _atom_site_label
 _atom_site_symmetry_multiplicity
 _atom_site_fract_x
 _atom_site_fract_y
 _atom_site_fract_z
 _atom_site_occupancy
  Y  Y0  1  0.50000000  0.00000000  0.62720609  1.0
  Y  Y1  1  0.00000000  0.50000000  0.37279391  1.0
  Cu  Cu2  1  0.00000000  0.00000000  0.00000000  1.0
  Cu  Cu3  1  0.50000000  0.50000000  0.00000000  1.0
  Se  Se4  1  0.50000000  0.00000000  0.18309841  1.0
  Se  Se5  1  0.00000000  0.50000000  0.81690159  1.0
  O  O6  1  0.00000000  0.00000000  0.50000000  1.0
  O  O7  1  0.50000000  0.50000000  0.50000000  1.0
