# generated using pymatgen
data_Sr3TaAs3O
_symmetry_space_group_name_H-M   'P 1'
_cell_length_a   6.44153444
_cell_length_b   10.77622649
_cell_length_c   13.06569741
_cell_angle_alpha   90.00000000
_cell_angle_beta   90.00000000
_cell_angle_gamma   90.00000000
_symmetry_Int_Tables_number   1
_chemical_formula_structural   Sr3TaAs3O
_chemical_formula_sum   'Sr12 Ta4 As12 O4'
_cell_volume   906.96105741
_cell_formula_units_Z   4
loop_
 _symmetry_equiv_pos_site_id
 _symmetry_equiv_pos_as_xyz
  1  'x, y, z'
loop_
 _atom_site_type_symbol
 _atom_site_label
 _atom_site_symmetry_multiplicity
 _atom_site_fract_x
 _atom_site_fract_y
 _atom_site_fract_z
 _atom_site_occupancy
  Sr  Sr0  1  0.24524635  0.95706279  0.87191619  1.0
  Sr  Sr1  1  0.24524635  0.54293721  0.87191619  1.0
  Sr  Sr2  1  0.74524635  0.95706279  0.62808381  1.0
  Sr  Sr3  1  0.74524635  0.54293721  0.62808381  1.0
  Sr  Sr4  1  0.75475365  0.45706279  0.12808381  1.0
  Sr  Sr5  1  0.75475365  0.04293721  0.12808381  1.0
  Sr  Sr6  1  0.25475365  0.45706279  0.37191619  1.0
  Sr  Sr7  1  0.25475365  0.04293721  0.37191619  1.0
  Sr  Sr8  1  0.26795811  0.75000000  0.12839390  1.0
  Sr  Sr9  1  0.76795811  0.75000000  0.37160610  1.0
  Sr  Sr10  1  0.73204189  0.25000000  0.87160610  1.0
  Sr  Sr11  1  0.23204189  0.25000000  0.62839390  1.0
  Ta  Ta12  1  0.34186014  0.75000000  0.54813450  1.0
  Ta  Ta13  1  0.84186014  0.75000000  0.95186550  1.0
  Ta  Ta14  1  0.65813986  0.25000000  0.45186550  1.0
  Ta  Ta15  1  0.15813986  0.25000000  0.04813450  1.0
  As  As16  1  0.23660017  0.95154771  0.62360774  1.0
  As  As17  1  0.23660017  0.54845229  0.62360774  1.0
  As  As18  1  0.73660017  0.95154771  0.87639226  1.0
  As  As19  1  0.73660017  0.54845229  0.87639226  1.0
  As  As20  1  0.76339983  0.45154771  0.37639226  1.0
  As  As21  1  0.76339983  0.04845229  0.37639226  1.0
  As  As22  1  0.26339983  0.45154771  0.12360774  1.0
  As  As23  1  0.26339983  0.04845229  0.12360774  1.0
  As  As24  1  0.26376749  0.75000000  0.36348593  1.0
  As  As25  1  0.76376749  0.75000000  0.13651407  1.0
  As  As26  1  0.73623251  0.25000000  0.63651407  1.0
  As  As27  1  0.23623251  0.25000000  0.86348593  1.0
  O  O28  1  0.13468029  0.75000000  0.94550590  1.0
  O  O29  1  0.63468029  0.75000000  0.55449410  1.0
  O  O30  1  0.86531971  0.25000000  0.05449410  1.0
  O  O31  1  0.36531971  0.25000000  0.44550590  1.0
