# generated using pymatgen
data_K2Ni3S4
_symmetry_space_group_name_H-M   'P 1'
_cell_length_a   14.27324062
_cell_length_b   13.65108242
_cell_length_c   5.82638813
_cell_angle_alpha   84.01963111
_cell_angle_beta   72.02768939
_cell_angle_gamma   23.95267950
_symmetry_Int_Tables_number   1
_chemical_formula_structural   K2Ni3S4
_chemical_formula_sum   'K4 Ni6 S8'
_cell_volume   389.17067242
_cell_formula_units_Z   2
loop_
 _symmetry_equiv_pos_site_id
 _symmetry_equiv_pos_as_xyz
  1  'x, y, z'
loop_
 _atom_site_type_symbol
 _atom_site_label
 _atom_site_symmetry_multiplicity
 _atom_site_fract_x
 _atom_site_fract_y
 _atom_site_fract_z
 _atom_site_occupancy
  K  K0  1  0.07780143  0.07780143  -0.07780143  1.0
  K  K1  1  0.92219857  0.92219857  -0.92219857  1.0
  K  K2  1  1.17219857  0.17219857  0.32780143  1.0
  K  K3  1  1.32780143  0.32780143  0.17219857  1.0
  Ni  Ni4  1  -0.50000000  0.50000000  0.50000000  1.0
  Ni  Ni5  1  0.75000000  0.75000000  0.75000000  1.0
  Ni  Ni6  1  0.50071476  -0.49928524  0.99928524  1.0
  Ni  Ni7  1  0.99928524  0.99928524  0.50071476  1.0
  Ni  Ni8  1  0.74928524  0.74928524  -0.74928524  1.0
  Ni  Ni9  1  0.25071476  1.25071476  -0.25071476  1.0
  S  S10  1  0.38376051  -0.27546086  1.28448366  1.0
  S  S11  1  1.60721669  0.28448366  -0.27546086  1.0
  S  S12  1  1.28448366  0.60721669  0.38376051  1.0
  S  S13  1  -0.27546086  0.38376051  1.60721669  1.0
  S  S14  1  0.86623949  0.52546086  0.96551634  1.0
  S  S15  1  0.64278331  0.96551634  -0.47453914  1.0
  S  S16  1  0.96551634  0.64278331  0.86623949  1.0
  S  S17  1  0.52546086  0.86623949  -0.35721669  1.0
