# generated using pymatgen
data_CuC2(SN2)2
_symmetry_space_group_name_H-M   'P 1'
_cell_length_a   11.75959438
_cell_length_b   6.74642792
_cell_length_c   8.69470449
_cell_angle_alpha   90.00000000
_cell_angle_beta   90.00000000
_cell_angle_gamma   90.00000000
_symmetry_Int_Tables_number   1
_chemical_formula_structural   CuC2(SN2)2
_chemical_formula_sum   'Cu4 C8 S8 N16'
_cell_volume   689.79660568
_cell_formula_units_Z   4
loop_
 _symmetry_equiv_pos_site_id
 _symmetry_equiv_pos_as_xyz
  1  'x, y, z'
loop_
 _atom_site_type_symbol
 _atom_site_label
 _atom_site_symmetry_multiplicity
 _atom_site_fract_x
 _atom_site_fract_y
 _atom_site_fract_z
 _atom_site_occupancy
  C  C0  1  0.78584640  0.24933829  0.42025274  1.0
  C  C1  1  0.21415360  0.75066171  0.92025274  1.0
  C  C2  1  0.71415360  0.74933829  0.92025274  1.0
  C  C3  1  0.28584640  0.25066171  0.42025274  1.0
  C  C4  1  0.92201546  0.74962344  0.29527497  1.0
  C  C5  1  0.07798454  0.25037656  0.79527497  1.0
  C  C6  1  0.57798454  0.24962344  0.79527497  1.0
  C  C7  1  0.42201546  0.75037656  0.29527497  1.0
  N  N8  1  0.54719683  0.24778028  0.22762768  1.0
  N  N9  1  0.45280317  0.75221972  0.72762768  1.0
  N  N10  1  0.95280317  0.74778028  0.72762768  1.0
  N  N11  1  0.04719683  0.25221972  0.22762768  1.0
  N  N12  1  0.81506391  0.24961953  -0.01252113  1.0
  N  N13  1  0.18493609  0.75038047  0.48747887  1.0
  N  N14  1  0.68493609  0.74961953  0.48747887  1.0
  N  N15  1  0.31506391  0.25038047  -0.01252113  1.0
  N  N16  1  0.89754052  0.74942845  0.42679860  1.0
  N  N17  1  0.10245948  0.25057155  0.92679860  1.0
  N  N18  1  0.60245948  0.24942845  0.92679860  1.0
  N  N19  1  0.39754052  0.75057155  0.42679860  1.0
  N  N20  1  0.76081226  0.24888936  0.28923412  1.0
  N  N21  1  0.23918774  0.75111064  0.78923412  1.0
  N  N22  1  0.73918774  0.74888936  0.78923412  1.0
  N  N23  1  0.26081226  0.25111064  0.28923412  1.0
  S  S24  1  0.94554480  0.74999237  0.11115223  1.0
  S  S25  1  0.05445520  0.25000763  0.61115223  1.0
  S  S26  1  0.55445520  0.24999237  0.61115223  1.0
  S  S27  1  0.44554480  0.75000763  0.11115223  1.0
  S  S28  1  0.68930450  0.74993005  0.10481663  1.0
  S  S29  1  0.31069550  0.25006995  0.60481663  1.0
  S  S30  1  0.81069550  0.24993005  0.60481663  1.0
  S  S31  1  0.18930450  0.75006995  0.10481663  1.0
  Cu  Cu32  1  0.68129484  0.24880356  0.10806416  1.0
  Cu  Cu33  1  0.31870516  0.75119644  0.60806416  1.0
  Cu  Cu34  1  0.81870516  0.74880356  0.60806416  1.0
  Cu  Cu35  1  0.18129484  0.25119644  0.10806416  1.0
