# generated using pymatgen
data_BiB2O4F
_symmetry_space_group_name_H-M   'P 1'
_cell_length_a   6.79185511
_cell_length_b   6.79185511
_cell_length_c   6.54060073
_cell_angle_alpha   90.00000000
_cell_angle_beta   90.00000000
_cell_angle_gamma   120.00000000
_symmetry_Int_Tables_number   1
_chemical_formula_structural   BiB2O4F
_chemical_formula_sum   'Bi3 B6 O12 F3'
_cell_volume   261.29138763
_cell_formula_units_Z   3
loop_
 _symmetry_equiv_pos_site_id
 _symmetry_equiv_pos_as_xyz
  1  'x, y, z'
loop_
 _atom_site_type_symbol
 _atom_site_label
 _atom_site_symmetry_multiplicity
 _atom_site_fract_x
 _atom_site_fract_y
 _atom_site_fract_z
 _atom_site_occupancy
  Bi  Bi0  1  0.39162025  0.95898007  0.66429700  1.0
  Bi  Bi1  1  0.56735982  0.60837975  0.33096367  1.0
  Bi  Bi2  1  0.04101993  0.43264018  -0.00236966  1.0
  B  B3  1  0.37760458  0.98238304  0.21410446  1.0
  B  B4  1  0.60477846  0.62239542  0.88077113  1.0
  B  B5  1  0.01761696  0.39522154  0.54743780  1.0
  B  B6  1  0.02303195  0.90362655  0.99752071  1.0
  B  B7  1  0.88059460  0.97696805  0.66418738  1.0
  B  B8  1  0.09637345  0.11940540  0.33085405  1.0
  O  O9  1  0.05710125  0.96455118  0.78146648  1.0
  O  O10  1  0.90744993  0.94289875  0.44813314  1.0
  O  O11  1  0.03544882  0.09255007  0.11479981  1.0
  O  O12  1  0.19820337  0.84686231  0.06472945  1.0
  O  O13  1  0.64865894  0.80179663  0.73139612  1.0
  O  O14  1  0.15313769  0.35134106  0.39806279  1.0
  O  O15  1  0.79834111  0.68875946  0.02345223  1.0
  O  O16  1  0.89041835  0.20165889  0.69011890  1.0
  O  O17  1  0.31124054  0.10958165  0.35678557  1.0
  O  O18  1  0.14881280  0.58885912  0.68299484  1.0
  O  O19  1  0.44004631  0.85118720  0.34966150  1.0
  O  O20  1  0.41114088  0.55995369  0.01632817  1.0
  F  F21  1  0.56729471  0.42512375  0.76096815  1.0
  F  F22  1  0.85782904  0.43270529  0.42763482  1.0
  F  F23  1  0.57487625  0.14217096  0.09430148  1.0
