# generated using pymatgen
data_ScV(SeO4)2
_symmetry_space_group_name_H-M   'P 1'
_cell_length_a   9.19768296
_cell_length_b   5.24926861
_cell_length_c   15.30882681
_cell_angle_alpha   90.00000000
_cell_angle_beta   110.14500408
_cell_angle_gamma   90.00000000
_symmetry_Int_Tables_number   1
_chemical_formula_structural   ScV(SeO4)2
_chemical_formula_sum   'Sc4 V4 Se8 O32'
_cell_volume   693.91030738
_cell_formula_units_Z   4
loop_
 _symmetry_equiv_pos_site_id
 _symmetry_equiv_pos_as_xyz
  1  'x, y, z'
loop_
 _atom_site_type_symbol
 _atom_site_label
 _atom_site_symmetry_multiplicity
 _atom_site_fract_x
 _atom_site_fract_y
 _atom_site_fract_z
 _atom_site_occupancy
  Sc  Sc0  1  0.80374167  0.81303278  0.38976253  1.0
  Sc  Sc1  1  0.80374167  0.68696722  0.88976253  1.0
  Sc  Sc2  1  0.19625833  0.31303278  0.11023747  1.0
  Sc  Sc3  1  0.19625833  0.18696722  0.61023747  1.0
  V  V4  1  0.62987435  0.35818172  0.48447478  1.0
  V  V5  1  0.62987435  0.14181828  0.98447478  1.0
  V  V6  1  0.37012565  0.85818172  0.01552522  1.0
  V  V7  1  0.37012565  0.64181828  0.51552522  1.0
  Se  Se8  1  0.94453899  0.81185001  0.12912744  1.0
  Se  Se9  1  0.94453899  0.68814999  0.62912744  1.0
  Se  Se10  1  0.05546101  0.31185001  0.37087256  1.0
  Se  Se11  1  0.05546101  0.18814999  0.87087256  1.0
  Se  Se12  1  0.60417853  0.20320926  0.19383012  1.0
  Se  Se13  1  0.60417853  0.29679074  0.69383012  1.0
  Se  Se14  1  0.39582147  0.70320926  0.30616988  1.0
  Se  Se15  1  0.39582147  0.79679074  0.80616988  1.0
  O  O16  1  0.98784739  0.03037593  0.39760655  1.0
  O  O17  1  0.98784739  0.46962407  0.89760655  1.0
  O  O18  1  0.01215261  0.53037593  0.10239345  1.0
  O  O19  1  0.01215261  0.96962407  0.60239345  1.0
  O  O20  1  0.89496686  0.50317865  0.33949869  1.0
  O  O21  1  0.89496686  -0.00317865  0.83949869  1.0
  O  O22  1  0.10503314  1.00317865  0.16050131  1.0
  O  O23  1  0.10503314  0.49682135  0.66050131  1.0
  O  O24  1  0.83816818  0.90772577  0.01452211  1.0
  O  O25  1  0.83816818  0.59227423  0.51452211  1.0
  O  O26  1  0.16183182  0.40772577  0.48547789  1.0
  O  O27  1  0.16183182  0.09227423  0.98547789  1.0
  O  O28  1  0.70477903  0.21085001  0.11608423  1.0
  O  O29  1  0.70477903  0.28914999  0.61608423  1.0
  O  O30  1  0.29522097  0.71085001  0.38391577  1.0
  O  O31  1  0.29522097  0.78914999  0.88391577  1.0
  O  O32  1  0.70392211  0.11871018  0.44250082  1.0
  O  O33  1  0.70392211  0.38128982  0.94250082  1.0
  O  O34  1  0.29607789  0.61871018  0.05749918  1.0
  O  O35  1  0.29607789  0.88128982  0.55749918  1.0
  O  O36  1  0.67344986  0.93296598  0.25375684  1.0
  O  O37  1  0.67344986  0.56703402  0.75375684  1.0
  O  O38  1  0.32655014  0.43296598  0.24624316  1.0
  O  O39  1  0.32655014  0.06703402  0.74624316  1.0
  O  O40  1  0.44597585  0.28644124  0.46097340  1.0
  O  O41  1  0.44597585  0.21355876  0.96097340  1.0
  O  O42  1  0.55402415  0.78644124  0.03902660  1.0
  O  O43  1  0.55402415  0.71355876  0.53902660  1.0
  O  O44  1  0.41551811  0.09871918  0.12496498  1.0
  O  O45  1  0.41551811  0.40128082  0.62496498  1.0
  O  O46  1  0.58448189  0.59871918  0.37503502  1.0
  O  O47  1  0.58448189  0.90128082  0.87503502  1.0
