# generated using pymatgen
data_NaMnO2
_symmetry_space_group_name_H-M   'P 1'
_cell_length_a   6.53442089
_cell_length_b   6.53442089
_cell_length_c   6.53442089
_cell_angle_alpha   125.44816568
_cell_angle_beta   125.44816568
_cell_angle_gamma   80.79702697
_symmetry_Int_Tables_number   1
_chemical_formula_structural   NaMnO2
_chemical_formula_sum   'Na4 Mn4 O8'
_cell_volume   178.49945177
_cell_formula_units_Z   4
loop_
 _symmetry_equiv_pos_site_id
 _symmetry_equiv_pos_as_xyz
  1  'x, y, z'
loop_
 _atom_site_type_symbol
 _atom_site_label
 _atom_site_symmetry_multiplicity
 _atom_site_fract_x
 _atom_site_fract_y
 _atom_site_fract_z
 _atom_site_occupancy
  Na  Na0  1  1.37500000  1.12500000  0.75000000  1.0
  Na  Na1  1  0.87500000  0.62500000  0.25000000  1.0
  Na  Na2  1  1.37500000  0.62500000  0.75000000  1.0
  Na  Na3  1  1.37500000  1.62500000  1.25000000  1.0
  Mn  Mn4  1  0.87500000  1.62500000  0.75000000  1.0
  Mn  Mn5  1  1.37500000  1.12500000  1.25000000  1.0
  Mn  Mn6  1  0.87500000  1.12500000  0.75000000  1.0
  Mn  Mn7  1  0.87500000  1.12500000  0.25000000  1.0
  O  O8  1  0.12520105  0.33409350  0.20889245  1.0
  O  O9  1  1.08409350  1.37520105  0.70889245  1.0
  O  O10  1  1.66630860  1.37520105  1.29110755  1.0
  O  O11  1  0.12520105  0.91630860  0.79110755  1.0
  O  O12  1  0.62479895  0.91590650  0.29110755  1.0
  O  O13  1  1.66590650  0.87479895  0.79110755  1.0
  O  O14  1  1.08369140  0.87479895  0.20889245  1.0
  O  O15  1  0.62479895  1.33369140  0.70889245  1.0
