# generated using pymatgen
data_K2MgH8(CO5)2
_symmetry_space_group_name_H-M   'P 1'
_cell_length_a   6.98651286
_cell_length_b   6.32483880
_cell_length_c   12.32500035
_cell_angle_alpha   90.00000000
_cell_angle_beta   114.86463535
_cell_angle_gamma   90.00000000
_symmetry_Int_Tables_number   1
_chemical_formula_structural   K2MgH8(CO5)2
_chemical_formula_sum   'K4 Mg2 H16 C4 O20'
_cell_volume   494.13948022
_cell_formula_units_Z   2
loop_
 _symmetry_equiv_pos_site_id
 _symmetry_equiv_pos_as_xyz
  1  'x, y, z'
loop_
 _atom_site_type_symbol
 _atom_site_label
 _atom_site_symmetry_multiplicity
 _atom_site_fract_x
 _atom_site_fract_y
 _atom_site_fract_z
 _atom_site_occupancy
  K  K0  1  0.76720446  0.84194332  0.18285523  1.0
  K  K1  1  0.76720446  0.65805668  0.68285523  1.0
  K  K2  1  0.23279554  0.34194332  0.31714477  1.0
  K  K3  1  0.23279554  0.15805668  0.81714477  1.0
  Mg  Mg4  1  0.00000000  0.50000000  0.00000000  1.0
  Mg  Mg5  1  0.00000000  0.00000000  0.50000000  1.0
  H  H6  1  0.79907102  0.33737537  0.13141237  1.0
  H  H7  1  0.79907102  0.16262463  0.63141237  1.0
  H  H8  1  0.20092898  0.83737537  0.36858763  1.0
  H  H9  1  0.20092898  0.66262463  0.86858763  1.0
  H  H10  1  0.78762514  0.20225478  0.01453279  1.0
  H  H11  1  0.78762514  0.29774522  0.51453279  1.0
  H  H12  1  0.21237486  0.70225478  0.48546721  1.0
  H  H13  1  0.21237486  0.79774522  0.98546721  1.0
  H  H14  1  0.70054598  0.67037954  0.41775806  1.0
  H  H15  1  0.70054598  0.82962046  0.91775806  1.0
  H  H16  1  0.29945402  0.17037954  0.08224194  1.0
  H  H17  1  0.29945402  0.32962046  0.58224194  1.0
  H  H18  1  0.57352140  0.88421694  0.38717669  1.0
  H  H19  1  0.57352140  0.61578306  0.88717669  1.0
  H  H20  1  0.42647860  0.38421694  0.11282331  1.0
  H  H21  1  0.42647860  0.11578306  0.61282331  1.0
  C  C22  1  0.74167244  0.34282475  0.31678765  1.0
  C  C23  1  0.74167244  0.15717525  0.81678765  1.0
  C  C24  1  0.25832756  0.84282475  0.18321235  1.0
  C  C25  1  0.25832756  0.65717525  0.68321235  1.0
  O  O26  1  0.88482109  0.28425442  0.08821299  1.0
  O  O27  1  0.88482109  0.21574558  0.58821299  1.0
  O  O28  1  0.11517891  0.78425442  0.41178701  1.0
  O  O29  1  0.11517891  0.71574558  0.91178701  1.0
  O  O30  1  0.87552880  0.18845390  0.34781409  1.0
  O  O31  1  0.87552880  0.31154610  0.84781409  1.0
  O  O32  1  0.12447120  0.68845390  0.15218591  1.0
  O  O33  1  0.12447120  0.81154610  0.65218591  1.0
  O  O34  1  0.71260105  0.82337809  0.44170678  1.0
  O  O35  1  0.71260105  0.67662191  0.94170678  1.0
  O  O36  1  0.28739895  0.32337809  0.05829322  1.0
  O  O37  1  0.28739895  0.17662191  0.55829322  1.0
  O  O38  1  0.68343110  0.43000940  0.21231435  1.0
  O  O39  1  0.68343110  0.06999060  0.71231435  1.0
  O  O40  1  0.31656890  0.93000940  0.28768565  1.0
  O  O41  1  0.31656890  0.56999060  0.78768565  1.0
  O  O42  1  0.66464033  0.41319839  0.38976602  1.0
  O  O43  1  0.66464033  0.08680161  0.88976602  1.0
  O  O44  1  0.33535967  0.91319839  0.11023398  1.0
  O  O45  1  0.33535967  0.58680161  0.61023398  1.0
