# generated using pymatgen
data_Li7Sn3
_symmetry_space_group_name_H-M   'P 1'
_cell_length_a   8.52429738
_cell_length_b   4.72994897
_cell_length_c   9.47373409
_cell_angle_alpha   90.00000000
_cell_angle_beta   106.12285053
_cell_angle_gamma   90.00000000
_symmetry_Int_Tables_number   1
_chemical_formula_structural   Li7Sn3
_chemical_formula_sum   'Li14 Sn6'
_cell_volume   366.95243922
_cell_formula_units_Z   2
loop_
 _symmetry_equiv_pos_site_id
 _symmetry_equiv_pos_as_xyz
  1  'x, y, z'
loop_
 _atom_site_type_symbol
 _atom_site_label
 _atom_site_symmetry_multiplicity
 _atom_site_fract_x
 _atom_site_fract_y
 _atom_site_fract_z
 _atom_site_occupancy
  Li  Li0  1  0.10440062  0.25000000  0.77508454  1.0
  Li  Li1  1  0.89559938  0.75000000  0.22491546  1.0
  Li  Li2  1  0.89972240  0.25000000  0.96293950  1.0
  Li  Li3  1  0.10027760  0.75000000  0.03706050  1.0
  Li  Li4  1  0.90059061  0.25000000  0.48521816  1.0
  Li  Li5  1  0.09940939  0.75000000  0.51478184  1.0
  Li  Li6  1  0.70046774  0.25000000  0.17874453  1.0
  Li  Li7  1  0.29953226  0.75000000  0.82125547  1.0
  Li  Li8  1  0.68726022  0.25000000  0.66427192  1.0
  Li  Li9  1  0.31273978  0.75000000  0.33572808  1.0
  Li  Li10  1  0.50530005  0.25000000  0.87690561  1.0
  Li  Li11  1  0.49469995  0.75000000  0.12309439  1.0
  Li  Li12  1  0.49216995  0.25000000  0.37014134  1.0
  Li  Li13  1  0.50783005  0.75000000  0.62985866  1.0
  Sn  Sn14  1  0.30497823  0.25000000  0.58397546  1.0
  Sn  Sn15  1  0.69502177  0.75000000  0.41602454  1.0
  Sn  Sn16  1  0.30356770  0.25000000  0.06657833  1.0
  Sn  Sn17  1  0.69643230  0.75000000  0.93342167  1.0
  Sn  Sn18  1  0.09495181  0.25000000  0.27396651  1.0
  Sn  Sn19  1  0.90504819  0.75000000  0.72603349  1.0
