# generated using pymatgen
data_H8C2I3N
_symmetry_space_group_name_H-M   'P 1'
_cell_length_a   7.15160819
_cell_length_b   9.89704529
_cell_length_c   14.84526182
_cell_angle_alpha   90.00000000
_cell_angle_beta   90.00000000
_cell_angle_gamma   90.00000000
_symmetry_Int_Tables_number   1
_chemical_formula_structural   H8C2I3N
_chemical_formula_sum   'H32 C8 I12 N4'
_cell_volume   1050.74451729
_cell_formula_units_Z   4
loop_
 _symmetry_equiv_pos_site_id
 _symmetry_equiv_pos_as_xyz
  1  'x, y, z'
loop_
 _atom_site_type_symbol
 _atom_site_label
 _atom_site_symmetry_multiplicity
 _atom_site_fract_x
 _atom_site_fract_y
 _atom_site_fract_z
 _atom_site_occupancy
  H  H0  1  0.18369364  0.81999292  0.17590694  1.0
  H  H1  1  0.31630636  0.68000708  0.17590694  1.0
  H  H2  1  0.68369364  0.18000708  0.32409306  1.0
  H  H3  1  0.81630636  0.31999292  0.32409306  1.0
  H  H4  1  0.81630636  0.18000708  0.82409306  1.0
  H  H5  1  0.68369364  0.31999292  0.82409306  1.0
  H  H6  1  0.31630636  0.81999292  0.67590694  1.0
  H  H7  1  0.18369364  0.68000708  0.67590694  1.0
  H  H8  1  1.01110018  0.62532905  0.12512501  1.0
  H  H9  1  0.48889982  0.87467095  0.12512501  1.0
  H  H10  1  0.51110018  0.37467095  0.37487499  1.0
  H  H11  1  -0.01110018  0.12532905  0.37487499  1.0
  H  H12  1  -0.01110018  0.37467095  0.87487499  1.0
  H  H13  1  0.51110018  0.12532905  0.87487499  1.0
  H  H14  1  0.48889982  0.62532905  0.62512501  1.0
  H  H15  1  1.01110018  0.87467095  0.62512501  1.0
  H  H16  1  0.17934992  0.60576573  0.03595399  1.0
  H  H17  1  0.32065008  0.89423427  0.03595399  1.0
  H  H18  1  0.67934992  0.39423427  0.46404601  1.0
  H  H19  1  0.82065008  0.10576573  0.46404601  1.0
  H  H20  1  0.82065008  0.39423427  0.96404601  1.0
  H  H21  1  0.67934992  0.10576573  0.96404601  1.0
  H  H22  1  0.32065008  0.60576573  0.53595399  1.0
  H  H23  1  0.17934992  0.89423427  0.53595399  1.0
  H  H24  1  0.03200030  0.75269179  0.03878169  1.0
  H  H25  1  0.46799970  0.74730821  0.03878169  1.0
  H  H26  1  0.53200030  0.24730821  0.46121831  1.0
  H  H27  1  0.96799970  0.25269179  0.46121831  1.0
  H  H28  1  0.96799970  0.24730821  0.96121831  1.0
  H  H29  1  0.53200030  0.25269179  0.96121831  1.0
  H  H30  1  0.46799970  0.75269179  0.53878169  1.0
  H  H31  1  0.03200030  0.74730821  0.53878169  1.0
  C  C32  1  0.10686629  0.67804419  0.07953666  1.0
  C  C33  1  0.39313371  0.82195581  0.07953666  1.0
  C  C34  1  0.60686629  0.32195581  0.42046334  1.0
  C  C35  1  0.89313371  0.17804419  0.42046334  1.0
  C  C36  1  0.89313371  0.32195581  0.92046334  1.0
  C  C37  1  0.60686629  0.17804419  0.92046334  1.0
  C  C38  1  0.39313371  0.67804419  0.57953666  1.0
  C  C39  1  0.10686629  0.82195581  0.57953666  1.0
  I  I40  1  0.25000000  0.25000000  0.15149618  1.0
  I  I41  1  0.75000000  0.75000000  0.34850382  1.0
  I  I42  1  0.75000000  0.75000000  0.84850382  1.0
  I  I43  1  0.25000000  0.25000000  0.65149618  1.0
  I  I44  1  0.94668830  0.04820592  0.15776485  1.0
  I  I45  1  0.55331170  0.45179408  0.15776485  1.0
  I  I46  1  0.44668830  0.95179408  0.34223515  1.0
  I  I47  1  0.05331170  0.54820592  0.34223515  1.0
  I  I48  1  0.05331170  0.95179408  0.84223515  1.0
  I  I49  1  0.44668830  0.54820592  0.84223515  1.0
  I  I50  1  0.55331170  0.04820592  0.65776485  1.0
  I  I51  1  0.94668830  0.45179408  0.65776485  1.0
  N  N52  1  0.25000000  0.75000000  0.13477241  1.0
  N  N53  1  0.75000000  0.25000000  0.36522759  1.0
  N  N54  1  0.75000000  0.25000000  0.86522759  1.0
  N  N55  1  0.25000000  0.75000000  0.63477241  1.0
