# generated using pymatgen
data_SnH6(NF2)2
_symmetry_space_group_name_H-M   'P 1'
_cell_length_a   5.30458437
_cell_length_b   7.72940258
_cell_length_c   8.50796777
_cell_angle_alpha   90.00000000
_cell_angle_beta   119.30184115
_cell_angle_gamma   90.00000000
_symmetry_Int_Tables_number   1
_chemical_formula_structural   SnH6(NF2)2
_chemical_formula_sum   'Sn2 H12 N4 F8'
_cell_volume   304.20495029
_cell_formula_units_Z   2
loop_
 _symmetry_equiv_pos_site_id
 _symmetry_equiv_pos_as_xyz
  1  'x, y, z'
loop_
 _atom_site_type_symbol
 _atom_site_label
 _atom_site_symmetry_multiplicity
 _atom_site_fract_x
 _atom_site_fract_y
 _atom_site_fract_z
 _atom_site_occupancy
  Sn  Sn0  1  0.00000000  0.50000000  0.50000000  1.0
  Sn  Sn1  1  0.00000000  0.00000000  0.00000000  1.0
  H  H2  1  0.85257305  0.32066212  0.06066623  1.0
  H  H3  1  0.85257305  0.17933788  0.56066623  1.0
  H  H4  1  0.14742695  0.82066212  0.43933377  1.0
  H  H5  1  0.14742695  0.67933788  0.93933377  1.0
  H  H6  1  0.63056632  0.22467763  0.34058391  1.0
  H  H7  1  0.63056632  0.27532237  0.84058391  1.0
  H  H8  1  0.36943368  0.72467763  0.15941609  1.0
  H  H9  1  0.36943368  0.77532237  0.65941609  1.0
  H  H10  1  0.57652844  0.31073664  0.50142120  1.0
  H  H11  1  0.57652844  0.18926336  1.00142120  1.0
  H  H12  1  0.42347156  0.81073664  -0.00142120  1.0
  H  H13  1  0.42347156  0.68926336  0.49857880  1.0
  N  N14  1  0.73419656  0.27517688  0.46938926  1.0
  N  N15  1  0.73419656  0.22482312  0.96938926  1.0
  N  N16  1  0.26580344  0.77517688  0.03061074  1.0
  N  N17  1  0.26580344  0.72482312  0.53061074  1.0
  F  F18  1  0.96477034  0.46486395  0.25653931  1.0
  F  F19  1  0.96477034  0.03513605  0.75653931  1.0
  F  F20  1  0.03522966  0.96486395  0.24346069  1.0
  F  F21  1  0.03522966  0.53513605  0.74346069  1.0
  F  F22  1  0.36237481  0.14790372  0.11036869  1.0
  F  F23  1  0.36237481  0.35209628  0.61036869  1.0
  F  F24  1  0.63762519  0.64790372  0.38963131  1.0
  F  F25  1  0.63762519  0.85209628  0.88963131  1.0
