# generated using pymatgen
data_Gd2Sn3(PbS4)3
_symmetry_space_group_name_H-M   'P 1'
_cell_length_a   3.95840989
_cell_length_b   20.59832323
_cell_length_c   11.69294223
_cell_angle_alpha   90.00000000
_cell_angle_beta   90.00000000
_cell_angle_gamma   90.00000000
_symmetry_Int_Tables_number   1
_chemical_formula_structural   Gd2Sn3(PbS4)3
_chemical_formula_sum   'Gd4 Sn6 Pb6 S24'
_cell_volume   953.40282828
_cell_formula_units_Z   2
loop_
 _symmetry_equiv_pos_site_id
 _symmetry_equiv_pos_as_xyz
  1  'x, y, z'
loop_
 _atom_site_type_symbol
 _atom_site_label
 _atom_site_symmetry_multiplicity
 _atom_site_fract_x
 _atom_site_fract_y
 _atom_site_fract_z
 _atom_site_occupancy
  Gd  Gd0  1  0.50000000  0.41186301  0.14382819  1.0
  Gd  Gd1  1  0.50000000  0.58813699  0.64382819  1.0
  Gd  Gd2  1  0.50000000  0.89306301  0.32846251  1.0
  Gd  Gd3  1  0.50000000  0.10693699  0.82846251  1.0
  Sn  Sn4  1  0.00000000  0.42833095  0.49172867  1.0
  Sn  Sn5  1  0.00000000  0.57166905  0.99172867  1.0
  Sn  Sn6  1  0.00000000  0.74970308  0.50215624  1.0
  Sn  Sn7  1  0.00000000  0.25029692  0.00215624  1.0
  Sn  Sn8  1  0.00000000  0.90952281  0.02037196  1.0
  Sn  Sn9  1  0.00000000  0.09047719  0.52037196  1.0
  Pb  Pb10  1  0.50000000  0.62358117  0.26907082  1.0
  Pb  Pb11  1  0.50000000  0.37641883  0.76907082  1.0
  Pb  Pb12  1  0.50000000  0.73886268  0.90091515  1.0
  Pb  Pb13  1  0.50000000  0.26113732  0.40091515  1.0
  Pb  Pb14  1  0.50000000  0.91722190  0.71002503  1.0
  Pb  Pb15  1  0.50000000  0.08277810  0.21002503  1.0
  S  S16  1  0.00000000  0.84130188  0.83844378  1.0
  S  S17  1  0.00000000  0.15869812  0.33844378  1.0
  S  S18  1  0.00000000  0.36213513  0.30524636  1.0
  S  S19  1  0.00000000  0.63786487  0.80524636  1.0
  S  S20  1  0.00000000  0.50906832  0.18167606  1.0
  S  S21  1  0.00000000  0.49093168  0.68167606  1.0
  S  S22  1  0.00000000  0.62674974  0.47864417  1.0
  S  S23  1  0.00000000  0.37325026  0.97864417  1.0
  S  S24  1  0.00000000  0.67467092  0.09784902  1.0
  S  S25  1  0.00000000  0.32532908  0.59784902  1.0
  S  S26  1  0.00000000  0.87404436  0.49552278  1.0
  S  S27  1  0.00000000  0.12595564  0.99552278  1.0
  S  S28  1  0.00000000  0.96789243  0.21367085  1.0
  S  S29  1  0.00000000  0.03210757  0.71367085  1.0
  S  S30  1  0.50000000  0.26338944  0.14615873  1.0
  S  S31  1  0.50000000  0.73661056  0.64615873  1.0
  S  S32  1  0.50000000  0.49481025  0.43634142  1.0
  S  S33  1  0.50000000  0.50518975  0.93634142  1.0
  S  S34  1  0.50000000  0.75615713  0.35109003  1.0
  S  S35  1  0.50000000  0.24384287  0.85109003  1.0
  S  S36  1  0.50000000  0.84032231  0.10155829  1.0
  S  S37  1  0.50000000  0.15967769  0.60155829  1.0
  S  S38  1  0.50000000  0.98096620  0.93653995  1.0
  S  S39  1  0.50000000  0.01903380  0.43653995  1.0
