# generated using pymatgen
data_Ba4Br6O
_symmetry_space_group_name_H-M   'P 1'
_cell_length_a   10.47691627
_cell_length_b   10.47691627
_cell_length_c   8.05683490
_cell_angle_alpha   90.00000000
_cell_angle_beta   90.00000000
_cell_angle_gamma   120.00000000
_symmetry_Int_Tables_number   1
_chemical_formula_structural   Ba4Br6O
_chemical_formula_sum   'Ba8 Br12 O2'
_cell_volume   765.88231549
_cell_formula_units_Z   2
loop_
 _symmetry_equiv_pos_site_id
 _symmetry_equiv_pos_as_xyz
  1  'x, y, z'
loop_
 _atom_site_type_symbol
 _atom_site_label
 _atom_site_symmetry_multiplicity
 _atom_site_fract_x
 _atom_site_fract_y
 _atom_site_fract_z
 _atom_site_occupancy
  Ba  Ba0  1  0.60092126  0.80046063  0.43491649  1.0
  Ba  Ba1  1  0.80046063  0.60092126  0.93491649  1.0
  Ba  Ba2  1  0.80046063  0.19953937  0.93491649  1.0
  Ba  Ba3  1  0.19953937  0.80046063  0.43491649  1.0
  Ba  Ba4  1  0.19953937  0.39907874  0.43491649  1.0
  Ba  Ba5  1  0.39907874  0.19953937  0.93491649  1.0
  Ba  Ba6  1  0.33333333  0.66666667  0.01836468  1.0
  Ba  Ba7  1  0.66666667  0.33333333  0.51836468  1.0
  Br  Br8  1  0.71357660  0.85678830  0.04593572  1.0
  Br  Br9  1  0.85678830  0.71357660  0.54593572  1.0
  Br  Br10  1  0.85678830  0.14321170  0.54593572  1.0
  Br  Br11  1  0.14321170  0.85678830  0.04593572  1.0
  Br  Br12  1  0.14321170  0.28642340  0.04593572  1.0
  Br  Br13  1  0.28642340  0.14321170  0.54593572  1.0
  Br  Br14  1  0.93579944  0.46789972  0.22710430  1.0
  Br  Br15  1  0.46789972  0.93579944  0.72710430  1.0
  Br  Br16  1  0.46789972  0.53210028  0.72710430  1.0
  Br  Br17  1  0.53210028  0.46789972  0.22710430  1.0
  Br  Br18  1  0.53210028  0.06420056  0.22710430  1.0
  Br  Br19  1  0.06420056  0.53210028  0.72710430  1.0
  O  O20  1  0.33333333  0.66666667  0.33526579  1.0
  O  O21  1  0.66666667  0.33333333  0.83526579  1.0
