# generated using pymatgen
data_Lu2(Ga3Rh)3
_symmetry_space_group_name_H-M   'P 1'
_cell_length_a   7.51338956
_cell_length_b   7.51338956
_cell_length_c   9.47922535
_cell_angle_alpha   90.00000000
_cell_angle_beta   90.00000000
_cell_angle_gamma   60.18909451
_symmetry_Int_Tables_number   1
_chemical_formula_structural   Lu2(Ga3Rh)3
_chemical_formula_sum   'Lu4 Ga18 Rh6'
_cell_volume   464.30105166
_cell_formula_units_Z   2
loop_
 _symmetry_equiv_pos_site_id
 _symmetry_equiv_pos_as_xyz
  1  'x, y, z'
loop_
 _atom_site_type_symbol
 _atom_site_label
 _atom_site_symmetry_multiplicity
 _atom_site_fract_x
 _atom_site_fract_y
 _atom_site_fract_z
 _atom_site_occupancy
  Lu  Lu0  1  -0.00239173  1.33012301  0.25000000  1.0
  Lu  Lu1  1  0.33012301  0.99760827  0.75000000  1.0
  Lu  Lu2  1  -0.33012301  1.00239173  0.25000000  1.0
  Lu  Lu3  1  0.00239173  0.66987699  0.75000000  1.0
  Ga  Ga4  1  -0.00063725  0.66516601  0.41948668  1.0
  Ga  Ga5  1  -0.00063725  0.66516601  0.08051332  1.0
  Ga  Ga6  1  -0.33483399  0.99936275  0.91948668  1.0
  Ga  Ga7  1  -0.33483399  0.99936275  0.58051332  1.0
  Ga  Ga8  1  0.33483399  1.00063725  0.41948668  1.0
  Ga  Ga9  1  0.33483399  1.00063725  0.08051332  1.0
  Ga  Ga10  1  0.00063725  1.33483399  0.91948668  1.0
  Ga  Ga11  1  0.00063725  1.33483399  0.58051332  1.0
  Ga  Ga12  1  0.33863174  0.45067134  0.25000000  1.0
  Ga  Ga13  1  -0.54932866  1.33863174  0.75000000  1.0
  Ga  Ga14  1  0.54932866  0.66136826  0.25000000  1.0
  Ga  Ga15  1  -0.33863174  1.54932866  0.75000000  1.0
  Ga  Ga16  1  0.33206654  0.66793346  0.93239526  1.0
  Ga  Ga17  1  0.33206654  0.66793346  0.56760474  1.0
  Ga  Ga18  1  -0.33206654  1.33206654  0.43239526  1.0
  Ga  Ga19  1  -0.33206654  1.33206654  0.06760474  1.0
  Ga  Ga20  1  0.12621425  0.87378575  0.25000000  1.0
  Ga  Ga21  1  -0.12621425  1.12621425  0.75000000  1.0
  Rh  Rh22  1  0.67146901  0.67146901  0.50000000  1.0
  Rh  Rh23  1  0.67146901  0.67146901  0.00000000  1.0
  Rh  Rh24  1  0.32853099  0.32853099  0.50000000  1.0
  Rh  Rh25  1  0.32853099  0.32853099  0.00000000  1.0
  Rh  Rh26  1  0.00000000  0.00000000  0.50000000  1.0
  Rh  Rh27  1  0.00000000  0.00000000  0.00000000  1.0
