# generated using pymatgen
data_Mg5Si6
_symmetry_space_group_name_H-M   'P 1'
_cell_length_a   7.82164142
_cell_length_b   7.82164142
_cell_length_c   6.97448778
_cell_angle_alpha   70.09514986
_cell_angle_beta   109.90485014
_cell_angle_gamma   149.91106662
_symmetry_Int_Tables_number   1
_chemical_formula_structural   Mg5Si6
_chemical_formula_sum   'Mg5 Si6'
_cell_volume   200.18184324
_cell_formula_units_Z   1
loop_
 _symmetry_equiv_pos_site_id
 _symmetry_equiv_pos_as_xyz
  1  'x, y, z'
loop_
 _atom_site_type_symbol
 _atom_site_label
 _atom_site_symmetry_multiplicity
 _atom_site_fract_x
 _atom_site_fract_y
 _atom_site_fract_z
 _atom_site_occupancy
  Mg  Mg0  1  0.65641744  -0.65641744  0.93420786  1.0
  Mg  Mg1  1  1.34358256  -0.34358256  0.06579214  1.0
  Mg  Mg2  1  1.42286989  -0.42286989  0.62660013  1.0
  Mg  Mg3  1  0.57713011  -0.57713011  0.37339987  1.0
  Mg  Mg4  1  0.00000000  0.00000000  0.00000000  1.0
  Si  Si5  1  0.94191512  -0.94191512  0.32997147  1.0
  Si  Si6  1  1.05808488  -0.05808488  0.67002853  1.0
  Si  Si7  1  0.80808788  -0.80808788  0.74044107  1.0
  Si  Si8  1  1.19191212  -0.19191212  0.25955893  1.0
  Si  Si9  1  0.79102210  -0.79102210  0.36861957  1.0
  Si  Si10  1  1.20897790  -0.20897790  0.63138043  1.0
