# generated using pymatgen
data_Sr5Al2F16
_symmetry_space_group_name_H-M   'P 1'
_cell_length_a   7.35408809
_cell_length_b   7.35408809
_cell_length_c   14.31275543
_cell_angle_alpha   90.00000000
_cell_angle_beta   90.00000000
_cell_angle_gamma   62.16988334
_symmetry_Int_Tables_number   1
_chemical_formula_structural   Sr5Al2F16
_chemical_formula_sum   'Sr10 Al4 F32'
_cell_volume   684.53879381
_cell_formula_units_Z   2
loop_
 _symmetry_equiv_pos_site_id
 _symmetry_equiv_pos_as_xyz
  1  'x, y, z'
loop_
 _atom_site_type_symbol
 _atom_site_label
 _atom_site_symmetry_multiplicity
 _atom_site_fract_x
 _atom_site_fract_y
 _atom_site_fract_z
 _atom_site_occupancy
  Sr  Sr0  1  -0.00000000  1.50000000  0.87302294  1.0
  Sr  Sr1  1  -0.00000000  1.50000000  0.37302294  1.0
  Sr  Sr2  1  0.50000000  1.00000000  0.62697706  1.0
  Sr  Sr3  1  0.50000000  1.00000000  0.12697706  1.0
  Sr  Sr4  1  -0.50000000  0.50000000  0.00000000  1.0
  Sr  Sr5  1  0.00000000  1.00000000  0.50000000  1.0
  Sr  Sr6  1  0.00000000  1.00000000  0.78193759  1.0
  Sr  Sr7  1  -0.50000000  0.50000000  0.28193759  1.0
  Sr  Sr8  1  -0.50000000  0.50000000  0.71806241  1.0
  Sr  Sr9  1  0.00000000  1.00000000  0.21806241  1.0
  Al  Al10  1  0.50000000  1.00000000  0.87829348  1.0
  Al  Al11  1  0.50000000  1.00000000  0.37829348  1.0
  Al  Al12  1  -0.00000000  1.50000000  0.62170652  1.0
  Al  Al13  1  -0.00000000  1.50000000  0.12170652  1.0
  F  F14  1  0.49979881  0.83065016  0.97041269  1.0
  F  F15  1  0.33065016  0.99979881  0.47041269  1.0
  F  F16  1  0.66934984  1.00020119  0.47041269  1.0
  F  F17  1  0.50020119  1.16934984  0.97041269  1.0
  F  F18  1  0.00020119  1.66934984  0.52958731  1.0
  F  F19  1  0.16934984  1.50020119  0.02958731  1.0
  F  F20  1  -0.16934984  1.49979881  0.02958731  1.0
  F  F21  1  -0.00020119  1.33065016  0.52958731  1.0
  F  F22  1  0.25831837  1.63531556  0.85357440  1.0
  F  F23  1  0.13531556  0.75831837  0.35357440  1.0
  F  F24  1  -0.13531556  1.24168163  0.35357440  1.0
  F  F25  1  -0.25831837  0.36468444  0.85357440  1.0
  F  F26  1  0.24168163  0.86468444  0.64642560  1.0
  F  F27  1  -0.63531556  0.74168163  0.14642560  1.0
  F  F28  1  0.63531556  1.25831837  0.14642560  1.0
  F  F29  1  -0.24168163  1.13531556  0.64642560  1.0
  F  F30  1  0.21514332  1.11857506  0.87762604  1.0
  F  F31  1  -0.38142494  0.71514332  0.37762604  1.0
  F  F32  1  0.38142494  1.28485668  0.37762604  1.0
  F  F33  1  -0.21514332  0.88142494  0.87762604  1.0
  F  F34  1  0.28485668  1.38142494  0.62237396  1.0
  F  F35  1  -0.11857506  0.78485668  0.12237396  1.0
  F  F36  1  0.11857506  1.21514332  0.12237396  1.0
  F  F37  1  -0.28485668  0.61857506  0.62237396  1.0
  F  F38  1  0.51748898  0.81907541  0.78721105  1.0
  F  F39  1  0.31907541  1.01748898  0.28721105  1.0
  F  F40  1  0.68092459  0.98251102  0.28721105  1.0
  F  F41  1  0.48251102  1.18092459  0.78721105  1.0
  F  F42  1  -0.01748898  1.68092459  0.71278895  1.0
  F  F43  1  0.18092459  1.48251102  0.21278895  1.0
  F  F44  1  -0.18092459  1.51748898  0.21278895  1.0
  F  F45  1  0.01748898  1.31907541  0.71278895  1.0
