# generated using pymatgen
data_BaY2CuO5
_symmetry_space_group_name_H-M   'P 1'
_cell_length_a   12.24070468
_cell_length_b   5.69863779
_cell_length_c   7.23223525
_cell_angle_alpha   90.00000000
_cell_angle_beta   90.00000000
_cell_angle_gamma   90.00000000
_symmetry_Int_Tables_number   1
_chemical_formula_structural   BaY2CuO5
_chemical_formula_sum   'Ba4 Y8 Cu4 O20'
_cell_volume   504.48704551
_cell_formula_units_Z   4
loop_
 _symmetry_equiv_pos_site_id
 _symmetry_equiv_pos_as_xyz
  1  'x, y, z'
loop_
 _atom_site_type_symbol
 _atom_site_label
 _atom_site_symmetry_multiplicity
 _atom_site_fract_x
 _atom_site_fract_y
 _atom_site_fract_z
 _atom_site_occupancy
  Ba  Ba0  1  0.90448893  0.25000000  0.93186798  1.0
  Ba  Ba1  1  0.59551107  0.75000000  0.43186798  1.0
  Ba  Ba2  1  0.40448893  0.25000000  0.56813202  1.0
  Ba  Ba3  1  0.09551107  0.75000000  0.06813202  1.0
  Y  Y4  1  0.28686183  0.25000000  0.11285326  1.0
  Y  Y5  1  0.21313817  0.75000000  0.61285326  1.0
  Y  Y6  1  0.78686183  0.25000000  0.38714674  1.0
  Y  Y7  1  0.71313817  0.75000000  0.88714674  1.0
  Y  Y8  1  0.07384020  0.25000000  0.39605342  1.0
  Y  Y9  1  0.42615980  0.75000000  0.89605342  1.0
  Y  Y10  1  0.57384020  0.25000000  0.10394658  1.0
  Y  Y11  1  0.92615980  0.75000000  0.60394658  1.0
  Cu  Cu12  1  0.66063853  0.25000000  0.71845375  1.0
  Cu  Cu13  1  0.83936147  0.75000000  0.21845375  1.0
  Cu  Cu14  1  0.16063853  0.25000000  0.78154625  1.0
  Cu  Cu15  1  0.33936147  0.75000000  0.28154625  1.0
  O  O16  1  0.22819890  0.50360724  0.35516732  1.0
  O  O17  1  0.27180110  0.49639276  0.85516732  1.0
  O  O18  1  0.72819890  0.99639276  0.14483268  1.0
  O  O19  1  0.77180110  0.00360724  0.64483268  1.0
  O  O20  1  0.77180110  0.49639276  0.64483268  1.0
  O  O21  1  0.72819890  0.50360724  0.14483268  1.0
  O  O22  1  0.27180110  0.00360724  0.85516732  1.0
  O  O23  1  0.22819890  0.99639276  0.35516732  1.0
  O  O24  1  0.09934766  0.25000000  1.08413564  1.0
  O  O25  1  0.40065234  0.75000000  0.58413564  1.0
  O  O26  1  0.59934766  0.25000000  0.41586436  1.0
  O  O27  1  0.90065234  0.75000000  -0.08413564  1.0
  O  O28  1  0.43186806  0.99431645  0.16114061  1.0
  O  O29  1  0.06813194  0.00568355  0.66114061  1.0
  O  O30  1  0.93186806  0.50568355  0.33885939  1.0
  O  O31  1  0.56813194  0.49431645  0.83885939  1.0
  O  O32  1  0.56813194  0.00568355  0.83885939  1.0
  O  O33  1  0.93186806  0.99431645  0.33885939  1.0
  O  O34  1  0.06813194  0.49431645  0.66114061  1.0
  O  O35  1  0.43186806  0.50568355  0.16114061  1.0
