# generated using pymatgen
data_Cs2CuPb(NO2)6
_symmetry_space_group_name_H-M   'P 1'
_cell_length_a   7.97323604
_cell_length_b   7.98143259
_cell_length_c   7.69757027
_cell_angle_alpha   61.10005123
_cell_angle_beta   61.20693460
_cell_angle_gamma   57.69301919
_symmetry_Int_Tables_number   1
_chemical_formula_structural   Cs2CuPb(NO2)6
_chemical_formula_sum   'Cs2 Cu1 Pb1 N6 O12'
_cell_volume   345.55702019
_cell_formula_units_Z   1
loop_
 _symmetry_equiv_pos_site_id
 _symmetry_equiv_pos_as_xyz
  1  'x, y, z'
loop_
 _atom_site_type_symbol
 _atom_site_label
 _atom_site_symmetry_multiplicity
 _atom_site_fract_x
 _atom_site_fract_y
 _atom_site_fract_z
 _atom_site_occupancy
  Cs  Cs0  1  -0.25000000  0.75000000  0.75000000  1.0
  Cs  Cs1  1  0.25000000  0.25000000  1.25000000  1.0
  Cu  Cu2  1  0.00000000  -0.00000000  -0.00000000  1.0
  Pb  Pb3  1  -0.50000000  0.50000000  0.50000000  1.0
  N  N4  1  -0.21799709  0.78200291  0.21799709  1.0
  N  N5  1  0.21799709  0.21799709  -0.21799709  1.0
  N  N6  1  -0.19203399  0.19203399  0.80796601  1.0
  N  N7  1  0.19203399  -0.19203399  1.19203399  1.0
  N  N8  1  -0.80806357  0.80806357  0.80806357  1.0
  N  N9  1  -0.19193643  0.19193643  0.19193643  1.0
  O  O10  1  0.15160642  -0.15160642  1.65088892  1.0
  O  O11  1  -0.65088892  0.65088892  0.84839358  1.0
  O  O12  1  0.65088892  -0.65088892  1.15160642  1.0
  O  O13  1  -0.15160642  0.15160642  0.34911108  1.0
  O  O14  1  -0.17731714  0.62653499  0.17731714  1.0
  O  O15  1  -0.62653499  1.17731714  0.62653499  1.0
  O  O16  1  -0.37346501  0.82268286  0.37346501  1.0
  O  O17  1  0.17731714  0.37346501  -0.17731714  1.0
  O  O18  1  0.65746765  0.15853830  -0.15853830  1.0
  O  O19  1  -0.15853830  0.34253235  0.65746765  1.0
  O  O20  1  1.15853830  -0.34253235  0.34253235  1.0
  O  O21  1  0.34253235  -0.15853830  1.15853830  1.0
