# generated using pymatgen
data_Ca(Al4Co)2
_symmetry_space_group_name_H-M   'P 1'
_cell_length_a   12.44504007
_cell_length_b   14.45924483
_cell_length_c   3.96203536
_cell_angle_alpha   90.00000000
_cell_angle_beta   90.00000000
_cell_angle_gamma   90.00000000
_symmetry_Int_Tables_number   1
_chemical_formula_structural   Ca(Al4Co)2
_chemical_formula_sum   'Ca4 Al32 Co8'
_cell_volume   712.95194495
_cell_formula_units_Z   4
loop_
 _symmetry_equiv_pos_site_id
 _symmetry_equiv_pos_as_xyz
  1  'x, y, z'
loop_
 _atom_site_type_symbol
 _atom_site_label
 _atom_site_symmetry_multiplicity
 _atom_site_fract_x
 _atom_site_fract_y
 _atom_site_fract_z
 _atom_site_occupancy
  Ca  Ca0  1  0.15920962  0.81880099  0.00000000  1.0
  Ca  Ca1  1  0.65920962  0.68119901  0.00000000  1.0
  Ca  Ca2  1  0.84079038  0.18119901  0.00000000  1.0
  Ca  Ca3  1  0.34079038  0.31880099  0.00000000  1.0
  Al  Al4  1  0.04805135  0.67969583  0.50000000  1.0
  Al  Al5  1  0.54805135  0.82030417  0.50000000  1.0
  Al  Al6  1  0.95194865  0.32030417  0.50000000  1.0
  Al  Al7  1  0.45194865  0.17969583  0.50000000  1.0
  Al  Al8  1  0.26415841  0.67378986  0.50000000  1.0
  Al  Al9  1  0.76415841  0.82621014  0.50000000  1.0
  Al  Al10  1  0.73584159  0.32621014  0.50000000  1.0
  Al  Al11  1  0.23584159  0.17378986  0.50000000  1.0
  Al  Al12  1  0.33945808  0.88049476  0.50000000  1.0
  Al  Al13  1  0.83945808  0.61950524  0.50000000  1.0
  Al  Al14  1  0.66054192  0.11950524  0.50000000  1.0
  Al  Al15  1  0.16054192  0.38049476  0.50000000  1.0
  Al  Al16  1  0.47489310  0.63299248  0.50000000  1.0
  Al  Al17  1  0.97489310  0.86700752  0.50000000  1.0
  Al  Al18  1  0.52510690  0.36700752  0.50000000  1.0
  Al  Al19  1  0.02510690  0.13299248  0.50000000  1.0
  Al  Al20  1  0.50000000  0.50000000  0.00000000  1.0
  Al  Al21  1  0.00000000  0.00000000  0.00000000  1.0
  Al  Al22  1  0.33181294  0.49275375  0.50000000  1.0
  Al  Al23  1  0.83181294  1.00724625  0.50000000  1.0
  Al  Al24  1  0.66818706  0.50724625  0.50000000  1.0
  Al  Al25  1  0.16818706  -0.00724625  0.50000000  1.0
  Al  Al26  1  0.50000000  0.00000000  0.50000000  1.0
  Al  Al27  1  0.00000000  0.50000000  0.50000000  1.0
  Al  Al28  1  0.16164990  0.54498505  0.00000000  1.0
  Al  Al29  1  0.66164990  0.95501495  0.00000000  1.0
  Al  Al30  1  0.83835010  0.45501495  0.00000000  1.0
  Al  Al31  1  0.33835010  0.04498505  0.00000000  1.0
  Al  Al32  1  0.40406796  0.75444033  0.00000000  1.0
  Al  Al33  1  0.90406796  0.74555967  0.00000000  1.0
  Al  Al34  1  0.59593204  0.24555967  0.00000000  1.0
  Al  Al35  1  0.09593204  0.25444033  0.00000000  1.0
  Co  Co36  1  0.35035118  0.59831972  0.00000000  1.0
  Co  Co37  1  0.85035118  0.90168028  0.00000000  1.0
  Co  Co38  1  0.64964882  0.40168028  0.00000000  1.0
  Co  Co39  1  0.14964882  0.09831972  0.00000000  1.0
  Co  Co40  1  0.46571529  0.90728439  0.00000000  1.0
  Co  Co41  1  0.96571529  0.59271561  0.00000000  1.0
  Co  Co42  1  0.53428471  0.09271561  0.00000000  1.0
  Co  Co43  1  0.03428471  0.40728439  0.00000000  1.0
