# generated using pymatgen
data_K3GeH2NO3
_symmetry_space_group_name_H-M   'P 1'
_cell_length_a   6.78141774
_cell_length_b   6.46141984
_cell_length_c   7.27978135
_cell_angle_alpha   102.09844203
_cell_angle_beta   95.83149166
_cell_angle_gamma   91.70394883
_symmetry_Int_Tables_number   1
_chemical_formula_structural   K3GeH2NO3
_chemical_formula_sum   'K6 Ge2 H4 N2 O6'
_cell_volume   309.85618049
_cell_formula_units_Z   2
loop_
 _symmetry_equiv_pos_site_id
 _symmetry_equiv_pos_as_xyz
  1  'x, y, z'
loop_
 _atom_site_type_symbol
 _atom_site_label
 _atom_site_symmetry_multiplicity
 _atom_site_fract_x
 _atom_site_fract_y
 _atom_site_fract_z
 _atom_site_occupancy
  K  K0  1  -0.30162100  -0.84601143  -0.51514944  1.0
  K  K1  1  -0.69837900  -0.15398857  -0.48485056  1.0
  K  K2  1  -0.97551361  -0.78174975  -0.13080931  1.0
  K  K3  1  -0.02448639  -0.21825025  -0.86919069  1.0
  K  K4  1  -0.40752831  -0.73781006  -0.97063591  1.0
  K  K5  1  -0.59247169  -0.26218994  -0.02936409  1.0
  Ge  Ge6  1  -0.79605248  -0.71092278  -0.69413526  1.0
  Ge  Ge7  1  -0.20394752  -0.28907722  -0.30586474  1.0
  H  H8  1  -0.61201934  -0.59973901  -0.37296724  1.0
  H  H9  1  -0.38798066  -0.40026099  -0.62703276  1.0
  H  H10  1  -0.83674929  -0.51116772  -0.36908555  1.0
  H  H11  1  -0.16325071  -0.48883228  -0.63091445  1.0
  N  N12  1  -0.75896951  -0.64299321  -0.42041178  1.0
  N  N13  1  -0.24103049  -0.35700679  -0.57958822  1.0
  O  O14  1  -0.64737575  -0.93097810  -0.75750721  1.0
  O  O15  1  -0.35262425  -0.06902190  -0.24249279  1.0
  O  O16  1  -0.05290604  -0.78000797  -0.75999202  1.0
  O  O17  1  -0.94709396  -0.21999203  -0.24000798  1.0
  O  O18  1  -0.71921206  -0.49713612  -0.79497972  1.0
  O  O19  1  -0.28078794  -0.50286388  -0.20502028  1.0
