# generated using pymatgen
data_Cs2TlCl5
_symmetry_space_group_name_H-M   'P 1'
_cell_length_a   9.67510489
_cell_length_b   7.65927971
_cell_length_c   15.27285217
_cell_angle_alpha   90.00000000
_cell_angle_beta   90.00000000
_cell_angle_gamma   90.00000000
_symmetry_Int_Tables_number   1
_chemical_formula_structural   Cs2TlCl5
_chemical_formula_sum   'Cs8 Tl4 Cl20'
_cell_volume   1131.78454724
_cell_formula_units_Z   4
loop_
 _symmetry_equiv_pos_site_id
 _symmetry_equiv_pos_as_xyz
  1  'x, y, z'
loop_
 _atom_site_type_symbol
 _atom_site_label
 _atom_site_symmetry_multiplicity
 _atom_site_fract_x
 _atom_site_fract_y
 _atom_site_fract_z
 _atom_site_occupancy
  Cs  Cs0  1  0.53492052  0.75000000  0.70140431  1.0
  Cs  Cs1  1  0.03492052  0.75000000  0.79859569  1.0
  Cs  Cs2  1  0.46507948  0.25000000  0.29859569  1.0
  Cs  Cs3  1  0.96507948  0.25000000  0.20140431  1.0
  Cs  Cs4  1  0.82262843  0.75000000  0.42048028  1.0
  Cs  Cs5  1  0.32262843  0.75000000  0.07951972  1.0
  Cs  Cs6  1  0.17737157  0.25000000  0.57951972  1.0
  Cs  Cs7  1  0.67737157  0.25000000  0.92048028  1.0
  Tl  Tl8  1  0.81308044  0.75000000  0.06781471  1.0
  Tl  Tl9  1  0.31308044  0.75000000  0.43218529  1.0
  Tl  Tl10  1  0.18691956  0.25000000  0.93218529  1.0
  Tl  Tl11  1  0.68691956  0.25000000  0.56781471  1.0
  Cl  Cl12  1  0.65869048  0.49552798  0.11992445  1.0
  Cl  Cl13  1  0.65869048  0.00447202  0.11992445  1.0
  Cl  Cl14  1  0.15869048  0.49552798  0.38007555  1.0
  Cl  Cl15  1  0.15869048  0.00447202  0.38007555  1.0
  Cl  Cl16  1  0.34130952  0.99552798  0.88007555  1.0
  Cl  Cl17  1  0.34130952  0.50447202  0.88007555  1.0
  Cl  Cl18  1  0.84130952  0.99552798  0.61992445  1.0
  Cl  Cl19  1  0.84130952  0.50447202  0.61992445  1.0
  Cl  Cl20  1  0.97067265  0.75000000  0.20105164  1.0
  Cl  Cl21  1  0.47067265  0.75000000  0.29894836  1.0
  Cl  Cl22  1  0.02932735  0.25000000  0.79894836  1.0
  Cl  Cl23  1  0.52932735  0.25000000  0.70105164  1.0
  Cl  Cl24  1  0.71099599  0.75000000  0.91113392  1.0
  Cl  Cl25  1  0.21099599  0.75000000  0.58886608  1.0
  Cl  Cl26  1  0.28900401  0.25000000  0.08886608  1.0
  Cl  Cl27  1  0.78900401  0.25000000  0.41113392  1.0
  Cl  Cl28  1  -0.00000000  0.00000000  -0.00000000  1.0
  Cl  Cl29  1  0.00000000  0.50000000  0.00000000  1.0
  Cl  Cl30  1  0.50000000  0.00000000  0.50000000  1.0
  Cl  Cl31  1  0.50000000  0.50000000  0.50000000  1.0
