# generated using pymatgen
data_Na4Ti2(PO4)3
_symmetry_space_group_name_H-M   'P 1'
_cell_length_a   8.89896741
_cell_length_b   8.89896741
_cell_length_c   8.89896741
_cell_angle_alpha   62.03181859
_cell_angle_beta   62.03181859
_cell_angle_gamma   62.03181859
_symmetry_Int_Tables_number   1
_chemical_formula_structural   Na4Ti2(PO4)3
_chemical_formula_sum   'Na8 Ti4 P6 O24'
_cell_volume   520.95648098
_cell_formula_units_Z   2
loop_
 _symmetry_equiv_pos_site_id
 _symmetry_equiv_pos_as_xyz
  1  'x, y, z'
loop_
 _atom_site_type_symbol
 _atom_site_label
 _atom_site_symmetry_multiplicity
 _atom_site_fract_x
 _atom_site_fract_y
 _atom_site_fract_z
 _atom_site_occupancy
  Na  Na0  1  0.61306275  0.25000000  -0.11306275  1.0
  Na  Na1  1  0.11306275  0.38693725  -0.25000000  1.0
  Na  Na2  1  0.75000000  0.11306275  -0.61306275  1.0
  Na  Na3  1  0.25000000  0.88693725  -0.38693725  1.0
  Na  Na4  1  0.38693725  0.75000000  -0.88693725  1.0
  Na  Na5  1  0.88693725  -0.38693725  0.25000000  1.0
  Na  Na6  1  0.50000000  0.50000000  -0.50000000  1.0
  Na  Na7  1  -0.00000000  0.00000000  0.00000000  1.0
  Ti  Ti8  1  0.35190734  0.35190734  -0.64809266  1.0
  Ti  Ti9  1  0.85190734  0.85190734  -0.14809266  1.0
  Ti  Ti10  1  1.14809266  1.14809266  0.14809266  1.0
  Ti  Ti11  1  0.64809266  0.64809266  -0.35190734  1.0
  P  P12  1  0.95119987  0.25000000  -0.45119987  1.0
  P  P13  1  0.45119987  0.04880013  -0.25000000  1.0
  P  P14  1  0.75000000  -0.54880013  0.04880013  1.0
  P  P15  1  0.25000000  0.54880013  -0.04880013  1.0
  P  P16  1  1.04880013  -0.25000000  -0.54880013  1.0
  P  P17  1  0.54880013  -0.04880013  0.25000000  1.0
  O  O18  1  1.29606516  1.51857537  0.11342600  1.0
  O  O19  1  0.79606516  -0.38657400  0.01857537  1.0
  O  O20  1  0.38657400  0.98142463  -0.79606516  1.0
  O  O21  1  0.88657400  0.70393484  -0.51857537  1.0
  O  O22  1  0.48142463  0.88657400  -0.29606516  1.0
  O  O23  1  0.98142463  0.20393484  -0.61342600  1.0
  O  O24  1  0.70393484  0.48142463  -0.11342600  1.0
  O  O25  1  0.20393484  0.38657400  -0.01857537  1.0
  O  O26  1  1.11342600  1.29606516  0.51857537  1.0
  O  O27  1  0.61342600  0.01857537  -0.20393484  1.0
  O  O28  1  1.01857537  -0.20393484  -0.38657400  1.0
  O  O29  1  1.51857537  1.11342600  0.29606516  1.0
  O  O30  1  0.22748468  0.58882093  -0.56847236  1.0
  O  O31  1  0.72748468  -0.06847236  0.08882093  1.0
  O  O32  1  1.06847236  -0.08882093  -0.72748468  1.0
  O  O33  1  0.56847236  0.77251532  -0.58882093  1.0
  O  O34  1  0.41117907  0.56847236  -0.22748468  1.0
  O  O35  1  0.91117907  -0.72748468  0.06847236  1.0
  O  O36  1  0.77251532  0.41117907  -0.43152764  1.0
  O  O37  1  0.27251532  0.06847236  -0.08882093  1.0
  O  O38  1  0.43152764  0.22748468  -0.41117907  1.0
  O  O39  1  0.93152764  0.08882093  -0.27251532  1.0
  O  O40  1  1.08882093  -0.27251532  -0.06847236  1.0
  O  O41  1  0.58882093  0.43152764  -0.77251532  1.0
