# generated using pymatgen
data_Li5ReN4
_symmetry_space_group_name_H-M   'P 1'
_cell_length_a   6.63725728
_cell_length_b   6.72009471
_cell_length_c   4.89333759
_cell_angle_alpha   90.00000000
_cell_angle_beta   90.00000000
_cell_angle_gamma   90.00000000
_symmetry_Int_Tables_number   1
_chemical_formula_structural   Li5ReN4
_chemical_formula_sum   'Li10 Re2 N8'
_cell_volume   218.25752421
_cell_formula_units_Z   2
loop_
 _symmetry_equiv_pos_site_id
 _symmetry_equiv_pos_as_xyz
  1  'x, y, z'
loop_
 _atom_site_type_symbol
 _atom_site_label
 _atom_site_symmetry_multiplicity
 _atom_site_fract_x
 _atom_site_fract_y
 _atom_site_fract_z
 _atom_site_occupancy
  Li  Li0  1  0.26247211  0.19860830  0.75525299  1.0
  Li  Li1  1  0.26247211  0.80139170  0.75525299  1.0
  Li  Li2  1  0.73752789  0.19860830  0.75525299  1.0
  Li  Li3  1  0.73752789  0.80139170  0.75525299  1.0
  Li  Li4  1  0.23752789  0.30139170  0.24474701  1.0
  Li  Li5  1  0.23752789  0.69860830  0.24474701  1.0
  Li  Li6  1  0.76247211  0.30139170  0.24474701  1.0
  Li  Li7  1  0.76247211  0.69860830  0.24474701  1.0
  Li  Li8  1  0.00000000  0.00000000  0.30224291  1.0
  Li  Li9  1  0.50000000  0.50000000  0.69775709  1.0
  Re  Re10  1  0.50000000  0.00000000  0.27792550  1.0
  Re  Re11  1  0.00000000  0.50000000  0.72207450  1.0
  N  N12  1  0.72984424  0.00000000  0.07264141  1.0
  N  N13  1  0.27015576  0.00000000  0.07264141  1.0
  N  N14  1  0.77015576  0.50000000  0.92735859  1.0
  N  N15  1  0.22984424  0.50000000  0.92735859  1.0
  N  N16  1  0.00000000  0.27122197  0.51811623  1.0
  N  N17  1  0.00000000  0.72877803  0.51811623  1.0
  N  N18  1  0.50000000  0.22877803  0.48188377  1.0
  N  N19  1  0.50000000  0.77122197  0.48188377  1.0
