# generated using pymatgen
data_RbNiPO4
_symmetry_space_group_name_H-M   'P 1'
_cell_length_a   9.07714363
_cell_length_b   9.38310193
_cell_length_c   5.04486024
_cell_angle_alpha   90.00000000
_cell_angle_beta   90.00000000
_cell_angle_gamma   90.00000000
_symmetry_Int_Tables_number   1
_chemical_formula_structural   RbNiPO4
_chemical_formula_sum   'Rb4 Ni4 P4 O16'
_cell_volume   429.67964557
_cell_formula_units_Z   4
loop_
 _symmetry_equiv_pos_site_id
 _symmetry_equiv_pos_as_xyz
  1  'x, y, z'
loop_
 _atom_site_type_symbol
 _atom_site_label
 _atom_site_symmetry_multiplicity
 _atom_site_fract_x
 _atom_site_fract_y
 _atom_site_fract_z
 _atom_site_occupancy
  P  P0  1  0.29868574  0.62118691  0.64433719  1.0
  P  P1  1  0.79868574  0.87881309  0.64433719  1.0
  P  P2  1  0.70131426  0.37881309  0.14433719  1.0
  P  P3  1  0.20131426  0.12118691  0.14433719  1.0
  O  O4  1  0.29271135  0.60305768  0.94992586  1.0
  O  O5  1  0.79271135  0.89694232  0.94992586  1.0
  O  O6  1  0.70728865  0.39694232  0.44992586  1.0
  O  O7  1  0.20728865  0.10305768  0.44992586  1.0
  O  O8  1  0.25511438  0.77643497  0.57378894  1.0
  O  O9  1  0.75511438  0.72356503  0.57378894  1.0
  O  O10  1  0.74488562  0.22356503  0.07378894  1.0
  O  O11  1  0.24488562  0.27643497  0.07378894  1.0
  O  O12  1  0.19988775  0.51095847  0.49238394  1.0
  O  O13  1  0.69988775  0.98904153  0.49238394  1.0
  O  O14  1  0.80011225  0.48904153  -0.00761606  1.0
  O  O15  1  0.30011225  0.01095847  -0.00761606  1.0
  O  O16  1  0.45679757  0.58743279  0.52549838  1.0
  O  O17  1  0.95679757  0.91256721  0.52549838  1.0
  O  O18  1  0.54320243  0.41256721  0.02549838  1.0
  O  O19  1  0.04320243  0.08743279  0.02549838  1.0
  Rb  Rb20  1  0.50745220  0.81572667  0.17149252  1.0
  Rb  Rb21  1  1.00745220  0.68427333  0.17149252  1.0
  Rb  Rb22  1  0.49254780  0.18427333  0.67149252  1.0
  Rb  Rb23  1  -0.00745220  0.31572667  0.67149252  1.0
  Ni  Ni24  1  0.15092293  0.95299924  0.70857316  1.0
  Ni  Ni25  1  0.65092293  0.54700076  0.70857316  1.0
  Ni  Ni26  1  0.84907707  0.04700076  0.20857316  1.0
  Ni  Ni27  1  0.34907707  0.45299924  0.20857316  1.0
