# generated using pymatgen
data_TlGaSe2
_symmetry_space_group_name_H-M   'P 1'
_cell_length_a   7.78872084
_cell_length_b   7.78872084
_cell_length_c   15.84297843
_cell_angle_alpha   82.82290448
_cell_angle_beta   97.17709552
_cell_angle_gamma   90.21943702
_symmetry_Int_Tables_number   1
_chemical_formula_structural   TlGaSe2
_chemical_formula_sum   'Tl8 Ga8 Se16'
_cell_volume   946.03145737
_cell_formula_units_Z   8
loop_
 _symmetry_equiv_pos_site_id
 _symmetry_equiv_pos_as_xyz
  1  'x, y, z'
loop_
 _atom_site_type_symbol
 _atom_site_label
 _atom_site_symmetry_multiplicity
 _atom_site_fract_x
 _atom_site_fract_y
 _atom_site_fract_z
 _atom_site_occupancy
  Tl  Tl0  1  0.95262486  -0.06003035  0.44737244  1.0
  Tl  Tl1  1  1.06003035  0.04737514  0.94737244  1.0
  Tl  Tl2  1  1.37069181  0.48877270  0.18787338  1.0
  Tl  Tl3  1  0.51122730  -0.37069181  0.68787338  1.0
  Tl  Tl4  1  1.55443997  0.02089576  0.96367257  1.0
  Tl  Tl5  1  0.97910424  -0.55443997  0.46367257  1.0
  Tl  Tl6  1  1.53197864  0.14345764  0.67152163  1.0
  Tl  Tl7  1  0.85654236  -0.53197864  0.17152163  1.0
  Ga  Ga8  1  0.41397748  -0.28547083  0.40168843  1.0
  Ga  Ga9  1  1.28547083  0.58602252  0.90168843  1.0
  Ga  Ga10  1  0.62065427  0.00629703  0.23485819  1.0
  Ga  Ga11  1  0.99370297  0.37934573  0.73485819  1.0
  Ga  Ga12  1  1.41448099  0.20378485  0.40872534  1.0
  Ga  Ga13  1  0.79621515  -0.41448099  0.90872534  1.0
  Ga  Ga14  1  1.12630851  0.00479548  0.22581783  1.0
  Ga  Ga15  1  0.99520452  -0.12630851  0.72581783  1.0
  Se  Se16  1  1.40897184  0.43936869  0.49781462  1.0
  Se  Se17  1  0.56063131  -0.40897184  -0.00218538  1.0
  Se  Se18  1  0.65642121  -0.27827393  0.31843736  1.0
  Se  Se19  1  1.27827393  0.34357879  0.81843736  1.0
  Se  Se20  1  1.84474956  0.05596937  0.13704349  1.0
  Se  Se21  1  0.94403063  -0.84474956  0.63704349  1.0
  Se  Se22  1  0.40872378  -0.06970660  0.50175762  1.0
  Se  Se23  1  1.06970660  0.59127622  1.00175762  1.0
  Se  Se24  1  1.13678098  0.71944743  0.30776175  1.0
  Se  Se25  1  0.28055257  -0.13678098  0.80776175  1.0
  Se  Se26  1  1.66185479  0.23526495  0.32892072  1.0
  Se  Se27  1  0.76473505  -0.66185479  0.82892072  1.0
  Se  Se28  1  1.35507539  0.06009320  0.13456592  1.0
  Se  Se29  1  0.93990680  -0.35507539  0.63456592  1.0
  Se  Se30  1  1.13588136  0.23815004  0.31676872  1.0
  Se  Se31  1  0.76184996  -0.13588136  0.81676872  1.0
