# generated using pymatgen
data_Ag2Te4O11
_symmetry_space_group_name_H-M   'P 1'
_cell_length_a   7.49900260
_cell_length_b   9.89449396
_cell_length_c   7.62386756
_cell_angle_alpha   99.63298448
_cell_angle_beta   119.17069715
_cell_angle_gamma   85.93646448
_symmetry_Int_Tables_number   1
_chemical_formula_structural   Ag2Te4O11
_chemical_formula_sum   'Ag4 Te8 O22'
_cell_volume   486.93527244
_cell_formula_units_Z   2
loop_
 _symmetry_equiv_pos_site_id
 _symmetry_equiv_pos_as_xyz
  1  'x, y, z'
loop_
 _atom_site_type_symbol
 _atom_site_label
 _atom_site_symmetry_multiplicity
 _atom_site_fract_x
 _atom_site_fract_y
 _atom_site_fract_z
 _atom_site_occupancy
  Ag  Ag0  1  -0.50576807  0.98476890  0.23849614  1.0
  Ag  Ag1  1  0.50576807  0.01523110  0.76150386  1.0
  Ag  Ag2  1  0.16232009  0.35732258  0.65774664  1.0
  Ag  Ag3  1  -0.16232009  0.64267742  0.34225336  1.0
  Te  Te4  1  -0.80685569  0.31226357  0.18848079  1.0
  Te  Te5  1  0.80685569  0.68773643  0.81151921  1.0
  Te  Te6  1  -0.30816296  0.31071957  0.68318500  1.0
  Te  Te7  1  0.30816296  0.68928043  0.31681500  1.0
  Te  Te8  1  -0.00829559  1.00395204  0.71308206  1.0
  Te  Te9  1  0.00829559  -0.00395204  0.28691794  1.0
  Te  Te10  1  0.32682368  0.68228730  0.82491220  1.0
  Te  Te11  1  -0.32682368  0.31771270  0.17508780  1.0
  O  O12  1  -0.14214183  0.88586694  0.82210819  1.0
  O  O13  1  0.14214183  0.11413306  0.17789181  1.0
  O  O14  1  -0.38483087  0.66770963  0.50379122  1.0
  O  O15  1  0.38483087  0.33229037  0.49620878  1.0
  O  O16  1  -0.30894484  0.11064009  0.57961635  1.0
  O  O17  1  0.30894484  0.88935991  0.42038365  1.0
  O  O18  1  0.00268036  0.29570918  0.87880271  1.0
  O  O19  1  -0.00268036  0.70429082  0.12119729  1.0
  O  O20  1  -0.69964853  0.49354568  0.17692488  1.0
  O  O21  1  0.69964853  0.50645432  0.82307512  1.0
  O  O22  1  0.02073229  0.61484943  0.74072606  1.0
  O  O23  1  -0.02073229  0.38515057  0.25927394  1.0
  O  O24  1  -0.58566445  0.74278849  0.14012596  1.0
  O  O25  1  0.58566445  0.25721151  0.85987404  1.0
  O  O26  1  -0.22163487  0.36396520  0.49568531  1.0
  O  O27  1  0.22163487  0.63603480  0.50431469  1.0
  O  O28  1  -0.12862508  0.89340329  0.43812316  1.0
  O  O29  1  0.12862508  0.10659671  0.56187684  1.0
  O  O30  1  0.25812919  0.87878486  0.81554888  1.0
  O  O31  1  -0.25812919  0.12121514  0.18445112  1.0
  O  O32  1  0.60306102  0.77138394  0.89471156  1.0
  O  O33  1  -0.60306102  0.22861606  0.10528844  1.0
