# generated using pymatgen
data_CaCl2
_symmetry_space_group_name_H-M   'P 1'
_cell_length_a   4.19206813
_cell_length_b   6.47718196
_cell_length_c   6.43367456
_cell_angle_alpha   90.00000000
_cell_angle_beta   90.00000000
_cell_angle_gamma   90.00000000
_symmetry_Int_Tables_number   1
_chemical_formula_structural   CaCl2
_chemical_formula_sum   'Ca2 Cl4'
_cell_volume   174.69220171
_cell_formula_units_Z   2
loop_
 _symmetry_equiv_pos_site_id
 _symmetry_equiv_pos_as_xyz
  1  'x, y, z'
loop_
 _atom_site_type_symbol
 _atom_site_label
 _atom_site_symmetry_multiplicity
 _atom_site_fract_x
 _atom_site_fract_y
 _atom_site_fract_z
 _atom_site_occupancy
  Ca  Ca0  1  0.00000000  0.25002651  0.89399649  1.0
  Ca  Ca1  1  0.50000000  0.74997349  0.39399649  1.0
  Cl  Cl2  1  0.50000000  0.44214975  0.69345905  1.0
  Cl  Cl3  1  0.00000000  0.55785025  0.19345905  1.0
  Cl  Cl4  1  0.50000000  0.05777821  0.09454445  1.0
  Cl  Cl5  1  0.00000000  0.94222179  0.59454445  1.0
