# generated using pymatgen
data_ZrFeGe
_symmetry_space_group_name_H-M   'P 1'
_cell_length_a   6.68270447
_cell_length_b   3.73582671
_cell_length_c   7.74489475
_cell_angle_alpha   90.00000000
_cell_angle_beta   90.00000000
_cell_angle_gamma   90.00000000
_symmetry_Int_Tables_number   1
_chemical_formula_structural   ZrFeGe
_chemical_formula_sum   'Zr4 Fe4 Ge4'
_cell_volume   193.35459537
_cell_formula_units_Z   4
loop_
 _symmetry_equiv_pos_site_id
 _symmetry_equiv_pos_as_xyz
  1  'x, y, z'
loop_
 _atom_site_type_symbol
 _atom_site_label
 _atom_site_symmetry_multiplicity
 _atom_site_fract_x
 _atom_site_fract_y
 _atom_site_fract_z
 _atom_site_occupancy
  Zr  Zr0  1  0.96465613  0.75000000  0.67809571  1.0
  Zr  Zr1  1  0.46465613  0.75000000  0.82190429  1.0
  Zr  Zr2  1  0.03534387  0.25000000  0.32190429  1.0
  Zr  Zr3  1  0.53534387  0.25000000  0.17809571  1.0
  Fe  Fe4  1  0.87152773  0.75000000  0.05878125  1.0
  Fe  Fe5  1  0.37152773  0.75000000  0.44121875  1.0
  Fe  Fe6  1  0.12847227  0.25000000  0.94121875  1.0
  Fe  Fe7  1  0.62847227  0.25000000  0.55878125  1.0
  Ge  Ge8  1  0.73978529  0.75000000  0.37302745  1.0
  Ge  Ge9  1  0.23978529  0.75000000  0.12697255  1.0
  Ge  Ge10  1  0.26021471  0.25000000  0.62697255  1.0
  Ge  Ge11  1  0.76021471  0.25000000  0.87302745  1.0
