# generated using pymatgen
data_MnH2(CO2)2
_symmetry_space_group_name_H-M   'P 1'
_cell_length_a   7.60739701
_cell_length_b   9.60073295
_cell_length_c   5.93446437
_cell_angle_alpha   90.00000000
_cell_angle_beta   90.00000000
_cell_angle_gamma   90.00000000
_symmetry_Int_Tables_number   1
_chemical_formula_structural   MnH2(CO2)2
_chemical_formula_sum   'Mn4 H8 C8 O16'
_cell_volume   433.43302424
_cell_formula_units_Z   4
loop_
 _symmetry_equiv_pos_site_id
 _symmetry_equiv_pos_as_xyz
  1  'x, y, z'
loop_
 _atom_site_type_symbol
 _atom_site_label
 _atom_site_symmetry_multiplicity
 _atom_site_fract_x
 _atom_site_fract_y
 _atom_site_fract_z
 _atom_site_occupancy
  Mn  Mn0  1  0.50000000  0.60721847  0.75000000  1.0
  Mn  Mn1  1  0.00000000  0.89278153  0.25000000  1.0
  Mn  Mn2  1  0.50000000  0.39278153  0.25000000  1.0
  Mn  Mn3  1  -0.00000000  0.10721847  0.75000000  1.0
  H  H4  1  0.82865779  0.41057907  0.81652353  1.0
  H  H5  1  0.67134221  0.08942093  0.31652353  1.0
  H  H6  1  0.32865779  0.08942093  0.18347647  1.0
  H  H7  1  0.17134221  0.41057907  0.68347647  1.0
  H  H8  1  0.17134221  0.58942093  0.18347647  1.0
  H  H9  1  0.32865779  0.91057907  0.68347647  1.0
  H  H10  1  0.67134221  0.91057907  0.81652353  1.0
  H  H11  1  0.82865779  0.58942093  0.31652353  1.0
  C  C12  1  0.22420306  0.36747604  0.84201667  1.0
  C  C13  1  0.27579694  0.13252396  0.34201667  1.0
  C  C14  1  0.72420306  0.13252396  0.15798333  1.0
  C  C15  1  0.77579694  0.36747604  0.65798333  1.0
  C  C16  1  0.77579694  0.63252396  0.15798333  1.0
  C  C17  1  0.72420306  0.86747604  0.65798333  1.0
  C  C18  1  0.27579694  0.86747604  0.84201667  1.0
  C  C19  1  0.22420306  0.63252396  0.34201667  1.0
  O  O20  1  0.34963120  0.43647729  0.93333937  1.0
  O  O21  1  0.15036880  0.06352271  0.43333937  1.0
  O  O22  1  0.84963120  0.06352271  0.06666063  1.0
  O  O23  1  0.65036880  0.43647729  0.56666063  1.0
  O  O24  1  0.65036880  0.56352271  0.06666063  1.0
  O  O25  1  0.84963120  0.93647729  0.56666063  1.0
  O  O26  1  0.15036880  0.93647729  0.93333937  1.0
  O  O27  1  0.34963120  0.56352271  0.43333937  1.0
  O  O28  1  0.15934734  0.25756508  0.92088404  1.0
  O  O29  1  0.34065266  0.24243492  0.42088404  1.0
  O  O30  1  0.65934734  0.24243492  0.07911596  1.0
  O  O31  1  0.84065266  0.25756508  0.57911596  1.0
  O  O32  1  0.84065266  0.74243492  0.07911596  1.0
  O  O33  1  0.65934734  0.75756508  0.57911596  1.0
  O  O34  1  0.34065266  0.75756508  0.92088404  1.0
  O  O35  1  0.15934734  0.74243492  0.42088404  1.0
