# generated using pymatgen
data_LaTa2CuClO7
_symmetry_space_group_name_H-M   'P 1'
_cell_length_a   7.85413623
_cell_length_b   7.84139125
_cell_length_c   11.80890019
_cell_angle_alpha   90.00000000
_cell_angle_beta   90.00000000
_cell_angle_gamma   90.00000000
_symmetry_Int_Tables_number   1
_chemical_formula_structural   LaTa2CuClO7
_chemical_formula_sum   'La4 Ta8 Cu4 Cl4 O28'
_cell_volume   727.27892866
_cell_formula_units_Z   4
loop_
 _symmetry_equiv_pos_site_id
 _symmetry_equiv_pos_as_xyz
  1  'x, y, z'
loop_
 _atom_site_type_symbol
 _atom_site_label
 _atom_site_symmetry_multiplicity
 _atom_site_fract_x
 _atom_site_fract_y
 _atom_site_fract_z
 _atom_site_occupancy
  La  La0  1  0.73920077  1.00003212  0.00000000  1.0
  La  La1  1  0.76079923  0.50003212  0.00000000  1.0
  La  La2  1  0.26079923  -0.00003212  0.00000000  1.0
  La  La3  1  0.23920077  0.49996788  0.00000000  1.0
  Ta  Ta4  1  -0.00000076  0.75168024  0.80964943  1.0
  Ta  Ta5  1  -0.00000076  0.75168024  0.19035057  1.0
  Ta  Ta6  1  0.50000076  0.25168024  0.80964943  1.0
  Ta  Ta7  1  0.50000076  0.25168024  0.19035057  1.0
  Ta  Ta8  1  1.00000076  0.24831976  0.80964943  1.0
  Ta  Ta9  1  1.00000076  0.24831976  0.19035057  1.0
  Ta  Ta10  1  0.49999924  0.74831976  0.80964943  1.0
  Ta  Ta11  1  0.49999924  0.74831976  0.19035057  1.0
  Cu  Cu12  1  0.49476301  0.73232816  0.50000000  1.0
  Cu  Cu13  1  0.00523699  0.23232816  0.50000000  1.0
  Cu  Cu14  1  0.50523699  0.26767184  0.50000000  1.0
  Cu  Cu15  1  0.99476301  0.76767184  0.50000000  1.0
  Cl  Cl16  1  0.73286845  0.92157387  0.50000000  1.0
  Cl  Cl17  1  0.76713155  0.42157387  0.50000000  1.0
  Cl  Cl18  1  0.26713155  0.07842613  0.50000000  1.0
  Cl  Cl19  1  0.23286845  0.57842613  0.50000000  1.0
  O  O20  1  -0.00041514  0.77615576  0.65831625  1.0
  O  O21  1  -0.00041514  0.77615576  0.34168375  1.0
  O  O22  1  0.50041514  0.27615576  0.65831625  1.0
  O  O23  1  0.50041514  0.27615576  0.34168375  1.0
  O  O24  1  1.00041514  0.22384424  0.65831625  1.0
  O  O25  1  1.00041514  0.22384424  0.34168375  1.0
  O  O26  1  0.49958486  0.72384424  0.65831625  1.0
  O  O27  1  0.49958486  0.72384424  0.34168375  1.0
  O  O28  1  0.74999282  0.74982089  0.84625438  1.0
  O  O29  1  0.74999282  0.74982089  0.15374562  1.0
  O  O30  1  0.75000718  0.24982089  0.84625438  1.0
  O  O31  1  0.75000718  0.24982089  0.15374562  1.0
  O  O32  1  0.25000718  0.25017911  0.84625438  1.0
  O  O33  1  0.25000718  0.25017911  0.15374562  1.0
  O  O34  1  0.24999282  0.75017911  0.84625438  1.0
  O  O35  1  0.24999282  0.75017911  0.15374562  1.0
  O  O36  1  -0.00002593  0.71108730  0.00000000  1.0
  O  O37  1  0.50002593  0.21108730  0.00000000  1.0
  O  O38  1  1.00002593  0.28891270  0.00000000  1.0
  O  O39  1  0.49997407  0.78891270  0.00000000  1.0
  O  O40  1  0.50000000  0.00000000  0.82283820  1.0
  O  O41  1  0.50000000  0.00000000  0.17716180  1.0
  O  O42  1  0.00000000  0.50000000  0.82283820  1.0
  O  O43  1  0.00000000  0.50000000  0.17716180  1.0
  O  O44  1  0.00000000  0.00000000  0.86219438  1.0
  O  O45  1  0.00000000  0.00000000  0.13780562  1.0
  O  O46  1  0.50000000  0.50000000  0.86219438  1.0
  O  O47  1  0.50000000  0.50000000  0.13780562  1.0
