# generated using pymatgen
data_Mn20(WC2)3
_symmetry_space_group_name_H-M   'P 1'
_cell_length_a   7.43108819
_cell_length_b   7.43108819
_cell_length_c   7.43108819
_cell_angle_alpha   60.00000000
_cell_angle_beta   60.00000000
_cell_angle_gamma   60.00000000
_symmetry_Int_Tables_number   1
_chemical_formula_structural   Mn20(WC2)3
_chemical_formula_sum   'Mn20 W3 C6'
_cell_volume   290.16314415
_cell_formula_units_Z   1
loop_
 _symmetry_equiv_pos_site_id
 _symmetry_equiv_pos_as_xyz
  1  'x, y, z'
loop_
 _atom_site_type_symbol
 _atom_site_label
 _atom_site_symmetry_multiplicity
 _atom_site_fract_x
 _atom_site_fract_y
 _atom_site_fract_z
 _atom_site_occupancy
  W  W0  1  0.00000000  0.00000000  -0.00000000  1.0
  W  W1  1  0.75000000  0.75000000  -0.25000000  1.0
  W  W2  1  1.25000000  0.25000000  0.25000000  1.0
  Mn  Mn3  1  0.61559533  0.61559533  1.15321400  1.0
  Mn  Mn4  1  0.61559533  1.15321400  -0.38440467  1.0
  Mn  Mn5  1  1.15321400  0.61559533  0.61559533  1.0
  Mn  Mn6  1  0.61559533  0.61559533  -0.38440467  1.0
  Mn  Mn7  1  0.38440467  1.38440467  -0.15321400  1.0
  Mn  Mn8  1  1.38440467  -0.15321400  0.38440467  1.0
  Mn  Mn9  1  -0.15321400  1.38440467  0.38440467  1.0
  Mn  Mn10  1  1.38440467  0.38440467  0.38440467  1.0
  Mn  Mn11  1  0.00000000  -0.00000000  0.34129300  1.0
  Mn  Mn12  1  0.65870700  1.00000000  -0.65870700  1.0
  Mn  Mn13  1  1.00000000  0.65870700  -0.65870700  1.0
  Mn  Mn14  1  0.65870700  -0.65870700  1.00000000  1.0
  Mn  Mn15  1  0.00000000  1.34129300  -0.00000000  1.0
  Mn  Mn16  1  1.00000000  0.34129300  -0.34129300  1.0
  Mn  Mn17  1  0.34129300  -0.34129300  1.00000000  1.0
  Mn  Mn18  1  0.34129300  1.00000000  -0.34129300  1.0
  Mn  Mn19  1  1.34129300  0.00000000  -0.00000000  1.0
  Mn  Mn20  1  -0.00000000  -0.00000000  0.65870700  1.0
  Mn  Mn21  1  -0.00000000  1.65870700  0.00000000  1.0
  Mn  Mn22  1  1.65870700  -0.00000000  0.00000000  1.0
  C  C23  1  0.72532806  0.72532806  -0.72532806  1.0
  C  C24  1  0.27467194  -0.27467194  1.27467194  1.0
  C  C25  1  -0.27467194  0.27467194  0.27467194  1.0
  C  C26  1  0.27467194  1.27467194  -0.27467194  1.0
  C  C27  1  -0.27467194  0.27467194  0.72532806  1.0
  C  C28  1  -0.72532806  0.72532806  0.72532806  1.0
