# generated using pymatgen
data_Sc5(In2Rh)2
_symmetry_space_group_name_H-M   'P 1'
_cell_length_a   7.72976246
_cell_length_b   17.66232601
_cell_length_c   3.35062712
_cell_angle_alpha   90.00000000
_cell_angle_beta   90.00000000
_cell_angle_gamma   90.00000000
_symmetry_Int_Tables_number   1
_chemical_formula_structural   Sc5(In2Rh)2
_chemical_formula_sum   'Sc10 In8 Rh4'
_cell_volume   457.44632573
_cell_formula_units_Z   2
loop_
 _symmetry_equiv_pos_site_id
 _symmetry_equiv_pos_as_xyz
  1  'x, y, z'
loop_
 _atom_site_type_symbol
 _atom_site_label
 _atom_site_symmetry_multiplicity
 _atom_site_fract_x
 _atom_site_fract_y
 _atom_site_fract_z
 _atom_site_occupancy
  Sc  Sc0  1  0.37569052  0.91395187  0.00000000  1.0
  Sc  Sc1  1  0.87569052  0.58604813  0.00000000  1.0
  Sc  Sc2  1  0.62430948  0.08604813  0.00000000  1.0
  Sc  Sc3  1  0.12430948  0.41395187  0.00000000  1.0
  Sc  Sc4  1  0.24455927  0.72093477  0.00000000  1.0
  Sc  Sc5  1  0.74455927  0.77906523  0.00000000  1.0
  Sc  Sc6  1  0.75544073  0.27906523  0.00000000  1.0
  Sc  Sc7  1  0.25544073  0.22093477  0.00000000  1.0
  Sc  Sc8  1  0.50000000  0.50000000  0.00000000  1.0
  Sc  Sc9  1  0.00000000  0.00000000  0.00000000  1.0
  In  In10  1  0.20304995  0.56662022  0.50000000  1.0
  In  In11  1  0.70304995  0.93337978  0.50000000  1.0
  In  In12  1  0.79695005  0.43337978  0.50000000  1.0
  In  In13  1  0.29695005  0.06662022  0.50000000  1.0
  In  In14  1  0.06873774  0.85078011  0.50000000  1.0
  In  In15  1  0.56873774  0.64921989  0.50000000  1.0
  In  In16  1  0.93126226  0.14921989  0.50000000  1.0
  In  In17  1  0.43126226  0.35078011  0.50000000  1.0
  Rh  Rh18  1  0.46249662  0.80572347  0.50000000  1.0
  Rh  Rh19  1  0.96249662  0.69427653  0.50000000  1.0
  Rh  Rh20  1  0.53750338  0.19427653  0.50000000  1.0
  Rh  Rh21  1  0.03750338  0.30572347  0.50000000  1.0
