# generated using pymatgen
data_CsAuO2
_symmetry_space_group_name_H-M   'P 1'
_cell_length_a   6.83420057
_cell_length_b   6.83420057
_cell_length_c   6.11962798
_cell_angle_alpha   90.00000000
_cell_angle_beta   90.00000000
_cell_angle_gamma   133.66335561
_symmetry_Int_Tables_number   1
_chemical_formula_structural   CsAuO2
_chemical_formula_sum   'Cs2 Au2 O4'
_cell_volume   206.76845747
_cell_formula_units_Z   2
loop_
 _symmetry_equiv_pos_site_id
 _symmetry_equiv_pos_as_xyz
  1  'x, y, z'
loop_
 _atom_site_type_symbol
 _atom_site_label
 _atom_site_symmetry_multiplicity
 _atom_site_fract_x
 _atom_site_fract_y
 _atom_site_fract_z
 _atom_site_occupancy
  Cs  Cs0  1  -0.69095967  0.69095967  0.75000000  1.0
  Cs  Cs1  1  -0.30904033  1.30904033  0.25000000  1.0
  Au  Au2  1  -0.99802684  0.99802684  0.75000000  1.0
  Au  Au3  1  -0.00197316  1.00197316  0.25000000  1.0
  O  O4  1  -0.10580288  1.10580288  0.50379564  1.0
  O  O5  1  -0.89419712  0.89419712  0.49620436  1.0
  O  O6  1  -0.10580288  1.10580288  0.99620436  1.0
  O  O7  1  -0.89419712  0.89419712  0.00379564  1.0
