# generated using pymatgen
data_Mn2ZnAs2
_symmetry_space_group_name_H-M   'P 1'
_cell_length_a   3.94389579
_cell_length_b   3.94389579
_cell_length_c   6.46095514
_cell_angle_alpha   90.00000000
_cell_angle_beta   90.00000000
_cell_angle_gamma   120.00000000
_symmetry_Int_Tables_number   1
_chemical_formula_structural   Mn2ZnAs2
_chemical_formula_sum   'Mn2 Zn1 As2'
_cell_volume   87.03185066
_cell_formula_units_Z   1
loop_
 _symmetry_equiv_pos_site_id
 _symmetry_equiv_pos_as_xyz
  1  'x, y, z'
loop_
 _atom_site_type_symbol
 _atom_site_label
 _atom_site_symmetry_multiplicity
 _atom_site_fract_x
 _atom_site_fract_y
 _atom_site_fract_z
 _atom_site_occupancy
  Mn  Mn0  1  0.33333333  0.66666667  0.62040126  1.0
  Mn  Mn1  1  0.66666667  0.33333333  0.37959874  1.0
  Zn  Zn2  1  -0.00000000  -0.00000000  -0.00000000  1.0
  As  As3  1  0.33333333  0.66666667  0.24360429  1.0
  As  As4  1  0.66666667  0.33333333  0.75639571  1.0
