# generated using pymatgen
data_CsPbBr3
_symmetry_space_group_name_H-M   'P 1'
_cell_length_a   8.30381717
_cell_length_b   8.30381717
_cell_length_c   6.07079501
_cell_angle_alpha   90.00000000
_cell_angle_beta   90.00000000
_cell_angle_gamma   90.00000000
_symmetry_Int_Tables_number   1
_chemical_formula_structural   CsPbBr3
_chemical_formula_sum   'Cs2 Pb2 Br6'
_cell_volume   418.60183283
_cell_formula_units_Z   2
loop_
 _symmetry_equiv_pos_site_id
 _symmetry_equiv_pos_as_xyz
  1  'x, y, z'
loop_
 _atom_site_type_symbol
 _atom_site_label
 _atom_site_symmetry_multiplicity
 _atom_site_fract_x
 _atom_site_fract_y
 _atom_site_fract_z
 _atom_site_occupancy
  Cs  Cs0  1  0.50000000  0.00000000  0.00000000  1.0
  Cs  Cs1  1  0.00000000  0.50000000  0.00000000  1.0
  Pb  Pb2  1  0.50000000  0.50000000  0.50000000  1.0
  Pb  Pb3  1  0.00000000  0.00000000  0.50000000  1.0
  Br  Br4  1  0.50000000  0.50000000  0.00000000  1.0
  Br  Br5  1  0.00000000  0.00000000  0.00000000  1.0
  Br  Br6  1  0.31236264  0.18763736  0.50000000  1.0
  Br  Br7  1  0.81236264  0.31236264  0.50000000  1.0
  Br  Br8  1  0.68763736  0.81236264  0.50000000  1.0
  Br  Br9  1  0.18763736  0.68763736  0.50000000  1.0
