# generated using pymatgen
data_SmH3(SeO4)3
_symmetry_space_group_name_H-M   'P 1'
_cell_length_a   10.01114092
_cell_length_b   10.01114092
_cell_length_c   5.97500390
_cell_angle_alpha   90.00000000
_cell_angle_beta   90.00000000
_cell_angle_gamma   120.00000000
_symmetry_Int_Tables_number   1
_chemical_formula_structural   SmH3(SeO4)3
_chemical_formula_sum   'Sm2 H6 Se6 O24'
_cell_volume   518.60413374
_cell_formula_units_Z   2
loop_
 _symmetry_equiv_pos_site_id
 _symmetry_equiv_pos_as_xyz
  1  'x, y, z'
loop_
 _atom_site_type_symbol
 _atom_site_label
 _atom_site_symmetry_multiplicity
 _atom_site_fract_x
 _atom_site_fract_y
 _atom_site_fract_z
 _atom_site_occupancy
  Sm  Sm0  1  0.33333333  0.66666667  0.25000000  1.0
  Sm  Sm1  1  0.66666667  0.33333333  0.75000000  1.0
  H  H2  1  0.15905229  0.90461052  0.25000000  1.0
  H  H3  1  0.90461052  0.74555823  0.75000000  1.0
  H  H4  1  0.74555823  0.84094771  0.25000000  1.0
  H  H5  1  0.09538948  0.25444177  0.25000000  1.0
  H  H6  1  0.84094771  0.09538948  0.75000000  1.0
  H  H7  1  0.25444177  0.15905229  0.75000000  1.0
  Se  Se8  1  0.69293975  0.59393056  0.25000000  1.0
  Se  Se9  1  0.59393056  0.90099081  0.75000000  1.0
  Se  Se10  1  0.90099081  0.30706025  0.25000000  1.0
  Se  Se11  1  0.40606944  0.09900919  0.25000000  1.0
  Se  Se12  1  0.30706025  0.40606944  0.75000000  1.0
  Se  Se13  1  0.09900919  0.69293975  0.75000000  1.0
  O  O14  1  0.75189385  0.54212463  0.47539281  1.0
  O  O15  1  0.75189385  0.54212463  0.02460719  1.0
  O  O16  1  0.54212463  0.79023078  0.97539281  1.0
  O  O17  1  0.54212463  0.79023078  0.52460719  1.0
  O  O18  1  0.79023078  0.24810615  0.47539281  1.0
  O  O19  1  0.79023078  0.24810615  0.02460719  1.0
  O  O20  1  0.45787537  0.20976922  0.47539281  1.0
  O  O21  1  0.45787537  0.20976922  0.02460719  1.0
  O  O22  1  0.24810615  0.45787537  0.97539281  1.0
  O  O23  1  0.24810615  0.45787537  0.52460719  1.0
  O  O24  1  0.20976922  0.75189385  0.97539281  1.0
  O  O25  1  0.20976922  0.75189385  0.52460719  1.0
  O  O26  1  0.45120987  0.96312273  0.25000000  1.0
  O  O27  1  0.96312273  0.51191285  0.75000000  1.0
  O  O28  1  0.51191285  0.54879013  0.25000000  1.0
  O  O29  1  0.03687727  0.48808715  0.25000000  1.0
  O  O30  1  0.54879013  0.03687727  0.75000000  1.0
  O  O31  1  0.48808715  0.45120987  0.75000000  1.0
  O  O32  1  0.81365651  0.79636087  0.25000000  1.0
  O  O33  1  0.79636087  0.98270435  0.75000000  1.0
  O  O34  1  0.98270435  0.18634349  0.25000000  1.0
  O  O35  1  0.20363913  0.01729565  0.25000000  1.0
  O  O36  1  0.18634349  0.20363913  0.75000000  1.0
  O  O37  1  0.01729565  0.81365651  0.75000000  1.0
