# generated using pymatgen
data_Al3Pd5
_symmetry_space_group_name_H-M   'P 1'
_cell_length_a   5.42238731
_cell_length_b   10.59511526
_cell_length_c   4.06848050
_cell_angle_alpha   90.00000000
_cell_angle_beta   90.00000000
_cell_angle_gamma   90.00000000
_symmetry_Int_Tables_number   1
_chemical_formula_structural   Al3Pd5
_chemical_formula_sum   'Al6 Pd10'
_cell_volume   233.73753524
_cell_formula_units_Z   2
loop_
 _symmetry_equiv_pos_site_id
 _symmetry_equiv_pos_as_xyz
  1  'x, y, z'
loop_
 _atom_site_type_symbol
 _atom_site_label
 _atom_site_symmetry_multiplicity
 _atom_site_fract_x
 _atom_site_fract_y
 _atom_site_fract_z
 _atom_site_occupancy
  Al  Al0  1  0.33772055  0.64260287  0.50000000  1.0
  Al  Al1  1  0.83772055  0.85739713  0.50000000  1.0
  Al  Al2  1  0.66227945  0.35739713  0.50000000  1.0
  Al  Al3  1  0.16227945  0.14260287  0.50000000  1.0
  Al  Al4  1  0.50000000  0.00000000  0.00000000  1.0
  Al  Al5  1  0.00000000  0.50000000  0.00000000  1.0
  Pd  Pd6  1  0.50000000  0.50000000  0.00000000  1.0
  Pd  Pd7  1  0.00000000  0.00000000  0.00000000  1.0
  Pd  Pd8  1  0.31308424  0.89419613  0.50000000  1.0
  Pd  Pd9  1  0.81308424  0.60580387  0.50000000  1.0
  Pd  Pd10  1  0.68691576  0.10580387  0.50000000  1.0
  Pd  Pd11  1  0.18691576  0.39419613  0.50000000  1.0
  Pd  Pd12  1  0.09545025  0.73276020  0.00000000  1.0
  Pd  Pd13  1  0.59545025  0.76723980  0.00000000  1.0
  Pd  Pd14  1  0.90454975  0.26723980  0.00000000  1.0
  Pd  Pd15  1  0.40454975  0.23276020  0.00000000  1.0
