# generated using pymatgen
data_Rb2BaCr2O8
_symmetry_space_group_name_H-M   'P 1'
_cell_length_a   8.28099768
_cell_length_b   8.28099768
_cell_length_c   8.28099768
_cell_angle_alpha   41.80157881
_cell_angle_beta   41.80157881
_cell_angle_gamma   41.80157881
_symmetry_Int_Tables_number   1
_chemical_formula_structural   Rb2BaCr2O8
_chemical_formula_sum   'Rb2 Ba1 Cr2 O8'
_cell_volume   228.13270199
_cell_formula_units_Z   1
loop_
 _symmetry_equiv_pos_site_id
 _symmetry_equiv_pos_as_xyz
  1  'x, y, z'
loop_
 _atom_site_type_symbol
 _atom_site_label
 _atom_site_symmetry_multiplicity
 _atom_site_fract_x
 _atom_site_fract_y
 _atom_site_fract_z
 _atom_site_occupancy
  Rb  Rb0  1  0.79848218  0.79848218  0.79848218  1.0
  Rb  Rb1  1  1.20151782  1.20151782  0.20151782  1.0
  Ba  Ba2  1  0.00000000  -0.00000000  0.00000000  1.0
  Cr  Cr3  1  1.59841770  0.59841770  0.59841770  1.0
  Cr  Cr4  1  1.40158230  0.40158230  0.40158230  1.0
  O  O5  1  1.27211046  0.27211046  0.73222784  1.0
  O  O6  1  1.27211046  0.73222784  0.27211046  1.0
  O  O7  1  1.26777216  0.72788954  0.72788954  1.0
  O  O8  1  1.72788954  0.26777216  0.72788954  1.0
  O  O9  1  1.72788954  0.72788954  0.26777216  1.0
  O  O10  1  1.73222784  0.27211046  0.27211046  1.0
  O  O11  1  0.67106366  0.67106366  0.67106366  1.0
  O  O12  1  1.32893634  1.32893634  0.32893634  1.0
