# generated using pymatgen
data_Cs2MoSe4
_symmetry_space_group_name_H-M   'P 1'
_cell_length_a   10.79446885
_cell_length_b   7.56209648
_cell_length_c   13.39664751
_cell_angle_alpha   90.00000000
_cell_angle_beta   90.00000000
_cell_angle_gamma   90.00000000
_symmetry_Int_Tables_number   1
_chemical_formula_structural   Cs2MoSe4
_chemical_formula_sum   'Cs8 Mo4 Se16'
_cell_volume   1093.55245941
_cell_formula_units_Z   4
loop_
 _symmetry_equiv_pos_site_id
 _symmetry_equiv_pos_as_xyz
  1  'x, y, z'
loop_
 _atom_site_type_symbol
 _atom_site_label
 _atom_site_symmetry_multiplicity
 _atom_site_fract_x
 _atom_site_fract_y
 _atom_site_fract_z
 _atom_site_occupancy
  Cs  Cs0  1  0.84950709  0.75000000  0.39624879  1.0
  Cs  Cs1  1  0.34950709  0.75000000  0.10375121  1.0
  Cs  Cs2  1  0.15049291  0.25000000  0.60375121  1.0
  Cs  Cs3  1  0.65049291  0.25000000  0.89624879  1.0
  Cs  Cs4  1  0.53776412  0.75000000  0.66281924  1.0
  Cs  Cs5  1  0.03776412  0.75000000  0.83718076  1.0
  Cs  Cs6  1  0.46223588  0.25000000  0.33718076  1.0
  Cs  Cs7  1  0.96223588  0.25000000  0.16281924  1.0
  Mo  Mo8  1  0.75329463  0.75000000  0.07797395  1.0
  Mo  Mo9  1  0.25329463  0.75000000  0.42202605  1.0
  Mo  Mo10  1  0.24670537  0.25000000  0.92202605  1.0
  Mo  Mo11  1  0.74670537  0.25000000  0.57797395  1.0
  Se  Se12  1  0.66336950  0.99948401  0.14916097  1.0
  Se  Se13  1  0.66336950  0.50051599  0.14916097  1.0
  Se  Se14  1  0.16336950  0.99948401  0.35083903  1.0
  Se  Se15  1  0.16336950  0.50051599  0.35083903  1.0
  Se  Se16  1  0.33663050  0.49948401  0.85083903  1.0
  Se  Se17  1  0.33663050  0.00051599  0.85083903  1.0
  Se  Se18  1  0.83663050  0.49948401  0.64916097  1.0
  Se  Se19  1  0.83663050  0.00051599  0.64916097  1.0
  Se  Se20  1  0.96618040  0.75000000  0.10987536  1.0
  Se  Se21  1  0.46618040  0.75000000  0.39012464  1.0
  Se  Se22  1  0.03381960  0.25000000  0.89012464  1.0
  Se  Se23  1  0.53381960  0.25000000  0.60987536  1.0
  Se  Se24  1  0.21469949  0.75000000  0.59312444  1.0
  Se  Se25  1  0.71469949  0.75000000  0.90687556  1.0
  Se  Se26  1  0.78530051  0.25000000  0.40687556  1.0
  Se  Se27  1  0.28530051  0.25000000  0.09312444  1.0
