# generated using pymatgen
data_Na5LuH4(C2O7)2
_symmetry_space_group_name_H-M   'P 1'
_cell_length_a   7.70539691
_cell_length_b   7.70539691
_cell_length_c   11.58238562
_cell_angle_alpha   90.00000000
_cell_angle_beta   90.00000000
_cell_angle_gamma   90.00000000
_symmetry_Int_Tables_number   1
_chemical_formula_structural   Na5LuH4(C2O7)2
_chemical_formula_sum   'Na10 Lu2 H8 C8 O28'
_cell_volume   687.68262040
_cell_formula_units_Z   2
loop_
 _symmetry_equiv_pos_site_id
 _symmetry_equiv_pos_as_xyz
  1  'x, y, z'
loop_
 _atom_site_type_symbol
 _atom_site_label
 _atom_site_symmetry_multiplicity
 _atom_site_fract_x
 _atom_site_fract_y
 _atom_site_fract_z
 _atom_site_occupancy
  Na  Na0  1  0.00000000  0.00000000  0.50000000  1.0
  Na  Na1  1  0.50000000  0.50000000  0.00000000  1.0
  Na  Na2  1  0.17657635  0.31977791  0.70926974  1.0
  Na  Na3  1  0.32342365  0.81977791  0.79073026  1.0
  Na  Na4  1  0.82342365  0.68022209  0.70926974  1.0
  Na  Na5  1  0.67657635  0.18022209  0.79073026  1.0
  Na  Na6  1  0.31977791  0.82342365  0.29073026  1.0
  Na  Na7  1  0.81977791  0.67657635  0.20926974  1.0
  Na  Na8  1  0.68022209  0.17657635  0.29073026  1.0
  Na  Na9  1  0.18022209  0.32342365  0.20926974  1.0
  Lu  Lu10  1  0.50000000  0.50000000  0.50000000  1.0
  Lu  Lu11  1  0.00000000  0.00000000  0.00000000  1.0
  H  H12  1  0.06275766  0.58083024  0.88473876  1.0
  H  H13  1  0.43724234  0.08083024  0.61526124  1.0
  H  H14  1  0.93724234  0.41916976  0.88473876  1.0
  H  H15  1  0.56275766  0.91916976  0.61526124  1.0
  H  H16  1  0.58083024  0.93724234  0.11526124  1.0
  H  H17  1  0.08083024  0.56275766  0.38473876  1.0
  H  H18  1  0.41916976  0.06275766  0.11526124  1.0
  H  H19  1  0.91916976  0.43724234  0.38473876  1.0
  C  C20  1  0.78825622  0.32223060  0.57718771  1.0
  C  C21  1  0.71174378  0.82223060  0.92281229  1.0
  C  C22  1  0.21174378  0.67776940  0.57718771  1.0
  C  C23  1  0.28825622  0.17776940  0.92281229  1.0
  C  C24  1  0.32223060  0.21174378  0.42281229  1.0
  C  C25  1  0.82223060  0.28825622  0.07718771  1.0
  C  C26  1  0.67776940  0.78825622  0.42281229  1.0
  C  C27  1  0.17776940  0.71174378  0.07718771  1.0
  O  O28  1  0.00000000  0.50000000  0.83276151  1.0
  O  O29  1  0.50000000  0.00000000  0.66723849  1.0
  O  O30  1  0.50000000  0.00000000  0.16723849  1.0
  O  O31  1  0.00000000  0.50000000  0.33276151  1.0
  O  O32  1  0.33955080  0.24524220  0.53399627  1.0
  O  O33  1  0.16044920  0.74524220  0.96600373  1.0
  O  O34  1  0.66044920  0.75475780  0.53399627  1.0
  O  O35  1  0.83955080  0.25475780  0.96600373  1.0
  O  O36  1  0.24524220  0.66044920  0.46600373  1.0
  O  O37  1  0.74524220  0.83955080  0.03399627  1.0
  O  O38  1  0.75475780  0.33955080  0.46600373  1.0
  O  O39  1  0.25475780  0.16044920  0.03399627  1.0
  O  O40  1  0.68169664  0.40591367  0.64640616  1.0
  O  O41  1  0.81830336  0.90591367  0.85359384  1.0
  O  O42  1  0.31830336  0.59408633  0.64640616  1.0
  O  O43  1  0.18169664  0.09408633  0.85359384  1.0
  O  O44  1  0.40591367  0.31830336  0.35359384  1.0
  O  O45  1  0.90591367  0.18169664  0.14640616  1.0
  O  O46  1  0.59408633  0.68169664  0.35359384  1.0
  O  O47  1  0.09408633  0.81830336  0.14640616  1.0
  O  O48  1  0.91169492  0.23059725  0.61562866  1.0
  O  O49  1  0.58830508  0.73059725  0.88437134  1.0
  O  O50  1  0.08830508  0.76940275  0.61562866  1.0
  O  O51  1  0.41169492  0.26940275  0.88437134  1.0
  O  O52  1  0.23059725  0.08830508  0.38437134  1.0
  O  O53  1  0.73059725  0.41169492  0.11562866  1.0
  O  O54  1  0.76940275  0.91169492  0.38437134  1.0
  O  O55  1  0.26940275  0.58830508  0.11562866  1.0
