# generated using pymatgen
data_NaAlSi3O8
_symmetry_space_group_name_H-M   'P 1'
_cell_length_a   7.54188157
_cell_length_b   7.25551347
_cell_length_c   8.28381380
_cell_angle_alpha   116.36741267
_cell_angle_beta   120.85906452
_cell_angle_gamma   79.45313929
_symmetry_Int_Tables_number   1
_chemical_formula_structural   NaAlSi3O8
_chemical_formula_sum   'Na2 Al2 Si6 O16'
_cell_volume   348.04696086
_cell_formula_units_Z   2
loop_
 _symmetry_equiv_pos_site_id
 _symmetry_equiv_pos_as_xyz
  1  'x, y, z'
loop_
 _atom_site_type_symbol
 _atom_site_label
 _atom_site_symmetry_multiplicity
 _atom_site_fract_x
 _atom_site_fract_y
 _atom_site_fract_z
 _atom_site_occupancy
  Na  Na0  1  -0.03015259  0.14820000  0.75314212  1.0
  Na  Na1  1  0.03015259  0.85180000  0.24685788  1.0
  Al  Al2  1  -0.33977082  0.79005490  0.31888006  1.0
  Al  Al3  1  0.33977082  0.20994510  0.68111994  1.0
  Si  Si4  1  0.35816159  0.76207336  0.67239173  1.0
  Si  Si5  1  -0.35816159  0.23792664  0.32760827  1.0
  Si  Si6  1  -0.22219976  0.68268112  0.69484217  1.0
  Si  Si7  1  0.22219976  0.31731888  0.30515783  1.0
  Si  Si8  1  0.23446558  0.63845204  0.93203128  1.0
  Si  Si9  1  -0.23446558  0.36154796  0.06796872  1.0
  O  O10  1  0.26220769  0.96706881  0.63452433  1.0
  O  O11  1  -0.26220769  0.03293119  0.36547567  1.0
  O  O12  1  -0.22504966  0.80542094  0.57204535  1.0
  O  O13  1  0.22504966  0.19457906  0.42795465  1.0
  O  O14  1  0.61130320  0.76778583  0.77934776  1.0
  O  O15  1  -0.61130320  0.23221417  0.22065224  1.0
  O  O16  1  0.29487752  0.73852417  0.82239223  1.0
  O  O17  1  -0.29487752  0.26147583  0.17760777  1.0
  O  O18  1  -0.60767792  0.73066790  0.17839648  1.0
  O  O19  1  0.60767792  0.26933210  0.82160352  1.0
  O  O20  1  0.00346813  0.71953360  0.90667004  1.0
  O  O21  1  -0.00346813  0.28046640  0.09332996  1.0
  O  O22  1  -0.26180959  0.43320263  0.55533910  1.0
  O  O23  1  0.26180959  0.56679737  0.44466090  1.0
  O  O24  1  0.21679503  0.38856866  0.81624534  1.0
  O  O25  1  -0.21679503  0.61143134  0.18375466  1.0
