# generated using pymatgen
data_GaH3NF3
_symmetry_space_group_name_H-M   'P 1'
_cell_length_a   5.68359527
_cell_length_b   5.68359527
_cell_length_c   5.56014961
_cell_angle_alpha   90.00000000
_cell_angle_beta   90.00000000
_cell_angle_gamma   121.64291332
_symmetry_Int_Tables_number   1
_chemical_formula_structural   GaH3NF3
_chemical_formula_sum   'Ga2 H6 N2 F6'
_cell_volume   152.90893623
_cell_formula_units_Z   2
loop_
 _symmetry_equiv_pos_site_id
 _symmetry_equiv_pos_as_xyz
  1  'x, y, z'
loop_
 _atom_site_type_symbol
 _atom_site_label
 _atom_site_symmetry_multiplicity
 _atom_site_fract_x
 _atom_site_fract_y
 _atom_site_fract_z
 _atom_site_occupancy
  Ga  Ga0  1  0.74547471  0.75452529  0.74923227  1.0
  Ga  Ga1  1  0.24547471  0.25452529  0.25076773  1.0
  H  H2  1  0.65325148  1.14704350  0.71420316  1.0
  H  H3  1  0.35295650  0.84674852  0.71420316  1.0
  H  H4  1  0.15325148  0.64704350  0.28579684  1.0
  H  H5  1  -0.14704350  0.34674852  0.28579684  1.0
  H  H6  1  0.51755017  0.98244983  0.96990025  1.0
  H  H7  1  0.01755017  0.48244983  0.03009975  1.0
  N  N8  1  0.54576886  0.95423114  0.79139095  1.0
  N  N9  1  0.04576886  0.45423114  0.20860905  1.0
  F  F10  1  0.43304350  1.06695650  0.28094321  1.0
  F  F11  1  -0.06695650  0.56695650  0.71905679  1.0
  F  F12  1  -0.01941834  0.01941834  0.50000000  1.0
  F  F13  1  0.48058166  0.51941834  0.50000000  1.0
  F  F14  1  0.01217313  -0.01217313  0.00000000  1.0
  F  F15  1  0.51217313  0.48782687  0.00000000  1.0
