# generated using pymatgen
data_Ce(IO3)4
_symmetry_space_group_name_H-M   'P 1'
_cell_length_a   10.28722537
_cell_length_b   10.28722537
_cell_length_c   5.43863999
_cell_angle_alpha   90.00000000
_cell_angle_beta   90.00000000
_cell_angle_gamma   90.00000000
_symmetry_Int_Tables_number   1
_chemical_formula_structural   Ce(IO3)4
_chemical_formula_sum   'Ce2 I8 O24'
_cell_volume   575.55498590
_cell_formula_units_Z   2
loop_
 _symmetry_equiv_pos_site_id
 _symmetry_equiv_pos_as_xyz
  1  'x, y, z'
loop_
 _atom_site_type_symbol
 _atom_site_label
 _atom_site_symmetry_multiplicity
 _atom_site_fract_x
 _atom_site_fract_y
 _atom_site_fract_z
 _atom_site_occupancy
  Ce  Ce0  1  0.50000000  0.50000000  0.50000000  1.0
  Ce  Ce1  1  0.00000000  0.00000000  0.00000000  1.0
  I  I2  1  0.50568128  0.23072541  0.96309172  1.0
  I  I3  1  0.49431872  0.76927459  0.96309172  1.0
  I  I4  1  0.00568128  0.73072541  0.53690828  1.0
  I  I5  1  0.99431872  0.26927459  0.53690828  1.0
  I  I6  1  0.23072541  0.49431872  0.03690828  1.0
  I  I7  1  0.76927459  0.50568128  0.03690828  1.0
  I  I8  1  0.73072541  0.99431872  0.46309172  1.0
  I  I9  1  0.26927459  0.00568128  0.46309172  1.0
  O  O10  1  0.62193639  0.09549469  1.01476938  1.0
  O  O11  1  0.37806361  0.90450531  1.01476938  1.0
  O  O12  1  0.12193639  0.59549469  0.48523062  1.0
  O  O13  1  0.87806361  0.40450531  0.48523062  1.0
  O  O14  1  0.09549469  0.37806361  -0.01476938  1.0
  O  O15  1  0.90450531  0.62193639  -0.01476938  1.0
  O  O16  1  0.59549469  0.87806361  0.51476938  1.0
  O  O17  1  0.40450531  0.12193639  0.51476938  1.0
  O  O18  1  0.58350140  0.30686619  0.68195567  1.0
  O  O19  1  0.41649860  0.69313381  0.68195567  1.0
  O  O20  1  0.08350140  0.80686619  0.81804433  1.0
  O  O21  1  0.91649860  0.19313381  0.81804433  1.0
  O  O22  1  0.30686619  0.41649860  0.31804433  1.0
  O  O23  1  0.69313381  0.58350140  0.31804433  1.0
  O  O24  1  0.80686619  0.91649860  0.18195567  1.0
  O  O25  1  0.19313381  0.08350140  0.18195567  1.0
  O  O26  1  0.57637877  0.35725773  0.18638541  1.0
  O  O27  1  0.42362123  0.64274227  0.18638541  1.0
  O  O28  1  0.07637877  0.85725773  0.31361459  1.0
  O  O29  1  0.92362123  0.14274227  0.31361459  1.0
  O  O30  1  0.35725773  0.42362123  0.81361459  1.0
  O  O31  1  0.64274227  0.57637877  0.81361459  1.0
  O  O32  1  0.85725773  0.92362123  0.68638541  1.0
  O  O33  1  0.14274227  0.07637877  0.68638541  1.0
