# generated using pymatgen
data_Y5Mg13Cu5
_symmetry_space_group_name_H-M   'P 1'
_cell_length_a   9.76717295
_cell_length_b   9.76717295
_cell_length_c   25.67925230
_cell_angle_alpha   90.00000000
_cell_angle_beta   90.00000000
_cell_angle_gamma   155.64356186
_symmetry_Int_Tables_number   1
_chemical_formula_structural   Y5Mg13Cu5
_chemical_formula_sum   'Y10 Mg26 Cu10'
_cell_volume   1010.30229436
_cell_formula_units_Z   2
loop_
 _symmetry_equiv_pos_site_id
 _symmetry_equiv_pos_as_xyz
  1  'x, y, z'
loop_
 _atom_site_type_symbol
 _atom_site_label
 _atom_site_symmetry_multiplicity
 _atom_site_fract_x
 _atom_site_fract_y
 _atom_site_fract_z
 _atom_site_occupancy
  Y  Y0  1  0.48412564  0.51587436  0.89410836  1.0
  Y  Y1  1  0.48412564  0.51587436  0.60589164  1.0
  Y  Y2  1  -0.48412564  0.48412564  0.39410836  1.0
  Y  Y3  1  -0.48412564  0.48412564  0.10589164  1.0
  Y  Y4  1  -0.32538058  0.32538058  0.85655025  1.0
  Y  Y5  1  -0.32538058  0.32538058  0.64344975  1.0
  Y  Y6  1  0.32538058  0.67461942  0.35655025  1.0
  Y  Y7  1  0.32538058  0.67461942  0.14344975  1.0
  Y  Y8  1  0.44451683  0.55548317  0.75000000  1.0
  Y  Y9  1  -0.44451683  0.44451683  0.25000000  1.0
  Mg  Mg10  1  -0.38317706  0.38317706  0.98309960  1.0
  Mg  Mg11  1  -0.38317706  0.38317706  0.51690040  1.0
  Mg  Mg12  1  0.38317706  0.61682294  0.48309960  1.0
  Mg  Mg13  1  0.38317706  0.61682294  0.01690040  1.0
  Mg  Mg14  1  0.14960135  0.85039865  0.42903644  1.0
  Mg  Mg15  1  0.14960135  0.85039865  0.07096356  1.0
  Mg  Mg16  1  -0.14960135  0.14960135  0.92903644  1.0
  Mg  Mg17  1  -0.14960135  0.14960135  0.57096356  1.0
  Mg  Mg18  1  0.31440652  0.68559348  0.84242482  1.0
  Mg  Mg19  1  0.31440652  0.68559348  0.65757518  1.0
  Mg  Mg20  1  -0.31440652  0.31440652  0.34242482  1.0
  Mg  Mg21  1  -0.31440652  0.31440652  0.15757518  1.0
  Mg  Mg22  1  0.23282158  0.76717842  0.95416639  1.0
  Mg  Mg23  1  0.23282158  0.76717842  0.54583361  1.0
  Mg  Mg24  1  -0.23282158  0.23282158  0.45416639  1.0
  Mg  Mg25  1  -0.23282158  0.23282158  0.04583361  1.0
  Mg  Mg26  1  0.00000000  0.00000000  0.00000000  1.0
  Mg  Mg27  1  0.00000000  0.00000000  0.50000000  1.0
  Mg  Mg28  1  -0.19404506  0.19404506  0.75000000  1.0
  Mg  Mg29  1  0.19404506  0.80595494  0.25000000  1.0
  Mg  Mg30  1  0.19319286  0.80680714  0.75000000  1.0
  Mg  Mg31  1  -0.19319286  0.19319286  0.25000000  1.0
  Mg  Mg32  1  0.05344158  0.94655842  0.81107739  1.0
  Mg  Mg33  1  0.05344158  0.94655842  0.68892261  1.0
  Mg  Mg34  1  -0.05344158  0.05344158  0.31107739  1.0
  Mg  Mg35  1  -0.05344158  0.05344158  0.18892261  1.0
  Cu  Cu36  1  0.09559341  0.90440659  0.91443251  1.0
  Cu  Cu37  1  0.09559341  0.90440659  0.58556749  1.0
  Cu  Cu38  1  -0.09559341  0.09559341  0.41443251  1.0
  Cu  Cu39  1  -0.09559341  0.09559341  0.08556749  1.0
  Cu  Cu40  1  -0.39952468  0.39952468  0.75000000  1.0
  Cu  Cu41  1  0.39952468  0.60047532  0.25000000  1.0
  Cu  Cu42  1  0.09328011  0.90671989  0.32934317  1.0
  Cu  Cu43  1  0.09328011  0.90671989  0.17065683  1.0
  Cu  Cu44  1  -0.09328011  0.09328011  0.82934317  1.0
  Cu  Cu45  1  -0.09328011  0.09328011  0.67065683  1.0
