# generated using pymatgen
data_CoH2SeO4
_symmetry_space_group_name_H-M   'P 1'
_cell_length_a   4.78993848
_cell_length_b   13.86023954
_cell_length_c   7.24710930
_cell_angle_alpha   90.00000000
_cell_angle_beta   128.32225678
_cell_angle_gamma   90.00000000
_symmetry_Int_Tables_number   1
_chemical_formula_structural   CoH2SeO4
_chemical_formula_sum   'Co4 H8 Se4 O16'
_cell_volume   377.46623895
_cell_formula_units_Z   4
loop_
 _symmetry_equiv_pos_site_id
 _symmetry_equiv_pos_as_xyz
  1  'x, y, z'
loop_
 _atom_site_type_symbol
 _atom_site_label
 _atom_site_symmetry_multiplicity
 _atom_site_fract_x
 _atom_site_fract_y
 _atom_site_fract_z
 _atom_site_occupancy
  O  O0  1  0.99321191  0.11410005  0.37022368  1.0
  O  O1  1  0.99321191  0.38589995  0.87022368  1.0
  O  O2  1  0.00678809  0.61410005  0.12977632  1.0
  O  O3  1  0.00678809  0.88589995  0.62977632  1.0
  O  O4  1  0.46574661  0.36835236  0.35868047  1.0
  O  O5  1  0.46574661  0.13164764  0.85868047  1.0
  O  O6  1  0.53425339  0.86835236  0.14131953  1.0
  O  O7  1  0.53425339  0.63164764  0.64131953  1.0
  O  O8  1  0.77491856  0.67836872  0.39251706  1.0
  O  O9  1  0.77491856  0.82163128  0.89251706  1.0
  O  O10  1  0.22508144  0.17836872  0.10748294  1.0
  O  O11  1  0.22508144  0.32163128  0.60748294  1.0
  O  O12  1  0.79207575  0.31189523  0.16000937  1.0
  O  O13  1  0.79207575  0.18810477  0.66000937  1.0
  O  O14  1  0.20792425  0.81189523  0.33999063  1.0
  O  O15  1  0.20792425  0.68810477  0.83999063  1.0
  Se  Se16  1  0.86691426  0.89231683  0.12640015  1.0
  Se  Se17  1  0.86691426  0.60768317  0.62640015  1.0
  Se  Se18  1  0.13308574  0.39231683  0.37359985  1.0
  Se  Se19  1  0.13308574  0.10768317  0.87359985  1.0
  H  H20  1  0.05939445  0.13159815  0.26976514  1.0
  H  H21  1  0.05939445  0.36840185  0.76976514  1.0
  H  H22  1  0.94060555  0.63159815  0.23023486  1.0
  H  H23  1  0.94060555  0.86840185  0.73023486  1.0
  H  H24  1  0.78238937  0.88622155  0.46725393  1.0
  H  H25  1  0.78238937  0.61377845  0.96725393  1.0
  H  H26  1  0.21761063  0.38622155  0.03274607  1.0
  H  H27  1  0.21761063  0.11377845  0.53274607  1.0
  Co  Co28  1  0.70048293  0.23624556  0.36791053  1.0
  Co  Co29  1  0.70048293  0.26375444  0.86791053  1.0
  Co  Co30  1  0.29951707  0.73624556  0.13208947  1.0
  Co  Co31  1  0.29951707  0.76375444  0.63208947  1.0
