# generated using pymatgen
data_Zr5NiSb9
_symmetry_space_group_name_H-M   'P 1'
_cell_length_a   8.89758143
_cell_length_b   8.89758143
_cell_length_c   8.80278610
_cell_angle_alpha   90.00000000
_cell_angle_beta   90.00000000
_cell_angle_gamma   90.00000000
_symmetry_Int_Tables_number   1
_chemical_formula_structural   Zr5NiSb9
_chemical_formula_sum   'Zr10 Ni2 Sb18'
_cell_volume   696.88977380
_cell_formula_units_Z   2
loop_
 _symmetry_equiv_pos_site_id
 _symmetry_equiv_pos_as_xyz
  1  'x, y, z'
loop_
 _atom_site_type_symbol
 _atom_site_label
 _atom_site_symmetry_multiplicity
 _atom_site_fract_x
 _atom_site_fract_y
 _atom_site_fract_z
 _atom_site_occupancy
  Zr  Zr0  1  0.00000000  0.50000000  0.25560311  1.0
  Zr  Zr1  1  0.50000000  0.00000000  0.74439689  1.0
  Zr  Zr2  1  0.60305051  0.29685458  0.26534384  1.0
  Zr  Zr3  1  0.39694949  0.70314542  0.26534384  1.0
  Zr  Zr4  1  0.10305051  0.79685458  0.73465616  1.0
  Zr  Zr5  1  0.89694949  0.20314542  0.73465616  1.0
  Zr  Zr6  1  0.29685458  0.39694949  0.73465616  1.0
  Zr  Zr7  1  0.70314542  0.60305051  0.73465616  1.0
  Zr  Zr8  1  0.79685458  0.89694949  0.26534384  1.0
  Zr  Zr9  1  0.20314542  0.10305051  0.26534384  1.0
  Ni  Ni10  1  0.50000000  0.50000000  0.00000000  1.0
  Ni  Ni11  1  0.00000000  0.00000000  0.00000000  1.0
  Sb  Sb12  1  0.58496141  0.77386107  0.99932455  1.0
  Sb  Sb13  1  0.41503859  0.22613893  0.99932455  1.0
  Sb  Sb14  1  0.08496141  0.27386107  0.00067545  1.0
  Sb  Sb15  1  0.91503859  0.72613893  0.00067545  1.0
  Sb  Sb16  1  0.77386107  0.41503859  0.00067545  1.0
  Sb  Sb17  1  0.22613893  0.58496141  0.00067545  1.0
  Sb  Sb18  1  0.27386107  0.91503859  0.99932455  1.0
  Sb  Sb19  1  0.72613893  0.08496141  0.99932455  1.0
  Sb  Sb20  1  0.50000000  0.00000000  0.39106783  1.0
  Sb  Sb21  1  0.00000000  0.50000000  0.60893217  1.0
  Sb  Sb22  1  0.90162207  0.19859309  0.38312014  1.0
  Sb  Sb23  1  0.09837793  0.80140691  0.38312014  1.0
  Sb  Sb24  1  0.40162207  0.69859309  0.61687986  1.0
  Sb  Sb25  1  0.59837793  0.30140691  0.61687986  1.0
  Sb  Sb26  1  0.19859309  0.09837793  0.61687986  1.0
  Sb  Sb27  1  0.80140691  0.90162207  0.61687986  1.0
  Sb  Sb28  1  0.69859309  0.59837793  0.38312014  1.0
  Sb  Sb29  1  0.30140691  0.40162207  0.38312014  1.0
