# generated using pymatgen
data_H6C2(NO)3
_symmetry_space_group_name_H-M   'P 1'
_cell_length_a   4.96698277
_cell_length_b   16.55164832
_cell_length_c   7.40637352
_cell_angle_alpha   90.00000000
_cell_angle_beta   115.78793504
_cell_angle_gamma   90.00000000
_symmetry_Int_Tables_number   1
_chemical_formula_structural   H6C2(NO)3
_chemical_formula_sum   'H24 C8 N12 O12'
_cell_volume   548.25173810
_cell_formula_units_Z   4
loop_
 _symmetry_equiv_pos_site_id
 _symmetry_equiv_pos_as_xyz
  1  'x, y, z'
loop_
 _atom_site_type_symbol
 _atom_site_label
 _atom_site_symmetry_multiplicity
 _atom_site_fract_x
 _atom_site_fract_y
 _atom_site_fract_z
 _atom_site_occupancy
  N  N0  1  0.15996032  0.67411854  0.93857805  1.0
  N  N1  1  0.84003968  0.17411854  0.56142195  1.0
  N  N2  1  0.84003968  0.32588146  0.06142195  1.0
  N  N3  1  0.15996032  0.82588146  0.43857805  1.0
  N  N4  1  0.36775120  0.80034034  1.04548609  1.0
  N  N5  1  0.63224880  0.30034034  0.45451391  1.0
  N  N6  1  0.63224880  0.19965966  -0.04548609  1.0
  N  N7  1  0.36775120  0.69965966  0.54548609  1.0
  N  N8  1  0.17576599  0.92727301  0.91054593  1.0
  N  N9  1  0.82423401  0.42727301  0.58945407  1.0
  N  N10  1  0.82423401  0.07272699  0.08945407  1.0
  N  N11  1  0.17576599  0.57272699  0.41054593  1.0
  O  O12  1  0.87915289  0.78655730  0.80373908  1.0
  O  O13  1  0.12084711  0.28655730  0.69626092  1.0
  O  O14  1  0.12084711  0.21344270  0.19626092  1.0
  O  O15  1  0.87915289  0.71344270  0.30373908  1.0
  O  O16  1  0.63443475  0.91518608  0.17603888  1.0
  O  O17  1  0.36556525  0.41518608  0.32396112  1.0
  O  O18  1  0.36556525  0.08481392  0.82396112  1.0
  O  O19  1  0.63443475  0.58481392  0.67603888  1.0
  O  O20  1  0.60812319  0.53338391  1.02398416  1.0
  O  O21  1  0.39187681  0.03338391  0.47601584  1.0
  O  O22  1  0.39187681  0.46661609  -0.02398416  1.0
  O  O23  1  0.60812319  0.96661609  0.52398416  1.0
  H  H24  1  0.36070094  0.64690282  1.01933245  1.0
  H  H25  1  0.63929906  0.14690282  0.48066755  1.0
  H  H26  1  0.63929906  0.35309718  -0.01933245  1.0
  H  H27  1  0.36070094  0.85309718  0.51933245  1.0
  H  H28  1  -0.01705758  0.63906737  0.84617054  1.0
  H  H29  1  1.01705758  0.13906737  0.65382946  1.0
  H  H30  1  1.01705758  0.36093263  0.15382946  1.0
  H  H31  1  -0.01705758  0.86093263  0.34617054  1.0
  H  H32  1  0.55832055  0.77040580  0.14585333  1.0
  H  H33  1  0.44167945  0.27040580  0.35414667  1.0
  H  H34  1  0.44167945  0.22959420  0.85414667  1.0
  H  H35  1  0.55832055  0.72959420  0.64585333  1.0
  H  H36  1  0.98955496  0.89843462  0.80976343  1.0
  H  H37  1  0.01044504  0.39843462  0.69023657  1.0
  H  H38  1  0.01044504  0.10156538  0.19023657  1.0
  H  H39  1  0.98955496  0.60156538  0.30976343  1.0
  H  H40  1  0.21558431  0.98684765  0.89373178  1.0
  H  H41  1  0.78441569  0.48684765  0.60626822  1.0
  H  H42  1  0.78441569  0.01315235  0.10626822  1.0
  H  H43  1  0.21558431  0.51315235  0.39373178  1.0
  H  H44  1  0.60362090  0.54308482  0.89001328  1.0
  H  H45  1  0.39637910  0.04308482  0.60998672  1.0
  H  H46  1  0.39637910  0.45691518  0.10998672  1.0
  H  H47  1  0.60362090  0.95691518  0.39001328  1.0
  C  C48  1  0.12125850  0.75456665  0.92128106  1.0
  C  C49  1  0.87874150  0.25456665  0.57871894  1.0
  C  C50  1  0.87874150  0.24543335  0.07871894  1.0
  C  C51  1  0.12125850  0.74543335  0.42128106  1.0
  C  C52  1  0.39628797  0.88347689  1.04557923  1.0
  C  C53  1  0.60371203  0.38347689  0.45442077  1.0
  C  C54  1  0.60371203  0.11652311  -0.04557923  1.0
  C  C55  1  0.39628797  0.61652311  0.54557923  1.0
