# generated using pymatgen
data_Rb3B12H12Cl
_symmetry_space_group_name_H-M   'P 1'
_cell_length_a   7.04790894
_cell_length_b   7.04790894
_cell_length_c   7.04790894
_cell_angle_alpha   92.81646999
_cell_angle_beta   92.81646999
_cell_angle_gamma   92.81646999
_symmetry_Int_Tables_number   1
_chemical_formula_structural   Rb3B12H12Cl
_chemical_formula_sum   'Rb3 B12 H12 Cl1'
_cell_volume   348.77902638
_cell_formula_units_Z   1
loop_
 _symmetry_equiv_pos_site_id
 _symmetry_equiv_pos_as_xyz
  1  'x, y, z'
loop_
 _atom_site_type_symbol
 _atom_site_label
 _atom_site_symmetry_multiplicity
 _atom_site_fract_x
 _atom_site_fract_y
 _atom_site_fract_z
 _atom_site_occupancy
  Rb  Rb0  1  1.00000000  -0.50000000  0.00000000  1.0
  Rb  Rb1  1  1.00000000  0.00000000  -0.50000000  1.0
  Rb  Rb2  1  0.50000000  -0.00000000  0.00000000  1.0
  B  B3  1  1.55794675  0.55794675  -0.26842114  1.0
  B  B4  1  1.55794675  -0.26842114  0.55794675  1.0
  B  B5  1  1.26842114  0.44205325  -0.55794675  1.0
  B  B6  1  0.44205325  1.26842114  -0.55794675  1.0
  B  B7  1  0.44205325  0.44205325  0.26842114  1.0
  B  B8  1  0.73157886  0.55794675  0.55794675  1.0
  B  B9  1  1.37865588  0.37865588  -0.33978476  1.0
  B  B10  1  1.37865588  -0.33978476  0.37865588  1.0
  B  B11  1  1.33978476  0.62134412  -0.37865588  1.0
  B  B12  1  0.62134412  1.33978476  -0.37865588  1.0
  B  B13  1  0.62134412  0.62134412  0.33978476  1.0
  B  B14  1  0.66021524  0.37865588  0.37865588  1.0
  H  H15  1  1.29115492  0.29115492  -0.22699187  1.0
  H  H16  1  1.29115492  -0.22699187  0.29115492  1.0
  H  H17  1  1.22699187  0.70884508  -0.29115492  1.0
  H  H18  1  0.70884508  1.22699187  -0.29115492  1.0
  H  H19  1  0.70884508  0.70884508  0.22699187  1.0
  H  H20  1  0.77300813  0.29115492  0.29115492  1.0
  H  H21  1  0.40107353  0.40107353  0.10377787  1.0
  H  H22  1  0.40107353  1.10377787  -0.59892647  1.0
  H  H23  1  0.89622213  0.59892647  0.59892647  1.0
  H  H24  1  1.59892647  -0.10377787  0.59892647  1.0
  H  H25  1  1.59892647  0.59892647  -0.10377787  1.0
  H  H26  1  1.10377787  0.40107353  -0.59892647  1.0
  Cl  Cl27  1  0.00000000  0.00000000  0.00000000  1.0
