# generated using pymatgen
data_Ta4Co2PdSe12
_symmetry_space_group_name_H-M   'P 1'
_cell_length_a   7.23776061
_cell_length_b   7.23776061
_cell_length_c   19.45785499
_cell_angle_alpha   70.25409884
_cell_angle_beta   109.74590116
_cell_angle_gamma   152.61111339
_symmetry_Int_Tables_number   1
_chemical_formula_structural   Ta4Co2PdSe12
_chemical_formula_sum   'Ta4 Co2 Pd1 Se12'
_cell_volume   439.64444002
_cell_formula_units_Z   1
loop_
 _symmetry_equiv_pos_site_id
 _symmetry_equiv_pos_as_xyz
  1  'x, y, z'
loop_
 _atom_site_type_symbol
 _atom_site_label
 _atom_site_symmetry_multiplicity
 _atom_site_fract_x
 _atom_site_fract_y
 _atom_site_fract_z
 _atom_site_occupancy
  Ta  Ta0  1  0.87755386  0.12244614  0.84894762  1.0
  Ta  Ta1  1  1.12244614  -0.12244614  0.15105238  1.0
  Ta  Ta2  1  0.75545762  0.24454238  0.59328304  1.0
  Ta  Ta3  1  1.24454238  -0.24454238  0.40671696  1.0
  Co  Co4  1  0.72708907  -0.72708907  0.28444474  1.0
  Co  Co5  1  0.27291093  -0.27291093  0.71555526  1.0
  Pd  Pd6  1  0.50000000  0.50000000  0.00000000  1.0
  Se  Se7  1  0.52681718  0.47318282  0.88118033  1.0
  Se  Se8  1  1.47318282  -0.47318282  0.11881967  1.0
  Se  Se9  1  0.89571549  -0.89571549  0.71860524  1.0
  Se  Se10  1  0.10428451  -0.10428451  0.28139476  1.0
  Se  Se11  1  0.87207540  -0.87207540  0.39413508  1.0
  Se  Se12  1  0.12792460  -0.12792460  0.60586492  1.0
  Se  Se13  1  0.69551594  0.30448406  0.76347989  1.0
  Se  Se14  1  1.30448406  -0.30448406  0.23652011  1.0
  Se  Se15  1  0.63583551  0.36416449  0.45005331  1.0
  Se  Se16  1  1.36416449  -0.36416449  0.54994669  1.0
  Se  Se17  1  0.31663387  -0.31663387  0.92588273  1.0
  Se  Se18  1  0.68336613  -0.68336613  0.07411727  1.0
