# generated using pymatgen
data_Gd3Pd5
_symmetry_space_group_name_H-M   'P 1'
_cell_length_a   5.87428283
_cell_length_b   5.87428283
_cell_length_c   9.77091595
_cell_angle_alpha   90.00000000
_cell_angle_beta   90.00000000
_cell_angle_gamma   75.76363495
_symmetry_Int_Tables_number   1
_chemical_formula_structural   Gd3Pd5
_chemical_formula_sum   'Gd6 Pd10'
_cell_volume   326.81236037
_cell_formula_units_Z   2
loop_
 _symmetry_equiv_pos_site_id
 _symmetry_equiv_pos_as_xyz
  1  'x, y, z'
loop_
 _atom_site_type_symbol
 _atom_site_label
 _atom_site_symmetry_multiplicity
 _atom_site_fract_x
 _atom_site_fract_y
 _atom_site_fract_z
 _atom_site_occupancy
  Gd  Gd0  1  0.37749103  0.62250897  0.75000000  1.0
  Gd  Gd1  1  -0.37749103  1.37749103  0.25000000  1.0
  Gd  Gd2  1  0.79773853  0.79773853  0.00000000  1.0
  Gd  Gd3  1  0.79773853  0.79773853  0.50000000  1.0
  Gd  Gd4  1  0.20226147  0.20226147  -0.00000000  1.0
  Gd  Gd5  1  0.20226147  0.20226147  0.50000000  1.0
  Pd  Pd6  1  -0.02299600  1.02299600  0.75000000  1.0
  Pd  Pd7  1  0.02299600  0.97700400  0.25000000  1.0
  Pd  Pd8  1  -0.31420473  1.31420473  0.95143899  1.0
  Pd  Pd9  1  0.31420473  0.68579527  0.04856101  1.0
  Pd  Pd10  1  -0.31420473  1.31420473  0.54856101  1.0
  Pd  Pd11  1  0.31420473  0.68579527  0.45143899  1.0
  Pd  Pd12  1  -0.50627221  1.06124519  0.75000000  1.0
  Pd  Pd13  1  0.06124519  0.49372779  0.25000000  1.0
  Pd  Pd14  1  0.50627221  0.93875481  0.25000000  1.0
  Pd  Pd15  1  -0.06124519  1.50627221  0.75000000  1.0
