# generated using pymatgen
data_SrMg3SiN4
_symmetry_space_group_name_H-M   'P 1'
_cell_length_a   10.29053959
_cell_length_b   7.77795911
_cell_length_c   6.02729802
_cell_angle_alpha   79.44891457
_cell_angle_beta   76.61770813
_cell_angle_gamma   83.30445786
_symmetry_Int_Tables_number   1
_chemical_formula_structural   SrMg3SiN4
_chemical_formula_sum   'Sr4 Mg12 Si4 N16'
_cell_volume   459.99590968
_cell_formula_units_Z   4
loop_
 _symmetry_equiv_pos_site_id
 _symmetry_equiv_pos_as_xyz
  1  'x, y, z'
loop_
 _atom_site_type_symbol
 _atom_site_label
 _atom_site_symmetry_multiplicity
 _atom_site_fract_x
 _atom_site_fract_y
 _atom_site_fract_z
 _atom_site_occupancy
  Sr  Sr0  1  -0.62529994  -0.12247664  -0.00182430  1.0
  Sr  Sr1  1  -0.37470006  -0.87752336  -0.99817570  1.0
  Sr  Sr2  1  -0.86469389  -0.37596722  -0.03166018  1.0
  Sr  Sr3  1  -0.13530611  -0.62403278  -0.96833982  1.0
  Mg  Mg4  1  -0.39707199  -0.44233942  -0.17803422  1.0
  Mg  Mg5  1  -0.60292801  -0.55766058  -0.82196578  1.0
  Mg  Mg6  1  -0.14445177  -0.17336536  -0.19716040  1.0
  Mg  Mg7  1  -0.85554823  -0.82663464  -0.80283960  1.0
  Mg  Mg8  1  -0.89731932  -0.94493339  -0.20039381  1.0
  Mg  Mg9  1  -0.10268068  -0.05506661  -0.79960619  1.0
  Mg  Mg10  1  -0.37455061  -0.04988311  -0.44405417  1.0
  Mg  Mg11  1  -0.62544939  -0.95011689  -0.55594583  1.0
  Mg  Mg12  1  -0.87350411  -0.56572332  -0.46061823  1.0
  Mg  Mg13  1  -0.12649589  -0.43427668  -0.53938177  1.0
  Mg  Mg14  1  -0.61089182  -0.32706893  -0.48746973  1.0
  Mg  Mg15  1  -0.38910818  -0.67293107  -0.51253027  1.0
  Si  Si16  1  -0.64831663  -0.71119234  -0.16077326  1.0
  Si  Si17  1  -0.35168337  -0.28880766  -0.83922674  1.0
  Si  Si18  1  -0.13739714  -0.78584193  -0.42750148  1.0
  Si  Si19  1  -0.86260286  -0.21415807  -0.57249852  1.0
  N  N20  1  -0.35482844  -0.19624738  -0.13614999  1.0
  N  N21  1  -0.64517156  -0.80375262  -0.86385001  1.0
  N  N22  1  -0.81958079  -0.71083533  -0.17002307  1.0
  N  N23  1  -0.18041921  -0.28916467  -0.82997693  1.0
  N  N24  1  -0.10347522  -0.92140071  -0.17223205  1.0
  N  N25  1  -0.89652478  -0.07859929  -0.82776795  1.0
  N  N26  1  -0.59062755  -0.49850941  -0.19219752  1.0
  N  N27  1  -0.40937245  -0.50149059  -0.80780248  1.0
  N  N28  1  -0.25573664  -0.61424881  -0.32402300  1.0
  N  N29  1  -0.74426336  -0.38575119  -0.67597700  1.0
  N  N30  1  -0.53584754  -0.84742619  -0.33713757  1.0
  N  N31  1  -0.46415246  -0.15257381  -0.66286243  1.0
  N  N32  1  -0.99917674  -0.32575123  -0.38839253  1.0
  N  N33  1  -0.00082326  -0.67424877  -0.61160747  1.0
  N  N34  1  -0.77699368  -0.11767907  -0.40410948  1.0
  N  N35  1  -0.22300632  -0.88232093  -0.59589052  1.0
