# generated using pymatgen
data_VNiP
_symmetry_space_group_name_H-M   'P 1'
_cell_length_a   5.88373263
_cell_length_b   3.48318100
_cell_length_c   6.85414138
_cell_angle_alpha   90.00000000
_cell_angle_beta   90.00000000
_cell_angle_gamma   90.00000000
_symmetry_Int_Tables_number   1
_chemical_formula_structural   VNiP
_chemical_formula_sum   'V4 Ni4 P4'
_cell_volume   140.46949786
_cell_formula_units_Z   4
loop_
 _symmetry_equiv_pos_site_id
 _symmetry_equiv_pos_as_xyz
  1  'x, y, z'
loop_
 _atom_site_type_symbol
 _atom_site_label
 _atom_site_symmetry_multiplicity
 _atom_site_fract_x
 _atom_site_fract_y
 _atom_site_fract_z
 _atom_site_occupancy
  V  V0  1  0.97299143  0.75000000  0.66220075  1.0
  V  V1  1  0.47299143  0.75000000  0.83779925  1.0
  V  V2  1  0.02700857  0.25000000  0.33779925  1.0
  V  V3  1  0.52700857  0.25000000  0.16220075  1.0
  Ni  Ni4  1  0.85476130  0.75000000  0.06493597  1.0
  Ni  Ni5  1  0.35476130  0.75000000  0.43506403  1.0
  Ni  Ni6  1  0.14523870  0.25000000  0.93506403  1.0
  Ni  Ni7  1  0.64523870  0.25000000  0.56493597  1.0
  P  P8  1  0.73219012  0.75000000  0.37188121  1.0
  P  P9  1  0.23219012  0.75000000  0.12811879  1.0
  P  P10  1  0.26780988  0.25000000  0.62811879  1.0
  P  P11  1  0.76780988  0.25000000  0.87188121  1.0
