# generated using pymatgen
data_ZnH6C2(NO)4
_symmetry_space_group_name_H-M   'P 1'
_cell_length_a   7.60399372
_cell_length_b   5.32645621
_cell_length_c   9.51976698
_cell_angle_alpha   90.00000000
_cell_angle_beta   117.90512076
_cell_angle_gamma   90.00000000
_symmetry_Int_Tables_number   1
_chemical_formula_structural   ZnH6C2(NO)4
_chemical_formula_sum   'Zn2 H12 C4 N8 O8'
_cell_volume   340.73989304
_cell_formula_units_Z   2
loop_
 _symmetry_equiv_pos_site_id
 _symmetry_equiv_pos_as_xyz
  1  'x, y, z'
loop_
 _atom_site_type_symbol
 _atom_site_label
 _atom_site_symmetry_multiplicity
 _atom_site_fract_x
 _atom_site_fract_y
 _atom_site_fract_z
 _atom_site_occupancy
  Zn  Zn0  1  0.77663743  0.81533265  0.03611271  1.0
  Zn  Zn1  1  0.77663743  0.18466735  0.53611271  1.0
  H  H2  1  0.91004022  0.39883025  0.21918964  1.0
  H  H3  1  0.91004022  0.60116975  0.71918964  1.0
  H  H4  1  0.53749267  0.80993474  0.36162184  1.0
  H  H5  1  0.53749267  0.19006526  0.86162184  1.0
  H  H6  1  0.44362274  0.94003620  0.47062180  1.0
  H  H7  1  0.44362274  0.05996380  0.97062180  1.0
  H  H8  1  0.25050502  0.93298190  0.68773573  1.0
  H  H9  1  0.25050502  0.06701810  0.18773573  1.0
  H  H10  1  0.13638550  0.60367569  0.46764827  1.0
  H  H11  1  0.13638550  0.39632431  0.96764827  1.0
  H  H12  1  0.09414979  0.53528328  0.19447488  1.0
  H  H13  1  0.09414979  0.46471672  0.69447488  1.0
  C  C14  1  0.93955497  0.90201912  0.36846523  1.0
  C  C15  1  0.93955497  0.09798088  0.86846523  1.0
  C  C16  1  0.43859426  0.37744384  0.26812657  1.0
  C  C17  1  0.43859426  0.62255616  0.76812657  1.0
  N  N18  1  0.97434279  0.56746740  0.21611678  1.0
  N  N19  1  0.97434279  0.43253260  0.71611678  1.0
  N  N20  1  0.50989370  1.02085106  0.90084916  1.0
  N  N21  1  0.50989370  -0.02085106  0.40084916  1.0
  N  N22  1  0.38565962  0.86743003  0.77289462  1.0
  N  N23  1  0.38565962  0.13256997  0.27289462  1.0
  N  N24  1  0.04069102  0.69345807  0.36258408  1.0
  N  N25  1  0.04069102  0.30654193  0.86258408  1.0
  O  O26  1  -0.01228358  0.98919592  0.50820007  1.0
  O  O27  1  -0.01228358  0.01080408  0.00820007  1.0
  O  O28  1  0.80858322  1.00209919  0.24057882  1.0
  O  O29  1  0.80858322  -0.00209919  0.74057882  1.0
  O  O30  1  0.60903959  0.45524290  0.37672261  1.0
  O  O31  1  0.60903959  0.54475710  0.87672261  1.0
  O  O32  1  0.31479107  0.51726093  0.15805720  1.0
  O  O33  1  0.31479107  0.48273907  0.65805720  1.0
