# generated using pymatgen
data_NaMnF3
_symmetry_space_group_name_H-M   'P 1'
_cell_length_a   5.82416952
_cell_length_b   8.12534139
_cell_length_c   5.61806311
_cell_angle_alpha   90.00000000
_cell_angle_beta   90.00000000
_cell_angle_gamma   90.00000000
_symmetry_Int_Tables_number   1
_chemical_formula_structural   NaMnF3
_chemical_formula_sum   'Na4 Mn4 F12'
_cell_volume   265.86565494
_cell_formula_units_Z   4
loop_
 _symmetry_equiv_pos_site_id
 _symmetry_equiv_pos_as_xyz
  1  'x, y, z'
loop_
 _atom_site_type_symbol
 _atom_site_label
 _atom_site_symmetry_multiplicity
 _atom_site_fract_x
 _atom_site_fract_y
 _atom_site_fract_z
 _atom_site_occupancy
  Na  Na0  1  0.05507664  0.75000000  0.51528914  1.0
  Na  Na1  1  0.55507664  0.75000000  0.98471086  1.0
  Na  Na2  1  0.94492336  0.25000000  0.48471086  1.0
  Na  Na3  1  0.44492336  0.25000000  0.01528914  1.0
  Mn  Mn4  1  0.50000000  0.00000000  0.50000000  1.0
  Mn  Mn5  1  0.50000000  0.50000000  0.50000000  1.0
  Mn  Mn6  1  0.00000000  0.00000000  0.00000000  1.0
  Mn  Mn7  1  0.00000000  0.50000000  0.00000000  1.0
  F  F8  1  0.30219372  0.93826282  0.80609801  1.0
  F  F9  1  0.30219372  0.56173718  0.80609801  1.0
  F  F10  1  0.80219372  0.93826282  0.69390199  1.0
  F  F11  1  0.80219372  0.56173718  0.69390199  1.0
  F  F12  1  0.69780628  0.43826282  0.19390199  1.0
  F  F13  1  0.69780628  0.06173718  0.19390199  1.0
  F  F14  1  0.19780628  0.43826282  0.30609801  1.0
  F  F15  1  0.19780628  0.06173718  0.30609801  1.0
  F  F16  1  0.94781255  0.75000000  0.11648867  1.0
  F  F17  1  0.44781255  0.75000000  0.38351133  1.0
  F  F18  1  0.05218745  0.25000000  0.88351133  1.0
  F  F19  1  0.55218745  0.25000000  0.61648867  1.0
