# generated using pymatgen
data_CuSe2O5
_symmetry_space_group_name_H-M   'P 1'
_cell_length_a   6.80638821
_cell_length_b   6.80638821
_cell_length_c   8.02404545
_cell_angle_alpha   71.92520979
_cell_angle_beta   108.07479021
_cell_angle_gamma   133.54365353
_symmetry_Int_Tables_number   1
_chemical_formula_structural   CuSe2O5
_chemical_formula_sum   'Cu2 Se4 O10'
_cell_volume   253.62603592
_cell_formula_units_Z   2
loop_
 _symmetry_equiv_pos_site_id
 _symmetry_equiv_pos_as_xyz
  1  'x, y, z'
loop_
 _atom_site_type_symbol
 _atom_site_label
 _atom_site_symmetry_multiplicity
 _atom_site_fract_x
 _atom_site_fract_y
 _atom_site_fract_z
 _atom_site_occupancy
  Cu  Cu0  1  -0.00000000  0.00000000  0.50000000  1.0
  Cu  Cu1  1  -0.00000000  -0.00000000  0.00000000  1.0
  Se  Se2  1  0.53935192  0.26758246  0.32149034  1.0
  Se  Se3  1  0.73241754  0.46064808  0.82149034  1.0
  Se  Se4  1  1.26758246  0.53935192  0.17850966  1.0
  Se  Se5  1  0.46064808  -0.26758246  0.67850966  1.0
  O  O6  1  0.34306332  0.09987430  0.48617892  1.0
  O  O7  1  0.90012570  0.65693668  0.98617892  1.0
  O  O8  1  1.09987430  0.34306332  0.01382108  1.0
  O  O9  1  0.65693668  -0.09987430  0.51382108  1.0
  O  O10  1  0.33636255  0.09230434  0.14680358  1.0
  O  O11  1  0.90769566  0.66363745  0.64680358  1.0
  O  O12  1  1.09230434  0.33636255  0.35319642  1.0
  O  O13  1  0.66363745  -0.09230434  0.85319642  1.0
  O  O14  1  0.57754606  0.57754606  0.25000000  1.0
  O  O15  1  0.42245394  0.42245394  0.75000000  1.0
