# generated using pymatgen
data_BeGeN2
_symmetry_space_group_name_H-M   'P 1'
_cell_length_a   5.18145601
_cell_length_b   5.94813718
_cell_length_c   4.87359134
_cell_angle_alpha   90.00000000
_cell_angle_beta   90.00000000
_cell_angle_gamma   90.00000000
_symmetry_Int_Tables_number   1
_chemical_formula_structural   BeGeN2
_chemical_formula_sum   'Be4 Ge4 N8'
_cell_volume   150.20413943
_cell_formula_units_Z   4
loop_
 _symmetry_equiv_pos_site_id
 _symmetry_equiv_pos_as_xyz
  1  'x, y, z'
loop_
 _atom_site_type_symbol
 _atom_site_label
 _atom_site_symmetry_multiplicity
 _atom_site_fract_x
 _atom_site_fract_y
 _atom_site_fract_z
 _atom_site_occupancy
  Be  Be0  1  0.58036112  0.87489158  -0.00932697  1.0
  Be  Be1  1  0.41963888  0.12510842  0.49067303  1.0
  Be  Be2  1  0.91963888  0.37489158  0.49067303  1.0
  Be  Be3  1  0.08036112  0.62510842  -0.00932697  1.0
  Ge  Ge4  1  0.59036698  0.37548091  0.99042216  1.0
  Ge  Ge5  1  0.40963302  0.62451909  0.49042216  1.0
  Ge  Ge6  1  0.90963302  0.87548091  0.49042216  1.0
  Ge  Ge7  1  0.09036698  0.12451909  0.99042216  1.0
  N  N8  1  0.58996740  0.36633744  0.37742595  1.0
  N  N9  1  0.41003260  0.63366256  0.87742595  1.0
  N  N10  1  0.91003260  0.86633744  0.87742595  1.0
  N  N11  1  0.08996740  0.13366256  0.37742595  1.0
  N  N12  1  0.57286108  0.88404162  0.35547886  1.0
  N  N13  1  0.42713892  0.11595838  0.85547886  1.0
  N  N14  1  0.92713892  0.38404162  0.85547886  1.0
  N  N15  1  0.07286108  0.61595838  0.35547886  1.0
