# generated using pymatgen
data_SbAs3(Se2F3)2
_symmetry_space_group_name_H-M   'P 1'
_cell_length_a   6.64566520
_cell_length_b   10.18899486
_cell_length_c   10.78942162
_cell_angle_alpha   90.00000000
_cell_angle_beta   91.88166735
_cell_angle_gamma   90.00000000
_symmetry_Int_Tables_number   1
_chemical_formula_structural   SbAs3(Se2F3)2
_chemical_formula_sum   'Sb2 As6 Se8 F12'
_cell_volume   730.18636586
_cell_formula_units_Z   2
loop_
 _symmetry_equiv_pos_site_id
 _symmetry_equiv_pos_as_xyz
  1  'x, y, z'
loop_
 _atom_site_type_symbol
 _atom_site_label
 _atom_site_symmetry_multiplicity
 _atom_site_fract_x
 _atom_site_fract_y
 _atom_site_fract_z
 _atom_site_occupancy
  Sb  Sb0  1  0.51947830  0.75000000  0.83447099  1.0
  Sb  Sb1  1  0.48052170  0.25000000  0.16552901  1.0
  As  As2  1  1.00045745  0.87322383  0.15262234  1.0
  As  As3  1  1.00045745  0.62677617  0.15262234  1.0
  As  As4  1  -0.00045745  0.37322383  0.84737766  1.0
  As  As5  1  -0.00045745  0.12677617  0.84737766  1.0
  As  As6  1  0.05905336  0.75000000  0.47987685  1.0
  As  As7  1  0.94094664  0.25000000  0.52012315  1.0
  Se  Se8  1  0.85617036  0.43045184  0.65265102  1.0
  Se  Se9  1  0.85617036  0.06954816  0.65265102  1.0
  Se  Se10  1  0.14382964  0.93045184  0.34734898  1.0
  Se  Se11  1  0.14382964  0.56954816  0.34734898  1.0
  Se  Se12  1  0.69953436  0.75000000  0.43277226  1.0
  Se  Se13  1  0.30046564  0.25000000  0.56722774  1.0
  Se  Se14  1  0.68997567  0.75000000  0.21645135  1.0
  Se  Se15  1  0.31002433  0.25000000  0.78354865  1.0
  F  F16  1  0.68635950  0.88217869  0.91602601  1.0
  F  F17  1  0.68635950  0.61782131  0.91602601  1.0
  F  F18  1  0.31364050  0.38217869  0.08397399  1.0
  F  F19  1  0.31364050  0.11782131  0.08397399  1.0
  F  F20  1  0.36037772  0.88442057  0.75316257  1.0
  F  F21  1  0.36037772  0.61557943  0.75316257  1.0
  F  F22  1  0.63962228  0.38442057  0.24683743  1.0
  F  F23  1  0.63962228  0.11557943  0.24683743  1.0
  F  F24  1  0.70141207  0.75000000  0.69723547  1.0
  F  F25  1  0.29858793  0.25000000  0.30276453  1.0
  F  F26  1  0.34378968  0.75000000  0.97361336  1.0
  F  F27  1  0.65621032  0.25000000  0.02638664  1.0
