# generated using pymatgen
data_VPbOF5
_symmetry_space_group_name_H-M   'P 1'
_cell_length_a   5.08774054
_cell_length_b   10.18984000
_cell_length_c   9.36114642
_cell_angle_alpha   90.00000000
_cell_angle_beta   90.00000000
_cell_angle_gamma   90.00000000
_symmetry_Int_Tables_number   1
_chemical_formula_structural   VPbOF5
_chemical_formula_sum   'V4 Pb4 O4 F20'
_cell_volume   485.31236762
_cell_formula_units_Z   4
loop_
 _symmetry_equiv_pos_site_id
 _symmetry_equiv_pos_as_xyz
  1  'x, y, z'
loop_
 _atom_site_type_symbol
 _atom_site_label
 _atom_site_symmetry_multiplicity
 _atom_site_fract_x
 _atom_site_fract_y
 _atom_site_fract_z
 _atom_site_occupancy
  V  V0  1  0.38946807  0.04903234  0.25000000  1.0
  V  V1  1  0.38946807  0.45096766  0.75000000  1.0
  V  V2  1  0.61053193  0.54903234  0.25000000  1.0
  V  V3  1  0.61053193  0.95096766  0.75000000  1.0
  Pb  Pb4  1  0.93452628  0.25000000  0.50000000  1.0
  Pb  Pb5  1  0.93452628  0.25000000  0.00000000  1.0
  Pb  Pb6  1  0.06547372  0.75000000  0.50000000  1.0
  Pb  Pb7  1  0.06547372  0.75000000  0.00000000  1.0
  O  O8  1  0.37137291  0.45071598  0.25000000  1.0
  O  O9  1  0.37137291  0.04928402  0.75000000  1.0
  O  O10  1  0.62862709  0.95071598  0.25000000  1.0
  O  O11  1  0.62862709  0.54928402  0.75000000  1.0
  F  F12  1  0.81684874  0.46969943  0.38867975  1.0
  F  F13  1  0.81684874  0.46969943  0.11132025  1.0
  F  F14  1  0.81684874  0.03030057  0.88867975  1.0
  F  F15  1  0.81684874  0.03030057  0.61132025  1.0
  F  F16  1  0.18315126  0.96969943  0.38867975  1.0
  F  F17  1  0.18315126  0.96969943  0.11132025  1.0
  F  F18  1  0.18315126  0.53030057  0.88867975  1.0
  F  F19  1  0.18315126  0.53030057  0.61132025  1.0
  F  F20  1  0.50134366  0.16588809  0.38871054  1.0
  F  F21  1  0.50134366  0.16588809  0.11128946  1.0
  F  F22  1  0.50134366  0.33411191  0.88871054  1.0
  F  F23  1  0.50134366  0.33411191  0.61128946  1.0
  F  F24  1  0.49865634  0.66588809  0.38871054  1.0
  F  F25  1  0.49865634  0.66588809  0.11128946  1.0
  F  F26  1  0.49865634  0.83411191  0.88871054  1.0
  F  F27  1  0.49865634  0.83411191  0.61128946  1.0
  F  F28  1  0.95142556  0.68853745  0.25000000  1.0
  F  F29  1  0.95142556  0.81146255  0.75000000  1.0
  F  F30  1  0.04857444  0.18853745  0.25000000  1.0
  F  F31  1  0.04857444  0.31146255  0.75000000  1.0
