# generated using pymatgen
data_RbLa9(IrO6)4
_symmetry_space_group_name_H-M   'P 1'
_cell_length_a   10.52858817
_cell_length_b   10.52858817
_cell_length_c   10.52858817
_cell_angle_alpha   136.39968158
_cell_angle_beta   136.39968158
_cell_angle_gamma   63.36302284
_symmetry_Int_Tables_number   1
_chemical_formula_structural   RbLa9(IrO6)4
_chemical_formula_sum   'Rb1 La9 Ir4 O24'
_cell_volume   547.90427243
_cell_formula_units_Z   1
loop_
 _symmetry_equiv_pos_site_id
 _symmetry_equiv_pos_as_xyz
  1  'x, y, z'
loop_
 _atom_site_type_symbol
 _atom_site_label
 _atom_site_symmetry_multiplicity
 _atom_site_fract_x
 _atom_site_fract_y
 _atom_site_fract_z
 _atom_site_occupancy
  Rb  Rb0  1  0.50000000  0.50000000  1.00000000  1.0
  Ir  Ir1  1  0.75931469  0.75931469  1.00000000  1.0
  Ir  Ir2  1  0.24068531  0.24068531  0.00000000  1.0
  Ir  Ir3  1  0.50000000  -0.00000000  0.50000000  1.0
  Ir  Ir4  1  0.00000000  0.50000000  0.50000000  1.0
  O  O5  1  0.50785912  0.77641816  0.46121416  1.0
  O  O6  1  0.68479599  0.95335503  1.46121416  1.0
  O  O7  1  1.04664497  0.50785912  0.73144096  1.0
  O  O8  1  0.22358184  0.68479599  0.73144096  1.0
  O  O9  1  1.31520401  1.04664497  1.53878584  1.0
  O  O10  1  0.49214088  0.22358184  0.53878584  1.0
  O  O11  1  0.77641816  1.31520401  1.26855904  1.0
  O  O12  1  0.95335503  0.49214088  1.26855904  1.0
  O  O13  1  0.87186195  0.87186195  1.00000000  1.0
  O  O14  1  0.12813805  0.12813805  0.00000000  1.0
  O  O15  1  0.87098695  0.71194846  1.58293541  1.0
  O  O16  1  0.28805154  0.87098695  1.15903849  1.0
  O  O17  1  0.12901305  0.28805154  0.41706459  1.0
  O  O18  1  0.71194846  0.12901305  0.84096151  1.0
  O  O19  1  0.65078008  0.65078008  1.00000000  1.0
  O  O20  1  0.34921992  0.34921992  0.00000000  1.0
  O  O21  1  0.52106681  0.70418264  0.69493377  1.0
  O  O22  1  0.99075114  1.17386697  1.69493377  1.0
  O  O23  1  0.82613303  0.52106681  0.81688417  1.0
  O  O24  1  0.29581736  0.99075114  0.81688417  1.0
  O  O25  1  1.00924886  0.82613303  1.30506623  1.0
  O  O26  1  0.47893319  0.29581736  0.30506623  1.0
  O  O27  1  0.70418264  1.00924886  1.18311583  1.0
  O  O28  1  1.17386697  0.47893319  1.18311583  1.0
  La  La29  1  0.67540356  0.54091267  0.50506765  1.0
  La  La30  1  0.96415499  0.82966409  1.50506765  1.0
  La  La31  1  1.17033591  0.67540356  1.13449090  1.0
  La  La32  1  0.45908733  0.96415499  1.13449090  1.0
  La  La33  1  1.03584501  1.17033591  1.49493235  1.0
  La  La34  1  0.32459644  0.45908733  0.49493235  1.0
  La  La35  1  0.54091267  1.03584501  0.86550910  1.0
  La  La36  1  0.82966409  0.32459644  0.86550910  1.0
  La  La37  1  0.00000000  0.00000000  0.00000000  1.0
