# generated using pymatgen
data_NaCO2
_symmetry_space_group_name_H-M   'P 1'
_cell_length_a   3.55412408
_cell_length_b   5.29958279
_cell_length_c   10.63617273
_cell_angle_alpha   90.00000000
_cell_angle_beta   86.04374967
_cell_angle_gamma   90.00000000
_symmetry_Int_Tables_number   1
_chemical_formula_structural   NaCO2
_chemical_formula_sum   'Na4 C4 O8'
_cell_volume   199.85890335
_cell_formula_units_Z   4
loop_
 _symmetry_equiv_pos_site_id
 _symmetry_equiv_pos_as_xyz
  1  'x, y, z'
loop_
 _atom_site_type_symbol
 _atom_site_label
 _atom_site_symmetry_multiplicity
 _atom_site_fract_x
 _atom_site_fract_y
 _atom_site_fract_z
 _atom_site_occupancy
  Na  Na0  1  0.29842239  0.05830864  0.64441845  1.0
  Na  Na1  1  0.29842239  0.44169136  0.14441845  1.0
  Na  Na2  1  0.70157761  0.55830864  0.85558155  1.0
  Na  Na3  1  0.70157761  0.94169136  0.35558155  1.0
  C  C4  1  0.11231994  0.04425573  0.93708022  1.0
  C  C5  1  0.11231994  0.45574427  0.43708022  1.0
  C  C6  1  0.88768006  0.54425573  0.56291978  1.0
  C  C7  1  0.88768006  0.95574427  0.06291978  1.0
  O  O8  1  0.16384327  0.88401900  0.84919157  1.0
  O  O9  1  0.16384327  0.61598100  0.34919157  1.0
  O  O10  1  0.83615673  0.38401900  0.65080843  1.0
  O  O11  1  0.83615673  0.11598100  0.15080843  1.0
  O  O12  1  0.22524142  0.27091556  0.93292411  1.0
  O  O13  1  0.22524142  0.22908444  0.43292411  1.0
  O  O14  1  0.77475858  0.77091556  0.56707589  1.0
  O  O15  1  0.77475858  0.72908444  0.06707589  1.0
