# generated using pymatgen
data_MnSi(AgTe2)2
_symmetry_space_group_name_H-M   'P 1'
_cell_length_a   8.75176318
_cell_length_b   7.78054062
_cell_length_c   7.35492496
_cell_angle_alpha   90.00000000
_cell_angle_beta   90.00000000
_cell_angle_gamma   90.00000000
_symmetry_Int_Tables_number   1
_chemical_formula_structural   MnSi(AgTe2)2
_chemical_formula_sum   'Mn2 Si2 Ag4 Te8'
_cell_volume   500.82220695
_cell_formula_units_Z   2
loop_
 _symmetry_equiv_pos_site_id
 _symmetry_equiv_pos_as_xyz
  1  'x, y, z'
loop_
 _atom_site_type_symbol
 _atom_site_label
 _atom_site_symmetry_multiplicity
 _atom_site_fract_x
 _atom_site_fract_y
 _atom_site_fract_z
 _atom_site_occupancy
  Mn  Mn0  1  0.50000000  0.64991548  -0.00172720  1.0
  Mn  Mn1  1  0.00000000  0.35008452  0.49827280  1.0
  Si  Si2  1  0.50000000  0.33416012  0.50282507  1.0
  Si  Si3  1  0.00000000  0.66583988  0.00282507  1.0
  Ag  Ag4  1  0.24560453  0.17695380  0.01769369  1.0
  Ag  Ag5  1  0.74560453  0.82304620  0.51769369  1.0
  Ag  Ag6  1  0.75439547  0.17695380  0.01769369  1.0
  Ag  Ag7  1  0.25439547  0.82304620  0.51769369  1.0
  Te  Te8  1  0.26058219  0.16966358  0.39668651  1.0
  Te  Te9  1  0.76058219  0.83033642  0.89668651  1.0
  Te  Te10  1  0.73941781  0.16966358  0.39668651  1.0
  Te  Te11  1  0.23941781  0.83033642  0.89668651  1.0
  Te  Te12  1  0.50000000  0.33118834  0.85149638  1.0
  Te  Te13  1  0.00000000  0.66881166  0.35149638  1.0
  Te  Te14  1  0.50000000  0.63705486  0.37114536  1.0
  Te  Te15  1  0.00000000  0.36294514  0.87114536  1.0
