# generated using pymatgen
data_YbB2Ru3
_symmetry_space_group_name_H-M   'P 1'
_cell_length_a   5.51749449
_cell_length_b   5.51749449
_cell_length_c   2.98850871
_cell_angle_alpha   90.00000000
_cell_angle_beta   90.00000000
_cell_angle_gamma   120.00000000
_symmetry_Int_Tables_number   1
_chemical_formula_structural   YbB2Ru3
_chemical_formula_sum   'Yb1 B2 Ru3'
_cell_volume   78.78961430
_cell_formula_units_Z   1
loop_
 _symmetry_equiv_pos_site_id
 _symmetry_equiv_pos_as_xyz
  1  'x, y, z'
loop_
 _atom_site_type_symbol
 _atom_site_label
 _atom_site_symmetry_multiplicity
 _atom_site_fract_x
 _atom_site_fract_y
 _atom_site_fract_z
 _atom_site_occupancy
  Yb  Yb0  1  -0.00000000  -0.00000000  0.00000000  1.0
  B  B1  1  0.33333333  0.66666667  0.00000000  1.0
  B  B2  1  0.66666667  0.33333333  0.00000000  1.0
  Ru  Ru3  1  0.50000000  0.50000000  0.50000000  1.0
  Ru  Ru4  1  0.50000000  -0.00000000  0.50000000  1.0
  Ru  Ru5  1  -0.00000000  0.50000000  0.50000000  1.0
