# generated using pymatgen
data_NiH4(NO4)2
_symmetry_space_group_name_H-M   'P 1'
_cell_length_a   5.80582485
_cell_length_b   6.18015483
_cell_length_c   8.47688292
_cell_angle_alpha   90.00000000
_cell_angle_beta   90.65369297
_cell_angle_gamma   90.00000000
_symmetry_Int_Tables_number   1
_chemical_formula_structural   NiH4(NO4)2
_chemical_formula_sum   'Ni2 H8 N4 O16'
_cell_volume   304.13836336
_cell_formula_units_Z   2
loop_
 _symmetry_equiv_pos_site_id
 _symmetry_equiv_pos_as_xyz
  1  'x, y, z'
loop_
 _atom_site_type_symbol
 _atom_site_label
 _atom_site_symmetry_multiplicity
 _atom_site_fract_x
 _atom_site_fract_y
 _atom_site_fract_z
 _atom_site_occupancy
  Ni  Ni0  1  0.00000000  0.00000000  0.00000000  1.0
  Ni  Ni1  1  -0.00000000  0.50000000  0.50000000  1.0
  H  H2  1  0.80497956  0.31047302  0.87526896  1.0
  H  H3  1  0.80497956  0.18952698  0.37526896  1.0
  H  H4  1  0.19502044  0.81047302  0.62473104  1.0
  H  H5  1  0.19502044  0.68952698  0.12473104  1.0
  H  H6  1  0.39865485  0.70088112  0.53657892  1.0
  H  H7  1  0.39865485  0.79911888  0.03657892  1.0
  H  H8  1  0.60134515  0.20088112  0.96342108  1.0
  H  H9  1  0.60134515  0.29911888  0.46342108  1.0
  N  N10  1  0.75714800  0.82811249  0.70929444  1.0
  N  N11  1  0.75714800  0.67188751  0.20929444  1.0
  N  N12  1  0.24285200  0.32811249  0.79070556  1.0
  N  N13  1  0.24285200  0.17188751  0.29070556  1.0
  O  O14  1  0.95593842  0.86607959  0.77120546  1.0
  O  O15  1  0.95593842  0.63392041  0.27120546  1.0
  O  O16  1  0.04406158  0.36607959  0.72879454  1.0
  O  O17  1  0.04406158  0.13392041  0.22879454  1.0
  O  O18  1  0.74724978  0.70863916  0.58515290  1.0
  O  O19  1  0.74724978  0.79136084  0.08515290  1.0
  O  O20  1  0.25275022  0.20863916  0.91484710  1.0
  O  O21  1  0.25275022  0.29136084  0.41484710  1.0
  O  O22  1  0.76345876  0.24360582  0.97632580  1.0
  O  O23  1  0.76345876  0.25639418  0.47632580  1.0
  O  O24  1  0.23654124  0.74360582  0.52367420  1.0
  O  O25  1  0.23654124  0.75639418  0.02367420  1.0
  O  O26  1  0.57945056  0.90197083  0.76452945  1.0
  O  O27  1  0.57945056  0.59802917  0.26452945  1.0
  O  O28  1  0.42054944  0.40197083  0.73547055  1.0
  O  O29  1  0.42054944  0.09802917  0.23547055  1.0
