# generated using pymatgen
data_NaBe2BO3F2
_symmetry_space_group_name_H-M   'P 1'
_cell_length_a   7.87377241
_cell_length_b   7.87377241
_cell_length_c   7.64196794
_cell_angle_alpha   71.17591228
_cell_angle_beta   108.82408772
_cell_angle_gamma   112.30681516
_symmetry_Int_Tables_number   1
_chemical_formula_structural   NaBe2BO3F2
_chemical_formula_sum   'Na4 Be8 B4 O12 F8'
_cell_volume   403.88768208
_cell_formula_units_Z   4
loop_
 _symmetry_equiv_pos_site_id
 _symmetry_equiv_pos_as_xyz
  1  'x, y, z'
loop_
 _atom_site_type_symbol
 _atom_site_label
 _atom_site_symmetry_multiplicity
 _atom_site_fract_x
 _atom_site_fract_y
 _atom_site_fract_z
 _atom_site_occupancy
  Na  Na0  1  1.41956439  0.41956439  0.00000000  1.0
  Na  Na1  1  0.01190708  0.01190708  0.00000000  1.0
  Na  Na2  1  0.55780607  -0.44219393  0.50000000  1.0
  Na  Na3  1  1.15872518  0.15872518  0.50000000  1.0
  Be  Be4  1  0.46162895  -0.16838413  0.69846937  1.0
  Be  Be5  1  0.83161587  -0.53837105  0.30153063  1.0
  Be  Be6  1  0.95915046  -0.60916173  0.69616898  1.0
  Be  Be7  1  0.39083827  -0.04084954  0.30383102  1.0
  Be  Be8  1  1.61731852  0.17392767  0.80369863  1.0
  Be  Be9  1  1.17392767  0.61731852  0.19630137  1.0
  Be  Be10  1  1.11640214  0.73220285  0.80301342  1.0
  Be  Be11  1  1.73220285  0.11640214  0.19698658  1.0
  B  B12  1  1.12864740  0.69712464  0.47843592  1.0
  B  B13  1  1.69712464  0.12864740  0.52156408  1.0
  B  B14  1  0.88522870  -0.57226326  0.98647277  1.0
  B  B15  1  0.42773674  -0.11477130  0.01352723  1.0
  O  O16  1  0.81785302  -0.65759123  0.83533314  1.0
  O  O17  1  0.34240877  -0.18214698  0.16466686  1.0
  O  O18  1  0.83507228  -0.69759325  0.50924600  1.0
  O  O19  1  0.30240675  -0.16492772  0.49075400  1.0
  O  O20  1  0.35170092  -0.20076862  0.86256059  1.0
  O  O21  1  0.79923138  -0.64829908  0.13743941  1.0
  O  O22  1  1.04168328  0.58414908  0.98877996  1.0
  O  O23  1  1.58414908  0.04168328  0.01122004  1.0
  O  O24  1  1.03958312  0.62828133  0.31659123  1.0
  O  O25  1  1.62828133  0.03958312  0.68340877  1.0
  O  O26  1  1.04592580  0.62198787  0.63165140  1.0
  O  O27  1  1.62198787  0.04592580  0.36834860  1.0
  F  F28  1  1.26189220  0.45729781  0.31028248  1.0
  F  F29  1  1.45729781  0.26189220  0.68971752  1.0
  F  F30  1  1.12038916  0.30332570  0.80539820  1.0
  F  F31  1  1.30332570  0.12038916  0.19460180  1.0
  F  F32  1  0.53919513  -0.33474937  0.74222544  1.0
  F  F33  1  0.66525063  -0.46080487  0.25777456  1.0
  F  F34  1  1.05156893  0.90887191  0.74984447  1.0
  F  F35  1  1.90887191  0.05156893  0.25015553  1.0
