# generated using pymatgen
data_Sm3(Al3Os)4
_symmetry_space_group_name_H-M   'P 1'
_cell_length_a   8.88729475
_cell_length_b   8.88729475
_cell_length_c   9.68072084
_cell_angle_alpha   90.00000000
_cell_angle_beta   90.00000000
_cell_angle_gamma   120.00000000
_symmetry_Int_Tables_number   1
_chemical_formula_structural   Sm3(Al3Os)4
_chemical_formula_sum   'Sm6 Al24 Os8'
_cell_volume   662.18219032
_cell_formula_units_Z   2
loop_
 _symmetry_equiv_pos_site_id
 _symmetry_equiv_pos_as_xyz
  1  'x, y, z'
loop_
 _atom_site_type_symbol
 _atom_site_label
 _atom_site_symmetry_multiplicity
 _atom_site_fract_x
 _atom_site_fract_y
 _atom_site_fract_z
 _atom_site_occupancy
  Sm  Sm0  1  0.19398294  0.80601706  0.25000000  1.0
  Sm  Sm1  1  0.19398294  0.38796589  0.25000000  1.0
  Sm  Sm2  1  0.80601706  0.19398294  0.75000000  1.0
  Sm  Sm3  1  0.80601706  0.61203411  0.75000000  1.0
  Sm  Sm4  1  0.61203411  0.80601706  0.25000000  1.0
  Sm  Sm5  1  0.38796589  0.19398294  0.75000000  1.0
  Al  Al6  1  0.16235910  0.83764090  0.92620973  1.0
  Al  Al7  1  0.16235910  0.83764090  0.57379027  1.0
  Al  Al8  1  0.16235910  0.32471820  0.92620973  1.0
  Al  Al9  1  0.16235910  0.32471820  0.57379027  1.0
  Al  Al10  1  0.83764090  0.16235910  0.42620973  1.0
  Al  Al11  1  0.83764090  0.16235910  0.07379027  1.0
  Al  Al12  1  0.83764090  0.67528180  0.42620973  1.0
  Al  Al13  1  0.83764090  0.67528180  0.07379027  1.0
  Al  Al14  1  0.67528180  0.83764090  0.92620973  1.0
  Al  Al15  1  0.67528180  0.83764090  0.57379027  1.0
  Al  Al16  1  0.32471820  0.16235910  0.42620973  1.0
  Al  Al17  1  0.32471820  0.16235910  0.07379027  1.0
  Al  Al18  1  0.56204722  0.43795278  0.25000000  1.0
  Al  Al19  1  0.56204722  0.12409444  0.25000000  1.0
  Al  Al20  1  0.43795278  0.56204722  0.75000000  1.0
  Al  Al21  1  0.43795278  0.87590556  0.75000000  1.0
  Al  Al22  1  0.87590556  0.43795278  0.25000000  1.0
  Al  Al23  1  0.12409444  0.56204722  0.75000000  1.0
  Al  Al24  1  0.33333333  0.66666667  0.49519869  1.0
  Al  Al25  1  0.33333333  0.66666667  0.00480131  1.0
  Al  Al26  1  0.66666667  0.33333333  0.99519869  1.0
  Al  Al27  1  0.66666667  0.33333333  0.50480131  1.0
  Al  Al28  1  0.00000000  0.00000000  0.25000000  1.0
  Al  Al29  1  0.00000000  0.00000000  0.75000000  1.0
  Os  Os30  1  0.50000000  0.50000000  0.50000000  1.0
  Os  Os31  1  0.50000000  0.50000000  0.00000000  1.0
  Os  Os32  1  0.50000000  0.00000000  0.50000000  1.0
  Os  Os33  1  0.50000000  0.00000000  0.00000000  1.0
  Os  Os34  1  0.00000000  0.50000000  0.50000000  1.0
  Os  Os35  1  0.00000000  0.50000000  0.00000000  1.0
  Os  Os36  1  0.00000000  0.00000000  0.50000000  1.0
  Os  Os37  1  0.00000000  0.00000000  0.00000000  1.0
