# generated using pymatgen
data_Ba7SiB3BrO13
_symmetry_space_group_name_H-M   'P 1'
_cell_length_a   11.47860536
_cell_length_b   11.47860536
_cell_length_c   7.40930066
_cell_angle_alpha   90.00000000
_cell_angle_beta   90.00000000
_cell_angle_gamma   120.00000000
_symmetry_Int_Tables_number   1
_chemical_formula_structural   Ba7SiB3BrO13
_chemical_formula_sum   'Ba14 Si2 B6 Br2 O26'
_cell_volume   845.44644050
_cell_formula_units_Z   2
loop_
 _symmetry_equiv_pos_site_id
 _symmetry_equiv_pos_as_xyz
  1  'x, y, z'
loop_
 _atom_site_type_symbol
 _atom_site_label
 _atom_site_symmetry_multiplicity
 _atom_site_fract_x
 _atom_site_fract_y
 _atom_site_fract_z
 _atom_site_occupancy
  Ba  Ba0  1  0.05139958  0.52569979  0.37761523  1.0
  Ba  Ba1  1  0.52569979  0.05139958  0.87761523  1.0
  Ba  Ba2  1  0.52569979  0.47430021  0.87761523  1.0
  Ba  Ba3  1  0.47430021  0.52569979  0.37761523  1.0
  Ba  Ba4  1  0.47430021  0.94860042  0.37761523  1.0
  Ba  Ba5  1  0.94860042  0.47430021  0.87761523  1.0
  Ba  Ba6  1  0.29612686  0.14806343  0.21421330  1.0
  Ba  Ba7  1  0.14806343  0.29612686  0.71421330  1.0
  Ba  Ba8  1  0.14806343  0.85193657  0.71421330  1.0
  Ba  Ba9  1  0.85193657  0.14806343  0.21421330  1.0
  Ba  Ba10  1  0.85193657  0.70387314  0.21421330  1.0
  Ba  Ba11  1  0.70387314  0.85193657  0.71421330  1.0
  Ba  Ba12  1  0.33333333  0.66666667  0.02067004  1.0
  Ba  Ba13  1  0.66666667  0.33333333  0.52067004  1.0
  Si  Si14  1  0.33333333  0.66666667  0.61078978  1.0
  Si  Si15  1  0.66666667  0.33333333  0.11078978  1.0
  B  B16  1  0.62855505  0.81427753  0.17279839  1.0
  B  B17  1  0.81427753  0.62855505  0.67279839  1.0
  B  B18  1  0.81427753  0.18572247  0.67279839  1.0
  B  B19  1  0.18572247  0.81427753  0.17279839  1.0
  B  B20  1  0.18572247  0.37144495  0.17279839  1.0
  B  B21  1  0.37144495  0.18572247  0.67279839  1.0
  Br  Br22  1  0.00000000  0.00000000  0.00105093  1.0
  Br  Br23  1  0.00000000  0.00000000  0.50105093  1.0
  O  O24  1  0.30289347  0.90595531  0.08076367  1.0
  O  O25  1  0.30289347  0.39693816  0.08076367  1.0
  O  O26  1  0.90595531  0.30289347  0.58076367  1.0
  O  O27  1  0.90595531  0.60306184  0.58076367  1.0
  O  O28  1  0.60306184  0.90595531  0.08076367  1.0
  O  O29  1  0.60306184  0.69710653  0.08076367  1.0
  O  O30  1  0.09404468  0.69710653  0.08076367  1.0
  O  O31  1  0.09404468  0.39693816  0.08076367  1.0
  O  O32  1  0.69710653  0.60306184  0.58076367  1.0
  O  O33  1  0.69710653  0.09404468  0.58076367  1.0
  O  O34  1  0.39693816  0.30289347  0.58076367  1.0
  O  O35  1  0.39693816  0.09404468  0.58076367  1.0
  O  O36  1  0.66997503  0.83498752  0.35014363  1.0
  O  O37  1  0.83498752  0.66997503  0.85014363  1.0
  O  O38  1  0.83498752  0.16501248  0.85014363  1.0
  O  O39  1  0.16501248  0.83498752  0.35014363  1.0
  O  O40  1  0.16501248  0.33002497  0.35014363  1.0
  O  O41  1  0.33002497  0.16501248  0.85014363  1.0
  O  O42  1  0.82041506  0.41020753  0.19454432  1.0
  O  O43  1  0.41020753  0.82041506  0.69454432  1.0
  O  O44  1  0.41020753  0.58979247  0.69454432  1.0
  O  O45  1  0.58979247  0.41020753  0.19454432  1.0
  O  O46  1  0.58979247  0.17958494  0.19454432  1.0
  O  O47  1  0.17958494  0.58979247  0.69454432  1.0
  O  O48  1  0.33333333  0.66666667  0.38846265  1.0
  O  O49  1  0.66666667  0.33333333  0.88846265  1.0
