# generated using pymatgen
data_La4Os6O19
_symmetry_space_group_name_H-M   'P 1'
_cell_length_a   7.91288841
_cell_length_b   7.91288841
_cell_length_c   7.91288841
_cell_angle_alpha   109.47122063
_cell_angle_beta   109.47122063
_cell_angle_gamma   109.47122063
_symmetry_Int_Tables_number   1
_chemical_formula_structural   La4Os6O19
_chemical_formula_sum   'La4 Os6 O19'
_cell_volume   381.40223365
_cell_formula_units_Z   1
loop_
 _symmetry_equiv_pos_site_id
 _symmetry_equiv_pos_as_xyz
  1  'x, y, z'
loop_
 _atom_site_type_symbol
 _atom_site_label
 _atom_site_symmetry_multiplicity
 _atom_site_fract_x
 _atom_site_fract_y
 _atom_site_fract_z
 _atom_site_occupancy
  La  La0  1  0.68506436  0.68506436  0.68506436  1.0
  La  La1  1  1.00000000  1.00000000  0.31493564  1.0
  La  La2  1  1.00000000  0.31493564  1.00000000  1.0
  La  La3  1  0.31493564  1.00000000  1.00000000  1.0
  Os  Os4  1  0.36300871  0.86300871  0.50000000  1.0
  Os  Os5  1  0.50000000  0.36300871  0.86300871  1.0
  Os  Os6  1  0.50000000  0.63699129  0.13699129  1.0
  Os  Os7  1  0.86300871  0.50000000  0.36300871  1.0
  Os  Os8  1  0.13699129  0.50000000  0.63699129  1.0
  Os  Os9  1  0.63699129  0.13699129  0.50000000  1.0
  O  O10  1  0.35566992  0.62862601  0.29502804  1.0
  O  O11  1  1.33359796  1.06064188  0.70497196  1.0
  O  O12  1  0.29502804  0.35566992  0.62862601  1.0
  O  O13  1  0.72704391  0.66640204  0.37137399  1.0
  O  O14  1  0.62862601  0.29502804  0.35566992  1.0
  O  O15  1  0.93935812  1.27295609  1.64433008  1.0
  O  O16  1  0.66640204  0.37137399  0.72704391  1.0
  O  O17  1  1.64433008  0.93935812  1.27295609  1.0
  O  O18  1  1.27295609  1.64433008  0.93935812  1.0
  O  O19  1  0.70497196  1.33359796  1.06064188  1.0
  O  O20  1  1.06064188  0.70497196  1.33359796  1.0
  O  O21  1  0.37137399  0.72704391  0.66640204  1.0
  O  O22  1  0.67519444  0.67519444  -0.00000000  1.0
  O  O23  1  0.00000000  0.67519444  0.67519444  1.0
  O  O24  1  0.00000000  0.32480556  0.32480556  1.0
  O  O25  1  0.67519444  0.00000000  0.67519444  1.0
  O  O26  1  0.32480556  -0.00000000  0.32480556  1.0
  O  O27  1  0.32480556  0.32480556  -0.00000000  1.0
  O  O28  1  0.00000000  0.00000000  0.00000000  1.0
