# generated using pymatgen
data_ZrPRu
_symmetry_space_group_name_H-M   'P 1'
_cell_length_a   6.85609784
_cell_length_b   6.85609784
_cell_length_c   3.54780933
_cell_angle_alpha   90.00000000
_cell_angle_beta   90.00000000
_cell_angle_gamma   120.00000000
_symmetry_Int_Tables_number   1
_chemical_formula_structural   ZrPRu
_chemical_formula_sum   'Zr3 P3 Ru3'
_cell_volume   144.42584452
_cell_formula_units_Z   3
loop_
 _symmetry_equiv_pos_site_id
 _symmetry_equiv_pos_as_xyz
  1  'x, y, z'
loop_
 _atom_site_type_symbol
 _atom_site_label
 _atom_site_symmetry_multiplicity
 _atom_site_fract_x
 _atom_site_fract_y
 _atom_site_fract_z
 _atom_site_occupancy
  Zr  Zr0  1  0.39038993  0.39038993  0.00000000  1.0
  Zr  Zr1  1  0.00000000  0.60961007  -0.00000000  1.0
  Zr  Zr2  1  0.60961007  -0.00000000  0.00000000  1.0
  P  P3  1  0.72853509  0.72853509  0.50000000  1.0
  P  P4  1  -0.00000000  0.27146491  0.50000000  1.0
  P  P5  1  0.27146491  -0.00000000  0.50000000  1.0
  Ru  Ru6  1  0.33333333  0.66666667  0.50000000  1.0
  Ru  Ru7  1  0.66666667  0.33333333  0.50000000  1.0
  Ru  Ru8  1  -0.00000000  -0.00000000  0.00000000  1.0
