# generated using pymatgen
data_NaBiO2
_symmetry_space_group_name_H-M   'P 1'
_cell_length_a   5.19683294
_cell_length_b   5.19683294
_cell_length_c   5.98282741
_cell_angle_alpha   64.81309953
_cell_angle_beta   115.18690047
_cell_angle_gamma   90.30230394
_symmetry_Int_Tables_number   1
_chemical_formula_structural   NaBiO2
_chemical_formula_sum   'Na2 Bi2 O4'
_cell_volume   129.22853940
_cell_formula_units_Z   2
loop_
 _symmetry_equiv_pos_site_id
 _symmetry_equiv_pos_as_xyz
  1  'x, y, z'
loop_
 _atom_site_type_symbol
 _atom_site_label
 _atom_site_symmetry_multiplicity
 _atom_site_fract_x
 _atom_site_fract_y
 _atom_site_fract_z
 _atom_site_occupancy
  Na  Na0  1  0.87344219  0.87344219  0.25000000  1.0
  Na  Na1  1  0.12655781  0.12655781  0.75000000  1.0
  Bi  Bi2  1  0.38566789  0.38566789  0.25000000  1.0
  Bi  Bi3  1  0.61433211  0.61433211  0.75000000  1.0
  O  O4  1  1.36702923  -0.20675028  0.25538510  1.0
  O  O5  1  1.20675028  -0.36702923  0.75538510  1.0
  O  O6  1  0.79324972  0.36702923  0.24461490  1.0
  O  O7  1  0.63297077  0.20675028  0.74461490  1.0
