# generated using pymatgen
data_TaMnSi
_symmetry_space_group_name_H-M   'P 1'
_cell_length_a   7.26444140
_cell_length_b   7.26444140
_cell_length_c   7.26444140
_cell_angle_alpha   122.23530263
_cell_angle_beta   81.70392895
_cell_angle_gamma   127.65394089
_symmetry_Int_Tables_number   1
_chemical_formula_structural   TaMnSi
_chemical_formula_sum   'Ta6 Mn6 Si6'
_cell_volume   247.11474991
_cell_formula_units_Z   6
loop_
 _symmetry_equiv_pos_site_id
 _symmetry_equiv_pos_as_xyz
  1  'x, y, z'
loop_
 _atom_site_type_symbol
 _atom_site_label
 _atom_site_symmetry_multiplicity
 _atom_site_fract_x
 _atom_site_fract_y
 _atom_site_fract_z
 _atom_site_occupancy
  Ta  Ta0  1  0.75624117  1.22455815  1.03168302  1.0
  Ta  Ta1  1  1.19287513  1.72455815  0.96831698  1.0
  Ta  Ta2  1  0.34005610  1.08872866  0.75132745  1.0
  Ta  Ta3  1  1.33740121  1.58872866  1.24867255  1.0
  Ta  Ta4  1  1.15283746  1.20452918  0.44830828  1.0
  Ta  Ta5  1  0.75622090  0.70452918  0.55169172  1.0
  Si  Si6  1  0.42140811  0.25944826  0.17261286  1.0
  Si  Si7  1  1.08683540  0.75944826  0.33804015  1.0
  Si  Si8  1  0.42140811  0.74879525  0.66195985  1.0
  Si  Si9  1  1.08683540  1.24879525  0.82738714  1.0
  Si  Si10  1  0.72434436  0.99746658  1.22687778  1.0
  Si  Si11  1  0.77058880  1.49746658  0.77312222  1.0
  Mn  Mn12  1  -0.00153028  -0.00153028  -0.00000000  1.0
  Mn  Mn13  1  -0.00153028  0.49846972  0.50000000  1.0
  Mn  Mn14  1  0.50600132  0.15959942  0.40779654  1.0
  Mn  Mn15  1  0.75180288  0.65959942  0.15359810  1.0
  Mn  Mn16  1  0.75180288  1.09820478  0.59220346  1.0
  Mn  Mn17  1  0.50600132  0.59820478  0.84640190  1.0
