# generated using pymatgen
data_RbS
_symmetry_space_group_name_H-M   'P 1'
_cell_length_a   5.07262477
_cell_length_b   4.84715095
_cell_length_c   9.28199871
_cell_angle_alpha   90.00000000
_cell_angle_beta   144.87349976
_cell_angle_gamma   90.00000000
_symmetry_Int_Tables_number   1
_chemical_formula_structural   RbS
_chemical_formula_sum   'Rb2 S2'
_cell_volume   131.31618714
_cell_formula_units_Z   2
loop_
 _symmetry_equiv_pos_site_id
 _symmetry_equiv_pos_as_xyz
  1  'x, y, z'
loop_
 _atom_site_type_symbol
 _atom_site_label
 _atom_site_symmetry_multiplicity
 _atom_site_fract_x
 _atom_site_fract_y
 _atom_site_fract_z
 _atom_site_occupancy
  Rb  Rb0  1  0.93837234  0.75000000  0.29241530  1.0
  Rb  Rb1  1  0.06162766  0.25000000  0.70758470  1.0
  S  S2  1  0.90142957  0.75000000  0.93398172  1.0
  S  S3  1  0.09857043  0.25000000  0.06601828  1.0
