# generated using pymatgen
data_NaN
_symmetry_space_group_name_H-M   'P 1'
_cell_length_a   6.15782693
_cell_length_b   5.02775236
_cell_length_c   6.15589633
_cell_angle_alpha   65.92169539
_cell_angle_beta   48.19677610
_cell_angle_gamma   65.88152851
_symmetry_Int_Tables_number   1
_chemical_formula_structural   NaN
_chemical_formula_sum   'Na4 N4'
_cell_volume   127.06656023
_cell_formula_units_Z   4
loop_
 _symmetry_equiv_pos_site_id
 _symmetry_equiv_pos_as_xyz
  1  'x, y, z'
loop_
 _atom_site_type_symbol
 _atom_site_label
 _atom_site_symmetry_multiplicity
 _atom_site_fract_x
 _atom_site_fract_y
 _atom_site_fract_z
 _atom_site_occupancy
  Na  Na0  1  -0.00001316  -0.00001316  1.50001316  1.0
  Na  Na1  1  0.50001316  0.50001316  0.99998684  1.0
  Na  Na2  1  0.25001316  0.25001316  -0.25001316  1.0
  Na  Na3  1  -0.25001316  0.74998684  0.25001316  1.0
  N  N4  1  0.00000394  0.49999606  1.49999606  1.0
  N  N5  1  0.49999606  0.00000394  1.00000394  1.0
  N  N6  1  -0.75000394  0.75000394  0.75000394  1.0
  N  N7  1  -0.24999606  0.24999606  0.24999606  1.0
