# generated using pymatgen
data_K2NbAgS4
_symmetry_space_group_name_H-M   'P 1'
_cell_length_a   13.37530243
_cell_length_b   11.92341561
_cell_length_c   7.37692448
_cell_angle_alpha   84.22923630
_cell_angle_beta   62.49027290
_cell_angle_gamma   33.28049080
_symmetry_Int_Tables_number   1
_chemical_formula_structural   K2NbAgS4
_chemical_formula_sum   'K4 Nb2 Ag2 S8'
_cell_volume   463.63151215
_cell_formula_units_Z   2
loop_
 _symmetry_equiv_pos_site_id
 _symmetry_equiv_pos_as_xyz
  1  'x, y, z'
loop_
 _atom_site_type_symbol
 _atom_site_label
 _atom_site_symmetry_multiplicity
 _atom_site_fract_x
 _atom_site_fract_y
 _atom_site_fract_z
 _atom_site_occupancy
  K  K0  1  0.07005271  0.07005271  1.42994729  1.0
  K  K1  1  1.42994729  0.42994729  0.07005271  1.0
  K  K2  1  0.17994729  1.17994729  -0.17994729  1.0
  K  K3  1  0.82005271  0.82005271  -0.82005271  1.0
  Nb  Nb4  1  1.25000000  0.25000000  0.25000000  1.0
  Nb  Nb5  1  0.00000000  0.00000000  0.00000000  1.0
  Ag  Ag6  1  0.75000000  0.75000000  0.75000000  1.0
  Ag  Ag7  1  -0.50000000  0.50000000  0.50000000  1.0
  S  S8  1  0.74137002  -0.62587651  1.05440523  1.0
  S  S9  1  0.83010126  1.05440523  -0.62587651  1.0
  S  S10  1  1.05440523  0.83010126  0.74137002  1.0
  S  S11  1  -0.62587651  0.74137002  0.83010126  1.0
  S  S12  1  1.50862998  -0.12412349  0.19559477  1.0
  S  S13  1  1.41989874  0.19559477  -0.12412349  1.0
  S  S14  1  1.19559477  0.41989874  0.50862998  1.0
  S  S15  1  0.87587651  0.50862998  0.41989874  1.0
