# generated using pymatgen
data_CuAu2C4(N2O)2
_symmetry_space_group_name_H-M   'P 1'
_cell_length_a   10.65673794
_cell_length_b   10.65673794
_cell_length_c   3.38289262
_cell_angle_alpha   82.80618894
_cell_angle_beta   97.19381106
_cell_angle_gamma   34.93589718
_symmetry_Int_Tables_number   1
_chemical_formula_structural   CuAu2C4(N2O)2
_chemical_formula_sum   'Cu1 Au2 C4 N4 O2'
_cell_volume   199.94608758
_cell_formula_units_Z   1
loop_
 _symmetry_equiv_pos_site_id
 _symmetry_equiv_pos_as_xyz
  1  'x, y, z'
loop_
 _atom_site_type_symbol
 _atom_site_label
 _atom_site_symmetry_multiplicity
 _atom_site_fract_x
 _atom_site_fract_y
 _atom_site_fract_z
 _atom_site_occupancy
  Cu  Cu0  1  0.00000000  0.00000000  0.00000000  1.0
  Au  Au1  1  1.24962224  0.24962224  0.00000000  1.0
  Au  Au2  1  0.75037776  0.75037776  0.00000000  1.0
  C  C3  1  1.34708374  0.34708374  0.00000000  1.0
  C  C4  1  0.65291626  0.65291626  0.00000000  1.0
  C  C5  1  1.15186822  0.15186822  0.00000000  1.0
  C  C6  1  0.84813178  0.84813178  0.00000000  1.0
  N  N7  1  1.40456221  0.40456221  0.00000000  1.0
  N  N8  1  0.59543779  0.59543779  0.00000000  1.0
  N  N9  1  1.09481638  0.09481638  0.00000000  1.0
  N  N10  1  0.90518362  0.90518362  0.00000000  1.0
  O  O11  1  0.20538260  -0.20538260  0.67427469  1.0
  O  O12  1  0.79461740  -0.79461740  0.32572531  1.0
