# generated using pymatgen
data_MgHN
_symmetry_space_group_name_H-M   'P 1'
_cell_length_a   11.64872258
_cell_length_b   11.64872258
_cell_length_c   3.70727208
_cell_angle_alpha   90.00000000
_cell_angle_beta   90.00000000
_cell_angle_gamma   120.00000000
_symmetry_Int_Tables_number   1
_chemical_formula_structural   MgHN
_chemical_formula_sum   'Mg12 H12 N12'
_cell_volume   435.65399110
_cell_formula_units_Z   12
loop_
 _symmetry_equiv_pos_site_id
 _symmetry_equiv_pos_as_xyz
  1  'x, y, z'
loop_
 _atom_site_type_symbol
 _atom_site_label
 _atom_site_symmetry_multiplicity
 _atom_site_fract_x
 _atom_site_fract_y
 _atom_site_fract_z
 _atom_site_occupancy
  Mg  Mg0  1  0.64416718  0.57331618  0.50000000  1.0
  Mg  Mg1  1  0.57331618  0.92914899  0.50000000  1.0
  Mg  Mg2  1  0.92914899  0.35583282  0.50000000  1.0
  Mg  Mg3  1  0.42668382  0.07085101  0.50000000  1.0
  Mg  Mg4  1  0.35583282  0.42668382  0.50000000  1.0
  Mg  Mg5  1  0.07085101  0.64416718  0.50000000  1.0
  Mg  Mg6  1  0.28222970  0.86577187  0.00000000  1.0
  Mg  Mg7  1  0.86577187  0.58354218  0.00000000  1.0
  Mg  Mg8  1  0.58354218  0.71777030  0.00000000  1.0
  Mg  Mg9  1  0.13422813  0.41645782  0.00000000  1.0
  Mg  Mg10  1  0.71777030  0.13422813  0.00000000  1.0
  Mg  Mg11  1  0.41645782  0.28222970  0.00000000  1.0
  H  H12  1  0.33443183  0.76206853  0.50000000  1.0
  H  H13  1  0.76206853  0.42763670  0.50000000  1.0
  H  H14  1  0.42763670  0.66556817  0.50000000  1.0
  H  H15  1  0.23793147  0.57236330  0.50000000  1.0
  H  H16  1  0.66556817  0.23793147  0.50000000  1.0
  H  H17  1  0.57236330  0.33443183  0.50000000  1.0
  H  H18  1  0.80757785  0.75073104  0.00000000  1.0
  H  H19  1  0.75073104  0.94315318  0.00000000  1.0
  H  H20  1  0.94315318  0.19242215  0.00000000  1.0
  H  H21  1  0.24926896  0.05684682  0.00000000  1.0
  H  H22  1  0.19242215  0.24926896  0.00000000  1.0
  H  H23  1  0.05684682  0.80757785  0.00000000  1.0
  N  N24  1  0.36850375  0.86237968  0.50000000  1.0
  N  N25  1  0.86237968  0.49387593  0.50000000  1.0
  N  N26  1  0.49387593  0.63149625  0.50000000  1.0
  N  N27  1  0.13762032  0.50612407  0.50000000  1.0
  N  N28  1  0.63149625  0.13762032  0.50000000  1.0
  N  N29  1  0.50612407  0.36850375  0.50000000  1.0
  N  N30  1  0.72985546  0.65410846  0.00000000  1.0
  N  N31  1  0.65410846  0.92425300  0.00000000  1.0
  N  N32  1  0.92425300  0.27014454  0.00000000  1.0
  N  N33  1  0.34589154  0.07574700  0.00000000  1.0
  N  N34  1  0.27014454  0.34589154  0.00000000  1.0
  N  N35  1  0.07574700  0.72985546  0.00000000  1.0
