# generated using pymatgen
data_Nb5(SiNi3)2
_symmetry_space_group_name_H-M   'P 1'
_cell_length_a   9.28499796
_cell_length_b   9.28499796
_cell_length_c   9.28499796
_cell_angle_alpha   30.12875394
_cell_angle_beta   30.12875394
_cell_angle_gamma   30.12875394
_symmetry_Int_Tables_number   1
_chemical_formula_structural   Nb5(SiNi3)2
_chemical_formula_sum   'Nb5 Si2 Ni6'
_cell_volume   178.67645944
_cell_formula_units_Z   1
loop_
 _symmetry_equiv_pos_site_id
 _symmetry_equiv_pos_as_xyz
  1  'x, y, z'
loop_
 _atom_site_type_symbol
 _atom_site_label
 _atom_site_symmetry_multiplicity
 _atom_site_fract_x
 _atom_site_fract_y
 _atom_site_fract_z
 _atom_site_occupancy
  Nb  Nb0  1  0.00000000  -0.00000000  0.00000000  1.0
  Nb  Nb1  1  0.64899718  0.64899718  -0.35100282  1.0
  Nb  Nb2  1  0.35100282  0.35100282  -0.64899718  1.0
  Nb  Nb3  1  0.83708219  -0.16291781  -0.16291781  1.0
  Nb  Nb4  1  0.16291781  0.16291781  0.16291781  1.0
  Si  Si5  1  0.54825047  0.54825047  -0.45174953  1.0
  Si  Si6  1  0.45174953  0.45174953  -0.54825047  1.0
  Ni  Ni7  1  0.41970892  -0.08973479  -0.08973479  1.0
  Ni  Ni8  1  0.91026521  -0.08973479  -0.58029108  1.0
  Ni  Ni9  1  0.91026521  -0.58029108  -0.08973479  1.0
  Ni  Ni10  1  0.58029108  0.08973479  0.08973479  1.0
  Ni  Ni11  1  1.08973479  0.08973479  -0.41970892  1.0
  Ni  Ni12  1  1.08973479  -0.41970892  0.08973479  1.0
