# generated using pymatgen
data_KCr3O8
_symmetry_space_group_name_H-M   'P 1'
_cell_length_a   5.17773402
_cell_length_b   5.17773402
_cell_length_c   7.79239490
_cell_angle_alpha   87.01231242
_cell_angle_beta   92.98768758
_cell_angle_gamma   116.31879137
_symmetry_Int_Tables_number   1
_chemical_formula_structural   KCr3O8
_chemical_formula_sum   'K1 Cr3 O8'
_cell_volume   186.89805023
_cell_formula_units_Z   1
loop_
 _symmetry_equiv_pos_site_id
 _symmetry_equiv_pos_as_xyz
  1  'x, y, z'
loop_
 _atom_site_type_symbol
 _atom_site_label
 _atom_site_symmetry_multiplicity
 _atom_site_fract_x
 _atom_site_fract_y
 _atom_site_fract_z
 _atom_site_occupancy
  K  K0  1  0.00000000  -0.00000000  0.50000000  1.0
  Cr  Cr1  1  0.63590580  -0.63590580  0.79590323  1.0
  Cr  Cr2  1  0.36409420  -0.36409420  0.20409677  1.0
  Cr  Cr3  1  0.00000000  0.00000000  0.00000000  1.0
  O  O4  1  0.78617311  -0.78617311  0.93442299  1.0
  O  O5  1  0.21382689  -0.21382689  0.06557701  1.0
  O  O6  1  0.68615055  -0.68615055  0.60047391  1.0
  O  O7  1  0.31384945  -0.31384945  0.39952609  1.0
  O  O8  1  1.27749757  0.21611749  0.82495799  1.0
  O  O9  1  0.78388251  -0.27749757  0.82495799  1.0
  O  O10  1  1.21611749  0.27749757  0.17504201  1.0
  O  O11  1  0.72250243  -0.21611749  0.17504201  1.0
