# generated using pymatgen
data_SrCN2
_symmetry_space_group_name_H-M   'P 1'
_cell_length_a   12.51835086
_cell_length_b   3.98987771
_cell_length_c   5.43789792
_cell_angle_alpha   90.00000000
_cell_angle_beta   90.00000000
_cell_angle_gamma   90.00000000
_symmetry_Int_Tables_number   1
_chemical_formula_structural   SrCN2
_chemical_formula_sum   'Sr4 C4 N8'
_cell_volume   271.60499657
_cell_formula_units_Z   4
loop_
 _symmetry_equiv_pos_site_id
 _symmetry_equiv_pos_as_xyz
  1  'x, y, z'
loop_
 _atom_site_type_symbol
 _atom_site_label
 _atom_site_symmetry_multiplicity
 _atom_site_fract_x
 _atom_site_fract_y
 _atom_site_fract_z
 _atom_site_occupancy
  Sr  Sr0  1  0.13048915  0.75000000  0.88434883  1.0
  Sr  Sr1  1  0.63048915  0.75000000  0.61565117  1.0
  Sr  Sr2  1  0.86951085  0.25000000  0.11565117  1.0
  Sr  Sr3  1  0.36951085  0.25000000  0.38434883  1.0
  C  C4  1  0.37696402  0.75000000  0.88205800  1.0
  C  C5  1  0.87696402  0.75000000  0.61794200  1.0
  C  C6  1  0.62303598  0.25000000  0.11794200  1.0
  C  C7  1  0.12303598  0.25000000  0.38205800  1.0
  N  N8  1  0.42291003  0.75000000  0.68067511  1.0
  N  N9  1  0.92291003  0.75000000  0.81932489  1.0
  N  N10  1  0.57708997  0.25000000  0.31932489  1.0
  N  N11  1  0.07708997  0.25000000  0.18067511  1.0
  N  N12  1  0.32795006  0.75000000  0.08019684  1.0
  N  N13  1  0.82795006  0.75000000  0.41980316  1.0
  N  N14  1  0.67204994  0.25000000  0.91980316  1.0
  N  N15  1  0.17204994  0.25000000  0.58019684  1.0
