# generated using pymatgen
data_Ba3AlO4
_symmetry_space_group_name_H-M   'P 1'
_cell_length_a   10.61703781
_cell_length_b   8.26231609
_cell_length_c   7.34707735
_cell_angle_alpha   90.00000000
_cell_angle_beta   90.00000000
_cell_angle_gamma   90.00000000
_symmetry_Int_Tables_number   1
_chemical_formula_structural   Ba3AlO4
_chemical_formula_sum   'Ba12 Al4 O16'
_cell_volume   644.49534026
_cell_formula_units_Z   4
loop_
 _symmetry_equiv_pos_site_id
 _symmetry_equiv_pos_as_xyz
  1  'x, y, z'
loop_
 _atom_site_type_symbol
 _atom_site_label
 _atom_site_symmetry_multiplicity
 _atom_site_fract_x
 _atom_site_fract_y
 _atom_site_fract_z
 _atom_site_occupancy
  Ba  Ba0  1  0.33428381  0.52656985  0.89718676  1.0
  Ba  Ba1  1  0.83428381  0.97343015  0.60281324  1.0
  Ba  Ba2  1  0.66571619  0.02656985  0.10281324  1.0
  Ba  Ba3  1  0.16571619  0.47343015  0.39718676  1.0
  Ba  Ba4  1  0.66571619  0.47343015  0.10281324  1.0
  Ba  Ba5  1  0.16571619  0.02656985  0.39718676  1.0
  Ba  Ba6  1  0.33428381  0.97343015  0.89718676  1.0
  Ba  Ba7  1  0.83428381  0.52656985  0.60281324  1.0
  Ba  Ba8  1  0.46377820  0.75000000  0.40291576  1.0
  Ba  Ba9  1  0.96377820  0.75000000  0.09708424  1.0
  Ba  Ba10  1  0.53622180  0.25000000  0.59708424  1.0
  Ba  Ba11  1  0.03622180  0.25000000  0.90291576  1.0
  Al  Al12  1  0.10623126  0.75000000  0.68943681  1.0
  Al  Al13  1  0.60623126  0.75000000  0.81056319  1.0
  Al  Al14  1  0.89376874  0.25000000  0.31056319  1.0
  Al  Al15  1  0.39376874  0.25000000  0.18943681  1.0
  O  O16  1  0.07667112  0.56530041  0.80679283  1.0
  O  O17  1  0.57667112  0.93469959  0.69320717  1.0
  O  O18  1  0.92332888  0.06530041  0.19320717  1.0
  O  O19  1  0.42332888  0.43469959  0.30679283  1.0
  O  O20  1  0.92332888  0.43469959  0.19320717  1.0
  O  O21  1  0.42332888  0.06530041  0.30679283  1.0
  O  O22  1  0.07667112  0.93469959  0.80679283  1.0
  O  O23  1  0.57667112  0.56530041  0.69320717  1.0
  O  O24  1  0.01345058  0.75000000  0.48444152  1.0
  O  O25  1  0.51345058  0.75000000  0.01555848  1.0
  O  O26  1  0.98654942  0.25000000  0.51555848  1.0
  O  O27  1  0.48654942  0.25000000  0.98444152  1.0
  O  O28  1  0.27044596  0.75000000  0.62798462  1.0
  O  O29  1  0.77044596  0.75000000  0.87201538  1.0
  O  O30  1  0.72955404  0.25000000  0.37201538  1.0
  O  O31  1  0.22955404  0.25000000  0.12798462  1.0
