# generated using pymatgen
data_Ba5Yb2ZrAl2O13
_symmetry_space_group_name_H-M   'P 1'
_cell_length_a   5.99378569
_cell_length_b   5.99378569
_cell_length_c   25.18884229
_cell_angle_alpha   90.00000000
_cell_angle_beta   90.00000000
_cell_angle_gamma   120.00000000
_symmetry_Int_Tables_number   1
_chemical_formula_structural   Ba5Yb2ZrAl2O13
_chemical_formula_sum   'Ba10 Yb4 Zr2 Al4 O26'
_cell_volume   783.68450574
_cell_formula_units_Z   2
loop_
 _symmetry_equiv_pos_site_id
 _symmetry_equiv_pos_as_xyz
  1  'x, y, z'
loop_
 _atom_site_type_symbol
 _atom_site_label
 _atom_site_symmetry_multiplicity
 _atom_site_fract_x
 _atom_site_fract_y
 _atom_site_fract_z
 _atom_site_occupancy
  Ba  Ba0  1  0.33333333  0.66666667  0.95887880  1.0
  Ba  Ba1  1  0.33333333  0.66666667  0.54112120  1.0
  Ba  Ba2  1  0.66666667  0.33333333  0.45887880  1.0
  Ba  Ba3  1  0.66666667  0.33333333  0.04112120  1.0
  Ba  Ba4  1  0.00000000  0.00000000  0.36317084  1.0
  Ba  Ba5  1  0.00000000  -0.00000000  0.13682916  1.0
  Ba  Ba6  1  0.00000000  0.00000000  0.86317084  1.0
  Ba  Ba7  1  -0.00000000  -0.00000000  0.63682916  1.0
  Ba  Ba8  1  0.33333333  0.66666667  0.25000000  1.0
  Ba  Ba9  1  0.66666667  0.33333333  0.75000000  1.0
  Yb  Yb10  1  0.33333333  0.66666667  0.39620889  1.0
  Yb  Yb11  1  0.33333333  0.66666667  0.10379111  1.0
  Yb  Yb12  1  0.66666667  0.33333333  0.89620889  1.0
  Yb  Yb13  1  0.66666667  0.33333333  0.60379111  1.0
  Zr  Zr14  1  -0.00000000  -0.00000000  0.50000000  1.0
  Zr  Zr15  1  -0.00000000  -0.00000000  0.00000000  1.0
  Al  Al16  1  0.33333333  0.66666667  0.81909444  1.0
  Al  Al17  1  0.33333333  0.66666667  0.68090556  1.0
  Al  Al18  1  0.66666667  0.33333333  0.31909444  1.0
  Al  Al19  1  0.66666667  0.33333333  0.18090556  1.0
  O  O20  1  0.16259372  0.83740628  0.45015268  1.0
  O  O21  1  0.16259372  0.83740628  0.04984732  1.0
  O  O22  1  0.16259372  0.32518744  0.45015268  1.0
  O  O23  1  0.16259372  0.32518744  0.04984732  1.0
  O  O24  1  0.83740628  0.16259372  0.95015268  1.0
  O  O25  1  0.83740628  0.16259372  0.54984732  1.0
  O  O26  1  0.83740628  0.67481256  0.95015268  1.0
  O  O27  1  0.83740628  0.67481256  0.54984732  1.0
  O  O28  1  0.67481256  0.83740628  0.45015268  1.0
  O  O29  1  0.67481256  0.83740628  0.04984732  1.0
  O  O30  1  0.32518744  0.16259372  0.95015268  1.0
  O  O31  1  0.32518744  0.16259372  0.54984732  1.0
  O  O32  1  0.50444748  0.49555252  0.34178726  1.0
  O  O33  1  0.50444748  0.49555252  0.15821274  1.0
  O  O34  1  0.50444748  0.00889497  0.34178726  1.0
  O  O35  1  0.50444748  0.00889497  0.15821274  1.0
  O  O36  1  0.49555252  0.50444748  0.84178726  1.0
  O  O37  1  0.49555252  0.50444748  0.65821274  1.0
  O  O38  1  0.49555252  0.99110503  0.84178726  1.0
  O  O39  1  0.49555252  0.99110503  0.65821274  1.0
  O  O40  1  0.99110503  0.49555252  0.34178726  1.0
  O  O41  1  0.99110503  0.49555252  0.15821274  1.0
  O  O42  1  0.00889497  0.50444748  0.84178726  1.0
  O  O43  1  0.00889497  0.50444748  0.65821274  1.0
  O  O44  1  0.33333333  0.66666667  0.75000000  1.0
  O  O45  1  0.66666667  0.33333333  0.25000000  1.0
