# generated using pymatgen
data_BaPPt
_symmetry_space_group_name_H-M   'P 1'
_cell_length_a   6.60587226
_cell_length_b   6.60587226
_cell_length_c   6.60587226
_cell_angle_alpha   90.00000000
_cell_angle_beta   90.00000000
_cell_angle_gamma   90.00000000
_symmetry_Int_Tables_number   1
_chemical_formula_structural   BaPPt
_chemical_formula_sum   'Ba4 P4 Pt4'
_cell_volume   288.26406945
_cell_formula_units_Z   4
loop_
 _symmetry_equiv_pos_site_id
 _symmetry_equiv_pos_as_xyz
  1  'x, y, z'
loop_
 _atom_site_type_symbol
 _atom_site_label
 _atom_site_symmetry_multiplicity
 _atom_site_fract_x
 _atom_site_fract_y
 _atom_site_fract_z
 _atom_site_occupancy
  Ba  Ba0  1  0.14083153  0.64083153  0.85916847  1.0
  Ba  Ba1  1  0.64083153  0.85916847  0.14083153  1.0
  Ba  Ba2  1  0.85916847  0.14083153  0.64083153  1.0
  Ba  Ba3  1  0.35916847  0.35916847  0.35916847  1.0
  P  P4  1  0.41661760  0.91661760  0.58338240  1.0
  P  P5  1  0.91661760  0.58338240  0.41661760  1.0
  P  P6  1  0.58338240  0.41661760  0.91661760  1.0
  P  P7  1  0.08338240  0.08338240  0.08338240  1.0
  Pt  Pt8  1  0.84897931  0.34897931  0.15102069  1.0
  Pt  Pt9  1  0.34897931  0.15102069  0.84897931  1.0
  Pt  Pt10  1  0.15102069  0.84897931  0.34897931  1.0
  Pt  Pt11  1  0.65102069  0.65102069  0.65102069  1.0
