# generated using pymatgen
data_KSn2(PO4)3
_symmetry_space_group_name_H-M   'P 1'
_cell_length_a   9.40855514
_cell_length_b   9.40855514
_cell_length_c   9.40855514
_cell_angle_alpha   54.74567377
_cell_angle_beta   54.74567377
_cell_angle_gamma   54.74567377
_symmetry_Int_Tables_number   1
_chemical_formula_structural   KSn2(PO4)3
_chemical_formula_sum   'K2 Sn4 P6 O24'
_cell_volume   516.84616228
_cell_formula_units_Z   2
loop_
 _symmetry_equiv_pos_site_id
 _symmetry_equiv_pos_as_xyz
  1  'x, y, z'
loop_
 _atom_site_type_symbol
 _atom_site_label
 _atom_site_symmetry_multiplicity
 _atom_site_fract_x
 _atom_site_fract_y
 _atom_site_fract_z
 _atom_site_occupancy
  K  K0  1  1.00000000  0.00000000  0.00000000  1.0
  K  K1  1  0.50000000  0.50000000  0.50000000  1.0
  Sn  Sn2  1  0.84835761  -0.15164239  -0.15164239  1.0
  Sn  Sn3  1  0.34835761  0.34835761  0.34835761  1.0
  Sn  Sn4  1  0.65164239  0.65164239  -0.34835761  1.0
  Sn  Sn5  1  1.15164239  0.15164239  0.15164239  1.0
  P  P6  1  0.46117022  0.75000000  0.03882978  1.0
  P  P7  1  0.96117022  -0.46117022  0.25000000  1.0
  P  P8  1  0.25000000  0.96117022  -0.46117022  1.0
  P  P9  1  0.75000000  1.03882978  -0.53882978  1.0
  P  P10  1  0.53882978  0.25000000  -0.03882978  1.0
  P  P11  1  1.03882978  0.46117022  -0.25000000  1.0
  O  O12  1  0.74510214  1.02211523  -0.36213920  1.0
  O  O13  1  1.24510214  0.13786080  -0.47788477  1.0
  O  O14  1  0.86213920  0.47788477  -0.24510214  1.0
  O  O15  1  0.36213920  0.25489786  -0.02211523  1.0
  O  O16  1  0.97788477  0.36213920  -0.74510214  1.0
  O  O17  1  0.47788477  0.75489786  -0.13786080  1.0
  O  O18  1  0.25489786  0.97788477  -0.63786080  1.0
  O  O19  1  0.75489786  0.86213920  -0.52211523  1.0
  O  O20  1  0.63786080  0.74510214  0.02211523  1.0
  O  O21  1  1.13786080  -0.47788477  0.24510214  1.0
  O  O22  1  0.52211523  0.24510214  0.13786080  1.0
  O  O23  1  1.02211523  0.63786080  -0.25489786  1.0
  O  O24  1  0.71035535  0.07271969  -0.07143513  1.0
  O  O25  1  1.21035535  0.42856487  -0.42728031  1.0
  O  O26  1  0.57143513  0.42728031  -0.21035535  1.0
  O  O27  1  1.07143513  0.28964465  -0.07271969  1.0
  O  O28  1  0.92728031  0.07143513  0.28964465  1.0
  O  O29  1  0.42728031  0.78964465  -0.42856487  1.0
  O  O30  1  1.28964465  -0.07271969  0.07143513  1.0
  O  O31  1  0.78964465  0.57143513  -0.57271969  1.0
  O  O32  1  0.92856487  -0.28964465  0.07271969  1.0
  O  O33  1  0.42856487  0.57271969  0.21035535  1.0
  O  O34  1  0.57271969  1.21035535  -0.57143513  1.0
  O  O35  1  1.07271969  -0.07143513  -0.28964465  1.0
