# generated using pymatgen
data_Hf4Ni
_symmetry_space_group_name_H-M   'P 1'
_cell_length_a   6.85872809
_cell_length_b   6.85872809
_cell_length_c   6.85872809
_cell_angle_alpha   60.00000000
_cell_angle_beta   60.00000000
_cell_angle_gamma   60.00000000
_symmetry_Int_Tables_number   1
_chemical_formula_structural   Hf4Ni
_chemical_formula_sum   'Hf8 Ni2'
_cell_volume   228.14752437
_cell_formula_units_Z   2
loop_
 _symmetry_equiv_pos_site_id
 _symmetry_equiv_pos_as_xyz
  1  'x, y, z'
loop_
 _atom_site_type_symbol
 _atom_site_label
 _atom_site_symmetry_multiplicity
 _atom_site_fract_x
 _atom_site_fract_y
 _atom_site_fract_z
 _atom_site_occupancy
  Hf  Hf0  1  -0.10962462  0.89037538  0.32887385  1.0
  Hf  Hf1  1  0.89037538  -0.67112615  0.89037538  1.0
  Hf  Hf2  1  0.35962462  0.35962462  0.35962462  1.0
  Hf  Hf3  1  -0.07887385  0.35962462  0.35962462  1.0
  Hf  Hf4  1  -0.67112615  0.89037538  0.89037538  1.0
  Hf  Hf5  1  0.89037538  -0.10962462  0.89037538  1.0
  Hf  Hf6  1  0.35962462  -0.07887385  0.35962462  1.0
  Hf  Hf7  1  0.35962462  0.35962462  -0.07887385  1.0
  Ni  Ni8  1  0.50000000  0.50000000  -0.50000000  1.0
  Ni  Ni9  1  0.75000000  -0.25000000  0.75000000  1.0
