# generated using pymatgen
data_K3GaS3
_symmetry_space_group_name_H-M   'P 1'
_cell_length_a   7.82760432
_cell_length_b   12.95681370
_cell_length_c   10.02955498
_cell_angle_alpha   90.00000000
_cell_angle_beta   127.27026442
_cell_angle_gamma   90.00000000
_symmetry_Int_Tables_number   1
_chemical_formula_structural   K3GaS3
_chemical_formula_sum   'K12 Ga4 S12'
_cell_volume   809.47987910
_cell_formula_units_Z   4
loop_
 _symmetry_equiv_pos_site_id
 _symmetry_equiv_pos_as_xyz
  1  'x, y, z'
loop_
 _atom_site_type_symbol
 _atom_site_label
 _atom_site_symmetry_multiplicity
 _atom_site_fract_x
 _atom_site_fract_y
 _atom_site_fract_z
 _atom_site_occupancy
  K  K0  1  0.83909219  0.68778857  0.06184643  1.0
  K  K1  1  0.83909219  0.81221143  0.56184643  1.0
  K  K2  1  0.16090781  0.18778857  0.43815357  1.0
  K  K3  1  0.16090781  0.31221143  0.93815357  1.0
  K  K4  1  0.67709406  0.10483228  0.39813240  1.0
  K  K5  1  0.67709406  0.39516772  0.89813240  1.0
  K  K6  1  0.32290594  0.60483228  0.10186760  1.0
  K  K7  1  0.32290594  0.89516772  0.60186760  1.0
  K  K8  1  0.62888316  0.38149921  0.47455883  1.0
  K  K9  1  0.62888316  0.11850079  0.97455883  1.0
  K  K10  1  0.37111684  0.88149921  0.02544117  1.0
  K  K11  1  0.37111684  0.61850079  0.52544117  1.0
  Ga  Ga12  1  0.94254532  0.43423560  0.33890982  1.0
  Ga  Ga13  1  0.94254532  0.06576440  0.83890982  1.0
  Ga  Ga14  1  0.05745468  0.93423560  0.16109018  1.0
  Ga  Ga15  1  0.05745468  0.56576440  0.66109018  1.0
  S  S16  1  0.86741664  0.95149605  0.26349658  1.0
  S  S17  1  0.86741664  0.54850395  0.76349658  1.0
  S  S18  1  0.13258336  0.45149605  0.23650342  1.0
  S  S19  1  0.13258336  0.04850395  0.73650342  1.0
  S  S20  1  0.82728666  0.90410150  0.86628729  1.0
  S  S21  1  0.82728666  0.59589850  0.36628729  1.0
  S  S22  1  0.17271334  0.40410150  0.63371271  1.0
  S  S23  1  0.17271334  0.09589850  0.13371271  1.0
  S  S24  1  0.68242929  0.31081365  0.20293164  1.0
  S  S25  1  0.68242929  0.18918635  0.70293164  1.0
  S  S26  1  0.31757071  0.81081365  0.29706836  1.0
  S  S27  1  0.31757071  0.68918635  0.79706836  1.0
