# generated using pymatgen
data_GaP
_symmetry_space_group_name_H-M   'P 1'
_cell_length_a   3.87903864
_cell_length_b   3.87903864
_cell_length_c   6.39206239
_cell_angle_alpha   90.00000000
_cell_angle_beta   90.00000000
_cell_angle_gamma   120.00000000
_symmetry_Int_Tables_number   1
_chemical_formula_structural   GaP
_chemical_formula_sum   'Ga2 P2'
_cell_volume   83.29517565
_cell_formula_units_Z   2
loop_
 _symmetry_equiv_pos_site_id
 _symmetry_equiv_pos_as_xyz
  1  'x, y, z'
loop_
 _atom_site_type_symbol
 _atom_site_label
 _atom_site_symmetry_multiplicity
 _atom_site_fract_x
 _atom_site_fract_y
 _atom_site_fract_z
 _atom_site_occupancy
  Ga  Ga0  1  0.66666667  0.33333333  0.49998067  1.0
  Ga  Ga1  1  0.33333333  0.66666667  -0.00001933  1.0
  P  P2  1  0.66666667  0.33333333  0.87401933  1.0
  P  P3  1  0.33333333  0.66666667  0.37401933  1.0
