# generated using pymatgen
data_SrN
_symmetry_space_group_name_H-M   'P 1'
_cell_length_a   7.56815811
_cell_length_b   3.79115928
_cell_length_c   5.39785900
_cell_angle_alpha   90.00000000
_cell_angle_beta   90.00000000
_cell_angle_gamma   90.00000000
_symmetry_Int_Tables_number   1
_chemical_formula_structural   SrN
_chemical_formula_sum   'Sr4 N4'
_cell_volume   154.87587162
_cell_formula_units_Z   4
loop_
 _symmetry_equiv_pos_site_id
 _symmetry_equiv_pos_as_xyz
  1  'x, y, z'
loop_
 _atom_site_type_symbol
 _atom_site_label
 _atom_site_symmetry_multiplicity
 _atom_site_fract_x
 _atom_site_fract_y
 _atom_site_fract_z
 _atom_site_occupancy
  Sr  Sr0  1  0.37504909  0.75000000  0.24997112  1.0
  Sr  Sr1  1  0.87504909  0.75000000  0.25002888  1.0
  Sr  Sr2  1  0.62495091  0.25000000  0.75002888  1.0
  Sr  Sr3  1  0.12495091  0.25000000  0.74997112  1.0
  N  N4  1  0.37495370  0.75000000  0.74995947  1.0
  N  N5  1  0.87495370  0.75000000  0.75004053  1.0
  N  N6  1  0.62504630  0.25000000  0.25004053  1.0
  N  N7  1  0.12504630  0.25000000  0.24995947  1.0
