# generated using pymatgen
data_SnSe2(Cl4O)2
_symmetry_space_group_name_H-M   'P 1'
_cell_length_a   6.92010467
_cell_length_b   6.92010467
_cell_length_c   17.14053408
_cell_angle_alpha   85.79666069
_cell_angle_beta   94.20333931
_cell_angle_gamma   89.16821357
_symmetry_Int_Tables_number   1
_chemical_formula_structural   SnSe2(Cl4O)2
_chemical_formula_sum   'Sn2 Se4 Cl16 O4'
_cell_volume   816.25030497
_cell_formula_units_Z   2
loop_
 _symmetry_equiv_pos_site_id
 _symmetry_equiv_pos_as_xyz
  1  'x, y, z'
loop_
 _atom_site_type_symbol
 _atom_site_label
 _atom_site_symmetry_multiplicity
 _atom_site_fract_x
 _atom_site_fract_y
 _atom_site_fract_z
 _atom_site_occupancy
  Sn  Sn0  1  0.80416427  -0.19583573  0.25000000  1.0
  Sn  Sn1  1  1.19583573  0.19583573  0.75000000  1.0
  Se  Se2  1  0.21412826  -0.10982372  0.36288526  1.0
  Se  Se3  1  1.10982372  0.78587174  0.86288526  1.0
  Se  Se4  1  0.89017628  -0.78587174  0.13711474  1.0
  Se  Se5  1  1.78587174  0.10982372  0.63711474  1.0
  Cl  Cl6  1  0.64267568  -0.35111085  0.14389053  1.0
  Cl  Cl7  1  1.35111085  0.35732432  0.64389053  1.0
  Cl  Cl8  1  0.64888915  -0.35732432  0.35610947  1.0
  Cl  Cl9  1  1.35732432  0.35111085  0.85610947  1.0
  Cl  Cl10  1  1.69254403  0.18613913  0.03191407  1.0
  Cl  Cl11  1  0.81386087  -0.69254403  0.53191407  1.0
  Cl  Cl12  1  1.18613913  0.69254403  0.46808593  1.0
  Cl  Cl13  1  0.30745597  -0.18613913  0.96808593  1.0
  Cl  Cl14  1  1.59337977  0.09306363  0.24155419  1.0
  Cl  Cl15  1  0.90693637  -0.59337977  0.74155419  1.0
  Cl  Cl16  1  1.09306363  0.59337977  0.25844581  1.0
  Cl  Cl17  1  0.40662023  -0.09306363  0.75844581  1.0
  Cl  Cl18  1  1.30643426  0.14749245  0.42291005  1.0
  Cl  Cl19  1  0.85250755  -0.30643426  0.92291005  1.0
  Cl  Cl20  1  1.14749245  0.30643426  0.07708995  1.0
  Cl  Cl21  1  0.69356574  -0.14749245  0.57708995  1.0
  O  O22  1  0.96658751  -0.01521165  0.16448788  1.0
  O  O23  1  1.01521165  0.03341249  0.66448788  1.0
  O  O24  1  0.98478835  -0.03341249  0.33551212  1.0
  O  O25  1  1.03341249  0.01521165  0.83551212  1.0
