# generated using pymatgen
data_Mg6TiH16
_symmetry_space_group_name_H-M   'P 1'
_cell_length_a   6.69971847
_cell_length_b   6.69971847
_cell_length_c   6.69971847
_cell_angle_alpha   60.00000000
_cell_angle_beta   60.00000000
_cell_angle_gamma   60.00000000
_symmetry_Int_Tables_number   1
_chemical_formula_structural   Mg6TiH16
_chemical_formula_sum   'Mg6 Ti1 H16'
_cell_volume   212.64474934
_cell_formula_units_Z   1
loop_
 _symmetry_equiv_pos_site_id
 _symmetry_equiv_pos_as_xyz
  1  'x, y, z'
loop_
 _atom_site_type_symbol
 _atom_site_label
 _atom_site_symmetry_multiplicity
 _atom_site_fract_x
 _atom_site_fract_y
 _atom_site_fract_z
 _atom_site_occupancy
  Mg  Mg0  1  -0.00000000  -0.00000000  0.50000000  1.0
  Mg  Mg1  1  0.50000000  1.00000000  -0.50000000  1.0
  Mg  Mg2  1  1.00000000  0.50000000  -0.50000000  1.0
  Mg  Mg3  1  0.50000000  -0.50000000  1.00000000  1.0
  Mg  Mg4  1  -0.00000000  1.50000000  0.00000000  1.0
  Mg  Mg5  1  1.50000000  -0.00000000  0.00000000  1.0
  Ti  Ti6  1  0.00000000  0.00000000  0.00000000  1.0
  H  H7  1  0.88707757  0.88707757  -0.66123270  1.0
  H  H8  1  0.88707757  0.33876730  -0.11292243  1.0
  H  H9  1  0.33876730  0.88707757  -0.11292243  1.0
  H  H10  1  0.88707757  0.88707757  -0.11292243  1.0
  H  H11  1  1.11292243  0.11292243  0.66123270  1.0
  H  H12  1  1.11292243  0.66123270  0.11292243  1.0
  H  H13  1  1.66123270  0.11292243  0.11292243  1.0
  H  H14  1  1.11292243  0.11292243  0.11292243  1.0
  H  H15  1  0.64331520  0.64331520  1.07005439  1.0
  H  H16  1  0.64331520  1.07005439  -0.35668480  1.0
  H  H17  1  1.07005439  0.64331520  0.64331520  1.0
  H  H18  1  0.64331520  0.64331520  -0.35668480  1.0
  H  H19  1  0.35668480  1.35668480  -0.07005439  1.0
  H  H20  1  1.35668480  -0.07005439  0.35668480  1.0
  H  H21  1  -0.07005439  1.35668480  0.35668480  1.0
  H  H22  1  1.35668480  0.35668480  0.35668480  1.0
