# generated using pymatgen
data_SrSn3Sb4
_symmetry_space_group_name_H-M   'P 1'
_cell_length_a   10.20816225
_cell_length_b   4.43808514
_cell_length_c   23.37117623
_cell_angle_alpha   90.00000000
_cell_angle_beta   90.00000000
_cell_angle_gamma   90.00000000
_symmetry_Int_Tables_number   1
_chemical_formula_structural   SrSn3Sb4
_chemical_formula_sum   'Sr4 Sn12 Sb16'
_cell_volume   1058.82396836
_cell_formula_units_Z   4
loop_
 _symmetry_equiv_pos_site_id
 _symmetry_equiv_pos_as_xyz
  1  'x, y, z'
loop_
 _atom_site_type_symbol
 _atom_site_label
 _atom_site_symmetry_multiplicity
 _atom_site_fract_x
 _atom_site_fract_y
 _atom_site_fract_z
 _atom_site_occupancy
  Sr  Sr0  1  0.93649709  0.75000000  0.13020827  1.0
  Sr  Sr1  1  0.43649709  0.75000000  0.36979173  1.0
  Sr  Sr2  1  0.06350291  0.25000000  0.86979173  1.0
  Sr  Sr3  1  0.56350291  0.25000000  0.63020827  1.0
  Sn  Sn4  1  0.72144189  0.75000000  0.25116308  1.0
  Sn  Sn5  1  0.22144189  0.75000000  0.24883692  1.0
  Sn  Sn6  1  0.27855811  0.25000000  0.74883692  1.0
  Sn  Sn7  1  0.77855811  0.25000000  0.75116308  1.0
  Sn  Sn8  1  0.64804573  0.75000000  0.01080089  1.0
  Sn  Sn9  1  0.14804573  0.75000000  0.48919911  1.0
  Sn  Sn10  1  0.35195427  0.25000000  0.98919911  1.0
  Sn  Sn11  1  0.85195427  0.25000000  0.51080089  1.0
  Sn  Sn12  1  0.54385126  0.75000000  0.84971547  1.0
  Sn  Sn13  1  0.04385126  0.75000000  0.65028453  1.0
  Sn  Sn14  1  0.45614874  0.25000000  0.15028453  1.0
  Sn  Sn15  1  0.95614874  0.25000000  0.34971547  1.0
  Sb  Sb16  1  0.96831547  0.75000000  0.76822791  1.0
  Sb  Sb17  1  0.46831547  0.75000000  0.73177209  1.0
  Sb  Sb18  1  0.03168453  0.25000000  0.23177209  1.0
  Sb  Sb19  1  0.53168453  0.25000000  0.26822791  1.0
  Sb  Sb20  1  0.79840915  0.75000000  0.59250727  1.0
  Sb  Sb21  1  0.29840915  0.75000000  0.90749273  1.0
  Sb  Sb22  1  0.20159085  0.25000000  0.40749273  1.0
  Sb  Sb23  1  0.70159085  0.25000000  0.09250727  1.0
  Sb  Sb24  1  0.78698100  0.75000000  0.37561824  1.0
  Sb  Sb25  1  0.28698100  0.75000000  0.12438176  1.0
  Sb  Sb26  1  0.21301900  0.25000000  0.62438176  1.0
  Sb  Sb27  1  0.71301900  0.25000000  0.87561824  1.0
  Sb  Sb28  1  0.42888598  0.75000000  0.52875071  1.0
  Sb  Sb29  1  0.92888598  0.75000000  0.97124929  1.0
  Sb  Sb30  1  0.57111402  0.25000000  0.47124929  1.0
  Sb  Sb31  1  0.07111402  0.25000000  0.02875071  1.0
