# generated using pymatgen
data_B4P2Br3
_symmetry_space_group_name_H-M   'P 1'
_cell_length_a   7.70618432
_cell_length_b   7.68637223
_cell_length_c   9.11478515
_cell_angle_alpha   96.60308459
_cell_angle_beta   99.36190975
_cell_angle_gamma   95.72607400
_symmetry_Int_Tables_number   1
_chemical_formula_structural   B4P2Br3
_chemical_formula_sum   'B8 P4 Br6'
_cell_volume   525.28743945
_cell_formula_units_Z   2
loop_
 _symmetry_equiv_pos_site_id
 _symmetry_equiv_pos_as_xyz
  1  'x, y, z'
loop_
 _atom_site_type_symbol
 _atom_site_label
 _atom_site_symmetry_multiplicity
 _atom_site_fract_x
 _atom_site_fract_y
 _atom_site_fract_z
 _atom_site_occupancy
  B  B0  1  -0.44362419  -0.46193048  -0.41486724  1.0
  B  B1  1  -0.55637581  -0.53806952  -0.58513276  1.0
  B  B2  1  -0.30130419  -0.27277288  -0.32863927  1.0
  B  B3  1  -0.69869581  -0.72722712  -0.67136073  1.0
  B  B4  1  -0.26726168  -0.34960069  -0.15380234  1.0
  B  B5  1  -0.73273832  -0.65039931  -0.84619766  1.0
  B  B6  1  -0.47919089  -0.33528033  -0.25209053  1.0
  B  B7  1  -0.52080911  -0.66471967  -0.74790947  1.0
  P  P8  1  -0.19222641  -0.49792775  -0.32679138  1.0
  P  P9  1  -0.80777359  -0.50207225  -0.67320862  1.0
  P  P10  1  -0.42782381  -0.58136419  -0.22657788  1.0
  P  P11  1  -0.57217619  -0.41863581  -0.77342212  1.0
  Br  Br12  1  -0.21370758  -0.06222249  -0.40204909  1.0
  Br  Br13  1  -0.78629242  -0.93777751  -0.59795091  1.0
  Br  Br14  1  -0.13751667  -0.25730564  -0.95771902  1.0
  Br  Br15  1  -0.86248333  -0.74269436  -0.04228098  1.0
  Br  Br16  1  -0.67614593  -0.22204823  -0.19934763  1.0
  Br  Br17  1  -0.32385407  -0.77795177  -0.80065237  1.0
