# generated using pymatgen
data_CaVSi4O15
_symmetry_space_group_name_H-M   'P 1'
_cell_length_a   8.67918474
_cell_length_b   8.67918474
_cell_length_c   9.20247640
_cell_angle_alpha   90.00000000
_cell_angle_beta   90.00000000
_cell_angle_gamma   75.03330479
_symmetry_Int_Tables_number   1
_chemical_formula_structural   CaVSi4O15
_chemical_formula_sum   'Ca2 V2 Si8 O30'
_cell_volume   669.69016225
_cell_formula_units_Z   2
loop_
 _symmetry_equiv_pos_site_id
 _symmetry_equiv_pos_as_xyz
  1  'x, y, z'
loop_
 _atom_site_type_symbol
 _atom_site_label
 _atom_site_symmetry_multiplicity
 _atom_site_fract_x
 _atom_site_fract_y
 _atom_site_fract_z
 _atom_site_occupancy
  O  O0  1  0.01261907  0.80304890  0.45253323  1.0
  O  O1  1  -0.19695110  1.01261907  0.95253323  1.0
  O  O2  1  0.19695110  0.98738093  0.45253323  1.0
  O  O3  1  -0.01261907  1.19695110  0.95253323  1.0
  O  O4  1  0.02195988  0.79046612  0.09472733  1.0
  O  O5  1  -0.20953388  1.02195988  0.59472733  1.0
  O  O6  1  0.20953388  0.97804012  0.09472733  1.0
  O  O7  1  -0.02195988  1.20953388  0.59472733  1.0
  O  O8  1  -0.11100441  1.62528124  0.27624355  1.0
  O  O9  1  0.62528124  0.88899559  0.77624355  1.0
  O  O10  1  -0.62528124  1.11100441  0.27624355  1.0
  O  O11  1  0.11100441  0.37471876  0.77624355  1.0
  O  O12  1  0.26091083  0.25839756  0.02631692  1.0
  O  O13  1  -0.74160244  1.26091083  0.52631692  1.0
  O  O14  1  0.74160244  0.73908917  0.02631692  1.0
  O  O15  1  -0.26091083  1.74160244  0.52631692  1.0
  O  O16  1  -0.00303503  1.49415951  0.02744493  1.0
  O  O17  1  0.49415951  0.99696497  0.52744493  1.0
  O  O18  1  -0.49415951  1.00303503  0.02744493  1.0
  O  O19  1  0.00303503  0.50584049  0.52744493  1.0
  O  O20  1  0.09579348  0.90420652  0.82916692  1.0
  O  O21  1  -0.09579348  1.09579348  0.32916692  1.0
  O  O22  1  -0.40523367  1.40523367  0.34786681  1.0
  O  O23  1  0.40523367  0.59476633  0.84786681  1.0
  O  O24  1  0.48618485  0.51381515  0.28207668  1.0
  O  O25  1  -0.48618485  1.48618485  0.78207668  1.0
  O  O26  1  0.32351555  0.50342696  0.28906586  1.0
  O  O27  1  -0.49657304  1.32351555  0.78906586  1.0
  O  O28  1  0.49657304  0.67648445  0.28906586  1.0
  O  O29  1  -0.32351555  1.49657304  0.78906586  1.0
  Si  Si30  1  -0.09066653  1.66800242  0.44623748  1.0
  Si  Si31  1  0.66800242  0.90933347  0.94623748  1.0
  Si  Si32  1  -0.66800242  1.09066653  0.44623748  1.0
  Si  Si33  1  0.09066653  0.33199758  0.94623748  1.0
  Si  Si34  1  -0.08843296  1.66109962  0.10525443  1.0
  Si  Si35  1  0.66109962  0.91156704  0.60525443  1.0
  Si  Si36  1  -0.66109962  1.08843296  0.10525443  1.0
  Si  Si37  1  0.08843296  0.33890038  0.60525443  1.0
  Ca  Ca38  1  0.22250197  0.77749803  0.27602306  1.0
  Ca  Ca39  1  -0.22250197  1.22250197  0.77602306  1.0
  V  V40  1  0.02736708  0.97263292  -0.01778094  1.0
  V  V41  1  -0.02736708  1.02736708  0.48221906  1.0
