# generated using pymatgen
data_Ti2B
_symmetry_space_group_name_H-M   'P 1'
_cell_length_a   4.65207096
_cell_length_b   4.65207096
_cell_length_c   4.65207096
_cell_angle_alpha   105.19320298
_cell_angle_beta   105.19320298
_cell_angle_gamma   118.41474742
_symmetry_Int_Tables_number   1
_chemical_formula_structural   Ti2B
_chemical_formula_sum   'Ti4 B2'
_cell_volume   76.06658812
_cell_formula_units_Z   2
loop_
 _symmetry_equiv_pos_site_id
 _symmetry_equiv_pos_as_xyz
  1  'x, y, z'
loop_
 _atom_site_type_symbol
 _atom_site_label
 _atom_site_symmetry_multiplicity
 _atom_site_fract_x
 _atom_site_fract_y
 _atom_site_fract_z
 _atom_site_occupancy
  Ti  Ti0  1  0.83408900  0.33408900  1.16817800  1.0
  Ti  Ti1  1  0.66591100  0.83408900  0.50000000  1.0
  Ti  Ti2  1  1.33408900  1.16591100  1.50000000  1.0
  Ti  Ti3  1  0.16591100  0.66591100  0.83182200  1.0
  B  B4  1  0.25000000  0.25000000  -0.00000000  1.0
  B  B5  1  0.75000000  0.75000000  -0.00000000  1.0
