# generated using pymatgen
data_LiPtF6
_symmetry_space_group_name_H-M   'P 1'
_cell_length_a   5.47222961
_cell_length_b   5.47222961
_cell_length_c   5.47222961
_cell_angle_alpha   56.97117108
_cell_angle_beta   56.97117108
_cell_angle_gamma   56.97117108
_symmetry_Int_Tables_number   1
_chemical_formula_structural   LiPtF6
_chemical_formula_sum   'Li1 Pt1 F6'
_cell_volume   107.77845624
_cell_formula_units_Z   1
loop_
 _symmetry_equiv_pos_site_id
 _symmetry_equiv_pos_as_xyz
  1  'x, y, z'
loop_
 _atom_site_type_symbol
 _atom_site_label
 _atom_site_symmetry_multiplicity
 _atom_site_fract_x
 _atom_site_fract_y
 _atom_site_fract_z
 _atom_site_occupancy
  Li  Li0  1  0.50000000  0.50000000  -0.50000000  1.0
  Pt  Pt1  1  0.00000000  0.00000000  -0.00000000  1.0
  F  F2  1  0.12364449  0.76132113  -0.64246149  1.0
  F  F3  1  0.64246149  -0.12364449  0.23867887  1.0
  F  F4  1  1.23867887  -0.35753851  -0.12364449  1.0
  F  F5  1  0.87635551  0.23867887  -0.35753851  1.0
  F  F6  1  0.35753851  0.12364449  -0.23867887  1.0
  F  F7  1  0.76132113  0.35753851  -0.87635551  1.0
