# generated using pymatgen
data_BaCo(SeO3)2
_symmetry_space_group_name_H-M   'P 1'
_cell_length_a   15.09696266
_cell_length_b   5.52783815
_cell_length_c   7.44907142
_cell_angle_alpha   90.00000000
_cell_angle_beta   90.00000000
_cell_angle_gamma   90.00000000
_symmetry_Int_Tables_number   1
_chemical_formula_structural   BaCo(SeO3)2
_chemical_formula_sum   'Ba4 Co4 Se8 O24'
_cell_volume   621.65157396
_cell_formula_units_Z   4
loop_
 _symmetry_equiv_pos_site_id
 _symmetry_equiv_pos_as_xyz
  1  'x, y, z'
loop_
 _atom_site_type_symbol
 _atom_site_label
 _atom_site_symmetry_multiplicity
 _atom_site_fract_x
 _atom_site_fract_y
 _atom_site_fract_z
 _atom_site_occupancy
  Ba  Ba0  1  0.38329946  0.75000000  0.07017039  1.0
  Ba  Ba1  1  0.88329946  0.75000000  0.42982961  1.0
  Ba  Ba2  1  0.61670054  0.25000000  0.92982961  1.0
  Ba  Ba3  1  0.11670054  0.25000000  0.57017039  1.0
  Co  Co4  1  0.12571263  0.75000000  0.20543372  1.0
  Co  Co5  1  0.62571263  0.75000000  0.29456628  1.0
  Co  Co6  1  0.87428737  0.25000000  0.79456628  1.0
  Co  Co7  1  0.37428737  0.25000000  0.70543372  1.0
  Se  Se8  1  0.48425905  0.75000000  0.62703544  1.0
  Se  Se9  1  0.98425905  0.75000000  0.87296456  1.0
  Se  Se10  1  0.51574095  0.25000000  0.37296456  1.0
  Se  Se11  1  0.01574095  0.25000000  0.12703544  1.0
  Se  Se12  1  0.27012091  0.75000000  0.53131357  1.0
  Se  Se13  1  0.77012091  0.75000000  0.96868643  1.0
  Se  Se14  1  0.72987909  0.25000000  0.46868643  1.0
  Se  Se15  1  0.22987909  0.25000000  0.03131357  1.0
  O  O16  1  0.47455704  0.99003406  0.77809331  1.0
  O  O17  1  0.47455704  0.50996594  0.77809331  1.0
  O  O18  1  0.97455704  0.99003406  0.72190669  1.0
  O  O19  1  0.97455704  0.50996594  0.72190669  1.0
  O  O20  1  0.52544296  0.49003406  0.22190669  1.0
  O  O21  1  0.52544296  0.00996594  0.22190669  1.0
  O  O22  1  0.02544296  0.49003406  0.27809331  1.0
  O  O23  1  0.02544296  0.00996594  0.27809331  1.0
  O  O24  1  0.27487725  0.99331355  0.67801825  1.0
  O  O25  1  0.27487725  0.50668645  0.67801825  1.0
  O  O26  1  0.77487725  0.99331355  0.82198175  1.0
  O  O27  1  0.77487725  0.50668645  0.82198175  1.0
  O  O28  1  0.72512275  0.49331355  0.32198175  1.0
  O  O29  1  0.72512275  0.00668645  0.32198175  1.0
  O  O30  1  0.22512275  0.49331355  0.17801825  1.0
  O  O31  1  0.22512275  0.00668645  0.17801825  1.0
  O  O32  1  0.09369805  0.75000000  0.93156998  1.0
  O  O33  1  0.59369805  0.75000000  0.56843002  1.0
  O  O34  1  0.90630195  0.25000000  0.06843002  1.0
  O  O35  1  0.40630195  0.25000000  0.43156998  1.0
  O  O36  1  0.65749667  0.75000000  0.01553666  1.0
  O  O37  1  0.15749667  0.75000000  0.48446334  1.0
  O  O38  1  0.34250333  0.25000000  0.98446334  1.0
  O  O39  1  0.84250333  0.25000000  0.51553666  1.0
