# generated using pymatgen
data_Sb(Mo3S4)2
_symmetry_space_group_name_H-M   'P 1'
_cell_length_a   6.53173278
_cell_length_b   6.53173278
_cell_length_c   6.53173278
_cell_angle_alpha   90.30408589
_cell_angle_beta   90.30408589
_cell_angle_gamma   90.30408589
_symmetry_Int_Tables_number   1
_chemical_formula_structural   Sb(Mo3S4)2
_chemical_formula_sum   'Sb1 Mo6 S8'
_cell_volume   278.65498185
_cell_formula_units_Z   1
loop_
 _symmetry_equiv_pos_site_id
 _symmetry_equiv_pos_as_xyz
  1  'x, y, z'
loop_
 _atom_site_type_symbol
 _atom_site_label
 _atom_site_symmetry_multiplicity
 _atom_site_fract_x
 _atom_site_fract_y
 _atom_site_fract_z
 _atom_site_occupancy
  Sb  Sb0  1  0.00000000  0.00000000  0.00000000  1.0
  Mo  Mo1  1  0.44111620  0.58307722  -0.22393145  1.0
  Mo  Mo2  1  0.41692278  0.22393145  -0.44111620  1.0
  Mo  Mo3  1  0.22393145  0.55888380  -0.58307722  1.0
  Mo  Mo4  1  0.55888380  0.41692278  -0.77606855  1.0
  Mo  Mo5  1  0.58307722  0.77606855  -0.55888380  1.0
  Mo  Mo6  1  0.77606855  0.44111620  -0.41692278  1.0
  S  S7  1  0.87095374  0.62779190  -0.74118016  1.0
  S  S8  1  0.37220810  0.74118016  -0.87095374  1.0
  S  S9  1  0.74118016  0.12904626  -0.62779190  1.0
  S  S10  1  0.12904626  0.37220810  -0.25881984  1.0
  S  S11  1  0.62779190  0.25881984  -0.12904626  1.0
  S  S12  1  0.25881984  0.87095374  -0.37220810  1.0
  S  S13  1  0.76238050  0.76238050  -0.23761950  1.0
  S  S14  1  1.23761950  1.23761950  0.23761950  1.0
