# generated using pymatgen
data_Cs
_symmetry_space_group_name_H-M   'P 1'
_cell_length_a   10.80845785
_cell_length_b   10.80845785
_cell_length_c   45.30657168
_cell_angle_alpha   90.00000000
_cell_angle_beta   90.00000000
_cell_angle_gamma   109.44236371
_symmetry_Int_Tables_number   1
_chemical_formula_structural   Cs
_chemical_formula_sum   Cs42
_cell_volume   4991.02422186
_cell_formula_units_Z   42
loop_
 _symmetry_equiv_pos_site_id
 _symmetry_equiv_pos_as_xyz
  1  'x, y, z'
loop_
 _atom_site_type_symbol
 _atom_site_label
 _atom_site_symmetry_multiplicity
 _atom_site_fract_x
 _atom_site_fract_y
 _atom_site_fract_z
 _atom_site_occupancy
  Cs  Cs0  1  0.34508727  0.59970690  0.15202677  1.0
  Cs  Cs1  1  -0.40029310  1.34508727  0.84797323  1.0
  Cs  Cs2  1  0.40029310  0.65491273  0.34797323  1.0
  Cs  Cs3  1  -0.34508727  1.40029310  0.65202677  1.0
  Cs  Cs4  1  0.07393918  0.82007254  0.03700622  1.0
  Cs  Cs5  1  -0.17992746  1.07393918  0.96299378  1.0
  Cs  Cs6  1  0.17992746  0.92606082  0.46299378  1.0
  Cs  Cs7  1  -0.07393918  1.17992746  0.53700622  1.0
  Cs  Cs8  1  -0.05562351  1.69635277  0.37533078  1.0
  Cs  Cs9  1  0.69635277  0.94437649  0.62466922  1.0
  Cs  Cs10  1  -0.69635277  1.05562351  0.12466922  1.0
  Cs  Cs11  1  0.05562351  0.30364723  0.87533078  1.0
  Cs  Cs12  1  0.16681374  0.41378135  0.44453801  1.0
  Cs  Cs13  1  -0.58621865  1.16681374  0.55546199  1.0
  Cs  Cs14  1  0.58621865  0.83318626  0.05546199  1.0
  Cs  Cs15  1  -0.16681374  1.58621865  0.94453801  1.0
  Cs  Cs16  1  0.13738100  0.35693323  0.04642375  1.0
  Cs  Cs17  1  -0.64306677  1.13738100  0.95357625  1.0
  Cs  Cs18  1  0.64306677  0.86261900  0.45357625  1.0
  Cs  Cs19  1  -0.13738100  1.64306677  0.54642375  1.0
  Cs  Cs20  1  -0.13454224  1.64247688  0.14944617  1.0
  Cs  Cs21  1  0.64247688  0.86545776  0.85055383  1.0
  Cs  Cs22  1  -0.64247688  1.13454224  0.35055383  1.0
  Cs  Cs23  1  0.13454224  0.35752312  0.64944617  1.0
  Cs  Cs24  1  0.11991125  0.35080299  0.25277402  1.0
  Cs  Cs25  1  -0.64919700  1.11991125  0.74722598  1.0
  Cs  Cs26  1  0.64919700  0.88008875  0.24722598  1.0
  Cs  Cs27  1  -0.11991125  1.64919700  0.75277402  1.0
  Cs  Cs28  1  -0.27271535  1.47191707  0.29211854  1.0
  Cs  Cs29  1  0.47191707  0.72728465  0.70788146  1.0
  Cs  Cs30  1  -0.47191707  1.27271535  0.20788146  1.0
  Cs  Cs31  1  0.27271535  0.52808293  0.79211854  1.0
  Cs  Cs32  1  -0.13519600  1.13715508  0.14504319  1.0
  Cs  Cs33  1  0.13715508  0.86480400  0.85495681  1.0
  Cs  Cs34  1  -0.13715508  1.13519600  0.35495681  1.0
  Cs  Cs35  1  0.13519600  0.86284492  0.64504319  1.0
  Cs  Cs36  1  -0.35979071  1.35990507  0.05120882  1.0
  Cs  Cs37  1  0.35990507  0.64020929  0.94879118  1.0
  Cs  Cs38  1  -0.35990507  1.35979071  0.44879118  1.0
  Cs  Cs39  1  0.35979071  0.64009493  0.55120882  1.0
  Cs  Cs40  1  0.14217872  0.85782128  0.25000000  1.0
  Cs  Cs41  1  -0.14217872  1.14217872  0.75000000  1.0
