# generated using pymatgen
data_RbHCO2
_symmetry_space_group_name_H-M   'P 1'
_cell_length_a   4.72735284
_cell_length_b   9.37576886
_cell_length_c   7.53611449
_cell_angle_alpha   90.00000000
_cell_angle_beta   90.00000000
_cell_angle_gamma   90.00000000
_symmetry_Int_Tables_number   1
_chemical_formula_structural   RbHCO2
_chemical_formula_sum   'Rb4 H4 C4 O8'
_cell_volume   334.01994350
_cell_formula_units_Z   4
loop_
 _symmetry_equiv_pos_site_id
 _symmetry_equiv_pos_as_xyz
  1  'x, y, z'
loop_
 _atom_site_type_symbol
 _atom_site_label
 _atom_site_symmetry_multiplicity
 _atom_site_fract_x
 _atom_site_fract_y
 _atom_site_fract_z
 _atom_site_occupancy
  Rb  Rb0  1  0.07132845  0.75000000  0.00000000  1.0
  Rb  Rb1  1  0.92867155  0.25000000  0.50000000  1.0
  Rb  Rb2  1  0.92867155  0.25000000  0.00000000  1.0
  Rb  Rb3  1  0.07132845  0.75000000  0.50000000  1.0
  H  H4  1  0.44003454  0.02566956  0.75000000  1.0
  H  H5  1  0.55996546  0.97433044  0.25000000  1.0
  H  H6  1  0.44003454  0.47433044  0.25000000  1.0
  H  H7  1  0.55996546  0.52566956  0.75000000  1.0
  C  C8  1  0.62080645  0.94864569  0.75000000  1.0
  C  C9  1  0.37919355  0.05135431  0.25000000  1.0
  C  C10  1  0.62080645  0.55135431  0.25000000  1.0
  C  C11  1  0.37919355  0.44864569  0.75000000  1.0
  O  O12  1  0.55906607  0.81697160  0.75000000  1.0
  O  O13  1  0.44093393  0.18302840  0.25000000  1.0
  O  O14  1  0.55906607  0.68302840  0.25000000  1.0
  O  O15  1  0.44093393  0.31697160  0.75000000  1.0
  O  O16  1  0.86812749  0.00110018  0.75000000  1.0
  O  O17  1  0.13187251  0.99889982  0.25000000  1.0
  O  O18  1  0.86812749  0.49889982  0.25000000  1.0
  O  O19  1  0.13187251  0.50110018  0.75000000  1.0
