# generated using pymatgen
data_Nb2Co(P2O7)3
_symmetry_space_group_name_H-M   'P 1'
_cell_length_a   6.63855895
_cell_length_b   8.08625103
_cell_length_c   17.02006850
_cell_angle_alpha   90.00000000
_cell_angle_beta   112.73958383
_cell_angle_gamma   90.00000000
_symmetry_Int_Tables_number   1
_chemical_formula_structural   Nb2Co(P2O7)3
_chemical_formula_sum   'Nb4 Co2 P12 O42'
_cell_volume   842.63794898
_cell_formula_units_Z   2
loop_
 _symmetry_equiv_pos_site_id
 _symmetry_equiv_pos_as_xyz
  1  'x, y, z'
loop_
 _atom_site_type_symbol
 _atom_site_label
 _atom_site_symmetry_multiplicity
 _atom_site_fract_x
 _atom_site_fract_y
 _atom_site_fract_z
 _atom_site_occupancy
  Nb  Nb0  1  0.70078737  0.98037613  0.16669959  1.0
  Nb  Nb1  1  0.70078737  0.51962387  0.66669959  1.0
  Nb  Nb2  1  0.29921263  0.48037613  0.33330041  1.0
  Nb  Nb3  1  0.29921263  0.01962387  0.83330041  1.0
  Co  Co4  1  0.00000000  0.50000000  0.00000000  1.0
  Co  Co5  1  0.00000000  0.00000000  0.50000000  1.0
  P  P6  1  0.82221346  0.39637289  0.16032626  1.0
  P  P7  1  0.82221346  0.10362711  0.66032626  1.0
  P  P8  1  0.17778654  0.89637289  0.33967374  1.0
  P  P9  1  0.17778654  0.60362711  0.83967374  1.0
  P  P10  1  0.79657492  0.88406630  0.98541723  1.0
  P  P11  1  0.79657492  0.61593370  0.48541723  1.0
  P  P12  1  0.20342508  0.38406630  0.51458277  1.0
  P  P13  1  0.20342508  0.11593370  0.01458277  1.0
  P  P14  1  0.54966154  0.10752030  0.33330453  1.0
  P  P15  1  0.54966154  0.39247970  0.83330453  1.0
  P  P16  1  0.45033846  0.60752030  0.16669547  1.0
  P  P17  1  0.45033846  0.89247970  0.66669547  1.0
  O  O18  1  1.00274516  0.42942650  0.25080544  1.0
  O  O19  1  1.00274516  0.07057350  0.75080544  1.0
  O  O20  1  -0.00274516  0.92942650  0.24919456  1.0
  O  O21  1  -0.00274516  0.57057350  0.74919456  1.0
  O  O22  1  0.85641274  0.48815987  0.09076501  1.0
  O  O23  1  0.85641274  0.01184013  0.59076501  1.0
  O  O24  1  0.14358726  0.98815987  0.40923499  1.0
  O  O25  1  0.14358726  0.51184013  0.90923499  1.0
  O  O26  1  0.83124129  0.78378680  0.45648004  1.0
  O  O27  1  0.83124129  0.71621320  0.95648004  1.0
  O  O28  1  0.16875871  0.28378680  0.04351996  1.0
  O  O29  1  0.16875871  0.21621320  0.54351996  1.0
  O  O30  1  0.79672596  0.20534853  0.14873902  1.0
  O  O31  1  0.79672596  0.29465147  0.64873902  1.0
  O  O32  1  0.20327404  0.70534853  0.35126098  1.0
  O  O33  1  0.20327404  0.79465147  0.85126098  1.0
  O  O34  1  0.73548995  0.12795253  0.41722209  1.0
  O  O35  1  0.73548995  0.37204747  0.91722209  1.0
  O  O36  1  0.26451005  0.62795253  0.08277791  1.0
  O  O37  1  0.26451005  0.87204747  0.58277791  1.0
  O  O38  1  0.61840087  0.07473772  0.25709087  1.0
  O  O39  1  0.61840087  0.42526228  0.75709087  1.0
  O  O40  1  0.38159913  0.57473772  0.24290913  1.0
  O  O41  1  0.38159913  0.92526228  0.74290913  1.0
  O  O42  1  0.59841192  0.97466590  0.91799543  1.0
  O  O43  1  0.59841193  0.52533410  0.41799543  1.0
  O  O44  1  0.40158808  0.47466590  0.58200457  1.0
  O  O45  1  0.40158808  0.02533410  0.08200457  1.0
  O  O46  1  0.59806690  0.44763554  0.16986755  1.0
  O  O47  1  0.59806690  0.05236446  0.66986755  1.0
  O  O48  1  0.40193310  0.94763554  0.33013245  1.0
  O  O49  1  0.40193310  0.55236446  0.83013245  1.0
  O  O50  1  0.39274316  0.25914296  0.31033314  1.0
  O  O51  1  0.39274316  0.24085704  0.81033314  1.0
  O  O52  1  0.60725684  0.75914296  0.18966686  1.0
  O  O53  1  0.60725684  0.74085704  0.68966686  1.0
  O  O54  1  0.22842268  0.39163688  0.42726219  1.0
  O  O55  1  0.22842268  0.10836312  0.92726219  1.0
  O  O56  1  0.77157732  0.89163688  0.07273781  1.0
  O  O57  1  0.77157732  0.60836312  0.57273781  1.0
  O  O58  1  0.00000000  0.50000000  0.50000000  1.0
  O  O59  1  0.00000000  0.00000000  0.00000000  1.0
