# generated using pymatgen
data_Co2SiO4
_symmetry_space_group_name_H-M   'P 1'
_cell_length_a   10.17229945
_cell_length_b   5.94062675
_cell_length_c   4.87904209
_cell_angle_alpha   90.00000000
_cell_angle_beta   90.00000000
_cell_angle_gamma   90.00000000
_symmetry_Int_Tables_number   1
_chemical_formula_structural   Co2SiO4
_chemical_formula_sum   'Co8 Si4 O16'
_cell_volume   294.83970477
_cell_formula_units_Z   4
loop_
 _symmetry_equiv_pos_site_id
 _symmetry_equiv_pos_as_xyz
  1  'x, y, z'
loop_
 _atom_site_type_symbol
 _atom_site_label
 _atom_site_symmetry_multiplicity
 _atom_site_fract_x
 _atom_site_fract_y
 _atom_site_fract_z
 _atom_site_occupancy
  Co  Co0  1  0.76678071  0.25000000  0.50476965  1.0
  Co  Co1  1  0.26678071  0.25000000  0.99523035  1.0
  Co  Co2  1  0.23321929  0.75000000  0.49523035  1.0
  Co  Co3  1  0.73321929  0.75000000  0.00476965  1.0
  Co  Co4  1  0.00000000  0.50000000  -0.00000000  1.0
  Co  Co5  1  0.00000000  0.00000000  0.00000000  1.0
  Co  Co6  1  0.50000000  0.50000000  0.50000000  1.0
  Co  Co7  1  0.50000000  -0.00000000  0.50000000  1.0
  Si  Si8  1  0.59225082  0.25000000  0.07175493  1.0
  Si  Si9  1  0.09225082  0.25000000  0.42824507  1.0
  Si  Si10  1  0.40774918  0.75000000  0.92824507  1.0
  Si  Si11  1  0.90774918  0.75000000  0.57175493  1.0
  O  O12  1  0.66311306  0.47161146  0.21579383  1.0
  O  O13  1  0.66311306  0.02838854  0.21579383  1.0
  O  O14  1  0.16311306  0.47161146  0.28420617  1.0
  O  O15  1  0.16311306  0.02838854  0.28420617  1.0
  O  O16  1  0.33688694  0.97161146  0.78420617  1.0
  O  O17  1  0.33688694  0.52838854  0.78420617  1.0
  O  O18  1  0.83688694  0.97161146  0.71579383  1.0
  O  O19  1  0.83688694  0.52838854  0.71579383  1.0
  O  O20  1  0.94230119  0.25000000  0.29007284  1.0
  O  O21  1  0.44230119  0.25000000  0.20992716  1.0
  O  O22  1  0.05769881  0.75000000  0.70992716  1.0
  O  O23  1  0.55769881  0.75000000  0.79007284  1.0
  O  O24  1  0.59167851  0.25000000  0.73444625  1.0
  O  O25  1  0.09167851  0.25000000  0.76555375  1.0
  O  O26  1  0.40832149  0.75000000  0.26555375  1.0
  O  O27  1  0.90832149  0.75000000  0.23444625  1.0
