# generated using pymatgen
data_CaNi5Ge3
_symmetry_space_group_name_H-M   'P 1'
_cell_length_a   8.14168901
_cell_length_b   8.14168901
_cell_length_c   7.82973851
_cell_angle_alpha   90.00000000
_cell_angle_beta   90.00000000
_cell_angle_gamma   90.00000000
_symmetry_Int_Tables_number   1
_chemical_formula_structural   CaNi5Ge3
_chemical_formula_sum   'Ca4 Ni20 Ge12'
_cell_volume   519.01065888
_cell_formula_units_Z   4
loop_
 _symmetry_equiv_pos_site_id
 _symmetry_equiv_pos_as_xyz
  1  'x, y, z'
loop_
 _atom_site_type_symbol
 _atom_site_label
 _atom_site_symmetry_multiplicity
 _atom_site_fract_x
 _atom_site_fract_y
 _atom_site_fract_z
 _atom_site_occupancy
  Ca  Ca0  1  0.25179184  0.24820816  0.50000000  1.0
  Ca  Ca1  1  0.75179184  0.25179184  0.50000000  1.0
  Ca  Ca2  1  0.74820816  0.75179184  0.50000000  1.0
  Ca  Ca3  1  0.24820816  0.74820816  0.50000000  1.0
  Ni  Ni4  1  0.47336305  0.74600616  0.82217583  1.0
  Ni  Ni5  1  0.47336305  0.74600616  0.17782417  1.0
  Ni  Ni6  1  0.97336305  0.75399384  0.82217583  1.0
  Ni  Ni7  1  0.97336305  0.75399384  0.17782417  1.0
  Ni  Ni8  1  0.25399384  0.47336305  0.82217583  1.0
  Ni  Ni9  1  0.25399384  0.47336305  0.17782417  1.0
  Ni  Ni10  1  0.75399384  0.02663695  0.82217583  1.0
  Ni  Ni11  1  0.75399384  0.02663695  0.17782417  1.0
  Ni  Ni12  1  0.52663695  0.25399384  0.82217583  1.0
  Ni  Ni13  1  0.52663695  0.25399384  0.17782417  1.0
  Ni  Ni14  1  0.02663695  0.24600616  0.82217583  1.0
  Ni  Ni15  1  0.02663695  0.24600616  0.17782417  1.0
  Ni  Ni16  1  0.74600616  0.52663695  0.82217583  1.0
  Ni  Ni17  1  0.74600616  0.52663695  0.17782417  1.0
  Ni  Ni18  1  0.24600616  0.97336305  0.82217583  1.0
  Ni  Ni19  1  0.24600616  0.97336305  0.17782417  1.0
  Ni  Ni20  1  0.50000000  0.00000000  0.00000000  1.0
  Ni  Ni21  1  0.00000000  0.50000000  0.00000000  1.0
  Ni  Ni22  1  0.50000000  0.50000000  0.00000000  1.0
  Ni  Ni23  1  0.00000000  0.00000000  0.00000000  1.0
  Ge  Ge24  1  0.27535214  0.22464786  0.00000000  1.0
  Ge  Ge25  1  0.77535214  0.27535214  0.00000000  1.0
  Ge  Ge26  1  0.72464786  0.77535214  0.00000000  1.0
  Ge  Ge27  1  0.22464786  0.72464786  0.00000000  1.0
  Ge  Ge28  1  0.50000000  0.00000000  0.67060640  1.0
  Ge  Ge29  1  0.50000000  0.00000000  0.32939360  1.0
  Ge  Ge30  1  0.00000000  0.50000000  0.67060640  1.0
  Ge  Ge31  1  0.00000000  0.50000000  0.32939360  1.0
  Ge  Ge32  1  0.50000000  0.50000000  0.66445397  1.0
  Ge  Ge33  1  0.50000000  0.50000000  0.33554603  1.0
  Ge  Ge34  1  0.00000000  0.00000000  0.66445397  1.0
  Ge  Ge35  1  0.00000000  0.00000000  0.33554603  1.0
