# generated using pymatgen
data_YNiB4
_symmetry_space_group_name_H-M   'P 1'
_cell_length_a   6.82055711
_cell_length_b   6.82055711
_cell_length_c   6.82055711
_cell_angle_alpha   112.94752214
_cell_angle_beta   112.94752214
_cell_angle_gamma   102.72220593
_symmetry_Int_Tables_number   1
_chemical_formula_structural   YNiB4
_chemical_formula_sum   'Y4 Ni4 B16'
_cell_volume   241.75143867
_cell_formula_units_Z   4
loop_
 _symmetry_equiv_pos_site_id
 _symmetry_equiv_pos_as_xyz
  1  'x, y, z'
loop_
 _atom_site_type_symbol
 _atom_site_label
 _atom_site_symmetry_multiplicity
 _atom_site_fract_x
 _atom_site_fract_y
 _atom_site_fract_z
 _atom_site_occupancy
  Y  Y0  1  0.70312989  0.70312989  0.00000000  1.0
  Y  Y1  1  0.29687011  0.29687011  0.00000000  1.0
  Y  Y2  1  1.25000000  0.75000000  0.50000000  1.0
  Y  Y3  1  0.75000000  1.25000000  0.50000000  1.0
  Ni  Ni4  1  0.00000000  0.77150838  0.77150838  1.0
  Ni  Ni5  1  0.77150838  0.00000000  0.77150838  1.0
  Ni  Ni6  1  0.22849162  0.00000000  0.22849162  1.0
  Ni  Ni7  1  0.00000000  0.22849162  0.22849162  1.0
  B  B8  1  0.61361062  0.61361062  0.53259580  1.0
  B  B9  1  0.91898518  0.91898518  0.53259580  1.0
  B  B10  1  1.08101482  0.61361062  1.00000000  1.0
  B  B11  1  1.38638938  0.91898518  1.00000000  1.0
  B  B12  1  0.61361062  1.08101482  1.00000000  1.0
  B  B13  1  0.91898518  1.38638938  1.00000000  1.0
  B  B14  1  1.08101482  1.08101482  0.46740420  1.0
  B  B15  1  0.38638938  0.38638938  0.46740420  1.0
  B  B16  1  0.61152032  0.77532489  0.38684521  1.0
  B  B17  1  1.38847968  0.77532489  1.16380457  1.0
  B  B18  1  0.77532489  0.61152032  0.38684521  1.0
  B  B19  1  0.22467511  0.61152032  0.83619543  1.0
  B  B20  1  0.61152032  0.22467511  0.83619543  1.0
  B  B21  1  0.38847968  0.22467511  0.61315479  1.0
  B  B22  1  0.77532489  1.38847968  1.16380457  1.0
  B  B23  1  0.22467511  0.38847968  0.61315479  1.0
