# generated using pymatgen
data_GdGa3(BO3)4
_symmetry_space_group_name_H-M   'P 1'
_cell_length_a   6.06817198
_cell_length_b   6.06817198
_cell_length_c   6.06817198
_cell_angle_alpha   103.92923090
_cell_angle_beta   103.92923090
_cell_angle_gamma   103.92923090
_symmetry_Int_Tables_number   1
_chemical_formula_structural   GdGa3(BO3)4
_chemical_formula_sum   'Gd1 Ga3 B4 O12'
_cell_volume   199.63898358
_cell_formula_units_Z   1
loop_
 _symmetry_equiv_pos_site_id
 _symmetry_equiv_pos_as_xyz
  1  'x, y, z'
loop_
 _atom_site_type_symbol
 _atom_site_label
 _atom_site_symmetry_multiplicity
 _atom_site_fract_x
 _atom_site_fract_y
 _atom_site_fract_z
 _atom_site_occupancy
  Gd  Gd0  1  0.50000000  0.50000000  0.50000000  1.0
  Ga  Ga1  1  1.05018248  0.50000000  -0.05018248  1.0
  Ga  Ga2  1  0.50000000  0.94981752  0.05018248  1.0
  Ga  Ga3  1  0.94981752  0.05018248  0.50000000  1.0
  B  B4  1  0.44692624  1.00000000  -0.44692624  1.0
  B  B5  1  1.00000000  0.55307376  -0.55307376  1.0
  B  B6  1  0.55307376  0.44692624  0.00000000  1.0
  B  B7  1  0.00000000  -0.00000000  0.00000000  1.0
  O  O8  1  1.47230903  0.87090946  -0.28962121  1.0
  O  O9  1  1.28962121  0.12909054  -0.47230903  1.0
  O  O10  1  1.12909054  -0.47230903  0.28962121  1.0
  O  O11  1  0.52769097  0.28962121  0.12909054  1.0
  O  O12  1  0.71037879  1.47230903  -0.12909054  1.0
  O  O13  1  0.87090946  0.71037879  0.47230903  1.0
  O  O14  1  0.85494283  0.00000000  0.14505717  1.0
  O  O15  1  1.00000000  0.14505717  -0.14505717  1.0
  O  O16  1  1.14505717  -0.14505717  0.00000000  1.0
  O  O17  1  0.59192420  1.00000000  -0.59192420  1.0
  O  O18  1  1.00000000  0.40807580  -0.40807580  1.0
  O  O19  1  0.40807580  0.59192420  0.00000000  1.0
