# generated using pymatgen
data_NaPb2C2O7
_symmetry_space_group_name_H-M   'P 1'
_cell_length_a   5.26438839
_cell_length_b   5.26438839
_cell_length_c   14.20935647
_cell_angle_alpha   90.00000000
_cell_angle_beta   90.00000000
_cell_angle_gamma   120.00000000
_symmetry_Int_Tables_number   1
_chemical_formula_structural   NaPb2C2O7
_chemical_formula_sum   'Na2 Pb4 C4 O14'
_cell_volume   341.03651880
_cell_formula_units_Z   2
loop_
 _symmetry_equiv_pos_site_id
 _symmetry_equiv_pos_as_xyz
  1  'x, y, z'
loop_
 _atom_site_type_symbol
 _atom_site_label
 _atom_site_symmetry_multiplicity
 _atom_site_fract_x
 _atom_site_fract_y
 _atom_site_fract_z
 _atom_site_occupancy
  C  C0  1  0.00000000  -0.00000000  0.00011878  1.0
  C  C1  1  -0.00000000  0.00000000  0.50011878  1.0
  C  C2  1  -0.00000000  0.00000000  0.22114304  1.0
  C  C3  1  0.00000000  0.00000000  0.72114304  1.0
  Pb  Pb4  1  0.33333333  0.66666667  0.21265678  1.0
  Pb  Pb5  1  0.66666667  0.33333333  0.71265678  1.0
  Pb  Pb6  1  0.33333333  0.66666667  0.50858632  1.0
  Pb  Pb7  1  0.66666667  0.33333333  0.00858632  1.0
  Na  Na8  1  0.33333333  0.66666667  0.86059764  1.0
  Na  Na9  1  0.66666667  0.33333333  0.36059764  1.0
  O  O10  1  0.14250687  0.85753677  0.00045409  1.0
  O  O11  1  0.85753677  0.14250687  0.50045409  1.0
  O  O12  1  0.71502990  0.85749313  0.00045409  1.0
  O  O13  1  0.14246323  0.28497010  0.00045409  1.0
  O  O14  1  0.85749313  0.71502990  0.50045409  1.0
  O  O15  1  0.28497010  0.14246323  0.50045409  1.0
  O  O16  1  0.85749274  0.71502962  0.22080421  1.0
  O  O17  1  0.71502962  0.85749274  0.72080421  1.0
  O  O18  1  0.85753688  0.14250726  0.22080421  1.0
  O  O19  1  0.28497038  0.14246312  0.22080421  1.0
  O  O20  1  0.14250726  0.85753688  0.72080421  1.0
  O  O21  1  0.14246312  0.28497038  0.72080421  1.0
  O  O22  1  0.33333333  0.66666667  0.36062253  1.0
  O  O23  1  0.66666667  0.33333333  0.86062253  1.0
