# generated using pymatgen
data_SrZnAsHO5
_symmetry_space_group_name_H-M   'P 1'
_cell_length_a   6.13609773
_cell_length_b   7.81985686
_cell_length_c   9.41651213
_cell_angle_alpha   90.00000000
_cell_angle_beta   90.00000000
_cell_angle_gamma   90.00000000
_symmetry_Int_Tables_number   1
_chemical_formula_structural   SrZnAsHO5
_chemical_formula_sum   'Sr4 Zn4 As4 H4 O20'
_cell_volume   451.83632371
_cell_formula_units_Z   4
loop_
 _symmetry_equiv_pos_site_id
 _symmetry_equiv_pos_as_xyz
  1  'x, y, z'
loop_
 _atom_site_type_symbol
 _atom_site_label
 _atom_site_symmetry_multiplicity
 _atom_site_fract_x
 _atom_site_fract_y
 _atom_site_fract_z
 _atom_site_occupancy
  Sr  Sr0  1  0.02944590  0.36905003  0.82919480  1.0
  Sr  Sr1  1  0.52944590  0.13094997  0.17080520  1.0
  Sr  Sr2  1  0.97055410  0.86905003  0.67080520  1.0
  Sr  Sr3  1  0.47055410  0.63094997  0.32919480  1.0
  Zn  Zn4  1  0.27168022  0.77308644  0.98633800  1.0
  Zn  Zn5  1  0.77168022  0.72691356  0.01366200  1.0
  Zn  Zn6  1  0.72831978  0.27308644  0.51366200  1.0
  Zn  Zn7  1  0.22831978  0.22691356  0.48633800  1.0
  As  As8  1  0.98387274  0.37253529  0.18050412  1.0
  As  As9  1  0.48387274  0.12746471  0.81949588  1.0
  As  As10  1  0.01612726  0.87253529  0.31949588  1.0
  As  As11  1  0.51612726  0.62746471  0.68050412  1.0
  H  H12  1  -0.01599344  0.99281480  0.99182124  1.0
  H  H13  1  0.48400656  0.50718520  0.00817876  1.0
  H  H14  1  1.01599344  0.49281480  0.50817876  1.0
  H  H15  1  0.51599344  0.00718520  0.49182124  1.0
  O  O16  1  0.01070560  0.54903107  0.06593936  1.0
  O  O17  1  0.51070560  0.95096893  0.93406064  1.0
  O  O18  1  0.98929440  0.04903107  0.43406064  1.0
  O  O19  1  0.48929440  0.45096893  0.56593936  1.0
  O  O20  1  0.92682713  0.20331456  0.06670834  1.0
  O  O21  1  0.42682713  0.29668544  0.93329166  1.0
  O  O22  1  0.07317287  0.70331456  0.43329166  1.0
  O  O23  1  0.57317287  0.79668544  0.56670834  1.0
  O  O24  1  0.27071998  0.65115193  0.77258875  1.0
  O  O25  1  0.77071998  0.84884807  0.22741125  1.0
  O  O26  1  0.72928002  0.15115193  0.72741125  1.0
  O  O27  1  0.22928002  0.34884807  0.27258875  1.0
  O  O28  1  0.74460639  0.61113902  0.79021928  1.0
  O  O29  1  0.24460639  0.88886098  0.20978072  1.0
  O  O30  1  0.25539361  0.11113902  0.70978072  1.0
  O  O31  1  0.75539361  0.38886098  0.29021928  1.0
  O  O32  1  0.99489084  0.88432372  0.93826897  1.0
  O  O33  1  0.49489084  0.61567628  0.06173103  1.0
  O  O34  1  0.00510916  0.38432372  0.56173103  1.0
  O  O35  1  0.50510916  0.11567628  0.43826897  1.0
