# generated using pymatgen
data_LuSiRh
_symmetry_space_group_name_H-M   'P 1'
_cell_length_a   6.73596072
_cell_length_b   4.17351693
_cell_length_c   7.39217054
_cell_angle_alpha   90.00000000
_cell_angle_beta   90.00000000
_cell_angle_gamma   90.00000000
_symmetry_Int_Tables_number   1
_chemical_formula_structural   LuSiRh
_chemical_formula_sum   'Lu4 Si4 Rh4'
_cell_volume   207.81347416
_cell_formula_units_Z   4
loop_
 _symmetry_equiv_pos_site_id
 _symmetry_equiv_pos_as_xyz
  1  'x, y, z'
loop_
 _atom_site_type_symbol
 _atom_site_label
 _atom_site_symmetry_multiplicity
 _atom_site_fract_x
 _atom_site_fract_y
 _atom_site_fract_z
 _atom_site_occupancy
  Lu  Lu0  1  0.99524598  0.75000000  0.68963721  1.0
  Lu  Lu1  1  0.49524598  0.75000000  0.81036279  1.0
  Lu  Lu2  1  0.00475402  0.25000000  0.31036279  1.0
  Lu  Lu3  1  0.50475402  0.25000000  0.18963721  1.0
  Si  Si4  1  0.70828281  0.75000000  0.39192887  1.0
  Si  Si5  1  0.20828281  0.75000000  0.10807113  1.0
  Si  Si6  1  0.29171719  0.25000000  0.60807113  1.0
  Si  Si7  1  0.79171719  0.25000000  0.89192887  1.0
  Rh  Rh8  1  0.84466886  0.75000000  0.06652348  1.0
  Rh  Rh9  1  0.34466886  0.75000000  0.43347652  1.0
  Rh  Rh10  1  0.15533114  0.25000000  0.93347652  1.0
  Rh  Rh11  1  0.65533114  0.25000000  0.56652348  1.0
