# generated using pymatgen
data_K2Ca(CO3)2
_symmetry_space_group_name_H-M   'P 1'
_cell_length_a   6.92602516
_cell_length_b   6.92602516
_cell_length_c   6.92602516
_cell_angle_alpha   46.15764015
_cell_angle_beta   46.15764015
_cell_angle_gamma   46.15764015
_symmetry_Int_Tables_number   1
_chemical_formula_structural   K2Ca(CO3)2
_chemical_formula_sum   'K2 Ca1 C2 O6'
_cell_volume   157.69727039
_cell_formula_units_Z   1
loop_
 _symmetry_equiv_pos_site_id
 _symmetry_equiv_pos_as_xyz
  1  'x, y, z'
loop_
 _atom_site_type_symbol
 _atom_site_label
 _atom_site_symmetry_multiplicity
 _atom_site_fract_x
 _atom_site_fract_y
 _atom_site_fract_z
 _atom_site_occupancy
  K  K0  1  0.78962288  0.78962288  0.78962288  1.0
  K  K1  1  1.21037712  1.21037712  0.21037712  1.0
  Ca  Ca2  1  0.00000000  0.00000000  -0.00000000  1.0
  C  C3  1  1.58913757  0.58913757  0.58913757  1.0
  C  C4  1  1.41086243  0.41086243  0.41086243  1.0
  O  O5  1  1.27327690  0.27327690  0.68762174  1.0
  O  O6  1  1.27327690  0.68762174  0.27327690  1.0
  O  O7  1  1.31237826  0.72672310  0.72672310  1.0
  O  O8  1  1.72672310  0.31237826  0.72672310  1.0
  O  O9  1  1.72672310  0.72672310  0.31237826  1.0
  O  O10  1  1.68762174  0.27327690  0.27327690  1.0
