# generated using pymatgen
data_NaH3SO5
_symmetry_space_group_name_H-M   'P 1'
_cell_length_a   5.56587369
_cell_length_b   5.56587369
_cell_length_c   8.14217345
_cell_angle_alpha   71.78183915
_cell_angle_beta   108.21816085
_cell_angle_gamma   90.44392007
_symmetry_Int_Tables_number   1
_chemical_formula_structural   NaH3SO5
_chemical_formula_sum   'Na2 H6 S2 O10'
_cell_volume   226.44723097
_cell_formula_units_Z   2
loop_
 _symmetry_equiv_pos_site_id
 _symmetry_equiv_pos_as_xyz
  1  'x, y, z'
loop_
 _atom_site_type_symbol
 _atom_site_label
 _atom_site_symmetry_multiplicity
 _atom_site_fract_x
 _atom_site_fract_y
 _atom_site_fract_z
 _atom_site_occupancy
  Na  Na0  1  0.68721846  0.36826018  0.93315509  1.0
  Na  Na1  1  0.63173982  0.31278154  0.43315509  1.0
  H  H2  1  1.00889444  0.91618485  0.93002403  1.0
  H  H3  1  0.08381515  -0.00889444  0.43002403  1.0
  H  H4  1  1.30553859  -0.69444438  0.64794572  1.0
  H  H5  1  1.69444438  -0.30553859  0.14794572  1.0
  H  H6  1  0.44811780  0.03442573  0.72404487  1.0
  H  H7  1  0.96557427  0.55188220  0.22404487  1.0
  S  S8  1  1.06652703  -0.29193361  0.68203428  1.0
  S  S9  1  1.29193361  -0.06652703  0.18203428  1.0
  O  O10  1  0.97083904  0.96425461  0.50986978  1.0
  O  O11  1  0.03574538  0.02916096  0.00986978  1.0
  O  O12  1  0.91977123  0.73565481  0.79959635  1.0
  O  O13  1  0.26434519  0.08022877  0.29959635  1.0
  O  O14  1  1.00105796  0.49196911  0.61481642  1.0
  O  O15  1  0.50803089  -0.00105796  0.11481642  1.0
  O  O16  1  1.28935151  -0.34238450  0.26423168  1.0
  O  O17  1  1.34238450  -0.28935151  0.76423168  1.0
  O  O18  1  0.47522169  0.21575094  0.68428177  1.0
  O  O19  1  0.78424906  0.52477831  0.18428177  1.0
