# generated using pymatgen
data_ZnSnSb2
_symmetry_space_group_name_H-M   'P 1'
_cell_length_a   7.84568617
_cell_length_b   7.84568617
_cell_length_c   7.84568617
_cell_angle_alpha   131.97661316
_cell_angle_beta   131.97661316
_cell_angle_gamma   70.26596637
_symmetry_Int_Tables_number   1
_chemical_formula_structural   ZnSnSb2
_chemical_formula_sum   'Zn2 Sn2 Sb4'
_cell_volume   261.59798840
_cell_formula_units_Z   2
loop_
 _symmetry_equiv_pos_site_id
 _symmetry_equiv_pos_as_xyz
  1  'x, y, z'
loop_
 _atom_site_type_symbol
 _atom_site_label
 _atom_site_symmetry_multiplicity
 _atom_site_fract_x
 _atom_site_fract_y
 _atom_site_fract_z
 _atom_site_occupancy
  Zn  Zn0  1  0.25000000  0.75000000  0.50000000  1.0
  Zn  Zn1  1  0.50000000  0.50000000  0.00000000  1.0
  Sn  Sn2  1  0.75000000  0.25000000  0.50000000  1.0
  Sn  Sn3  1  1.00000000  1.00000000  1.00000000  1.0
  Sb  Sb4  1  1.15110053  1.12500000  1.52610053  1.0
  Sb  Sb5  1  1.37500000  0.84889947  0.97389947  1.0
  Sb  Sb6  1  0.87500000  1.40110053  1.02610053  1.0
  Sb  Sb7  1  0.59889947  0.62500000  0.47389947  1.0
