# generated using pymatgen
data_TiNi
_symmetry_space_group_name_H-M   'P 1'
_cell_length_a   2.93963876
_cell_length_b   4.02662012
_cell_length_c   4.77137132
_cell_angle_alpha   90.00000000
_cell_angle_beta   77.95106384
_cell_angle_gamma   90.00000000
_symmetry_Int_Tables_number   1
_chemical_formula_structural   TiNi
_chemical_formula_sum   'Ti2 Ni2'
_cell_volume   55.23358398
_cell_formula_units_Z   2
loop_
 _symmetry_equiv_pos_site_id
 _symmetry_equiv_pos_as_xyz
  1  'x, y, z'
loop_
 _atom_site_type_symbol
 _atom_site_label
 _atom_site_symmetry_multiplicity
 _atom_site_fract_x
 _atom_site_fract_y
 _atom_site_fract_z
 _atom_site_occupancy
  Ti  Ti0  1  0.61195144  0.75000000  0.71587075  1.0
  Ti  Ti1  1  0.38804856  0.25000000  0.28412925  1.0
  Ni  Ni2  1  -0.06338149  0.75000000  1.17130965  1.0
  Ni  Ni3  1  1.06338149  0.25000000  -0.17130965  1.0
