# generated using pymatgen
data_Cu2SeO4
_symmetry_space_group_name_H-M   'P 1'
_cell_length_a   7.08638469
_cell_length_b   6.14332762
_cell_length_c   10.94076408
_cell_angle_alpha   90.00000000
_cell_angle_beta   128.23025406
_cell_angle_gamma   90.00000000
_symmetry_Int_Tables_number   1
_chemical_formula_structural   Cu2SeO4
_chemical_formula_sum   'Cu8 Se4 O16'
_cell_volume   374.14415501
_cell_formula_units_Z   4
loop_
 _symmetry_equiv_pos_site_id
 _symmetry_equiv_pos_as_xyz
  1  'x, y, z'
loop_
 _atom_site_type_symbol
 _atom_site_label
 _atom_site_symmetry_multiplicity
 _atom_site_fract_x
 _atom_site_fract_y
 _atom_site_fract_z
 _atom_site_occupancy
  O  O0  1  0.76774876  0.28545802  0.34835331  1.0
  O  O1  1  0.76774876  0.21454198  0.84835331  1.0
  O  O2  1  0.23225124  0.78545802  0.15164669  1.0
  O  O3  1  0.23225124  0.71454198  0.65164669  1.0
  O  O4  1  0.45176659  0.22233807  0.40222356  1.0
  O  O5  1  0.45176659  0.27766193  0.90222356  1.0
  O  O6  1  0.54823341  0.72233807  0.09777644  1.0
  O  O7  1  0.54823341  0.77766193  0.59777644  1.0
  O  O8  1  0.85047784  0.96505652  0.10282775  1.0
  O  O9  1  0.85047784  0.53494348  0.60282775  1.0
  O  O10  1  0.14952216  0.46505652  0.39717225  1.0
  O  O11  1  0.14952216  0.03494348  0.89717225  1.0
  O  O12  1  0.90741068  0.43686336  0.10527797  1.0
  O  O13  1  0.90741068  0.06313664  0.60527797  1.0
  O  O14  1  0.09258932  0.93686336  0.39472203  1.0
  O  O15  1  0.09258932  0.56313664  0.89472203  1.0
  Cu  Cu16  1  0.99175492  0.70379208  0.24182890  1.0
  Cu  Cu17  1  0.99175492  0.79620792  0.74182890  1.0
  Cu  Cu18  1  0.00824508  0.20379208  0.25817110  1.0
  Cu  Cu19  1  0.00824508  0.29620792  0.75817110  1.0
  Cu  Cu20  1  -0.00000000  0.50000000  0.50000000  1.0
  Cu  Cu21  1  -0.00000000  0.00000000  -0.00000000  1.0
  Cu  Cu22  1  0.50000000  0.50000000  0.50000000  1.0
  Cu  Cu23  1  0.50000000  0.00000000  -0.00000000  1.0
  Se  Se24  1  0.66535706  0.08444192  0.40431443  1.0
  Se  Se25  1  0.66535706  0.41555808  0.90431443  1.0
  Se  Se26  1  0.33464294  0.58444192  0.09568557  1.0
  Se  Se27  1  0.33464294  0.91555808  0.59568557  1.0
