# generated using pymatgen
data_RbHSO2
_symmetry_space_group_name_H-M   'P 1'
_cell_length_a   6.07265664
_cell_length_b   6.07265664
_cell_length_c   12.18632617
_cell_angle_alpha   69.45942464
_cell_angle_beta   110.54057536
_cell_angle_gamma   120.39818217
_symmetry_Int_Tables_number   1
_chemical_formula_structural   RbHSO2
_chemical_formula_sum   'Rb4 H4 S4 O8'
_cell_volume   354.51882634
_cell_formula_units_Z   4
loop_
 _symmetry_equiv_pos_site_id
 _symmetry_equiv_pos_as_xyz
  1  'x, y, z'
loop_
 _atom_site_type_symbol
 _atom_site_label
 _atom_site_symmetry_multiplicity
 _atom_site_fract_x
 _atom_site_fract_y
 _atom_site_fract_z
 _atom_site_occupancy
  Rb  Rb0  1  0.82340261  0.17659739  0.32669666  1.0
  Rb  Rb1  1  0.17659739  -0.17659739  0.67330334  1.0
  Rb  Rb2  1  0.62887896  0.37112104  0.92151628  1.0
  Rb  Rb3  1  0.37112104  -0.37112104  0.07848372  1.0
  H  H4  1  0.45884451  0.54115549  0.59061952  1.0
  H  H5  1  0.54115549  -0.54115549  0.40938048  1.0
  H  H6  1  0.62268816  0.37731184  0.63538700  1.0
  H  H7  1  0.37731184  -0.37731184  0.36461300  1.0
  S  S8  1  0.82369740  0.17630260  0.62785760  1.0
  S  S9  1  0.17630260  -0.17630260  0.37214240  1.0
  S  S10  1  0.91256277  0.08743723  0.81370042  1.0
  S  S11  1  0.08743723  -0.08743723  0.18629958  1.0
  O  O12  1  1.06855239  0.33893725  0.85521855  1.0
  O  O13  1  0.66106275  -0.06855239  0.85521855  1.0
  O  O14  1  0.93144761  0.66106275  0.14478145  1.0
  O  O15  1  0.33893725  0.06855239  0.14478145  1.0
  O  O16  1  0.93381049  0.06618951  0.14652809  1.0
  O  O17  1  0.06618951  -0.06618951  0.85347191  1.0
  O  O18  1  0.54491136  0.45508864  0.66230022  1.0
  O  O19  1  0.45508864  -0.45508864  0.33769978  1.0
