# generated using pymatgen
data_LiH2CN5
_symmetry_space_group_name_H-M   'P 1'
_cell_length_a   4.86649008
_cell_length_b   10.53611553
_cell_length_c   7.63710157
_cell_angle_alpha   90.00000000
_cell_angle_beta   107.10896836
_cell_angle_gamma   90.00000000
_symmetry_Int_Tables_number   1
_chemical_formula_structural   LiH2CN5
_chemical_formula_sum   'Li4 H8 C4 N20'
_cell_volume   374.25522001
_cell_formula_units_Z   4
loop_
 _symmetry_equiv_pos_site_id
 _symmetry_equiv_pos_as_xyz
  1  'x, y, z'
loop_
 _atom_site_type_symbol
 _atom_site_label
 _atom_site_symmetry_multiplicity
 _atom_site_fract_x
 _atom_site_fract_y
 _atom_site_fract_z
 _atom_site_occupancy
  Li  Li0  1  0.79461116  0.88457646  0.36872132  1.0
  Li  Li1  1  0.79461116  0.61542354  0.86872132  1.0
  Li  Li2  1  0.20538884  0.38457646  0.13127868  1.0
  Li  Li3  1  0.20538884  0.11542354  0.63127868  1.0
  H  H4  1  0.83344950  0.45679731  0.31401408  1.0
  H  H5  1  0.83344950  0.04320269  0.81401408  1.0
  H  H6  1  0.16655050  0.95679731  0.18598592  1.0
  H  H7  1  0.16655050  0.54320269  0.68598592  1.0
  H  H8  1  0.88641536  0.88040989  0.03851147  1.0
  H  H9  1  0.88641536  0.61959011  0.53851147  1.0
  H  H10  1  0.11358464  0.38040989  0.46148853  1.0
  H  H11  1  0.11358464  0.11959011  0.96148853  1.0
  C  C12  1  0.79238984  0.26541483  0.31785512  1.0
  C  C13  1  0.79238984  0.23458517  0.81785512  1.0
  C  C14  1  0.20761016  0.76541483  0.18214488  1.0
  C  C15  1  0.20761016  0.73458517  0.68214488  1.0
  N  N16  1  0.45923886  0.12900531  0.21361344  1.0
  N  N17  1  0.45923886  0.37099469  0.71361344  1.0
  N  N18  1  0.54076114  0.62900531  0.28638656  1.0
  N  N19  1  0.54076114  0.87099469  0.78638656  1.0
  N  N20  1  0.95455521  0.37561320  0.33858610  1.0
  N  N21  1  0.95455521  0.12438680  0.83858610  1.0
  N  N22  1  0.04544479  0.87561320  0.16141390  1.0
  N  N23  1  0.04544479  0.62438680  0.66141390  1.0
  N  N24  1  0.89416631  0.15384538  0.39492187  1.0
  N  N25  1  0.89416631  0.34615462  0.89492187  1.0
  N  N26  1  0.10583369  0.65384538  0.10507813  1.0
  N  N27  1  0.10583369  0.84615462  0.60507813  1.0
  N  N28  1  0.67886329  0.07051353  0.32489054  1.0
  N  N29  1  0.67886329  0.42948647  0.82489054  1.0
  N  N30  1  0.32113671  0.57051353  0.17510946  1.0
  N  N31  1  0.32113671  0.92948647  0.67510946  1.0
  N  N32  1  0.52188340  0.25347035  0.20683018  1.0
  N  N33  1  0.52188340  0.24652965  0.70683018  1.0
  N  N34  1  0.47811660  0.75347035  0.29316982  1.0
  N  N35  1  0.47811660  0.74652965  0.79316982  1.0
