# generated using pymatgen
data_Pr(BrO2)3
_symmetry_space_group_name_H-M   'P 1'
_cell_length_a   6.89288993
_cell_length_b   7.85243732
_cell_length_c   11.44802693
_cell_angle_alpha   90.00000000
_cell_angle_beta   134.24374909
_cell_angle_gamma   90.00000000
_symmetry_Int_Tables_number   1
_chemical_formula_structural   Pr(BrO2)3
_chemical_formula_sum   'Pr2 Br6 O12'
_cell_volume   443.89345894
_cell_formula_units_Z   2
loop_
 _symmetry_equiv_pos_site_id
 _symmetry_equiv_pos_as_xyz
  1  'x, y, z'
loop_
 _atom_site_type_symbol
 _atom_site_label
 _atom_site_symmetry_multiplicity
 _atom_site_fract_x
 _atom_site_fract_y
 _atom_site_fract_z
 _atom_site_occupancy
  Pr  Pr0  1  0.50000000  0.93889202  0.25000000  1.0
  Pr  Pr1  1  0.50000000  0.06110798  0.75000000  1.0
  Br  Br2  1  0.83011852  0.73203873  0.96933954  1.0
  Br  Br3  1  0.83011852  0.26796127  0.46933954  1.0
  Br  Br4  1  0.16988148  0.73203873  0.53066046  1.0
  Br  Br5  1  0.16988148  0.26796127  0.03066046  1.0
  Br  Br6  1  -0.00000000  0.24294954  0.25000000  1.0
  Br  Br7  1  0.00000000  0.75705046  0.75000000  1.0
  O  O8  1  0.88123683  0.79443680  0.49829369  1.0
  O  O9  1  0.88123683  0.20556320  0.99829369  1.0
  O  O10  1  0.11876317  0.79443680  0.00170631  1.0
  O  O11  1  0.11876317  0.20556320  0.50170631  1.0
  O  O12  1  0.67591419  0.95213385  0.18508565  1.0
  O  O13  1  0.67591419  0.04786615  0.68508565  1.0
  O  O14  1  0.32408581  0.95213385  0.31491435  1.0
  O  O15  1  0.32408581  0.04786615  0.81491435  1.0
  O  O16  1  0.26508791  0.36271586  0.32822368  1.0
  O  O17  1  0.26508791  0.63728414  0.82822368  1.0
  O  O18  1  0.73491209  0.36271586  0.17177632  1.0
  O  O19  1  0.73491209  0.63728414  0.67177632  1.0
