# generated using pymatgen
data_Y3GaS6
_symmetry_space_group_name_H-M   'P 1'
_cell_length_a   8.54891691
_cell_length_b   8.54891691
_cell_length_c   6.47160085
_cell_angle_alpha   90.00000000
_cell_angle_beta   90.00000000
_cell_angle_gamma   102.64773110
_symmetry_Int_Tables_number   1
_chemical_formula_structural   Y3GaS6
_chemical_formula_sum   'Y6 Ga2 S12'
_cell_volume   461.49357990
_cell_formula_units_Z   2
loop_
 _symmetry_equiv_pos_site_id
 _symmetry_equiv_pos_as_xyz
  1  'x, y, z'
loop_
 _atom_site_type_symbol
 _atom_site_label
 _atom_site_symmetry_multiplicity
 _atom_site_fract_x
 _atom_site_fract_y
 _atom_site_fract_z
 _atom_site_occupancy
  Y  Y0  1  -0.08559696  1.71533480  0.46511078  1.0
  Y  Y1  1  0.71533480  0.91440304  0.96511078  1.0
  Y  Y2  1  -0.71533480  1.08559696  0.46511078  1.0
  Y  Y3  1  0.08559696  0.28466520  0.96511078  1.0
  Y  Y4  1  0.40196948  0.59803052  0.37802628  1.0
  Y  Y5  1  -0.40196948  1.40196948  0.87802628  1.0
  Ga  Ga6  1  0.20002306  0.79997694  0.00278967  1.0
  Ga  Ga7  1  -0.20002306  1.20002306  0.50278967  1.0
  S  S8  1  0.10120043  0.56735993  0.18283612  1.0
  S  S9  1  -0.43264007  1.10120043  0.68283612  1.0
  S  S10  1  0.43264007  0.89879957  0.18283612  1.0
  S  S11  1  -0.10120043  1.43264007  0.68283612  1.0
  S  S12  1  -0.30856244  1.63356967  0.17051361  1.0
  S  S13  1  0.63356967  0.69143756  0.67051361  1.0
  S  S14  1  -0.63356967  1.30856244  0.17051361  1.0
  S  S15  1  0.30856244  0.36643033  0.67051361  1.0
  S  S16  1  0.03988118  0.96011882  0.14859297  1.0
  S  S17  1  -0.03988118  1.03988118  0.64859297  1.0
  S  S18  1  0.21688717  0.78311283  0.65107008  1.0
  S  S19  1  -0.21688717  1.21688717  0.15107008  1.0
