# generated using pymatgen
data_WI2
_symmetry_space_group_name_H-M   'P 1'
_cell_length_a   10.41369747
_cell_length_b   10.41369747
_cell_length_c   12.71950568
_cell_angle_alpha   90.00000000
_cell_angle_beta   90.00000000
_cell_angle_gamma   75.33019103
_symmetry_Int_Tables_number   1
_chemical_formula_structural   WI2
_chemical_formula_sum   'W12 I24'
_cell_volume   1334.40244140
_cell_formula_units_Z   12
loop_
 _symmetry_equiv_pos_site_id
 _symmetry_equiv_pos_as_xyz
  1  'x, y, z'
loop_
 _atom_site_type_symbol
 _atom_site_label
 _atom_site_symmetry_multiplicity
 _atom_site_fract_x
 _atom_site_fract_y
 _atom_site_fract_z
 _atom_site_occupancy
  W  W0  1  -0.36767224  1.36767224  0.43232904  1.0
  W  W1  1  0.13232776  0.86767224  0.06767096  1.0
  W  W2  1  0.36767224  0.63232776  0.56767096  1.0
  W  W3  1  -0.13232776  1.13232776  0.93232904  1.0
  W  W4  1  -0.06768868  1.06768868  0.13217921  1.0
  W  W5  1  0.43231132  0.56768868  0.36782079  1.0
  W  W6  1  0.06768868  0.93231132  0.86782079  1.0
  W  W7  1  -0.43231132  1.43231132  0.63217921  1.0
  W  W8  1  0.38501442  1.38501442  0.50000000  1.0
  W  W9  1  -0.11498558  0.88501442  0.00000000  1.0
  W  W10  1  -0.38501442  0.61498558  0.50000000  1.0
  W  W11  1  0.11498558  1.11498558  0.00000000  1.0
  I  I12  1  0.44808274  1.31037730  0.28809290  1.0
  I  I13  1  -0.05191726  0.81037730  0.21190710  1.0
  I  I14  1  0.31037730  1.44808274  0.71190710  1.0
  I  I15  1  -0.18962270  0.94808274  0.78809290  1.0
  I  I16  1  -0.31037730  0.55191726  0.28809290  1.0
  I  I17  1  0.18962270  1.05191726  0.21190710  1.0
  I  I18  1  -0.44808274  0.68962270  0.71190710  1.0
  I  I19  1  0.05191726  1.18962270  0.78809290  1.0
  I  I20  1  0.40932850  0.83271702  0.43127945  1.0
  I  I21  1  -0.09067150  1.33271702  0.06872055  1.0
  I  I22  1  -0.16728298  1.40932850  0.56872055  1.0
  I  I23  1  0.33271702  0.90932850  0.93127945  1.0
  I  I24  1  0.16728298  0.59067150  0.43127945  1.0
  I  I25  1  -0.33271702  1.09067150  0.06872055  1.0
  I  I26  1  -0.40932850  1.16728298  0.56872055  1.0
  I  I27  1  0.09067150  0.66728298  0.93127945  1.0
  I  I28  1  -0.15515074  1.15515074  0.34479519  1.0
  I  I29  1  0.34484926  0.65515074  0.15520481  1.0
  I  I30  1  0.15515074  0.84484926  0.65520481  1.0
  I  I31  1  -0.34484926  1.34484926  0.84479519  1.0
  I  I32  1  0.21303744  1.21303744  0.50000000  1.0
  I  I33  1  -0.28696256  0.71303744  0.00000000  1.0
  I  I34  1  -0.21303744  0.78696256  0.50000000  1.0
  I  I35  1  0.28696256  1.28696256  0.00000000  1.0
