# generated using pymatgen
data_TiZnO3
_symmetry_space_group_name_H-M   'P 1'
_cell_length_a   5.50589480
_cell_length_b   5.50589480
_cell_length_c   5.50589480
_cell_angle_alpha   55.57865408
_cell_angle_beta   55.57865408
_cell_angle_gamma   55.57865408
_symmetry_Int_Tables_number   1
_chemical_formula_structural   TiZnO3
_chemical_formula_sum   'Ti2 Zn2 O6'
_cell_volume   105.91188895
_cell_formula_units_Z   2
loop_
 _symmetry_equiv_pos_site_id
 _symmetry_equiv_pos_as_xyz
  1  'x, y, z'
loop_
 _atom_site_type_symbol
 _atom_site_label
 _atom_site_symmetry_multiplicity
 _atom_site_fract_x
 _atom_site_fract_y
 _atom_site_fract_z
 _atom_site_occupancy
  Ti  Ti0  1  0.00138031  0.00138031  0.00138031  1.0
  Ti  Ti1  1  0.50138031  0.50138031  -0.49861969  1.0
  Zn  Zn2  1  0.77939527  -0.22060473  -0.22060473  1.0
  Zn  Zn3  1  0.27939527  0.27939527  0.27939527  1.0
  O  O4  1  0.60703524  -0.13903061  0.22161980  1.0
  O  O5  1  0.10703524  0.72161980  -0.63903061  1.0
  O  O6  1  0.72161980  0.36096939  -0.89296476  1.0
  O  O7  1  1.22161980  -0.39296476  -0.13903061  1.0
  O  O8  1  0.36096939  0.10703524  -0.27838020  1.0
  O  O9  1  0.86096939  0.22161980  -0.39296476  1.0
