# generated using pymatgen
data_Ga
_symmetry_space_group_name_H-M   'P 1'
_cell_length_a   7.82710821
_cell_length_b   7.82710821
_cell_length_c   7.82710821
_cell_angle_alpha   71.96732106
_cell_angle_beta   71.96732106
_cell_angle_gamma   71.96732106
_symmetry_Int_Tables_number   1
_chemical_formula_structural   Ga
_chemical_formula_sum   Ga22
_cell_volume   421.27889123
_cell_formula_units_Z   22
loop_
 _symmetry_equiv_pos_site_id
 _symmetry_equiv_pos_as_xyz
  1  'x, y, z'
loop_
 _atom_site_type_symbol
 _atom_site_label
 _atom_site_symmetry_multiplicity
 _atom_site_fract_x
 _atom_site_fract_y
 _atom_site_fract_z
 _atom_site_occupancy
  Ga  Ga0  1  1.09578677  1.09578677  0.61726215  1.0
  Ga  Ga1  1  1.09578677  1.61726215  0.09578677  1.0
  Ga  Ga2  1  1.61726215  1.09578677  0.09578677  1.0
  Ga  Ga3  1  0.90421323  -0.09578677  0.38273785  1.0
  Ga  Ga4  1  0.90421323  0.38273785  -0.09578677  1.0
  Ga  Ga5  1  1.38273785  -0.09578677  -0.09578677  1.0
  Ga  Ga6  1  0.71860021  -0.28139979  0.02077751  1.0
  Ga  Ga7  1  0.71860021  0.02077751  -0.28139979  1.0
  Ga  Ga8  1  1.02077751  -0.28139979  -0.28139979  1.0
  Ga  Ga9  1  0.28139979  0.28139979  -0.02077751  1.0
  Ga  Ga10  1  0.28139979  0.97922249  -0.71860021  1.0
  Ga  Ga11  1  0.97922249  0.28139979  -0.71860021  1.0
  Ga  Ga12  1  0.32173409  0.32173409  -0.37429506  1.0
  Ga  Ga13  1  0.32173409  0.62570494  -0.67826591  1.0
  Ga  Ga14  1  0.62570494  0.32173409  -0.67826591  1.0
  Ga  Ga15  1  0.67826591  0.67826591  -0.62570494  1.0
  Ga  Ga16  1  0.67826591  0.37429506  -0.32173409  1.0
  Ga  Ga17  1  0.37429506  0.67826591  -0.32173409  1.0
  Ga  Ga18  1  -0.00000000  0.00000000  -0.00000000  1.0
  Ga  Ga19  1  0.50000000  -0.50000000  -0.00000000  1.0
  Ga  Ga20  1  0.50000000  -0.00000000  -0.50000000  1.0
  Ga  Ga21  1  1.00000000  0.50000000  -0.50000000  1.0
