# generated using pymatgen
data_Fe5SiC
_symmetry_space_group_name_H-M   'P 1'
_cell_length_a   6.35299888
_cell_length_b   6.35299888
_cell_length_c   7.41053233
_cell_angle_alpha   90.00000000
_cell_angle_beta   90.00000000
_cell_angle_gamma   77.27305267
_symmetry_Int_Tables_number   1
_chemical_formula_structural   Fe5SiC
_chemical_formula_sum   'Fe20 Si4 C4'
_cell_volume   291.74507591
_cell_formula_units_Z   4
loop_
 _symmetry_equiv_pos_site_id
 _symmetry_equiv_pos_as_xyz
  1  'x, y, z'
loop_
 _atom_site_type_symbol
 _atom_site_label
 _atom_site_symmetry_multiplicity
 _atom_site_fract_x
 _atom_site_fract_y
 _atom_site_fract_z
 _atom_site_occupancy
  Fe  Fe0  1  -0.12480678  1.87502825  0.26178097  1.0
  Fe  Fe1  1  0.87502825  0.87519322  0.76178097  1.0
  Fe  Fe2  1  -0.87502825  1.12480678  0.26178097  1.0
  Fe  Fe3  1  0.12480678  0.12497175  0.76178097  1.0
  Fe  Fe4  1  0.19193949  0.51298976  0.20164677  1.0
  Fe  Fe5  1  -0.48701024  1.19193949  0.70164677  1.0
  Fe  Fe6  1  0.48701024  0.80806051  0.20164677  1.0
  Fe  Fe7  1  -0.19193949  1.48701024  0.70164677  1.0
  Fe  Fe8  1  -0.19173673  1.48692063  0.32192547  1.0
  Fe  Fe9  1  0.48692063  0.80826327  0.82192547  1.0
  Fe  Fe10  1  -0.48692063  1.19173673  0.32192547  1.0
  Fe  Fe11  1  0.19173673  0.51307937  0.82192547  1.0
  Fe  Fe12  1  -0.06674945  1.30815201  0.01183864  1.0
  Fe  Fe13  1  0.30815201  0.93325055  0.51183864  1.0
  Fe  Fe14  1  -0.30815201  1.06674945  0.01183864  1.0
  Fe  Fe15  1  0.06674945  0.69184799  0.51183864  1.0
  Fe  Fe16  1  0.15183214  0.84816786  0.01176935  1.0
  Fe  Fe17  1  -0.15183214  1.15183214  0.51176935  1.0
  Fe  Fe18  1  -0.46875487  1.46875487  0.01137688  1.0
  Fe  Fe19  1  0.46875487  0.53124513  0.51137688  1.0
  Si  Si20  1  -0.17972079  1.67361185  0.01177978  1.0
  Si  Si21  1  0.67361185  0.82027921  0.51177978  1.0
  Si  Si22  1  -0.67361185  1.17972079  0.01177978  1.0
  Si  Si23  1  0.17972079  0.32638815  0.51177978  1.0
  C  C24  1  0.19091281  0.80908719  0.72487284  1.0
  C  C25  1  -0.19091281  1.19091281  0.22487284  1.0
  C  C26  1  0.19110728  0.80889272  0.29883767  1.0
  C  C27  1  -0.19110728  1.19110728  0.79883767  1.0
