# generated using pymatgen
data_Rb3IO5
_symmetry_space_group_name_H-M   'P 1'
_cell_length_a   8.91794452
_cell_length_b   8.95231719
_cell_length_c   9.51199974
_cell_angle_alpha   90.00000000
_cell_angle_beta   90.00000000
_cell_angle_gamma   90.00000000
_symmetry_Int_Tables_number   1
_chemical_formula_structural   Rb3IO5
_chemical_formula_sum   'Rb12 I4 O20'
_cell_volume   759.40256078
_cell_formula_units_Z   4
loop_
 _symmetry_equiv_pos_site_id
 _symmetry_equiv_pos_as_xyz
  1  'x, y, z'
loop_
 _atom_site_type_symbol
 _atom_site_label
 _atom_site_symmetry_multiplicity
 _atom_site_fract_x
 _atom_site_fract_y
 _atom_site_fract_z
 _atom_site_occupancy
  Rb  Rb0  1  0.96568831  0.75000000  0.25000000  1.0
  Rb  Rb1  1  0.46568831  0.75000000  0.75000000  1.0
  Rb  Rb2  1  0.03431169  0.25000000  0.75000000  1.0
  Rb  Rb3  1  0.53431169  0.25000000  0.25000000  1.0
  Rb  Rb4  1  0.25000000  0.00000000  0.01387403  1.0
  Rb  Rb5  1  0.25000000  0.50000000  0.48612597  1.0
  Rb  Rb6  1  0.75000000  0.00000000  0.98612597  1.0
  Rb  Rb7  1  0.75000000  0.50000000  0.51387403  1.0
  Rb  Rb8  1  0.25000000  0.00000000  0.48626841  1.0
  Rb  Rb9  1  0.25000000  0.50000000  0.01373159  1.0
  Rb  Rb10  1  0.75000000  0.00000000  0.51373159  1.0
  Rb  Rb11  1  0.75000000  0.50000000  0.98626841  1.0
  I  I12  1  0.48700705  0.75000000  0.25000000  1.0
  I  I13  1  0.98700705  0.75000000  0.75000000  1.0
  I  I14  1  0.51299295  0.25000000  0.75000000  1.0
  I  I15  1  0.01299295  0.25000000  0.25000000  1.0
  O  O16  1  -0.00670038  0.75016500  0.54686337  1.0
  O  O17  1  -0.00670038  0.74983500  0.95313663  1.0
  O  O18  1  0.49329962  0.75016500  0.45313663  1.0
  O  O19  1  0.49329962  0.74983500  0.04686337  1.0
  O  O20  1  1.00670038  0.25016500  0.04686337  1.0
  O  O21  1  1.00670038  0.24983500  0.45313663  1.0
  O  O22  1  0.50670038  0.25016500  0.95313663  1.0
  O  O23  1  0.50670038  0.24983500  0.54686337  1.0
  O  O24  1  0.91604030  0.43958921  0.25016003  1.0
  O  O25  1  0.91604030  0.06041079  0.24983997  1.0
  O  O26  1  0.41604030  0.43958921  0.74983997  1.0
  O  O27  1  0.41604030  0.06041079  0.75016003  1.0
  O  O28  1  0.08395970  0.93958921  0.75016003  1.0
  O  O29  1  0.08395970  0.56041079  0.74983997  1.0
  O  O30  1  0.58395970  0.93958921  0.24983997  1.0
  O  O31  1  0.58395970  0.56041079  0.25016003  1.0
  O  O32  1  0.27356542  0.75000000  0.25000000  1.0
  O  O33  1  0.77356542  0.75000000  0.75000000  1.0
  O  O34  1  0.72643458  0.25000000  0.75000000  1.0
  O  O35  1  0.22643458  0.25000000  0.25000000  1.0
