# generated using pymatgen
data_Cs6Ti2O7
_symmetry_space_group_name_H-M   'P 1'
_cell_length_a   7.27561572
_cell_length_b   10.07055066
_cell_length_c   12.36901893
_cell_angle_alpha   90.00000000
_cell_angle_beta   124.26387542
_cell_angle_gamma   90.00000000
_symmetry_Int_Tables_number   1
_chemical_formula_structural   Cs6Ti2O7
_chemical_formula_sum   'Cs12 Ti4 O14'
_cell_volume   748.99102159
_cell_formula_units_Z   2
loop_
 _symmetry_equiv_pos_site_id
 _symmetry_equiv_pos_as_xyz
  1  'x, y, z'
loop_
 _atom_site_type_symbol
 _atom_site_label
 _atom_site_symmetry_multiplicity
 _atom_site_fract_x
 _atom_site_fract_y
 _atom_site_fract_z
 _atom_site_occupancy
  Cs  Cs0  1  0.90078627  0.71289102  0.27682413  1.0
  Cs  Cs1  1  0.90078627  0.78710898  0.77682413  1.0
  Cs  Cs2  1  0.09921373  0.21289102  0.22317587  1.0
  Cs  Cs3  1  0.09921373  0.28710898  0.72317587  1.0
  Cs  Cs4  1  0.70500531  0.02855545  0.45247770  1.0
  Cs  Cs5  1  0.70500531  0.47144455  0.95247770  1.0
  Cs  Cs6  1  0.29499469  0.52855545  0.04752230  1.0
  Cs  Cs7  1  0.29499469  0.97144455  0.54752230  1.0
  Cs  Cs8  1  0.45904112  0.14920493  0.08011309  1.0
  Cs  Cs9  1  0.45904112  0.35079507  0.58011309  1.0
  Cs  Cs10  1  0.54095888  0.64920493  0.41988691  1.0
  Cs  Cs11  1  0.54095888  0.85079507  0.91988691  1.0
  Ti  Ti12  1  0.82377428  0.36453887  0.37465588  1.0
  Ti  Ti13  1  0.82377428  0.13546113  0.87465588  1.0
  Ti  Ti14  1  0.17622572  0.86453887  0.12534412  1.0
  Ti  Ti15  1  0.17622572  0.63546113  0.62534412  1.0
  O  O16  1  0.99455668  0.21572308  0.42745916  1.0
  O  O17  1  0.99455668  0.28427692  0.92745916  1.0
  O  O18  1  0.00544332  0.71572308  0.07254084  1.0
  O  O19  1  0.00544332  0.78427692  0.57254084  1.0
  O  O20  1  0.75392373  0.41267344  0.21417822  1.0
  O  O21  1  0.75392373  0.08732656  0.71417822  1.0
  O  O22  1  0.24607627  0.91267344  0.28582178  1.0
  O  O23  1  0.24607627  0.58732656  0.78582178  1.0
  O  O24  1  0.57416616  0.33512700  0.37194391  1.0
  O  O25  1  0.57416616  0.16487300  0.87194391  1.0
  O  O26  1  0.42583384  0.83512700  0.12805609  1.0
  O  O27  1  0.42583384  0.66487300  0.62805609  1.0
  O  O28  1  -0.00000000  0.50000000  0.50000000  1.0
  O  O29  1  0.00000000  0.00000000  0.00000000  1.0
