# generated using pymatgen
data_KB5O12
_symmetry_space_group_name_H-M   'P 1'
_cell_length_a   7.20340597
_cell_length_b   7.20340597
_cell_length_c   10.52439927
_cell_angle_alpha   90.00000000
_cell_angle_beta   90.00000000
_cell_angle_gamma   99.88734491
_symmetry_Int_Tables_number   1
_chemical_formula_structural   KB5O12
_chemical_formula_sum   'K2 B10 O24'
_cell_volume   537.99007013
_cell_formula_units_Z   2
loop_
 _symmetry_equiv_pos_site_id
 _symmetry_equiv_pos_as_xyz
  1  'x, y, z'
loop_
 _atom_site_type_symbol
 _atom_site_label
 _atom_site_symmetry_multiplicity
 _atom_site_fract_x
 _atom_site_fract_y
 _atom_site_fract_z
 _atom_site_occupancy
  O  O0  1  0.46030000  0.50957018  0.22495366  1.0
  O  O1  1  -0.00957018  1.03970000  0.72495366  1.0
  O  O2  1  0.49042982  0.53970000  0.77504634  1.0
  O  O3  1  -0.03970000  1.00957018  0.27504634  1.0
  O  O4  1  -0.51473735  1.18670747  0.09705227  1.0
  O  O5  1  -0.68670747  1.01473735  0.59705227  1.0
  O  O6  1  -0.18670747  1.51473735  -0.09705227  1.0
  O  O7  1  -0.01473735  1.68670747  0.40294773  1.0
  O  O8  1  0.44916822  0.83013883  0.23030708  1.0
  O  O9  1  -0.33013883  1.05083178  0.73030708  1.0
  O  O10  1  0.16986117  0.55083178  0.76969292  1.0
  O  O11  1  -0.05083178  1.33013883  0.26969292  1.0
  O  O12  1  -0.51763820  1.17715963  0.21917460  1.0
  O  O13  1  -0.67715963  1.01763820  0.71917460  1.0
  O  O14  1  -0.17715963  1.51763820  0.78082540  1.0
  O  O15  1  -0.01763820  1.67715963  0.28082540  1.0
  O  O16  1  -0.50634683  1.33274360  0.41641576  1.0
  O  O17  1  0.16725640  1.00634683  0.91641576  1.0
  O  O18  1  -0.33274360  1.50634683  0.58358424  1.0
  O  O19  1  -0.00634683  0.83274360  0.08358424  1.0
  O  O20  1  0.52012819  0.67617110  0.42479366  1.0
  O  O21  1  -0.17617110  0.97987181  0.92479366  1.0
  O  O22  1  0.32382890  0.47987181  0.57520634  1.0
  O  O23  1  0.02012819  1.17617110  0.07520634  1.0
  K  K24  1  -0.17660741  1.17660741  0.50000000  1.0
  K  K25  1  0.32339259  0.67660741  0.00000000  1.0
  B  B26  1  -0.52112320  1.35434332  0.29202035  1.0
  B  B27  1  -0.85434332  1.02112320  0.79202035  1.0
  B  B28  1  -0.35434332  1.52112320  0.70797965  1.0
  B  B29  1  -0.02112320  1.85434332  0.20797965  1.0
  B  B30  1  0.47661786  0.68034912  0.29948306  1.0
  B  B31  1  -0.18034912  1.02338214  0.79948306  1.0
  B  B32  1  0.31965088  0.52338214  0.70051694  1.0
  B  B33  1  -0.02338214  1.18034912  0.20051694  1.0
  B  B34  1  0.49642196  0.50357804  0.50000000  1.0
  B  B35  1  -0.00357804  0.00357804  0.00000000  1.0
