# generated using pymatgen
data_MoH8(NO2)2
_symmetry_space_group_name_H-M   'P 1'
_cell_length_a   7.25727906
_cell_length_b   7.25727906
_cell_length_c   7.83804473
_cell_angle_alpha   64.16331914
_cell_angle_beta   115.83668086
_cell_angle_gamma   124.17743455
_symmetry_Int_Tables_number   1
_chemical_formula_structural   MoH8(NO2)2
_chemical_formula_sum   'Mo2 H16 N4 O8'
_cell_volume   297.10038238
_cell_formula_units_Z   2
loop_
 _symmetry_equiv_pos_site_id
 _symmetry_equiv_pos_as_xyz
  1  'x, y, z'
loop_
 _atom_site_type_symbol
 _atom_site_label
 _atom_site_symmetry_multiplicity
 _atom_site_fract_x
 _atom_site_fract_y
 _atom_site_fract_z
 _atom_site_occupancy
  Mo  Mo0  1  0.82894285  0.17105715  0.77228657  1.0
  Mo  Mo1  1  0.17105715  -0.17105715  0.22771343  1.0
  H  H2  1  0.34424965  -0.09957496  0.79867103  1.0
  H  H3  1  1.09957496  0.65575035  0.79867103  1.0
  H  H4  1  0.90042504  0.34424965  0.20132897  1.0
  H  H5  1  0.65575035  0.09957496  0.20132897  1.0
  H  H6  1  0.43017705  0.32236602  0.87093886  1.0
  H  H7  1  0.67763398  0.56982295  0.87093886  1.0
  H  H8  1  1.32236602  0.43017705  0.12906114  1.0
  H  H9  1  0.56982295  -0.32236602  0.12906114  1.0
  H  H10  1  0.90728863  0.09271137  0.24875870  1.0
  H  H11  1  0.09271137  -0.09271137  0.75124130  1.0
  H  H12  1  0.86268111  0.13731889  0.41897143  1.0
  H  H13  1  0.13731889  -0.13731889  0.58102857  1.0
  H  H14  1  0.58648078  0.41351922  0.71451240  1.0
  H  H15  1  0.41351922  -0.41351922  0.28548760  1.0
  H  H16  1  0.44431442  -0.44431442  0.66701886  1.0
  H  H17  1  0.55568558  0.44431442  0.33298114  1.0
  N  N18  1  0.83243866  0.16756134  0.26716723  1.0
  N  N19  1  0.16756134  -0.16756134  0.73283277  1.0
  N  N20  1  0.53301112  0.46698888  0.78085363  1.0
  N  N21  1  0.46698888  -0.46698888  0.21914637  1.0
  O  O22  1  0.63855936  -0.06748530  0.91808596  1.0
  O  O23  1  1.06748530  0.36144064  0.91808596  1.0
  O  O24  1  0.93251470  0.63855936  0.08191404  1.0
  O  O25  1  0.36144064  0.06748530  0.08191404  1.0
  O  O26  1  0.92474333  0.07525667  0.66762555  1.0
  O  O27  1  0.07525667  -0.07525667  0.33237445  1.0
  O  O28  1  0.67547451  0.32452549  0.58570233  1.0
  O  O29  1  0.32452549  -0.32452549  0.41429767  1.0
