# generated using pymatgen
data_Ni2B
_symmetry_space_group_name_H-M   'P 1'
_cell_length_a   4.11272779
_cell_length_b   4.11272779
_cell_length_c   4.11272779
_cell_angle_alpha   105.58838987
_cell_angle_beta   105.58838987
_cell_angle_gamma   117.55182308
_symmetry_Int_Tables_number   1
_chemical_formula_structural   Ni2B
_chemical_formula_sum   'Ni4 B2'
_cell_volume   52.74175538
_cell_formula_units_Z   2
loop_
 _symmetry_equiv_pos_site_id
 _symmetry_equiv_pos_as_xyz
  1  'x, y, z'
loop_
 _atom_site_type_symbol
 _atom_site_label
 _atom_site_symmetry_multiplicity
 _atom_site_fract_x
 _atom_site_fract_y
 _atom_site_fract_z
 _atom_site_occupancy
  Ni  Ni0  1  0.83034250  0.33034250  1.16068501  1.0
  Ni  Ni1  1  0.66965750  0.83034250  0.50000000  1.0
  Ni  Ni2  1  0.33034250  0.16965750  0.50000000  1.0
  Ni  Ni3  1  1.16965750  0.66965750  0.83931499  1.0
  B  B4  1  0.25000000  0.25000000  0.00000000  1.0
  B  B5  1  0.75000000  0.75000000  0.00000000  1.0
