# generated using pymatgen
data_InB5(HO5)2
_symmetry_space_group_name_H-M   'P 1'
_cell_length_a   4.52679289
_cell_length_b   4.52679289
_cell_length_c   8.67346315
_cell_angle_alpha   83.21853574
_cell_angle_beta   96.78146426
_cell_angle_gamma   58.37660135
_symmetry_Int_Tables_number   1
_chemical_formula_structural   InB5(HO5)2
_chemical_formula_sum   'In1 B5 H2 O10'
_cell_volume   146.84047882
_cell_formula_units_Z   1
loop_
 _symmetry_equiv_pos_site_id
 _symmetry_equiv_pos_as_xyz
  1  'x, y, z'
loop_
 _atom_site_type_symbol
 _atom_site_label
 _atom_site_symmetry_multiplicity
 _atom_site_fract_x
 _atom_site_fract_y
 _atom_site_fract_z
 _atom_site_occupancy
  In  In0  1  0.25723709  0.25723709  0.50000000  1.0
  B  B1  1  1.02660236  -0.16858897  0.72525200  1.0
  B  B2  1  0.83141103  0.02660236  0.27474800  1.0
  B  B3  1  0.71398942  -0.51567128  0.72132677  1.0
  B  B4  1  0.48432872  -0.28601058  0.27867323  1.0
  B  B5  1  0.00245124  0.00245124  0.00000000  1.0
  H  H6  1  0.96102390  -0.47718201  0.92393976  1.0
  H  H7  1  0.52281799  -0.03897610  0.07606024  1.0
  O  O8  1  0.34971397  -0.19727595  0.68212026  1.0
  O  O9  1  0.80272405  -0.65028603  0.31787974  1.0
  O  O10  1  0.86451692  -0.64530916  0.89661460  1.0
  O  O11  1  0.35469084  -0.13548308  0.10338540  1.0
  O  O12  1  1.20179501  -0.27242609  0.34916389  1.0
  O  O13  1  0.72757391  0.20179501  0.65083611  1.0
  O  O14  1  0.95055905  -0.41451262  0.65668031  1.0
  O  O15  1  0.58548738  -0.04944095  0.34331969  1.0
  O  O16  1  1.04269787  -0.23832075  0.89586599  1.0
  O  O17  1  0.76167925  0.04269787  0.10413401  1.0
