# generated using pymatgen
data_Ca2InPt2
_symmetry_space_group_name_H-M   'P 1'
_cell_length_a   5.83928152
_cell_length_b   5.83928152
_cell_length_c   8.21868169
_cell_angle_alpha   77.17873524
_cell_angle_beta   102.82126476
_cell_angle_gamma   121.43548660
_symmetry_Int_Tables_number   1
_chemical_formula_structural   Ca2InPt2
_chemical_formula_sum   'Ca4 In2 Pt4'
_cell_volume   231.23558527
_cell_formula_units_Z   2
loop_
 _symmetry_equiv_pos_site_id
 _symmetry_equiv_pos_as_xyz
  1  'x, y, z'
loop_
 _atom_site_type_symbol
 _atom_site_label
 _atom_site_symmetry_multiplicity
 _atom_site_fract_x
 _atom_site_fract_y
 _atom_site_fract_z
 _atom_site_occupancy
  Ca  Ca0  1  0.49976696  0.20230701  0.64903219  1.0
  Ca  Ca1  1  0.79769299  0.50023304  0.14903219  1.0
  Ca  Ca2  1  1.20230701  0.49976696  0.85096781  1.0
  Ca  Ca3  1  0.50023304  -0.20230701  0.35096781  1.0
  In  In4  1  0.84618715  0.84618715  0.75000000  1.0
  In  In5  1  0.15381285  0.15381285  0.25000000  1.0
  Pt  Pt6  1  0.72355952  -0.00303356  0.99662813  1.0
  Pt  Pt7  1  1.00303356  0.27644048  0.49662813  1.0
  Pt  Pt8  1  0.99696644  0.72355952  0.50337187  1.0
  Pt  Pt9  1  0.27644048  0.00303356  0.00337187  1.0
