# generated using pymatgen
data_TlFeI3
_symmetry_space_group_name_H-M   'P 1'
_cell_length_a   10.20627065
_cell_length_b   4.30182367
_cell_length_c   16.09893707
_cell_angle_alpha   90.00000000
_cell_angle_beta   90.00000000
_cell_angle_gamma   90.00000000
_symmetry_Int_Tables_number   1
_chemical_formula_structural   TlFeI3
_chemical_formula_sum   'Tl4 Fe4 I12'
_cell_volume   706.83311485
_cell_formula_units_Z   4
loop_
 _symmetry_equiv_pos_site_id
 _symmetry_equiv_pos_as_xyz
  1  'x, y, z'
loop_
 _atom_site_type_symbol
 _atom_site_label
 _atom_site_symmetry_multiplicity
 _atom_site_fract_x
 _atom_site_fract_y
 _atom_site_fract_z
 _atom_site_occupancy
  Fe  Fe0  1  0.84134049  0.75000000  0.44845901  1.0
  Fe  Fe1  1  0.34134049  0.75000000  0.05154099  1.0
  Fe  Fe2  1  0.15865951  0.25000000  0.55154099  1.0
  Fe  Fe3  1  0.65865951  0.25000000  0.94845901  1.0
  I  I4  1  0.73198244  0.75000000  0.29312468  1.0
  I  I5  1  0.23198244  0.75000000  0.20687532  1.0
  I  I6  1  0.26801756  0.25000000  0.70687532  1.0
  I  I7  1  0.76801756  0.25000000  0.79312468  1.0
  I  I8  1  0.98231984  0.75000000  0.60014119  1.0
  I  I9  1  0.48231984  0.75000000  0.89985881  1.0
  I  I10  1  0.01768016  0.25000000  0.39985881  1.0
  I  I11  1  0.51768016  0.25000000  0.10014119  1.0
  I  I12  1  0.81994968  0.75000000  0.00737036  1.0
  I  I13  1  0.31994968  0.75000000  0.49262964  1.0
  I  I14  1  0.18005032  0.25000000  0.99262964  1.0
  I  I15  1  0.68005032  0.25000000  0.50737036  1.0
  Tl  Tl16  1  0.53272394  0.75000000  0.66831171  1.0
  Tl  Tl17  1  0.03272394  0.75000000  0.83168829  1.0
  Tl  Tl18  1  0.46727606  0.25000000  0.33168829  1.0
  Tl  Tl19  1  0.96727606  0.25000000  0.16831171  1.0
