# generated using pymatgen
data_CsSi2HO5
_symmetry_space_group_name_H-M   'P 1'
_cell_length_a   5.06887883
_cell_length_b   8.94818675
_cell_length_c   13.01080036
_cell_angle_alpha   90.00000000
_cell_angle_beta   90.02589393
_cell_angle_gamma   90.00000000
_symmetry_Int_Tables_number   1
_chemical_formula_structural   CsSi2HO5
_chemical_formula_sum   'Cs4 Si8 H4 O20'
_cell_volume   590.13438188
_cell_formula_units_Z   4
loop_
 _symmetry_equiv_pos_site_id
 _symmetry_equiv_pos_as_xyz
  1  'x, y, z'
loop_
 _atom_site_type_symbol
 _atom_site_label
 _atom_site_symmetry_multiplicity
 _atom_site_fract_x
 _atom_site_fract_y
 _atom_site_fract_z
 _atom_site_occupancy
  Cs  Cs0  1  0.57287502  0.75000000  0.06194814  1.0
  Cs  Cs1  1  0.42712498  0.25000000  0.93805186  1.0
  Cs  Cs2  1  0.07285769  0.75000000  0.43796376  1.0
  Cs  Cs3  1  0.92714231  0.25000000  0.56203624  1.0
  Si  Si4  1  0.95864026  0.92985517  0.81823408  1.0
  Si  Si5  1  0.95864026  0.57014483  0.81823408  1.0
  Si  Si6  1  0.04135974  0.42985517  0.18176592  1.0
  Si  Si7  1  0.04135974  0.07014483  0.18176592  1.0
  Si  Si8  1  0.45833017  0.92986393  0.68173527  1.0
  Si  Si9  1  0.45833017  0.57013607  0.68173527  1.0
  Si  Si10  1  0.54166983  0.42986393  0.31826473  1.0
  Si  Si11  1  0.54166983  0.07013607  0.31826473  1.0
  H  H12  1  0.50000000  0.00000000  0.50000000  1.0
  H  H13  1  0.50000000  0.50000000  0.50000000  1.0
  H  H14  1  0.00000000  0.00000000  0.00000000  1.0
  H  H15  1  0.00000000  0.50000000  0.00000000  1.0
  O  O16  1  0.88894424  0.47526742  0.91936482  1.0
  O  O17  1  0.88894424  0.02473258  0.91936482  1.0
  O  O18  1  0.11105576  0.97526742  0.08063518  1.0
  O  O19  1  0.11105576  0.52473258  0.08063518  1.0
  O  O20  1  0.75871999  0.97055426  0.72206800  1.0
  O  O21  1  0.75871999  0.52944574  0.72206800  1.0
  O  O22  1  0.24128001  0.47055426  0.27793200  1.0
  O  O23  1  0.24128001  0.02944574  0.27793200  1.0
  O  O24  1  0.61117024  0.97524162  0.41943225  1.0
  O  O25  1  0.61117024  0.52475838  0.41943225  1.0
  O  O26  1  0.38882976  0.47524162  0.58056775  1.0
  O  O27  1  0.38882976  0.02475838  0.58056775  1.0
  O  O28  1  0.25872651  0.97100469  0.77785330  1.0
  O  O29  1  0.25872651  0.52899531  0.77785330  1.0
  O  O30  1  0.74127349  0.47100469  0.22214670  1.0
  O  O31  1  0.74127349  0.02899531  0.22214670  1.0
  O  O32  1  0.94010684  0.75000000  0.84279616  1.0
  O  O33  1  0.05989316  0.25000000  0.15720384  1.0
  O  O34  1  0.43874433  0.75000000  0.65729900  1.0
  O  O35  1  0.56125567  0.25000000  0.34270100  1.0
