# generated using pymatgen
data_Sm2(Ga3Ir)3
_symmetry_space_group_name_H-M   'P 1'
_cell_length_a   7.61554559
_cell_length_b   7.61554559
_cell_length_c   9.67724317
_cell_angle_alpha   90.00000000
_cell_angle_beta   90.00000000
_cell_angle_gamma   60.34138177
_symmetry_Int_Tables_number   1
_chemical_formula_structural   Sm2(Ga3Ir)3
_chemical_formula_sum   'Sm4 Ga18 Ir6'
_cell_volume   487.71716897
_cell_formula_units_Z   2
loop_
 _symmetry_equiv_pos_site_id
 _symmetry_equiv_pos_as_xyz
  1  'x, y, z'
loop_
 _atom_site_type_symbol
 _atom_site_label
 _atom_site_symmetry_multiplicity
 _atom_site_fract_x
 _atom_site_fract_y
 _atom_site_fract_z
 _atom_site_occupancy
  Sm  Sm0  1  -0.00216554  1.33104565  0.25000000  1.0
  Sm  Sm1  1  0.33104565  0.99783446  0.75000000  1.0
  Sm  Sm2  1  -0.33104565  1.00216554  0.25000000  1.0
  Sm  Sm3  1  0.00216554  0.66895435  0.75000000  1.0
  Ga  Ga4  1  0.00135569  0.66532189  0.42333887  1.0
  Ga  Ga5  1  0.00135569  0.66532189  0.07666113  1.0
  Ga  Ga6  1  -0.33467811  1.00135569  0.92333887  1.0
  Ga  Ga7  1  -0.33467811  1.00135569  0.57666113  1.0
  Ga  Ga8  1  0.33467811  0.99864431  0.42333887  1.0
  Ga  Ga9  1  0.33467811  0.99864431  0.07666113  1.0
  Ga  Ga10  1  -0.00135569  1.33467811  0.92333887  1.0
  Ga  Ga11  1  -0.00135569  1.33467811  0.57666113  1.0
  Ga  Ga12  1  0.33783165  0.45524785  0.25000000  1.0
  Ga  Ga13  1  -0.54475215  1.33783165  0.75000000  1.0
  Ga  Ga14  1  0.54475215  0.66216835  0.25000000  1.0
  Ga  Ga15  1  -0.33783165  1.54475215  0.75000000  1.0
  Ga  Ga16  1  0.33356724  0.66643276  0.93914259  1.0
  Ga  Ga17  1  0.33356724  0.66643276  0.56085741  1.0
  Ga  Ga18  1  -0.33356724  1.33356724  0.43914259  1.0
  Ga  Ga19  1  -0.33356724  1.33356724  0.06085741  1.0
  Ga  Ga20  1  0.12887223  0.87112777  0.25000000  1.0
  Ga  Ga21  1  -0.12887223  1.12887223  0.75000000  1.0
  Ir  Ir22  1  0.67026973  0.67026973  0.50000000  1.0
  Ir  Ir23  1  0.67026973  0.67026973  -0.00000000  1.0
  Ir  Ir24  1  0.32973027  0.32973027  0.50000000  1.0
  Ir  Ir25  1  0.32973027  0.32973027  -0.00000000  1.0
  Ir  Ir26  1  0.00000000  0.00000000  0.50000000  1.0
  Ir  Ir27  1  0.00000000  0.00000000  0.00000000  1.0
