# generated using pymatgen
data_Y5(Co2Ge5)2
_symmetry_space_group_name_H-M   'P 1'
_cell_length_a   12.76641524
_cell_length_b   12.76641524
_cell_length_c   4.19556987
_cell_angle_alpha   90.00000000
_cell_angle_beta   90.00000000
_cell_angle_gamma   90.00000000
_symmetry_Int_Tables_number   1
_chemical_formula_structural   Y5(Co2Ge5)2
_chemical_formula_sum   'Y10 Co8 Ge20'
_cell_volume   683.79967497
_cell_formula_units_Z   2
loop_
 _symmetry_equiv_pos_site_id
 _symmetry_equiv_pos_as_xyz
  1  'x, y, z'
loop_
 _atom_site_type_symbol
 _atom_site_label
 _atom_site_symmetry_multiplicity
 _atom_site_fract_x
 _atom_site_fract_y
 _atom_site_fract_z
 _atom_site_occupancy
  Y  Y0  1  0.32238178  0.17761822  0.50000000  1.0
  Y  Y1  1  0.82238178  0.32238178  0.50000000  1.0
  Y  Y2  1  0.67761822  0.82238178  0.50000000  1.0
  Y  Y3  1  0.17761822  0.67761822  0.50000000  1.0
  Y  Y4  1  0.88995991  0.61004009  0.50000000  1.0
  Y  Y5  1  0.38995991  0.88995991  0.50000000  1.0
  Y  Y6  1  0.11004009  0.38995991  0.50000000  1.0
  Y  Y7  1  0.61004009  0.11004009  0.50000000  1.0
  Y  Y8  1  0.50000000  0.50000000  0.00000000  1.0
  Y  Y9  1  0.00000000  0.00000000  0.00000000  1.0
  Co  Co10  1  0.25573566  0.52563697  0.00000000  1.0
  Co  Co11  1  0.75573566  0.97436303  0.00000000  1.0
  Co  Co12  1  0.47436303  0.25573566  0.00000000  1.0
  Co  Co13  1  0.97436303  0.24426434  0.00000000  1.0
  Co  Co14  1  0.74426434  0.47436303  0.00000000  1.0
  Co  Co15  1  0.24426434  0.02563697  0.00000000  1.0
  Co  Co16  1  0.52563697  0.74426434  0.00000000  1.0
  Co  Co17  1  0.02563697  0.75573566  0.00000000  1.0
  Ge  Ge18  1  0.33385735  0.50347020  0.50000000  1.0
  Ge  Ge19  1  0.83385735  0.99652980  0.50000000  1.0
  Ge  Ge20  1  0.49652980  0.33385735  0.50000000  1.0
  Ge  Ge21  1  0.99652980  0.16614265  0.50000000  1.0
  Ge  Ge22  1  0.66614265  0.49652980  0.50000000  1.0
  Ge  Ge23  1  0.16614265  0.00347020  0.50000000  1.0
  Ge  Ge24  1  0.50347020  0.66614265  0.50000000  1.0
  Ge  Ge25  1  0.00347020  0.83385735  0.50000000  1.0
  Ge  Ge26  1  0.34583904  0.69891749  0.00000000  1.0
  Ge  Ge27  1  0.84583904  0.80108251  0.00000000  1.0
  Ge  Ge28  1  0.30108251  0.34583904  0.00000000  1.0
  Ge  Ge29  1  0.80108251  0.15416096  0.00000000  1.0
  Ge  Ge30  1  0.65416096  0.30108251  0.00000000  1.0
  Ge  Ge31  1  0.15416096  0.19891749  0.00000000  1.0
  Ge  Ge32  1  0.69891749  0.65416096  0.00000000  1.0
  Ge  Ge33  1  0.19891749  0.84583904  0.00000000  1.0
  Ge  Ge34  1  0.43007131  0.06992869  0.00000000  1.0
  Ge  Ge35  1  0.93007131  0.43007131  0.00000000  1.0
  Ge  Ge36  1  0.56992869  0.93007131  0.00000000  1.0
  Ge  Ge37  1  0.06992869  0.56992869  0.00000000  1.0
