# generated using pymatgen
data_Zr3P
_symmetry_space_group_name_H-M   'P 1'
_cell_length_a   10.83012596
_cell_length_b   10.83012596
_cell_length_c   5.37005921
_cell_angle_alpha   90.00000000
_cell_angle_beta   90.00000000
_cell_angle_gamma   90.00000000
_symmetry_Int_Tables_number   1
_chemical_formula_structural   Zr3P
_chemical_formula_sum   'Zr24 P8'
_cell_volume   629.86298877
_cell_formula_units_Z   8
loop_
 _symmetry_equiv_pos_site_id
 _symmetry_equiv_pos_as_xyz
  1  'x, y, z'
loop_
 _atom_site_type_symbol
 _atom_site_label
 _atom_site_symmetry_multiplicity
 _atom_site_fract_x
 _atom_site_fract_y
 _atom_site_fract_z
 _atom_site_occupancy
  Zr  Zr0  1  0.47269640  0.36287256  1.22126484  1.0
  Zr  Zr1  1  0.97269640  0.86287256  0.27873516  1.0
  Zr  Zr2  1  0.36287256  0.52730360  -0.22126484  1.0
  Zr  Zr3  1  0.86287256  0.02730360  0.72126484  1.0
  Zr  Zr4  1  0.52730360  0.63712744  1.22126484  1.0
  Zr  Zr5  1  0.02730360  0.13712744  0.27873516  1.0
  Zr  Zr6  1  0.63712744  0.47269640  -0.22126484  1.0
  Zr  Zr7  1  0.13712744  0.97269640  0.72126484  1.0
  Zr  Zr8  1  0.32070113  0.78472540  0.48438361  1.0
  Zr  Zr9  1  0.82070113  0.28472540  0.01561639  1.0
  Zr  Zr10  1  0.78472540  0.67929887  0.51561639  1.0
  Zr  Zr11  1  0.28472540  0.17929887  0.98438361  1.0
  Zr  Zr12  1  0.67929887  0.21527460  0.48438361  1.0
  Zr  Zr13  1  0.17929887  0.71527460  0.01561639  1.0
  Zr  Zr14  1  0.21527460  0.32070113  0.51561639  1.0
  Zr  Zr15  1  0.71527460  0.82070113  0.98438361  1.0
  Zr  Zr16  1  1.10748709  0.41518058  0.03824259  1.0
  Zr  Zr17  1  0.60748709  0.91518058  0.46175741  1.0
  Zr  Zr18  1  0.41518058  -0.10748709  0.96175741  1.0
  Zr  Zr19  1  0.91518058  0.39251291  0.53824259  1.0
  Zr  Zr20  1  -0.10748709  0.58481942  0.03824259  1.0
  Zr  Zr21  1  0.39251291  0.08481942  0.46175741  1.0
  Zr  Zr22  1  0.58481942  1.10748709  0.96175741  1.0
  Zr  Zr23  1  0.08481942  0.60748709  0.53824259  1.0
  P  P24  1  0.45911817  0.29353320  0.71287114  1.0
  P  P25  1  0.95911817  0.79353320  -0.21287114  1.0
  P  P26  1  0.29353320  0.54088183  0.28712886  1.0
  P  P27  1  0.79353320  0.04088183  1.21287114  1.0
  P  P28  1  0.54088183  0.70646680  0.71287114  1.0
  P  P29  1  0.04088183  0.20646680  -0.21287114  1.0
  P  P30  1  0.70646680  0.45911817  0.28712886  1.0
  P  P31  1  0.20646680  0.95911817  1.21287114  1.0
