# generated using pymatgen
data_In2P2O7
_symmetry_space_group_name_H-M   'P 1'
_cell_length_a   7.67314971
_cell_length_b   10.63316321
_cell_length_c   8.62758783
_cell_angle_alpha   90.00000000
_cell_angle_beta   106.43352106
_cell_angle_gamma   90.00000000
_symmetry_Int_Tables_number   1
_chemical_formula_structural   In2P2O7
_chemical_formula_sum   'In8 P8 O28'
_cell_volume   675.16737761
_cell_formula_units_Z   4
loop_
 _symmetry_equiv_pos_site_id
 _symmetry_equiv_pos_as_xyz
  1  'x, y, z'
loop_
 _atom_site_type_symbol
 _atom_site_label
 _atom_site_symmetry_multiplicity
 _atom_site_fract_x
 _atom_site_fract_y
 _atom_site_fract_z
 _atom_site_occupancy
  In  In0  1  0.82990085  0.82035037  0.43540663  1.0
  In  In1  1  0.82990085  0.67964963  0.93540663  1.0
  In  In2  1  0.17009915  0.32035037  0.06459337  1.0
  In  In3  1  0.17009915  0.17964963  0.56459337  1.0
  In  In4  1  0.76030155  0.39939480  0.24145781  1.0
  In  In5  1  0.76030155  0.10060520  0.74145781  1.0
  In  In6  1  0.23969845  0.89939480  0.25854219  1.0
  In  In7  1  0.23969845  0.60060520  0.75854219  1.0
  P  P8  1  0.87071530  0.09827629  0.17454880  1.0
  P  P9  1  0.87071530  0.40172371  0.67454880  1.0
  P  P10  1  0.12928470  0.59827629  0.32545120  1.0
  P  P11  1  0.12928470  0.90172371  0.82545120  1.0
  P  P12  1  0.56438832  0.13479611  0.30866378  1.0
  P  P13  1  0.56438832  0.36520389  0.80866378  1.0
  P  P14  1  0.43561168  0.63479611  0.19133622  1.0
  P  P15  1  0.43561168  0.86520389  0.69133622  1.0
  O  O16  1  0.99391434  0.99640800  0.27941944  1.0
  O  O17  1  0.99391434  0.50359200  0.77941944  1.0
  O  O18  1  0.00608566  0.49640800  0.22058056  1.0
  O  O19  1  0.00608566  0.00359200  0.72058056  1.0
  O  O20  1  0.92751412  0.22982131  0.25041837  1.0
  O  O21  1  0.92751412  0.27017869  0.75041837  1.0
  O  O22  1  0.07248588  0.72982131  0.24958163  1.0
  O  O23  1  0.07248588  0.77017869  0.74958163  1.0
  O  O24  1  0.86605659  0.40683106  0.49834605  1.0
  O  O25  1  0.86605659  0.09316894  0.99834605  1.0
  O  O26  1  0.13394341  0.90683106  0.00165395  1.0
  O  O27  1  0.13394341  0.59316894  0.50165395  1.0
  O  O28  1  0.68412067  0.10386290  0.47871637  1.0
  O  O29  1  0.68412067  0.39613710  0.97871637  1.0
  O  O30  1  0.31587933  0.60386290  0.02128363  1.0
  O  O31  1  0.31587933  0.89613710  0.52128363  1.0
  O  O32  1  0.66611947  0.06858728  0.18554575  1.0
  O  O33  1  0.66611947  0.43141272  0.68554575  1.0
  O  O34  1  0.33388053  0.56858728  0.31445425  1.0
  O  O35  1  0.33388053  0.93141272  0.81445425  1.0
  O  O36  1  0.54522546  0.27629983  0.26624319  1.0
  O  O37  1  0.54522546  0.22370017  0.76624319  1.0
  O  O38  1  0.45477454  0.77629983  0.23375681  1.0
  O  O39  1  0.45477454  0.72370017  0.73375681  1.0
  O  O40  1  0.37353546  0.07677699  0.26430083  1.0
  O  O41  1  0.37353546  0.42322301  0.76430083  1.0
  O  O42  1  0.62646454  0.57677699  0.23569917  1.0
  O  O43  1  0.62646454  0.92322301  0.73569917  1.0
