# generated using pymatgen
data_TiSiPd
_symmetry_space_group_name_H-M   'P 1'
_cell_length_a   6.35515138
_cell_length_b   3.78855567
_cell_length_c   7.43531975
_cell_angle_alpha   90.00000000
_cell_angle_beta   90.00000000
_cell_angle_gamma   90.00000000
_symmetry_Int_Tables_number   1
_chemical_formula_structural   TiSiPd
_chemical_formula_sum   'Ti4 Si4 Pd4'
_cell_volume   179.01903951
_cell_formula_units_Z   4
loop_
 _symmetry_equiv_pos_site_id
 _symmetry_equiv_pos_as_xyz
  1  'x, y, z'
loop_
 _atom_site_type_symbol
 _atom_site_label
 _atom_site_symmetry_multiplicity
 _atom_site_fract_x
 _atom_site_fract_y
 _atom_site_fract_z
 _atom_site_occupancy
  Ti  Ti0  1  0.97019166  0.75000000  0.67661532  1.0
  Ti  Ti1  1  0.47019166  0.75000000  0.82338468  1.0
  Ti  Ti2  1  0.02980834  0.25000000  0.32338468  1.0
  Ti  Ti3  1  0.52980834  0.25000000  0.17661532  1.0
  Si  Si4  1  0.74586177  0.75000000  0.37418098  1.0
  Si  Si5  1  0.24586177  0.75000000  0.12581902  1.0
  Si  Si6  1  0.25413823  0.25000000  0.62581902  1.0
  Si  Si7  1  0.75413823  0.25000000  0.87418098  1.0
  Pd  Pd8  1  0.85392934  0.75000000  0.06208703  1.0
  Pd  Pd9  1  0.35392934  0.75000000  0.43791297  1.0
  Pd  Pd10  1  0.14607066  0.25000000  0.93791297  1.0
  Pd  Pd11  1  0.64607066  0.25000000  0.56208703  1.0
