# generated using pymatgen
data_CaP2PdO7
_symmetry_space_group_name_H-M   'P 1'
_cell_length_a   13.12395794
_cell_length_b   5.99593834
_cell_length_c   7.31014510
_cell_angle_alpha   90.00000000
_cell_angle_beta   90.00000000
_cell_angle_gamma   90.00000000
_symmetry_Int_Tables_number   1
_chemical_formula_structural   CaP2PdO7
_chemical_formula_sum   'Ca4 P8 Pd4 O28'
_cell_volume   575.23855239
_cell_formula_units_Z   4
loop_
 _symmetry_equiv_pos_site_id
 _symmetry_equiv_pos_as_xyz
  1  'x, y, z'
loop_
 _atom_site_type_symbol
 _atom_site_label
 _atom_site_symmetry_multiplicity
 _atom_site_fract_x
 _atom_site_fract_y
 _atom_site_fract_z
 _atom_site_occupancy
  Ca  Ca0  1  0.24998745  0.75000000  0.25004042  1.0
  Ca  Ca1  1  0.74998745  0.75000000  0.24995958  1.0
  Ca  Ca2  1  0.75001255  0.25000000  0.74995958  1.0
  Ca  Ca3  1  0.25001255  0.25000000  0.75004042  1.0
  P  P4  1  0.39004766  0.75000000  0.81066243  1.0
  P  P5  1  0.89004766  0.75000000  0.68933757  1.0
  P  P6  1  0.60995234  0.25000000  0.18933757  1.0
  P  P7  1  0.10995234  0.25000000  0.31066243  1.0
  P  P8  1  0.10999747  0.75000000  0.68937533  1.0
  P  P9  1  0.60999747  0.75000000  0.81062467  1.0
  P  P10  1  0.89000253  0.25000000  0.31062467  1.0
  P  P11  1  0.39000253  0.25000000  0.18937533  1.0
  Pd  Pd12  1  0.50000000  0.00000000  0.50000000  1.0
  Pd  Pd13  1  0.50000000  0.50000000  0.50000000  1.0
  Pd  Pd14  1  0.00000000  0.00000000  0.00000000  1.0
  Pd  Pd15  1  0.00000000  0.50000000  0.00000000  1.0
  O  O16  1  0.38689745  0.96803452  0.69261044  1.0
  O  O17  1  0.38689745  0.53196548  0.69261044  1.0
  O  O18  1  0.88689745  0.96803452  0.80738956  1.0
  O  O19  1  0.88689745  0.53196548  0.80738956  1.0
  O  O20  1  0.61310255  0.46803452  0.30738956  1.0
  O  O21  1  0.61310255  0.03196548  0.30738956  1.0
  O  O22  1  0.11310255  0.46803452  0.19261044  1.0
  O  O23  1  0.11310255  0.03196548  0.19261044  1.0
  O  O24  1  0.11314077  0.96803590  0.80742354  1.0
  O  O25  1  0.11314077  0.53196410  0.80742354  1.0
  O  O26  1  0.61314077  0.96803590  0.69257646  1.0
  O  O27  1  0.61314077  0.53196410  0.69257646  1.0
  O  O28  1  0.88685923  0.46803590  0.19257646  1.0
  O  O29  1  0.88685923  0.03196410  0.19257646  1.0
  O  O30  1  0.38685923  0.46803590  0.30742354  1.0
  O  O31  1  0.38685923  0.03196410  0.30742354  1.0
  O  O32  1  0.50002872  0.75000000  0.91305049  1.0
  O  O33  1  1.00002872  0.75000000  0.58694951  1.0
  O  O34  1  0.49997128  0.25000000  0.08694951  1.0
  O  O35  1  -0.00002872  0.25000000  0.41305049  1.0
  O  O36  1  0.30827521  0.75000000  0.95409740  1.0
  O  O37  1  0.80827521  0.75000000  0.54590260  1.0
  O  O38  1  0.69172479  0.25000000  0.04590260  1.0
  O  O39  1  0.19172479  0.25000000  0.45409740  1.0
  O  O40  1  0.19178271  0.75000000  0.54596088  1.0
  O  O41  1  0.69178271  0.75000000  0.95403912  1.0
  O  O42  1  0.80821729  0.25000000  0.45403912  1.0
  O  O43  1  0.30821729  0.25000000  0.04596088  1.0
