# generated using pymatgen
data_AlFeO3
_symmetry_space_group_name_H-M   'P 1'
_cell_length_a   5.02433284
_cell_length_b   8.69855082
_cell_length_c   9.42286437
_cell_angle_alpha   90.00000000
_cell_angle_beta   90.00000000
_cell_angle_gamma   90.00000000
_symmetry_Int_Tables_number   1
_chemical_formula_structural   AlFeO3
_chemical_formula_sum   'Al8 Fe8 O24'
_cell_volume   411.82077050
_cell_formula_units_Z   8
loop_
 _symmetry_equiv_pos_site_id
 _symmetry_equiv_pos_as_xyz
  1  'x, y, z'
loop_
 _atom_site_type_symbol
 _atom_site_label
 _atom_site_symmetry_multiplicity
 _atom_site_fract_x
 _atom_site_fract_y
 _atom_site_fract_z
 _atom_site_occupancy
  O  O0  1  -0.00490925  0.01075102  0.42874402  1.0
  O  O1  1  1.00490925  0.98924898  0.92874402  1.0
  O  O2  1  0.50490925  0.51075102  0.92874402  1.0
  O  O3  1  0.49509075  0.48924898  0.42874402  1.0
  O  O4  1  0.64191505  0.33309193  0.19517799  1.0
  O  O5  1  0.35808495  0.66690807  0.69517799  1.0
  O  O6  1  0.85808495  0.83309193  0.69517799  1.0
  O  O7  1  0.14191505  0.16690807  0.19517799  1.0
  O  O8  1  0.15990903  0.49083744  0.20044138  1.0
  O  O9  1  0.84009097  0.50916256  0.70044138  1.0
  O  O10  1  0.34009097  0.99083744  0.70044138  1.0
  O  O11  1  0.65990903  0.00916256  0.20044138  1.0
  O  O12  1  0.34681125  0.32992086  0.67044102  1.0
  O  O13  1  0.65318875  0.67007914  0.17044102  1.0
  O  O14  1  0.15318875  0.82992086  0.17044102  1.0
  O  O15  1  0.84681125  0.17007914  0.67044102  1.0
  O  O16  1  0.48205028  0.17829840  0.41512466  1.0
  O  O17  1  0.51794972  0.82170160  0.91512466  1.0
  O  O18  1  0.01794972  0.67829840  0.91512466  1.0
  O  O19  1  0.98205028  0.32170160  0.41512466  1.0
  O  O20  1  0.00014420  0.32374906  0.94412767  1.0
  O  O21  1  0.99985580  0.67625094  0.44412767  1.0
  O  O22  1  0.49985580  0.82374906  0.44412767  1.0
  O  O23  1  0.50014420  0.17625094  0.94412767  1.0
  Fe  Fe24  1  0.17166552  0.46321260  0.80047467  1.0
  Fe  Fe25  1  0.82833448  0.53678740  0.30047467  1.0
  Fe  Fe26  1  0.32833448  0.96321260  0.30047467  1.0
  Fe  Fe27  1  0.67166552  0.03678740  0.80047467  1.0
  Fe  Fe28  1  0.70126559  0.35397453  0.57853973  1.0
  Fe  Fe29  1  0.29873441  0.64602547  0.07853973  1.0
  Fe  Fe30  1  0.79873441  0.85397453  0.07853973  1.0
  Fe  Fe31  1  0.20126559  0.14602547  0.57853973  1.0
  Al  Al32  1  0.66788392  0.34606224  0.00446692  1.0
  Al  Al33  1  0.33211608  0.65393776  0.50446692  1.0
  Al  Al34  1  0.83211608  0.84606224  0.50446692  1.0
  Al  Al35  1  0.16788392  0.15393776  0.00446692  1.0
  Al  Al36  1  0.31629045  0.33558494  0.30526195  1.0
  Al  Al37  1  0.68370955  0.66441506  0.80526195  1.0
  Al  Al38  1  0.18370955  0.83558494  0.80526195  1.0
  Al  Al39  1  0.81629045  0.16441506  0.30526195  1.0
