# generated using pymatgen
data_CdP14Pb
_symmetry_space_group_name_H-M   'P 1'
_cell_length_a   13.13214526
_cell_length_b   9.82860452
_cell_length_c   11.74937941
_cell_angle_alpha   90.00000000
_cell_angle_beta   90.00000000
_cell_angle_gamma   90.00000000
_symmetry_Int_Tables_number   1
_chemical_formula_structural   CdP14Pb
_chemical_formula_sum   'Cd4 P56 Pb4'
_cell_volume   1516.50018187
_cell_formula_units_Z   4
loop_
 _symmetry_equiv_pos_site_id
 _symmetry_equiv_pos_as_xyz
  1  'x, y, z'
loop_
 _atom_site_type_symbol
 _atom_site_label
 _atom_site_symmetry_multiplicity
 _atom_site_fract_x
 _atom_site_fract_y
 _atom_site_fract_z
 _atom_site_occupancy
  Cd  Cd0  1  0.79287673  0.25000000  0.39272398  1.0
  Cd  Cd1  1  0.29287673  0.25000000  0.10727602  1.0
  Cd  Cd2  1  0.20712327  0.75000000  0.60727602  1.0
  Cd  Cd3  1  0.70712327  0.75000000  0.89272398  1.0
  P  P4  1  0.99711452  0.75000000  0.17095844  1.0
  P  P5  1  0.49711452  0.75000000  0.32904156  1.0
  P  P6  1  0.00288548  0.25000000  0.82904156  1.0
  P  P7  1  0.50288548  0.25000000  0.67095844  1.0
  P  P8  1  1.01940305  0.09910896  0.12087824  1.0
  P  P9  1  0.51940305  0.40089104  0.37912176  1.0
  P  P10  1  -0.01940305  0.59910896  0.87912176  1.0
  P  P11  1  0.48059695  0.90089104  0.62087824  1.0
  P  P12  1  -0.01940305  0.90089104  0.87912176  1.0
  P  P13  1  0.48059695  0.59910896  0.62087824  1.0
  P  P14  1  1.01940305  0.40089104  0.12087824  1.0
  P  P15  1  0.51940305  0.09910896  0.37912176  1.0
  P  P16  1  0.96718561  0.25000000  0.27853978  1.0
  P  P17  1  0.46718561  0.25000000  0.22146022  1.0
  P  P18  1  0.03281439  0.75000000  0.72146022  1.0
  P  P19  1  0.53281439  0.75000000  0.77853978  1.0
  P  P20  1  0.92852133  0.58556540  0.07265545  1.0
  P  P21  1  0.42852133  0.91443460  0.42734455  1.0
  P  P22  1  0.07147867  0.08556540  0.92734455  1.0
  P  P23  1  0.57147867  0.41443460  0.57265545  1.0
  P  P24  1  0.07147867  0.41443460  0.92734455  1.0
  P  P25  1  0.57147867  0.08556540  0.57265545  1.0
  P  P26  1  0.92852133  0.91443460  0.07265545  1.0
  P  P27  1  0.42852133  0.58556540  0.42734455  1.0
  P  P28  1  0.58427893  0.25000000  0.09039579  1.0
  P  P29  1  0.08427893  0.25000000  0.40960421  1.0
  P  P30  1  0.41572107  0.75000000  0.90960421  1.0
  P  P31  1  0.91572107  0.75000000  0.59039579  1.0
  P  P32  1  0.59490278  0.58361862  0.05821072  1.0
  P  P33  1  0.09490278  0.91638138  0.44178928  1.0
  P  P34  1  0.40509722  0.08361862  0.94178928  1.0
  P  P35  1  0.90509722  0.41638138  0.55821072  1.0
  P  P36  1  0.40509722  0.41638138  0.94178928  1.0
  P  P37  1  0.90509722  0.08361862  0.55821072  1.0
  P  P38  1  0.59490278  0.91638138  0.05821072  1.0
  P  P39  1  0.09490278  0.58361862  0.44178928  1.0
  P  P40  1  0.67558426  0.75000000  0.13451789  1.0
  P  P41  1  0.17558426  0.75000000  0.36548211  1.0
  P  P42  1  0.32441574  0.25000000  0.86548211  1.0
  P  P43  1  0.82441574  0.25000000  0.63451789  1.0
  P  P44  1  0.68817254  0.07819808  0.13703815  1.0
  P  P45  1  0.18817254  0.42180192  0.36296185  1.0
  P  P46  1  0.31182746  0.57819808  0.86296185  1.0
  P  P47  1  0.81182746  0.92180192  0.63703815  1.0
  P  P48  1  0.31182746  0.92180192  0.86296185  1.0
  P  P49  1  0.81182746  0.57819808  0.63703815  1.0
  P  P50  1  0.68817254  0.42180192  0.13703815  1.0
  P  P51  1  0.18817254  0.07819808  0.36296185  1.0
  P  P52  1  0.67627083  0.04608985  0.32289527  1.0
  P  P53  1  0.17627083  0.45391015  0.17710473  1.0
  P  P54  1  0.32372917  0.54608985  0.67710473  1.0
  P  P55  1  0.82372917  0.95391015  0.82289527  1.0
  P  P56  1  0.32372917  0.95391015  0.67710473  1.0
  P  P57  1  0.82372917  0.54608985  0.82289527  1.0
  P  P58  1  0.67627083  0.45391015  0.32289527  1.0
  P  P59  1  0.17627083  0.04608985  0.17710473  1.0
  Pb  Pb60  1  0.70734652  0.75000000  0.37843410  1.0
  Pb  Pb61  1  0.20734652  0.75000000  0.12156590  1.0
  Pb  Pb62  1  0.29265348  0.25000000  0.62156590  1.0
  Pb  Pb63  1  0.79265348  0.25000000  0.87843410  1.0
