# generated using pymatgen
data_SiNi
_symmetry_space_group_name_H-M   'P 1'
_cell_length_a   4.70831144
_cell_length_b   4.46615833
_cell_length_c   4.46595952
_cell_angle_alpha   90.00000000
_cell_angle_beta   90.00000000
_cell_angle_gamma   90.00000000
_symmetry_Int_Tables_number   1
_chemical_formula_structural   SiNi
_chemical_formula_sum   'Si4 Ni4'
_cell_volume   93.91048421
_cell_formula_units_Z   4
loop_
 _symmetry_equiv_pos_site_id
 _symmetry_equiv_pos_as_xyz
  1  'x, y, z'
loop_
 _atom_site_type_symbol
 _atom_site_label
 _atom_site_symmetry_multiplicity
 _atom_site_fract_x
 _atom_site_fract_y
 _atom_site_fract_z
 _atom_site_occupancy
  Si  Si0  1  0.84368116  -0.00000428  0.75000000  1.0
  Si  Si1  1  0.84368116  0.50000428  0.25000000  1.0
  Si  Si2  1  0.15631884  0.49999572  0.75000000  1.0
  Si  Si3  1  0.15631884  1.00000428  0.25000000  1.0
  Ni  Ni4  1  0.65716234  0.50000524  0.75000000  1.0
  Ni  Ni5  1  0.65716234  0.99999476  0.25000000  1.0
  Ni  Ni6  1  0.34283766  0.00000524  0.75000000  1.0
  Ni  Ni7  1  0.34283766  0.49999476  0.25000000  1.0
