# generated using pymatgen
data_TiPbO12
_symmetry_space_group_name_H-M   'P 1'
_cell_length_a   7.45102838
_cell_length_b   7.45102838
_cell_length_c   7.45102838
_cell_angle_alpha   60.00000000
_cell_angle_beta   60.00000000
_cell_angle_gamma   60.00000000
_symmetry_Int_Tables_number   1
_chemical_formula_structural   TiPbO12
_chemical_formula_sum   'Ti2 Pb2 O24'
_cell_volume   292.50524277
_cell_formula_units_Z   2
loop_
 _symmetry_equiv_pos_site_id
 _symmetry_equiv_pos_as_xyz
  1  'x, y, z'
loop_
 _atom_site_type_symbol
 _atom_site_label
 _atom_site_symmetry_multiplicity
 _atom_site_fract_x
 _atom_site_fract_y
 _atom_site_fract_z
 _atom_site_occupancy
  Ti  Ti0  1  0.50000000  0.50000000  -0.50000000  1.0
  Ti  Ti1  1  0.75000000  -0.25000000  0.75000000  1.0
  Pb  Pb2  1  0.00000000  1.00000000  -0.00000000  1.0
  Pb  Pb3  1  0.25000000  0.25000000  0.25000000  1.0
  O  O4  1  0.76985218  -0.57043885  1.03073449  1.0
  O  O5  1  -0.23014782  1.03073449  0.42956115  1.0
  O  O6  1  -0.17956115  0.48014782  0.48014782  1.0
  O  O7  1  0.21926551  0.48014782  0.48014782  1.0
  O  O8  1  -0.57043885  0.76985218  1.03073449  1.0
  O  O9  1  0.76985218  -0.23014782  1.03073449  1.0
  O  O10  1  0.76985218  0.03073449  0.76985218  1.0
  O  O11  1  -0.57043885  1.03073449  0.76985218  1.0
  O  O12  1  0.48014782  -0.17956115  0.48014782  1.0
  O  O13  1  0.48014782  0.48014782  -0.17956115  1.0
  O  O14  1  0.21926551  0.48014782  -0.17956115  1.0
  O  O15  1  0.21926551  -0.17956115  0.48014782  1.0
  O  O16  1  1.03073449  -0.23014782  0.76985218  1.0
  O  O17  1  -0.57043885  0.76985218  0.76985218  1.0
  O  O18  1  0.48014782  0.21926551  -0.17956115  1.0
  O  O19  1  0.48014782  -0.17956115  0.21926551  1.0
  O  O20  1  0.03073449  0.76985218  0.42956115  1.0
  O  O21  1  1.03073449  -0.57043885  0.76985218  1.0
  O  O22  1  0.76985218  -0.57043885  0.76985218  1.0
  O  O23  1  -0.23014782  0.76985218  0.42956115  1.0
  O  O24  1  0.48014782  0.21926551  0.48014782  1.0
  O  O25  1  -0.17956115  0.21926551  0.48014782  1.0
  O  O26  1  -0.17956115  0.48014782  0.21926551  1.0
  O  O27  1  0.48014782  0.48014782  0.21926551  1.0
