# generated using pymatgen
data_Y5(Ge5Ir2)2
_symmetry_space_group_name_H-M   'P 1'
_cell_length_a   13.04308958
_cell_length_b   13.04308958
_cell_length_c   4.33997196
_cell_angle_alpha   90.00000000
_cell_angle_beta   90.00000000
_cell_angle_gamma   90.00000000
_symmetry_Int_Tables_number   1
_chemical_formula_structural   Y5(Ge5Ir2)2
_chemical_formula_sum   'Y10 Ge20 Ir8'
_cell_volume   738.32551609
_cell_formula_units_Z   2
loop_
 _symmetry_equiv_pos_site_id
 _symmetry_equiv_pos_as_xyz
  1  'x, y, z'
loop_
 _atom_site_type_symbol
 _atom_site_label
 _atom_site_symmetry_multiplicity
 _atom_site_fract_x
 _atom_site_fract_y
 _atom_site_fract_z
 _atom_site_occupancy
  Y  Y0  1  0.32620568  0.17379432  0.50000000  1.0
  Y  Y1  1  0.82620568  0.32620568  0.50000000  1.0
  Y  Y2  1  0.67379432  0.82620568  0.50000000  1.0
  Y  Y3  1  0.17379432  0.67379432  0.50000000  1.0
  Y  Y4  1  0.88499492  0.61500508  0.50000000  1.0
  Y  Y5  1  0.38499492  0.88499492  0.50000000  1.0
  Y  Y6  1  0.11500508  0.38499492  0.50000000  1.0
  Y  Y7  1  0.61500508  0.11500508  0.50000000  1.0
  Y  Y8  1  0.50000000  0.50000000  0.00000000  1.0
  Y  Y9  1  0.00000000  0.00000000  0.00000000  1.0
  Ge  Ge10  1  0.33643484  0.69959876  0.00000000  1.0
  Ge  Ge11  1  0.83643484  0.80040124  0.00000000  1.0
  Ge  Ge12  1  0.30040124  0.33643484  0.00000000  1.0
  Ge  Ge13  1  0.80040124  0.16356516  0.00000000  1.0
  Ge  Ge14  1  0.66356516  0.30040124  0.00000000  1.0
  Ge  Ge15  1  0.16356516  0.19959876  0.00000000  1.0
  Ge  Ge16  1  0.69959876  0.66356516  0.00000000  1.0
  Ge  Ge17  1  0.19959876  0.83643484  0.00000000  1.0
  Ge  Ge18  1  0.34335061  0.50429325  0.50000000  1.0
  Ge  Ge19  1  0.84335061  0.99570675  0.50000000  1.0
  Ge  Ge20  1  0.49570675  0.34335061  0.50000000  1.0
  Ge  Ge21  1  0.99570675  0.15664939  0.50000000  1.0
  Ge  Ge22  1  0.65664939  0.49570675  0.50000000  1.0
  Ge  Ge23  1  0.15664939  0.00429325  0.50000000  1.0
  Ge  Ge24  1  0.50429325  0.65664939  0.50000000  1.0
  Ge  Ge25  1  0.00429325  0.84335061  0.50000000  1.0
  Ge  Ge26  1  0.43272797  0.06727203  0.00000000  1.0
  Ge  Ge27  1  0.93272797  0.43272797  0.00000000  1.0
  Ge  Ge28  1  0.56727203  0.93272797  0.00000000  1.0
  Ge  Ge29  1  0.06727203  0.56727203  0.00000000  1.0
  Ir  Ir30  1  0.25397876  0.51987877  0.00000000  1.0
  Ir  Ir31  1  0.75397876  0.98012123  0.00000000  1.0
  Ir  Ir32  1  0.48012123  0.25397876  0.00000000  1.0
  Ir  Ir33  1  0.98012123  0.24602124  0.00000000  1.0
  Ir  Ir34  1  0.74602124  0.48012123  0.00000000  1.0
  Ir  Ir35  1  0.24602124  0.01987877  0.00000000  1.0
  Ir  Ir36  1  0.51987877  0.74602124  0.00000000  1.0
  Ir  Ir37  1  0.01987877  0.75397876  0.00000000  1.0
