# generated using pymatgen
data_KCN5O
_symmetry_space_group_name_H-M   'P 1'
_cell_length_a   4.34672963
_cell_length_b   12.79959829
_cell_length_c   8.37392486
_cell_angle_alpha   90.00000000
_cell_angle_beta   98.78493950
_cell_angle_gamma   90.00000000
_symmetry_Int_Tables_number   1
_chemical_formula_structural   KCN5O
_chemical_formula_sum   'K4 C4 N20 O4'
_cell_volume   460.42935706
_cell_formula_units_Z   4
loop_
 _symmetry_equiv_pos_site_id
 _symmetry_equiv_pos_as_xyz
  1  'x, y, z'
loop_
 _atom_site_type_symbol
 _atom_site_label
 _atom_site_symmetry_multiplicity
 _atom_site_fract_x
 _atom_site_fract_y
 _atom_site_fract_z
 _atom_site_occupancy
  K  K0  1  0.88400586  0.73347640  0.04235212  1.0
  K  K1  1  0.88400586  0.76652360  0.54235212  1.0
  K  K2  1  0.11599414  0.23347640  0.45764788  1.0
  K  K3  1  0.11599414  0.26652360  0.95764788  1.0
  C  C4  1  0.69799278  0.49526143  0.34059883  1.0
  C  C5  1  0.69799278  0.00473857  0.84059883  1.0
  C  C6  1  0.30200722  0.99526143  0.15940117  1.0
  C  C7  1  0.30200722  0.50473857  0.65940117  1.0
  N  N8  1  0.93126780  0.46278969  0.45677645  1.0
  N  N9  1  0.93126780  0.03721031  0.95677645  1.0
  N  N10  1  0.06873220  0.96278969  0.04322355  1.0
  N  N11  1  0.06873220  0.53721031  0.54322355  1.0
  N  N12  1  0.69649496  0.97532796  0.35481230  1.0
  N  N13  1  0.69649496  0.52467204  0.85481230  1.0
  N  N14  1  0.30350504  0.47532796  0.14518770  1.0
  N  N15  1  0.30350504  0.02467204  0.64518770  1.0
  N  N16  1  0.64306607  0.07624232  0.32548170  1.0
  N  N17  1  0.64306607  0.42375768  0.82548170  1.0
  N  N18  1  0.35693393  0.57624232  0.17451830  1.0
  N  N19  1  0.35693393  0.92375768  0.67451830  1.0
  N  N20  1  0.51686740  0.42298557  0.24799595  1.0
  N  N21  1  0.51686740  0.07701443  0.74799595  1.0
  N  N22  1  0.48313260  0.92298557  0.25200405  1.0
  N  N23  1  0.48313260  0.57701443  0.75200405  1.0
  N  N24  1  0.40489650  0.09126780  0.20701338  1.0
  N  N25  1  0.40489650  0.40873220  0.70701338  1.0
  N  N26  1  0.59510350  0.59126780  0.29298662  1.0
  N  N27  1  0.59510350  0.90873220  0.79298662  1.0
  O  O28  1  0.53281246  0.32268235  0.25241385  1.0
  O  O29  1  0.53281246  0.17731765  0.75241385  1.0
  O  O30  1  0.46718754  0.82268235  0.24758615  1.0
  O  O31  1  0.46718754  0.67731765  0.74758615  1.0
