# generated using pymatgen
data_VBiPbO5
_symmetry_space_group_name_H-M   'P 1'
_cell_length_a   7.24912173
_cell_length_b   7.28106745
_cell_length_c   8.51276735
_cell_angle_alpha   117.69786943
_cell_angle_beta   135.56870930
_cell_angle_gamma   75.72051285
_symmetry_Int_Tables_number   1
_chemical_formula_structural   VBiPbO5
_chemical_formula_sum   'V2 Bi2 Pb2 O10'
_cell_volume   275.85378555
_cell_formula_units_Z   2
loop_
 _symmetry_equiv_pos_site_id
 _symmetry_equiv_pos_as_xyz
  1  'x, y, z'
loop_
 _atom_site_type_symbol
 _atom_site_label
 _atom_site_symmetry_multiplicity
 _atom_site_fract_x
 _atom_site_fract_y
 _atom_site_fract_z
 _atom_site_occupancy
  V  V0  1  -0.46716960  -0.62182055  -0.81008669  1.0
  V  V1  1  0.46716960  -0.37817945  -0.18991331  1.0
  Bi  Bi2  1  0.34937715  -0.95932466  -0.39616114  1.0
  Bi  Bi3  1  -0.34937715  -0.04067534  -0.60383886  1.0
  Pb  Pb4  1  0.04456353  -0.67367090  -0.84317621  1.0
  Pb  Pb5  1  -0.04456353  -0.32632910  -0.15682379  1.0
  O  O6  1  0.26586613  -0.05436663  -0.74068662  1.0
  O  O7  1  -0.26586613  -0.94563337  -0.25931338  1.0
  O  O8  1  -0.19862398  -0.38596187  -0.97420630  1.0
  O  O9  1  0.19862398  -0.61403813  -0.02579370  1.0
  O  O10  1  0.29313823  -0.62705025  -0.38455006  1.0
  O  O11  1  -0.29313823  -0.37294975  -0.61544994  1.0
  O  O12  1  -0.36277598  -0.77853819  -0.95751472  1.0
  O  O13  1  0.36277598  -0.22146181  -0.04248528  1.0
  O  O14  1  -0.41387617  -0.71427078  -0.62838305  1.0
  O  O15  1  0.41387617  -0.28572922  -0.37161695  1.0
