# generated using pymatgen
data_YMn2O5
_symmetry_space_group_name_H-M   'P 1'
_cell_length_a   7.32313977
_cell_length_b   8.52061522
_cell_length_c   5.70789079
_cell_angle_alpha   90.00000000
_cell_angle_beta   90.00000000
_cell_angle_gamma   90.00000000
_symmetry_Int_Tables_number   1
_chemical_formula_structural   YMn2O5
_chemical_formula_sum   'Y4 Mn8 O20'
_cell_volume   356.15900669
_cell_formula_units_Z   4
loop_
 _symmetry_equiv_pos_site_id
 _symmetry_equiv_pos_as_xyz
  1  'x, y, z'
loop_
 _atom_site_type_symbol
 _atom_site_label
 _atom_site_symmetry_multiplicity
 _atom_site_fract_x
 _atom_site_fract_y
 _atom_site_fract_z
 _atom_site_occupancy
  Y  Y0  1  0.13920656  0.82868782  0.50000000  1.0
  Y  Y1  1  0.63920656  0.67131218  0.50000000  1.0
  Y  Y2  1  0.86079344  0.17131218  0.50000000  1.0
  Y  Y3  1  0.36079344  0.32868782  0.50000000  1.0
  O  O4  1  0.39489086  0.79256888  0.74414733  1.0
  O  O5  1  0.39489086  0.79256888  0.25585267  1.0
  O  O6  1  0.89489086  0.70743112  0.74414733  1.0
  O  O7  1  0.89489086  0.70743112  0.25585267  1.0
  O  O8  1  0.60510914  0.20743112  0.74414733  1.0
  O  O9  1  0.60510914  0.20743112  0.25585267  1.0
  O  O10  1  0.10510914  0.29256888  0.74414733  1.0
  O  O11  1  0.10510914  0.29256888  0.25585267  1.0
  O  O12  1  0.16307756  0.55607588  0.50000000  1.0
  O  O13  1  0.66307756  0.94392412  0.50000000  1.0
  O  O14  1  0.83692244  0.44392412  0.50000000  1.0
  O  O15  1  0.33692244  0.05607588  0.50000000  1.0
  O  O16  1  0.50000000  0.50000000  0.77144495  1.0
  O  O17  1  0.50000000  0.50000000  0.22855505  1.0
  O  O18  1  0.00000000  0.00000000  0.77144495  1.0
  O  O19  1  0.00000000  0.00000000  0.22855505  1.0
  O  O20  1  0.15345356  0.56595751  0.00000000  1.0
  O  O21  1  0.65345356  0.93404249  0.00000000  1.0
  O  O22  1  0.84654644  0.43404249  0.00000000  1.0
  O  O23  1  0.34654644  0.06595751  0.00000000  1.0
  Mn  Mn24  1  0.41049650  0.65005910  0.00000000  1.0
  Mn  Mn25  1  0.91049650  0.84994090  0.00000000  1.0
  Mn  Mn26  1  0.58950350  0.34994090  0.00000000  1.0
  Mn  Mn27  1  0.08950350  0.15005910  0.00000000  1.0
  Mn  Mn28  1  0.50000000  0.00000000  0.75434376  1.0
  Mn  Mn29  1  0.50000000  0.00000000  0.24565624  1.0
  Mn  Mn30  1  0.00000000  0.50000000  0.75434376  1.0
  Mn  Mn31  1  0.00000000  0.50000000  0.24565624  1.0
