# generated using pymatgen
data_Ta3Ge
_symmetry_space_group_name_H-M   'P 1'
_cell_length_a   10.29356557
_cell_length_b   10.29356557
_cell_length_c   5.26244106
_cell_angle_alpha   90.00000000
_cell_angle_beta   90.00000000
_cell_angle_gamma   90.00000000
_symmetry_Int_Tables_number   1
_chemical_formula_structural   Ta3Ge
_chemical_formula_sum   'Ta24 Ge8'
_cell_volume   557.59505637
_cell_formula_units_Z   8
loop_
 _symmetry_equiv_pos_site_id
 _symmetry_equiv_pos_as_xyz
  1  'x, y, z'
loop_
 _atom_site_type_symbol
 _atom_site_label
 _atom_site_symmetry_multiplicity
 _atom_site_fract_x
 _atom_site_fract_y
 _atom_site_fract_z
 _atom_site_occupancy
  Ta  Ta0  1  0.81169670  0.71247885  0.51409767  1.0
  Ta  Ta1  1  0.18830330  0.28752115  0.51409767  1.0
  Ta  Ta2  1  0.31169670  0.21247885  0.98590233  1.0
  Ta  Ta3  1  0.68830330  0.78752115  0.98590233  1.0
  Ta  Ta4  1  0.71247885  0.18830330  0.48590233  1.0
  Ta  Ta5  1  0.28752115  0.81169670  0.48590233  1.0
  Ta  Ta6  1  0.21247885  0.68830330  0.01409767  1.0
  Ta  Ta7  1  0.78752115  0.31169670  0.01409767  1.0
  Ta  Ta8  1  0.48272789  0.64966056  0.72036948  1.0
  Ta  Ta9  1  0.51727211  0.35033944  0.72036948  1.0
  Ta  Ta10  1  0.98272789  0.14966056  0.77963052  1.0
  Ta  Ta11  1  0.01727211  0.85033944  0.77963052  1.0
  Ta  Ta12  1  0.64966056  0.51727211  0.27963052  1.0
  Ta  Ta13  1  0.35033944  0.48272789  0.27963052  1.0
  Ta  Ta14  1  0.14966056  0.01727211  0.22036948  1.0
  Ta  Ta15  1  0.85033944  0.98272789  0.22036948  1.0
  Ta  Ta16  1  0.91479284  0.59878862  0.03228509  1.0
  Ta  Ta17  1  0.08520716  0.40121138  0.03228509  1.0
  Ta  Ta18  1  0.41479284  0.09878862  0.46771491  1.0
  Ta  Ta19  1  0.58520716  0.90121138  0.46771491  1.0
  Ta  Ta20  1  0.59878862  0.08520716  0.96771491  1.0
  Ta  Ta21  1  0.40121138  0.91479284  0.96771491  1.0
  Ta  Ta22  1  0.09878862  0.58520716  0.53228509  1.0
  Ta  Ta23  1  0.90121138  0.41479284  0.53228509  1.0
  Ge  Ge24  1  0.47176343  0.70365576  0.21692543  1.0
  Ge  Ge25  1  0.52823657  0.29634424  0.21692543  1.0
  Ge  Ge26  1  0.97176343  0.20365576  0.28307457  1.0
  Ge  Ge27  1  0.02823657  0.79634424  0.28307457  1.0
  Ge  Ge28  1  0.70365576  0.52823657  0.78307457  1.0
  Ge  Ge29  1  0.29634424  0.47176343  0.78307457  1.0
  Ge  Ge30  1  0.20365576  0.02823657  0.71692543  1.0
  Ge  Ge31  1  0.79634424  0.97176343  0.71692543  1.0
