# generated using pymatgen
data_Cs2Zr7CI18
_symmetry_space_group_name_H-M   'P 1'
_cell_length_a   11.83712694
_cell_length_b   11.83712694
_cell_length_c   11.83712694
_cell_angle_alpha   55.94072626
_cell_angle_beta   55.94072626
_cell_angle_gamma   55.94072626
_symmetry_Int_Tables_number   1
_chemical_formula_structural   Cs2Zr7CI18
_chemical_formula_sum   'Cs2 Zr7 C1 I18'
_cell_volume   1062.47863297
_cell_formula_units_Z   1
loop_
 _symmetry_equiv_pos_site_id
 _symmetry_equiv_pos_as_xyz
  1  'x, y, z'
loop_
 _atom_site_type_symbol
 _atom_site_label
 _atom_site_symmetry_multiplicity
 _atom_site_fract_x
 _atom_site_fract_y
 _atom_site_fract_z
 _atom_site_occupancy
  C  C0  1  0.00000000  0.00000000  0.00000000  1.0
  Cs  Cs1  1  0.22504428  0.22504428  0.22504428  1.0
  Cs  Cs2  1  0.77495572  -0.22504428  -0.22504428  1.0
  I  I3  1  0.35534926  0.78065682  -0.46920715  1.0
  I  I4  1  0.46920715  0.64465074  -0.78065682  1.0
  I  I5  1  0.21934318  0.46920715  -0.35534926  1.0
  I  I6  1  0.64465074  0.21934318  -0.53079285  1.0
  I  I7  1  0.53079285  0.35534926  -0.21934318  1.0
  I  I8  1  0.78065682  0.53079285  -0.64465074  1.0
  I  I9  1  0.34346939  0.05365950  -0.06542774  1.0
  I  I10  1  1.06542774  -0.34346939  -0.05365950  1.0
  I  I11  1  0.94634050  0.06542774  -0.34346939  1.0
  I  I12  1  0.65653061  -0.05365950  0.06542774  1.0
  I  I13  1  0.93457226  -0.65653061  0.05365950  1.0
  I  I14  1  1.05365950  -0.06542774  -0.65653061  1.0
  I  I15  1  0.59084057  0.28884440  0.11969149  1.0
  I  I16  1  0.88030851  -0.59084057  -0.28884440  1.0
  I  I17  1  0.71115560  -0.11969149  -0.59084057  1.0
  I  I18  1  0.40915943  -0.28884440  -0.11969149  1.0
  I  I19  1  1.11969149  -0.40915943  0.28884440  1.0
  I  I20  1  1.28884440  0.11969149  -0.40915943  1.0
  Zr  Zr21  1  0.18433895  0.85748663  -0.91024392  1.0
  Zr  Zr22  1  0.91024392  -0.18433895  0.14251337  1.0
  Zr  Zr23  1  1.14251337  -0.08975608  -0.18433895  1.0
  Zr  Zr24  1  0.81566105  0.14251337  -0.08975608  1.0
  Zr  Zr25  1  0.08975608  0.18433895  -0.14251337  1.0
  Zr  Zr26  1  0.85748663  0.08975608  -0.81566105  1.0
  Zr  Zr27  1  0.50000000  0.50000000  -0.50000000  1.0
