# generated using pymatgen
data_Ti3As
_symmetry_space_group_name_H-M   'P 1'
_cell_length_a   10.16825497
_cell_length_b   10.16825497
_cell_length_c   5.11284360
_cell_angle_alpha   90.00000000
_cell_angle_beta   90.00000000
_cell_angle_gamma   90.00000000
_symmetry_Int_Tables_number   1
_chemical_formula_structural   Ti3As
_chemical_formula_sum   'Ti24 As8'
_cell_volume   528.63432992
_cell_formula_units_Z   8
loop_
 _symmetry_equiv_pos_site_id
 _symmetry_equiv_pos_as_xyz
  1  'x, y, z'
loop_
 _atom_site_type_symbol
 _atom_site_label
 _atom_site_symmetry_multiplicity
 _atom_site_fract_x
 _atom_site_fract_y
 _atom_site_fract_z
 _atom_site_occupancy
  Ti  Ti0  1  0.31723133  0.78447141  0.49554983  1.0
  Ti  Ti1  1  0.81723133  0.28447141  0.00445017  1.0
  Ti  Ti2  1  0.78447141  0.68276867  0.50445017  1.0
  Ti  Ti3  1  0.28447141  0.18276867  0.99554983  1.0
  Ti  Ti4  1  0.68276867  0.21552859  0.49554983  1.0
  Ti  Ti5  1  0.18276867  0.71552859  0.00445017  1.0
  Ti  Ti6  1  0.21552859  0.31723133  0.50445017  1.0
  Ti  Ti7  1  0.71552859  0.81723133  0.99554983  1.0
  Ti  Ti8  1  0.47259226  0.35726826  1.21318829  1.0
  Ti  Ti9  1  0.97259226  0.85726826  0.28681171  1.0
  Ti  Ti10  1  0.35726826  0.52740774  -0.21318829  1.0
  Ti  Ti11  1  0.85726826  0.02740774  0.71318829  1.0
  Ti  Ti12  1  0.52740774  0.64273174  1.21318829  1.0
  Ti  Ti13  1  0.02740774  0.14273174  0.28681171  1.0
  Ti  Ti14  1  0.64273174  0.47259226  -0.21318829  1.0
  Ti  Ti15  1  0.14273174  0.97259226  0.71318829  1.0
  Ti  Ti16  1  1.10436411  0.41838115  0.03647957  1.0
  Ti  Ti17  1  0.60436411  0.91838115  0.46352043  1.0
  Ti  Ti18  1  0.41838115  -0.10436411  0.96352043  1.0
  Ti  Ti19  1  0.91838115  0.39563589  0.53647957  1.0
  Ti  Ti20  1  -0.10436411  0.58161885  0.03647957  1.0
  Ti  Ti21  1  0.39563589  0.08161885  0.46352043  1.0
  Ti  Ti22  1  0.58161885  1.10436411  0.96352043  1.0
  Ti  Ti23  1  0.08161885  0.60436411  0.53647957  1.0
  As  As24  1  0.45917696  0.29409957  0.71145372  1.0
  As  As25  1  0.95917696  0.79409957  -0.21145372  1.0
  As  As26  1  0.29409957  0.54082304  0.28854628  1.0
  As  As27  1  0.79409957  0.04082304  1.21145372  1.0
  As  As28  1  0.54082304  0.70590043  0.71145372  1.0
  As  As29  1  0.04082304  0.20590043  -0.21145372  1.0
  As  As30  1  0.70590043  0.45917696  0.28854628  1.0
  As  As31  1  0.20590043  0.95917696  1.21145372  1.0
