# generated using pymatgen
data_ZrNiSb
_symmetry_space_group_name_H-M   'P 1'
_cell_length_a   6.76460282
_cell_length_b   4.18383040
_cell_length_c   7.66528318
_cell_angle_alpha   90.00000000
_cell_angle_beta   90.00000000
_cell_angle_gamma   90.00000000
_symmetry_Int_Tables_number   1
_chemical_formula_structural   ZrNiSb
_chemical_formula_sum   'Zr4 Ni4 Sb4'
_cell_volume   216.94246843
_cell_formula_units_Z   4
loop_
 _symmetry_equiv_pos_site_id
 _symmetry_equiv_pos_as_xyz
  1  'x, y, z'
loop_
 _atom_site_type_symbol
 _atom_site_label
 _atom_site_symmetry_multiplicity
 _atom_site_fract_x
 _atom_site_fract_y
 _atom_site_fract_z
 _atom_site_occupancy
  Zr  Zr0  1  0.99903901  0.75000000  0.69385376  1.0
  Zr  Zr1  1  0.49903901  0.75000000  0.80614624  1.0
  Zr  Zr2  1  0.00096099  0.25000000  0.30614624  1.0
  Zr  Zr3  1  0.50096099  0.25000000  0.19385376  1.0
  Ni  Ni4  1  0.81825871  0.75000000  0.08786429  1.0
  Ni  Ni5  1  0.31825871  0.75000000  0.41213571  1.0
  Ni  Ni6  1  0.18174129  0.25000000  0.91213571  1.0
  Ni  Ni7  1  0.68174129  0.25000000  0.58786429  1.0
  Sb  Sb8  1  0.70752616  0.75000000  0.40692069  1.0
  Sb  Sb9  1  0.20752616  0.75000000  0.09307931  1.0
  Sb  Sb10  1  0.29247384  0.25000000  0.59307931  1.0
  Sb  Sb11  1  0.79247384  0.25000000  0.90692069  1.0
