# generated using pymatgen
data_Ba2ZnGe2S6O
_symmetry_space_group_name_H-M   'P 1'
_cell_length_a   9.72147548
_cell_length_b   9.72147548
_cell_length_c   6.51795578
_cell_angle_alpha   90.00000000
_cell_angle_beta   90.00000000
_cell_angle_gamma   90.00000000
_symmetry_Int_Tables_number   1
_chemical_formula_structural   Ba2ZnGe2S6O
_chemical_formula_sum   'Ba4 Zn2 Ge4 S12 O2'
_cell_volume   615.99300430
_cell_formula_units_Z   2
loop_
 _symmetry_equiv_pos_site_id
 _symmetry_equiv_pos_as_xyz
  1  'x, y, z'
loop_
 _atom_site_type_symbol
 _atom_site_label
 _atom_site_symmetry_multiplicity
 _atom_site_fract_x
 _atom_site_fract_y
 _atom_site_fract_z
 _atom_site_occupancy
  Ba  Ba0  1  0.83923294  0.33923294  0.49857943  1.0
  Ba  Ba1  1  0.66076706  0.83923294  0.50142057  1.0
  Ba  Ba2  1  0.16076706  0.66076706  0.49857943  1.0
  Ba  Ba3  1  0.33923294  0.16076706  0.50142057  1.0
  Zn  Zn4  1  0.50000000  0.50000000  0.00000000  1.0
  Zn  Zn5  1  0.00000000  0.00000000  0.00000000  1.0
  Ge  Ge6  1  0.37498015  0.87498015  0.06524857  1.0
  Ge  Ge7  1  0.12501985  0.37498015  0.93475143  1.0
  Ge  Ge8  1  0.62501985  0.12501985  0.06524857  1.0
  Ge  Ge9  1  0.87498015  0.62501985  0.93475143  1.0
  S  S10  1  0.32024580  0.43783701  0.77423955  1.0
  S  S11  1  0.17975420  0.93783701  0.22576045  1.0
  S  S12  1  0.56216299  0.32024580  0.22576045  1.0
  S  S13  1  0.93783701  0.82024580  0.77423955  1.0
  S  S14  1  0.67975420  0.56216299  0.77423955  1.0
  S  S15  1  0.82024580  0.06216299  0.22576045  1.0
  S  S16  1  0.43783701  0.67975420  0.22576045  1.0
  S  S17  1  0.06216299  0.17975420  0.77423955  1.0
  S  S18  1  0.36637597  0.86637597  0.73239712  1.0
  S  S19  1  0.13362403  0.36637597  0.26760288  1.0
  S  S20  1  0.63362403  0.13362403  0.73239712  1.0
  S  S21  1  0.86637597  0.63362403  0.26760288  1.0
  O  O22  1  0.00000000  0.50000000  0.82318914  1.0
  O  O23  1  0.50000000  0.00000000  0.17681086  1.0
