# generated using pymatgen
data_ZnO
_symmetry_space_group_name_H-M   'P 1'
_cell_length_a   13.42585833
_cell_length_b   13.42585833
_cell_length_c   13.42585833
_cell_angle_alpha   13.98772234
_cell_angle_beta   13.98772234
_cell_angle_gamma   13.98772234
_symmetry_Int_Tables_number   1
_chemical_formula_structural   ZnO
_chemical_formula_sum   'Zn5 O5'
_cell_volume   123.05856404
_cell_formula_units_Z   5
loop_
 _symmetry_equiv_pos_site_id
 _symmetry_equiv_pos_as_xyz
  1  'x, y, z'
loop_
 _atom_site_type_symbol
 _atom_site_label
 _atom_site_symmetry_multiplicity
 _atom_site_fract_x
 _atom_site_fract_y
 _atom_site_fract_z
 _atom_site_occupancy
  Zn  Zn0  1  -0.00070115  -0.00070115  -0.00070115  1.0
  Zn  Zn1  1  0.73268988  -0.26731012  -0.26731012  1.0
  Zn  Zn2  1  0.46605683  0.46605683  -0.53394317  1.0
  Zn  Zn3  1  0.86598324  -0.13401676  -0.13401676  1.0
  Zn  Zn4  1  0.26602523  0.26602523  0.26602523  1.0
  O  O5  1  0.04953370  0.04953370  0.04953370  1.0
  O  O6  1  0.78293344  -0.21706656  -0.21706656  1.0
  O  O7  1  0.51619005  0.51619005  -0.48380995  1.0
  O  O8  1  0.91623375  -0.08376625  -0.08376625  1.0
  O  O9  1  0.31615503  0.31615503  0.31615503  1.0
