# generated using pymatgen
data_Fe2(SeO3)3
_symmetry_space_group_name_H-M   'P 1'
_cell_length_a   8.13582170
_cell_length_b   8.13582170
_cell_length_c   7.47598935
_cell_angle_alpha   90.00000000
_cell_angle_beta   90.00000000
_cell_angle_gamma   120.00000000
_symmetry_Int_Tables_number   1
_chemical_formula_structural   Fe2(SeO3)3
_chemical_formula_sum   'Fe4 Se6 O18'
_cell_volume   428.55064235
_cell_formula_units_Z   2
loop_
 _symmetry_equiv_pos_site_id
 _symmetry_equiv_pos_as_xyz
  1  'x, y, z'
loop_
 _atom_site_type_symbol
 _atom_site_label
 _atom_site_symmetry_multiplicity
 _atom_site_fract_x
 _atom_site_fract_y
 _atom_site_fract_z
 _atom_site_occupancy
  Fe  Fe0  1  0.33333333  0.66666667  0.95479869  1.0
  Fe  Fe1  1  0.66666667  0.33333333  0.45479869  1.0
  Fe  Fe2  1  0.66666667  0.33333333  0.04520131  1.0
  Fe  Fe3  1  0.33333333  0.66666667  0.54520131  1.0
  Se  Se4  1  0.27816648  0.31147973  0.25000000  1.0
  Se  Se5  1  0.68852027  0.96668675  0.25000000  1.0
  Se  Se6  1  0.03331325  0.72183352  0.25000000  1.0
  Se  Se7  1  0.72183352  0.68852027  0.75000000  1.0
  Se  Se8  1  0.31147973  0.03331325  0.75000000  1.0
  Se  Se9  1  0.96668675  0.27816648  0.75000000  1.0
  O  O10  1  0.24519084  0.42306353  0.07010097  1.0
  O  O11  1  0.57693647  0.82212731  0.07010097  1.0
  O  O12  1  0.17787269  0.75480916  0.07010097  1.0
  O  O13  1  0.75480916  0.57693647  0.57010097  1.0
  O  O14  1  0.42306353  0.17787269  0.57010097  1.0
  O  O15  1  0.82212731  0.24519084  0.57010097  1.0
  O  O16  1  0.75480916  0.57693647  0.92989903  1.0
  O  O17  1  0.42306353  0.17787269  0.92989903  1.0
  O  O18  1  0.82212731  0.24519084  0.92989903  1.0
  O  O19  1  0.24519084  0.42306353  0.42989903  1.0
  O  O20  1  0.57693647  0.82212731  0.42989903  1.0
  O  O21  1  0.17787269  0.75480916  0.42989903  1.0
  O  O22  1  0.87853247  0.47641403  0.25000000  1.0
  O  O23  1  0.52358597  0.40211844  0.25000000  1.0
  O  O24  1  0.59788156  0.12146753  0.25000000  1.0
  O  O25  1  0.12146753  0.52358597  0.75000000  1.0
  O  O26  1  0.47641403  0.59788156  0.75000000  1.0
  O  O27  1  0.40211844  0.87853247  0.75000000  1.0
