# generated using pymatgen
data_YGe2
_symmetry_space_group_name_H-M   'P 1'
_cell_length_a   15.85086461
_cell_length_b   15.85086461
_cell_length_c   3.99093009
_cell_angle_alpha   90.00000000
_cell_angle_beta   90.00000000
_cell_angle_gamma   165.04170590
_symmetry_Int_Tables_number   1
_chemical_formula_structural   YGe2
_chemical_formula_sum   'Y4 Ge8'
_cell_volume   258.81816112
_cell_formula_units_Z   4
loop_
 _symmetry_equiv_pos_site_id
 _symmetry_equiv_pos_as_xyz
  1  'x, y, z'
loop_
 _atom_site_type_symbol
 _atom_site_label
 _atom_site_symmetry_multiplicity
 _atom_site_fract_x
 _atom_site_fract_y
 _atom_site_fract_z
 _atom_site_occupancy
  Y  Y0  1  0.31317312  0.68682688  0.50000000  1.0
  Y  Y1  1  -0.31317312  0.31317312  0.50000000  1.0
  Y  Y2  1  0.42936489  0.57063511  0.00000000  1.0
  Y  Y3  1  -0.42936489  0.42936489  0.00000000  1.0
  Ge  Ge4  1  0.09429111  0.90570889  0.50000000  1.0
  Ge  Ge5  1  -0.09429111  0.09429111  0.50000000  1.0
  Ge  Ge6  1  0.14656890  0.85343110  0.00000000  1.0
  Ge  Ge7  1  -0.14656890  0.14656890  0.00000000  1.0
  Ge  Ge8  1  0.22722190  0.77277810  0.00000000  1.0
  Ge  Ge9  1  -0.22722190  0.22722190  0.00000000  1.0
  Ge  Ge10  1  0.50000000  0.50000000  0.50000000  1.0
  Ge  Ge11  1  0.00000000  0.00000000  0.00000000  1.0
