# generated using pymatgen
data_Fe23B6
_symmetry_space_group_name_H-M   'P 1'
_cell_length_a   7.49256736
_cell_length_b   7.49256736
_cell_length_c   7.49256736
_cell_angle_alpha   60.00000000
_cell_angle_beta   60.00000000
_cell_angle_gamma   60.00000000
_symmetry_Int_Tables_number   1
_chemical_formula_structural   Fe23B6
_chemical_formula_sum   'Fe23 B6'
_cell_volume   297.42465795
_cell_formula_units_Z   1
loop_
 _symmetry_equiv_pos_site_id
 _symmetry_equiv_pos_as_xyz
  1  'x, y, z'
loop_
 _atom_site_type_symbol
 _atom_site_label
 _atom_site_symmetry_multiplicity
 _atom_site_fract_x
 _atom_site_fract_y
 _atom_site_fract_z
 _atom_site_occupancy
  Fe  Fe0  1  -0.00000000  0.00000000  -0.00000000  1.0
  Fe  Fe1  1  0.75000000  0.75000000  -0.25000000  1.0
  Fe  Fe2  1  1.25000000  0.25000000  0.25000000  1.0
  Fe  Fe3  1  -0.00000000  -0.00000000  0.34224187  1.0
  Fe  Fe4  1  0.65775813  1.00000000  -0.65775813  1.0
  Fe  Fe5  1  1.00000000  0.65775813  -0.65775813  1.0
  Fe  Fe6  1  0.65775813  -0.65775813  1.00000000  1.0
  Fe  Fe7  1  -0.00000000  1.34224187  0.00000000  1.0
  Fe  Fe8  1  1.00000000  0.34224187  -0.34224187  1.0
  Fe  Fe9  1  0.34224187  -0.34224187  1.00000000  1.0
  Fe  Fe10  1  0.34224187  1.00000000  -0.34224187  1.0
  Fe  Fe11  1  1.34224187  -0.00000000  0.00000000  1.0
  Fe  Fe12  1  0.00000000  -0.00000000  0.65775813  1.0
  Fe  Fe13  1  0.00000000  1.65775813  -0.00000000  1.0
  Fe  Fe14  1  1.65775813  0.00000000  -0.00000000  1.0
  Fe  Fe15  1  0.61877758  0.61877758  1.14366727  1.0
  Fe  Fe16  1  0.61877758  1.14366727  -0.38122242  1.0
  Fe  Fe17  1  1.14366727  0.61877758  0.61877758  1.0
  Fe  Fe18  1  0.61877758  0.61877758  -0.38122242  1.0
  Fe  Fe19  1  0.38122242  1.38122242  -0.14366727  1.0
  Fe  Fe20  1  1.38122242  -0.14366727  0.38122242  1.0
  Fe  Fe21  1  -0.14366727  1.38122242  0.38122242  1.0
  Fe  Fe22  1  1.38122242  0.38122242  0.38122242  1.0
  B  B23  1  0.72342213  0.72342213  -0.72342213  1.0
  B  B24  1  0.27657787  -0.27657787  1.27657787  1.0
  B  B25  1  -0.27657787  0.27657787  0.27657787  1.0
  B  B26  1  0.27657787  1.27657787  -0.27657787  1.0
  B  B27  1  -0.27657787  0.27657787  0.72342213  1.0
  B  B28  1  -0.72342213  0.72342213  0.72342213  1.0
