# generated using pymatgen
data_NbNi3(HC)2
_symmetry_space_group_name_H-M   'P 1'
_cell_length_a   3.62780590
_cell_length_b   7.00102435
_cell_length_c   5.71047875
_cell_angle_alpha   90.00000000
_cell_angle_beta   90.00000000
_cell_angle_gamma   90.00000000
_symmetry_Int_Tables_number   1
_chemical_formula_structural   NbNi3(HC)2
_chemical_formula_sum   'Nb2 Ni6 H4 C4'
_cell_volume   145.03678030
_cell_formula_units_Z   2
loop_
 _symmetry_equiv_pos_site_id
 _symmetry_equiv_pos_as_xyz
  1  'x, y, z'
loop_
 _atom_site_type_symbol
 _atom_site_label
 _atom_site_symmetry_multiplicity
 _atom_site_fract_x
 _atom_site_fract_y
 _atom_site_fract_z
 _atom_site_occupancy
  Nb  Nb0  1  0.50000000  0.50000000  0.66515664  1.0
  Nb  Nb1  1  0.00000000  0.00000000  0.33484336  1.0
  Ni  Ni2  1  0.00000000  0.50000000  -0.01773802  1.0
  Ni  Ni3  1  0.50000000  0.00000000  1.01773802  1.0
  Ni  Ni4  1  0.50000000  0.68868878  0.20008147  1.0
  Ni  Ni5  1  0.00000000  0.18868878  0.79991853  1.0
  Ni  Ni6  1  0.00000000  0.81131122  0.79991853  1.0
  Ni  Ni7  1  0.50000000  0.31131122  0.20008147  1.0
  H  H8  1  -0.22831100  0.50000000  0.22129158  1.0
  H  H9  1  1.22831100  0.50000000  0.22129158  1.0
  H  H10  1  0.27168900  -0.00000000  0.77870842  1.0
  H  H11  1  0.72831100  0.00000000  0.77870842  1.0
  C  C12  1  0.25000000  0.75000000  0.50000000  1.0
  C  C13  1  0.75000000  0.75000000  0.50000000  1.0
  C  C14  1  0.75000000  0.25000000  0.50000000  1.0
  C  C15  1  0.25000000  0.25000000  0.50000000  1.0
