# generated using pymatgen
data_TlHg6Se4Br5
_symmetry_space_group_name_H-M   'P 1'
_cell_length_a   11.56550794
_cell_length_b   11.56550794
_cell_length_c   11.56550794
_cell_angle_alpha   98.81449954
_cell_angle_beta   98.81449954
_cell_angle_gamma   133.91004679
_symmetry_Int_Tables_number   1
_chemical_formula_structural   TlHg6Se4Br5
_chemical_formula_sum   'Tl2 Hg12 Se8 Br10'
_cell_volume   1025.57362546
_cell_formula_units_Z   2
loop_
 _symmetry_equiv_pos_site_id
 _symmetry_equiv_pos_as_xyz
  1  'x, y, z'
loop_
 _atom_site_type_symbol
 _atom_site_label
 _atom_site_symmetry_multiplicity
 _atom_site_fract_x
 _atom_site_fract_y
 _atom_site_fract_z
 _atom_site_occupancy
  Tl  Tl0  1  1.25000000  0.75000000  0.50000000  1.0
  Tl  Tl1  1  0.75000000  0.25000000  0.50000000  1.0
  Hg  Hg2  1  1.08408659  1.21404706  1.78777947  1.0
  Hg  Hg3  1  1.57373240  1.70369287  1.78777947  1.0
  Hg  Hg4  1  1.21404706  1.42626760  1.12996047  1.0
  Hg  Hg5  1  0.70369287  0.91591341  1.12996047  1.0
  Hg  Hg6  1  0.42626760  0.29630713  0.21222053  1.0
  Hg  Hg7  1  0.91591341  0.78595294  0.21222053  1.0
  Hg  Hg8  1  1.29630713  1.08408659  0.87003953  1.0
  Hg  Hg9  1  0.78595294  0.57373240  0.87003953  1.0
  Hg  Hg10  1  0.87247055  0.74737263  0.61984317  1.0
  Hg  Hg11  1  0.74737263  0.12752945  0.87490208  1.0
  Hg  Hg12  1  1.12752945  1.25262737  1.38015683  1.0
  Hg  Hg13  1  0.25262737  0.87247055  1.12509792  1.0
  Se  Se14  1  1.14846017  1.07072394  0.67182705  1.0
  Se  Se15  1  0.60110310  0.52336687  0.67182705  1.0
  Se  Se16  1  1.07072394  0.39889690  0.92226377  1.0
  Se  Se17  1  1.52336687  0.85153983  0.92226377  1.0
  Se  Se18  1  1.39889690  1.47663313  1.32817295  1.0
  Se  Se19  1  0.85153983  0.92927606  1.32817295  1.0
  Se  Se20  1  0.47663313  1.14846017  1.07773623  1.0
  Se  Se21  1  0.92927606  1.60110310  1.07773623  1.0
  Br  Br22  1  0.82839222  0.56715858  0.39555080  1.0
  Br  Br23  1  0.56715858  0.17160778  0.73876636  1.0
  Br  Br24  1  1.17160778  1.43284142  1.60444920  1.0
  Br  Br25  1  0.43284142  0.82839222  1.26123364  1.0
  Br  Br26  1  0.68455983  0.93791649  1.62247632  1.0
  Br  Br27  1  0.93791649  1.31544017  1.25335666  1.0
  Br  Br28  1  0.31544017  0.06208351  0.37752368  1.0
  Br  Br29  1  1.06208351  0.68455983  0.74664334  1.0
  Br  Br30  1  0.50000000  0.50000000  0.00000000  1.0
  Br  Br31  1  0.00000000  0.00000000  0.00000000  1.0
