# generated using pymatgen
data_RbSr2Nb3O10
_symmetry_space_group_name_H-M   'P 1'
_cell_length_a   3.96069611
_cell_length_b   3.96069611
_cell_length_c   15.44019458
_cell_angle_alpha   90.00000000
_cell_angle_beta   90.00000000
_cell_angle_gamma   90.00000000
_symmetry_Int_Tables_number   1
_chemical_formula_structural   RbSr2Nb3O10
_chemical_formula_sum   'Rb1 Sr2 Nb3 O10'
_cell_volume   242.21208791
_cell_formula_units_Z   1
loop_
 _symmetry_equiv_pos_site_id
 _symmetry_equiv_pos_as_xyz
  1  'x, y, z'
loop_
 _atom_site_type_symbol
 _atom_site_label
 _atom_site_symmetry_multiplicity
 _atom_site_fract_x
 _atom_site_fract_y
 _atom_site_fract_z
 _atom_site_occupancy
  Rb  Rb0  1  0.50000000  0.50000000  0.50000000  1.0
  Sr  Sr1  1  0.50000000  0.50000000  0.85429701  1.0
  Sr  Sr2  1  0.50000000  0.50000000  0.14570299  1.0
  Nb  Nb3  1  0.00000000  0.00000000  0.71469082  1.0
  Nb  Nb4  1  0.00000000  0.00000000  0.28530918  1.0
  Nb  Nb5  1  0.00000000  0.00000000  0.00000000  1.0
  O  O6  1  0.00000000  0.50000000  0.74122983  1.0
  O  O7  1  0.00000000  0.50000000  0.25877017  1.0
  O  O8  1  0.50000000  0.00000000  0.74122983  1.0
  O  O9  1  0.50000000  0.00000000  0.25877017  1.0
  O  O10  1  0.00000000  0.00000000  0.87260058  1.0
  O  O11  1  0.00000000  0.00000000  0.12739942  1.0
  O  O12  1  0.00000000  0.00000000  0.59975219  1.0
  O  O13  1  0.00000000  0.00000000  0.40024781  1.0
  O  O14  1  0.00000000  0.50000000  0.00000000  1.0
  O  O15  1  0.50000000  0.00000000  0.00000000  1.0
