# generated using pymatgen
data_SnH8(NF3)2
_symmetry_space_group_name_H-M   'P 1'
_cell_length_a   6.25677746
_cell_length_b   6.25677746
_cell_length_c   4.80694165
_cell_angle_alpha   90.00000000
_cell_angle_beta   90.00000000
_cell_angle_gamma   120.00000000
_symmetry_Int_Tables_number   1
_chemical_formula_structural   SnH8(NF3)2
_chemical_formula_sum   'Sn1 H8 N2 F6'
_cell_volume   162.96746077
_cell_formula_units_Z   1
loop_
 _symmetry_equiv_pos_site_id
 _symmetry_equiv_pos_as_xyz
  1  'x, y, z'
loop_
 _atom_site_type_symbol
 _atom_site_label
 _atom_site_symmetry_multiplicity
 _atom_site_fract_x
 _atom_site_fract_y
 _atom_site_fract_z
 _atom_site_occupancy
  Sn  Sn0  1  0.00000000  0.00000000  0.00000000  1.0
  H  H1  1  0.51163309  0.75581655  0.41375084  1.0
  H  H2  1  0.75581655  0.51163309  0.58624916  1.0
  H  H3  1  0.75581655  0.24418345  0.58624916  1.0
  H  H4  1  0.24418345  0.75581655  0.41375084  1.0
  H  H5  1  0.24418345  0.48836691  0.41375084  1.0
  H  H6  1  0.48836691  0.24418345  0.58624916  1.0
  H  H7  1  0.33333333  0.66666667  0.12364258  1.0
  H  H8  1  0.66666667  0.33333333  0.87635742  1.0
  N  N9  1  0.33333333  0.66666667  0.33737662  1.0
  N  N10  1  0.66666667  0.33333333  0.66262338  1.0
  F  F11  1  0.30725468  0.15362734  0.23305081  1.0
  F  F12  1  0.15362734  0.30725468  0.76694919  1.0
  F  F13  1  0.15362734  0.84637266  0.76694919  1.0
  F  F14  1  0.84637266  0.15362734  0.23305081  1.0
  F  F15  1  0.84637266  0.69274532  0.23305081  1.0
  F  F16  1  0.69274532  0.84637266  0.76694919  1.0
