# generated using pymatgen
data_Sc2Be17
_symmetry_space_group_name_H-M   'P 1'
_cell_length_a   7.51045973
_cell_length_b   7.51045973
_cell_length_c   7.32982563
_cell_angle_alpha   90.00000000
_cell_angle_beta   90.00000000
_cell_angle_gamma   120.00000000
_symmetry_Int_Tables_number   1
_chemical_formula_structural   Sc2Be17
_chemical_formula_sum   'Sc4 Be34'
_cell_volume   358.06124602
_cell_formula_units_Z   2
loop_
 _symmetry_equiv_pos_site_id
 _symmetry_equiv_pos_as_xyz
  1  'x, y, z'
loop_
 _atom_site_type_symbol
 _atom_site_label
 _atom_site_symmetry_multiplicity
 _atom_site_fract_x
 _atom_site_fract_y
 _atom_site_fract_z
 _atom_site_occupancy
  Sc  Sc0  1  0.33333333  0.66666667  0.25000000  1.0
  Sc  Sc1  1  0.66666667  0.33333333  0.75000000  1.0
  Sc  Sc2  1  0.00000000  0.00000000  0.25000000  1.0
  Sc  Sc3  1  -0.00000000  -0.00000000  0.75000000  1.0
  Be  Be4  1  0.16634486  0.83365514  0.48821412  1.0
  Be  Be5  1  0.16634486  0.83365514  0.01178588  1.0
  Be  Be6  1  0.16634486  0.33268971  0.48821412  1.0
  Be  Be7  1  0.16634486  0.33268971  0.01178588  1.0
  Be  Be8  1  0.83365514  0.16634486  -0.01178588  1.0
  Be  Be9  1  0.83365514  0.16634486  0.51178588  1.0
  Be  Be10  1  0.83365514  0.66731029  -0.01178588  1.0
  Be  Be11  1  0.83365514  0.66731029  0.51178588  1.0
  Be  Be12  1  0.66731029  0.83365514  0.48821412  1.0
  Be  Be13  1  0.66731029  0.83365514  0.01178588  1.0
  Be  Be14  1  0.33268971  0.16634486  -0.01178588  1.0
  Be  Be15  1  0.33268971  0.16634486  0.51178588  1.0
  Be  Be16  1  0.37837486  0.04653123  0.25000000  1.0
  Be  Be17  1  0.37837486  0.33184363  0.25000000  1.0
  Be  Be18  1  0.04653123  0.37837486  0.75000000  1.0
  Be  Be19  1  0.04653123  0.66815637  0.75000000  1.0
  Be  Be20  1  0.66815637  0.04653123  0.25000000  1.0
  Be  Be21  1  0.66815637  0.62162514  0.25000000  1.0
  Be  Be22  1  -0.04653123  0.62162514  0.25000000  1.0
  Be  Be23  1  -0.04653123  0.33184363  0.25000000  1.0
  Be  Be24  1  0.62162514  0.66815637  0.75000000  1.0
  Be  Be25  1  0.62162514  -0.04653123  0.75000000  1.0
  Be  Be26  1  0.33184363  0.37837486  0.75000000  1.0
  Be  Be27  1  0.33184363  -0.04653123  0.75000000  1.0
  Be  Be28  1  0.50000000  0.50000000  0.50000000  1.0
  Be  Be29  1  0.50000000  0.50000000  0.00000000  1.0
  Be  Be30  1  0.50000000  0.00000000  0.50000000  1.0
  Be  Be31  1  0.50000000  0.00000000  0.00000000  1.0
  Be  Be32  1  -0.00000000  0.50000000  0.50000000  1.0
  Be  Be33  1  -0.00000000  0.50000000  -0.00000000  1.0
  Be  Be34  1  0.33333333  0.66666667  0.89439290  1.0
  Be  Be35  1  0.33333333  0.66666667  0.60560710  1.0
  Be  Be36  1  0.66666667  0.33333333  0.39439290  1.0
  Be  Be37  1  0.66666667  0.33333333  0.10560710  1.0
