# generated using pymatgen
data_Hf13Mn4
_symmetry_space_group_name_H-M   'P 1'
_cell_length_a   10.78130058
_cell_length_b   10.78130058
_cell_length_c   10.78130058
_cell_angle_alpha   60.00000000
_cell_angle_beta   60.00000000
_cell_angle_gamma   60.00000000
_symmetry_Int_Tables_number   1
_chemical_formula_structural   Hf13Mn4
_chemical_formula_sum   'Hf26 Mn8'
_cell_volume   886.13209055
_cell_formula_units_Z   2
loop_
 _symmetry_equiv_pos_site_id
 _symmetry_equiv_pos_as_xyz
  1  'x, y, z'
loop_
 _atom_site_type_symbol
 _atom_site_label
 _atom_site_symmetry_multiplicity
 _atom_site_fract_x
 _atom_site_fract_y
 _atom_site_fract_z
 _atom_site_occupancy
  Hf  Hf0  1  0.94744492  -0.57674065  0.68185082  1.0
  Hf  Hf1  1  -0.05255508  0.68185082  0.42325935  1.0
  Hf  Hf2  1  -0.17325935  0.30255508  0.30255508  1.0
  Hf  Hf3  1  0.56814918  0.30255508  0.30255508  1.0
  Hf  Hf4  1  -0.57674065  0.94744492  0.68185082  1.0
  Hf  Hf5  1  0.94744492  -0.05255508  0.68185082  1.0
  Hf  Hf6  1  0.94744492  -0.31814918  0.94744492  1.0
  Hf  Hf7  1  -0.57674065  0.68185082  0.94744492  1.0
  Hf  Hf8  1  0.30255508  -0.17325935  0.30255508  1.0
  Hf  Hf9  1  0.30255508  0.30255508  -0.17325935  1.0
  Hf  Hf10  1  0.56814918  0.30255508  -0.17325935  1.0
  Hf  Hf11  1  0.56814918  -0.17325935  0.30255508  1.0
  Hf  Hf12  1  0.68185082  -0.05255508  0.94744492  1.0
  Hf  Hf13  1  -0.57674065  0.94744492  0.94744492  1.0
  Hf  Hf14  1  0.30255508  0.56814918  -0.17325935  1.0
  Hf  Hf15  1  0.30255508  -0.17325935  0.56814918  1.0
  Hf  Hf16  1  -0.31814918  0.94744492  0.42325935  1.0
  Hf  Hf17  1  0.68185082  -0.57674065  0.94744492  1.0
  Hf  Hf18  1  0.94744492  -0.57674065  0.94744492  1.0
  Hf  Hf19  1  -0.05255508  0.94744492  0.42325935  1.0
  Hf  Hf20  1  0.30255508  0.56814918  0.30255508  1.0
  Hf  Hf21  1  -0.17325935  0.56814918  0.30255508  1.0
  Hf  Hf22  1  -0.17325935  0.30255508  0.56814918  1.0
  Hf  Hf23  1  0.30255508  0.30255508  0.56814918  1.0
  Hf  Hf24  1  0.50000000  0.50000000  -0.50000000  1.0
  Hf  Hf25  1  0.75000000  -0.25000000  0.75000000  1.0
  Mn  Mn26  1  0.65943120  -0.34056880  1.02170639  1.0
  Mn  Mn27  1  0.65943120  0.02170639  0.65943120  1.0
  Mn  Mn28  1  0.59056880  -0.40943120  0.59056880  1.0
  Mn  Mn29  1  1.22829361  -0.40943120  0.59056880  1.0
  Mn  Mn30  1  1.02170639  -0.34056880  0.65943120  1.0
  Mn  Mn31  1  0.65943120  -0.34056880  0.65943120  1.0
  Mn  Mn32  1  0.59056880  0.22829361  0.59056880  1.0
  Mn  Mn33  1  0.59056880  -0.40943120  1.22829361  1.0
