# generated using pymatgen
data_Sb4Br2O5
_symmetry_space_group_name_H-M   'P 1'
_cell_length_a   6.71704105
_cell_length_b   5.25848650
_cell_length_c   13.90380564
_cell_angle_alpha   90.00000000
_cell_angle_beta   95.79990265
_cell_angle_gamma   90.00000000
_symmetry_Int_Tables_number   1
_chemical_formula_structural   Sb4Br2O5
_chemical_formula_sum   'Sb8 Br4 O10'
_cell_volume   488.58883521
_cell_formula_units_Z   2
loop_
 _symmetry_equiv_pos_site_id
 _symmetry_equiv_pos_as_xyz
  1  'x, y, z'
loop_
 _atom_site_type_symbol
 _atom_site_label
 _atom_site_symmetry_multiplicity
 _atom_site_fract_x
 _atom_site_fract_y
 _atom_site_fract_z
 _atom_site_occupancy
  Sb  Sb0  1  0.82605225  0.22261573  0.45175483  1.0
  Sb  Sb1  1  0.82605225  0.27738427  0.95175483  1.0
  Sb  Sb2  1  0.17394775  0.72261573  0.04824517  1.0
  Sb  Sb3  1  0.17394775  0.77738427  0.54824517  1.0
  Sb  Sb4  1  0.19191529  0.10365909  0.29580546  1.0
  Sb  Sb5  1  0.19191529  0.39634091  0.79580546  1.0
  Sb  Sb6  1  0.80808471  0.60365909  0.20419454  1.0
  Sb  Sb7  1  0.80808471  0.89634091  0.70419454  1.0
  Br  Br8  1  0.50749039  0.21015328  0.11787644  1.0
  Br  Br9  1  0.50749039  0.28984672  0.61787644  1.0
  Br  Br10  1  0.49250961  0.71015328  0.38212356  1.0
  Br  Br11  1  0.49250961  0.78984672  0.88212356  1.0
  O  O12  1  0.93235507  0.49226816  0.08169320  1.0
  O  O13  1  0.93235507  0.00773184  0.58169320  1.0
  O  O14  1  0.06764493  0.99226816  0.41830680  1.0
  O  O15  1  0.06764493  0.50773184  0.91830680  1.0
  O  O16  1  0.92849054  0.32513236  0.28999589  1.0
  O  O17  1  0.92849054  0.17486764  0.78999589  1.0
  O  O18  1  0.07150946  0.82513236  0.21000411  1.0
  O  O19  1  0.07150946  0.67486764  0.71000411  1.0
  O  O20  1  -0.00000000  0.50000000  0.50000000  1.0
  O  O21  1  0.00000000  -0.00000000  0.00000000  1.0
