# generated using pymatgen
data_KGaS2
_symmetry_space_group_name_H-M   'P 1'
_cell_length_a   7.47410190
_cell_length_b   7.47410190
_cell_length_c   14.99772782
_cell_angle_alpha   82.82590870
_cell_angle_beta   97.17409130
_cell_angle_gamma   89.99896540
_symmetry_Int_Tables_number   1
_chemical_formula_structural   KGaS2
_chemical_formula_sum   'K8 Ga8 S16'
_cell_volume   824.63574652
_cell_formula_units_Z   8
loop_
 _symmetry_equiv_pos_site_id
 _symmetry_equiv_pos_as_xyz
  1  'x, y, z'
loop_
 _atom_site_type_symbol
 _atom_site_label
 _atom_site_symmetry_multiplicity
 _atom_site_fract_x
 _atom_site_fract_y
 _atom_site_fract_z
 _atom_site_occupancy
  K  K0  1  0.94422675  0.93207774  0.54289736  1.0
  K  K1  1  0.06792226  0.05577325  0.04289736  1.0
  K  K2  1  0.51374926  0.36252754  0.82066788  1.0
  K  K3  1  0.63747246  0.48625074  0.32066788  1.0
  K  K4  1  1.06751096  -0.44244642  0.04131243  1.0
  K  K5  1  1.44244642  -0.06751096  0.54131243  1.0
  K  K6  1  1.13912889  -0.51385895  0.32218920  1.0
  K  K7  1  1.51385895  -0.13912889  0.82218920  1.0
  Ga  Ga8  1  0.70999082  0.41836917  0.59498075  1.0
  Ga  Ga9  1  0.58163083  0.29000918  0.09498075  1.0
  Ga  Ga10  1  0.99967776  0.62186113  0.76822839  1.0
  Ga  Ga11  1  0.37813887  0.00032224  0.26822839  1.0
  Ga  Ga12  1  1.20342080  -0.58170336  0.59534014  1.0
  Ga  Ga13  1  1.58170336  -0.20342080  0.09534014  1.0
  Ga  Ga14  1  0.99978508  0.12848360  0.76852401  1.0
  Ga  Ga15  1  0.87151640  0.00021492  0.26852401  1.0
  S  S16  1  0.43349701  0.44087912  0.50369411  1.0
  S  S17  1  0.55912088  0.56650299  0.00369411  1.0
  S  S18  1  0.72312496  0.65212743  0.68136283  1.0
  S  S19  1  0.34787257  0.27687504  0.18136283  1.0
  S  S20  1  1.02223730  -0.14797029  0.85982782  1.0
  S  S21  1  1.14797029  -0.02223730  0.35982782  1.0
  S  S22  1  0.93317624  0.44184605  0.50012638  1.0
  S  S23  1  0.55815395  0.06682376  0.00012638  1.0
  S  S24  1  0.72319599  0.14169725  0.68171026  1.0
  S  S25  1  0.85830275  0.27680401  0.18171026  1.0
  S  S26  1  1.23345486  -0.34809598  0.68183568  1.0
  S  S27  1  1.34809598  -0.23345486  0.18183568  1.0
  S  S28  1  1.02292405  -0.64838950  0.86341784  1.0
  S  S29  1  1.64838950  -0.02292405  0.36341784  1.0
  S  S30  1  0.23361752  0.14171373  0.68218491  1.0
  S  S31  1  0.85828627  0.76638248  0.18218491  1.0
