# generated using pymatgen
data_Ir3S8
_symmetry_space_group_name_H-M   'P 1'
_cell_length_a   5.70796879
_cell_length_b   5.70796879
_cell_length_c   5.70796879
_cell_angle_alpha   89.41874890
_cell_angle_beta   89.41874890
_cell_angle_gamma   89.41874890
_symmetry_Int_Tables_number   1
_chemical_formula_structural   Ir3S8
_chemical_formula_sum   'Ir3 S8'
_cell_volume   185.94228808
_cell_formula_units_Z   1
loop_
 _symmetry_equiv_pos_site_id
 _symmetry_equiv_pos_as_xyz
  1  'x, y, z'
loop_
 _atom_site_type_symbol
 _atom_site_label
 _atom_site_symmetry_multiplicity
 _atom_site_fract_x
 _atom_site_fract_y
 _atom_site_fract_z
 _atom_site_occupancy
  Ir  Ir0  1  0.50000000  0.50000000  -0.00000000  1.0
  Ir  Ir1  1  0.50000000  1.00000000  -0.50000000  1.0
  Ir  Ir2  1  1.00000000  0.50000000  -0.50000000  1.0
  S  S3  1  0.60545113  1.11146585  -0.11096977  1.0
  S  S4  1  0.88853415  0.11096977  0.39454887  1.0
  S  S5  1  1.11096977  0.39454887  -0.11146585  1.0
  S  S6  1  1.39454887  -0.11146585  0.11096977  1.0
  S  S7  1  1.11146585  0.88903023  -0.39454887  1.0
  S  S8  1  0.88903023  0.60545113  0.11146585  1.0
  S  S9  1  0.62679194  0.62679194  0.62679194  1.0
  S  S10  1  0.37320806  0.37320806  0.37320806  1.0
