# generated using pymatgen
data_ZrPt
_symmetry_space_group_name_H-M   'P 1'
_cell_length_a   5.48301803
_cell_length_b   5.48301803
_cell_length_c   4.31153840
_cell_angle_alpha   90.00000000
_cell_angle_beta   90.00000000
_cell_angle_gamma   143.38922691
_symmetry_Int_Tables_number   1
_chemical_formula_structural   ZrPt
_chemical_formula_sum   'Zr2 Pt2'
_cell_volume   77.30216016
_cell_formula_units_Z   2
loop_
 _symmetry_equiv_pos_site_id
 _symmetry_equiv_pos_as_xyz
  1  'x, y, z'
loop_
 _atom_site_type_symbol
 _atom_site_label
 _atom_site_symmetry_multiplicity
 _atom_site_fract_x
 _atom_site_fract_y
 _atom_site_fract_z
 _atom_site_occupancy
  Zr  Zr0  1  -0.64166789  0.64166789  0.25000000  1.0
  Zr  Zr1  1  -0.35833211  1.35833211  0.75000000  1.0
  Pt  Pt2  1  -0.90805532  0.90805532  0.25000000  1.0
  Pt  Pt3  1  -0.09194468  1.09194468  0.75000000  1.0
