# generated using pymatgen
data_YVO4
_symmetry_space_group_name_H-M   'P 1'
_cell_length_a   5.98202109
_cell_length_b   5.98202109
_cell_length_c   5.98202109
_cell_angle_alpha   106.16212370
_cell_angle_beta   106.16212370
_cell_angle_gamma   116.31382834
_symmetry_Int_Tables_number   1
_chemical_formula_structural   YVO4
_chemical_formula_sum   'Y2 V2 O8'
_cell_volume   163.00358416
_cell_formula_units_Z   2
loop_
 _symmetry_equiv_pos_site_id
 _symmetry_equiv_pos_as_xyz
  1  'x, y, z'
loop_
 _atom_site_type_symbol
 _atom_site_label
 _atom_site_symmetry_multiplicity
 _atom_site_fract_x
 _atom_site_fract_y
 _atom_site_fract_z
 _atom_site_occupancy
  Y  Y0  1  0.25000000  0.75000000  0.50000000  1.0
  Y  Y1  1  0.50000000  0.50000000  -0.00000000  1.0
  V  V2  1  -0.00000000  0.00000000  0.00000000  1.0
  V  V3  1  0.75000000  1.25000000  0.50000000  1.0
  O  O4  1  0.57615625  1.26021807  0.68406181  1.0
  O  O5  1  1.01021807  0.82615625  1.18406181  1.0
  O  O6  1  1.64209444  0.82615625  0.81593819  1.0
  O  O7  1  0.57615625  0.89209444  0.31593819  1.0
  O  O8  1  0.17384375  0.98978193  0.81593819  1.0
  O  O9  1  0.73978193  0.42384375  0.31593819  1.0
  O  O10  1  1.10790556  1.42384375  0.68406181  1.0
  O  O11  1  0.17384375  0.35790556  0.18406181  1.0
