# generated using pymatgen
data_CuAsPbS3
_symmetry_space_group_name_H-M   'P 1'
_cell_length_a   7.69031363
_cell_length_b   8.20005731
_cell_length_c   9.05346037
_cell_angle_alpha   90.00000000
_cell_angle_beta   90.00000000
_cell_angle_gamma   90.00000000
_symmetry_Int_Tables_number   1
_chemical_formula_structural   CuAsPbS3
_chemical_formula_sum   'Cu4 As4 Pb4 S12'
_cell_volume   570.92037738
_cell_formula_units_Z   4
loop_
 _symmetry_equiv_pos_site_id
 _symmetry_equiv_pos_as_xyz
  1  'x, y, z'
loop_
 _atom_site_type_symbol
 _atom_site_label
 _atom_site_symmetry_multiplicity
 _atom_site_fract_x
 _atom_site_fract_y
 _atom_site_fract_z
 _atom_site_occupancy
  Cu  Cu0  1  0.23788408  0.22311398  0.85291243  1.0
  Cu  Cu1  1  0.73788408  0.77688602  0.35291243  1.0
  Cu  Cu2  1  0.76211592  0.22311398  0.85291243  1.0
  Cu  Cu3  1  0.26211592  0.77688602  0.35291243  1.0
  As  As4  1  0.50000000  0.99890839  0.61971301  1.0
  As  As5  1  0.00000000  0.00109161  0.11971301  1.0
  As  As6  1  0.50000000  0.43524115  0.20032944  1.0
  As  As7  1  0.00000000  0.56475885  0.70032944  1.0
  Pb  Pb8  1  0.50000000  0.95402145  0.08610499  1.0
  Pb  Pb9  1  0.00000000  0.04597855  0.58610499  1.0
  Pb  Pb10  1  0.50000000  0.57819466  0.77339156  1.0
  Pb  Pb11  1  0.00000000  0.42180534  0.27339156  1.0
  S  S12  1  0.27533015  0.94959376  0.78255836  1.0
  S  S13  1  0.77533015  0.05040624  0.28255836  1.0
  S  S14  1  0.72466985  0.94959376  0.78255836  1.0
  S  S15  1  0.22466985  0.05040624  0.28255836  1.0
  S  S16  1  0.22752789  0.39108306  0.64553861  1.0
  S  S17  1  0.72752789  0.60891694  0.14553861  1.0
  S  S18  1  0.77247211  0.39108306  0.64553861  1.0
  S  S19  1  0.27247211  0.60891694  0.14553861  1.0
  S  S20  1  0.50000000  0.75196420  0.50023192  1.0
  S  S21  1  0.00000000  0.24803580  0.00023192  1.0
  S  S22  1  0.50000000  0.28426573  0.98121027  1.0
  S  S23  1  0.00000000  0.71573427  0.48121027  1.0
