# generated using pymatgen
data_YAl2Co
_symmetry_space_group_name_H-M   'P 1'
_cell_length_a   5.41720381
_cell_length_b   5.41720381
_cell_length_c   7.01889523
_cell_angle_alpha   90.00000000
_cell_angle_beta   90.00000000
_cell_angle_gamma   136.39832335
_symmetry_Int_Tables_number   1
_chemical_formula_structural   YAl2Co
_chemical_formula_sum   'Y2 Al4 Co2'
_cell_volume   142.05025443
_cell_formula_units_Z   2
loop_
 _symmetry_equiv_pos_site_id
 _symmetry_equiv_pos_as_xyz
  1  'x, y, z'
loop_
 _atom_site_type_symbol
 _atom_site_label
 _atom_site_symmetry_multiplicity
 _atom_site_fract_x
 _atom_site_fract_y
 _atom_site_fract_z
 _atom_site_occupancy
  Y  Y0  1  0.44056262  0.55943738  0.75000000  1.0
  Y  Y1  1  -0.44056262  0.44056262  0.25000000  1.0
  Al  Al2  1  0.16138910  0.83861090  0.94387177  1.0
  Al  Al3  1  0.16138910  0.83861090  0.55612823  1.0
  Al  Al4  1  -0.16138910  0.16138910  0.44387177  1.0
  Al  Al5  1  -0.16138910  0.16138910  0.05612823  1.0
  Co  Co6  1  -0.28347920  0.28347920  0.75000000  1.0
  Co  Co7  1  0.28347920  0.71652080  0.25000000  1.0
