# generated using pymatgen
data_FeBr(NO)3
_symmetry_space_group_name_H-M   'P 1'
_cell_length_a   7.88521406
_cell_length_b   7.88521406
_cell_length_c   6.65561846
_cell_angle_alpha   90.00000000
_cell_angle_beta   90.00000000
_cell_angle_gamma   120.00000000
_symmetry_Int_Tables_number   1
_chemical_formula_structural   FeBr(NO)3
_chemical_formula_sum   'Fe2 Br2 N6 O6'
_cell_volume   358.38186458
_cell_formula_units_Z   2
loop_
 _symmetry_equiv_pos_site_id
 _symmetry_equiv_pos_as_xyz
  1  'x, y, z'
loop_
 _atom_site_type_symbol
 _atom_site_label
 _atom_site_symmetry_multiplicity
 _atom_site_fract_x
 _atom_site_fract_y
 _atom_site_fract_z
 _atom_site_occupancy
  Fe  Fe0  1  0.33333333  0.66666667  -0.01916181  1.0
  Fe  Fe1  1  0.66666667  0.33333333  0.48083819  1.0
  Br  Br2  1  0.33333333  0.66666667  0.34333351  1.0
  Br  Br3  1  0.66666667  0.33333333  0.84333351  1.0
  N  N4  1  0.43403035  0.21701518  0.40020358  1.0
  N  N5  1  0.21701518  0.43403035  0.90020358  1.0
  N  N6  1  0.21701518  0.78298482  0.90020358  1.0
  N  N7  1  0.78298482  0.21701518  0.40020358  1.0
  N  N8  1  0.78298482  0.56596965  0.40020358  1.0
  N  N9  1  0.56596965  0.78298482  0.90020358  1.0
  O  O10  1  0.29008974  0.14504487  0.30833918  1.0
  O  O11  1  0.14504487  0.29008974  0.80833918  1.0
  O  O12  1  0.14504487  0.85495513  0.80833918  1.0
  O  O13  1  0.85495513  0.14504487  0.30833918  1.0
  O  O14  1  0.85495513  0.70991026  0.30833918  1.0
  O  O15  1  0.70991026  0.85495513  0.80833918  1.0
