# generated using pymatgen
data_Na2AgSb
_symmetry_space_group_name_H-M   'P 1'
_cell_length_a   6.11675913
_cell_length_b   6.11675913
_cell_length_c   5.80322254
_cell_angle_alpha   90.00000000
_cell_angle_beta   90.00000000
_cell_angle_gamma   80.74058658
_symmetry_Int_Tables_number   1
_chemical_formula_structural   Na2AgSb
_chemical_formula_sum   'Na4 Ag2 Sb2'
_cell_volume   214.29691076
_cell_formula_units_Z   2
loop_
 _symmetry_equiv_pos_site_id
 _symmetry_equiv_pos_as_xyz
  1  'x, y, z'
loop_
 _atom_site_type_symbol
 _atom_site_label
 _atom_site_symmetry_multiplicity
 _atom_site_fract_x
 _atom_site_fract_y
 _atom_site_fract_z
 _atom_site_occupancy
  Na  Na0  1  -0.17073954  1.52697069  0.25000000  1.0
  Na  Na1  1  0.52697069  0.82926046  0.75000000  1.0
  Na  Na2  1  -0.52697069  1.17073954  0.25000000  1.0
  Na  Na3  1  0.17073954  0.47302931  0.75000000  1.0
  Ag  Ag4  1  0.00000000  0.00000000  0.50000000  1.0
  Ag  Ag5  1  0.00000000  0.00000000  0.00000000  1.0
  Sb  Sb6  1  0.29203649  0.70796351  0.25000000  1.0
  Sb  Sb7  1  -0.29203649  1.29203649  0.75000000  1.0
