# generated using pymatgen
data_Li2FeS2
_symmetry_space_group_name_H-M   'P 1'
_cell_length_a   3.79325785
_cell_length_b   3.79325785
_cell_length_c   6.10768347
_cell_angle_alpha   90.00000000
_cell_angle_beta   90.00000000
_cell_angle_gamma   120.00000000
_symmetry_Int_Tables_number   1
_chemical_formula_structural   Li2FeS2
_chemical_formula_sum   'Li2 Fe1 S2'
_cell_volume   76.10827607
_cell_formula_units_Z   1
loop_
 _symmetry_equiv_pos_site_id
 _symmetry_equiv_pos_as_xyz
  1  'x, y, z'
loop_
 _atom_site_type_symbol
 _atom_site_label
 _atom_site_symmetry_multiplicity
 _atom_site_fract_x
 _atom_site_fract_y
 _atom_site_fract_z
 _atom_site_occupancy
  Li  Li0  1  0.33333333  0.66666667  0.63881612  1.0
  Li  Li1  1  0.66666667  0.33333333  0.36118388  1.0
  Fe  Fe2  1  0.00000000  0.00000000  0.00000000  1.0
  S  S3  1  0.33333333  0.66666667  0.22470454  1.0
  S  S4  1  0.66666667  0.33333333  0.77529546  1.0
