# generated using pymatgen
data_Rb2PtS2
_symmetry_space_group_name_H-M   'P 1'
_cell_length_a   6.48330103
_cell_length_b   6.48330103
_cell_length_c   6.48330103
_cell_angle_alpha   146.95423969
_cell_angle_beta   110.72200066
_cell_angle_gamma   78.92642750
_symmetry_Int_Tables_number   1
_chemical_formula_structural   Rb2PtS2
_chemical_formula_sum   'Rb2 Pt1 S2'
_cell_volume   136.04050067
_cell_formula_units_Z   1
loop_
 _symmetry_equiv_pos_site_id
 _symmetry_equiv_pos_as_xyz
  1  'x, y, z'
loop_
 _atom_site_type_symbol
 _atom_site_label
 _atom_site_symmetry_multiplicity
 _atom_site_fract_x
 _atom_site_fract_y
 _atom_site_fract_z
 _atom_site_occupancy
  Rb  Rb0  1  0.69212544  0.19212544  0.50000000  1.0
  Rb  Rb1  1  1.30787456  0.80787456  0.50000000  1.0
  Pt  Pt2  1  0.00000000  0.00000000  0.00000000  1.0
  S  S3  1  0.20678672  0.50000000  0.70678672  1.0
  S  S4  1  0.79321328  0.50000000  1.29321328  1.0
