# generated using pymatgen
data_GdCoSn
_symmetry_space_group_name_H-M   'P 1'
_cell_length_a   7.46543497
_cell_length_b   4.63854356
_cell_length_c   7.19090911
_cell_angle_alpha   90.00000000
_cell_angle_beta   90.00000000
_cell_angle_gamma   90.00000000
_symmetry_Int_Tables_number   1
_chemical_formula_structural   GdCoSn
_chemical_formula_sum   'Gd4 Co4 Sn4'
_cell_volume   249.01216006
_cell_formula_units_Z   4
loop_
 _symmetry_equiv_pos_site_id
 _symmetry_equiv_pos_as_xyz
  1  'x, y, z'
loop_
 _atom_site_type_symbol
 _atom_site_label
 _atom_site_symmetry_multiplicity
 _atom_site_fract_x
 _atom_site_fract_y
 _atom_site_fract_z
 _atom_site_occupancy
  Gd  Gd0  1  1.02879762  0.75000000  0.69449387  1.0
  Gd  Gd1  1  0.52879762  0.75000000  0.80550613  1.0
  Gd  Gd2  1  -0.02879762  0.25000000  0.30550613  1.0
  Gd  Gd3  1  0.47120238  0.25000000  0.19449387  1.0
  Co  Co4  1  0.85136573  0.75000000  0.05686729  1.0
  Co  Co5  1  0.35136573  0.75000000  0.44313271  1.0
  Co  Co6  1  0.14863427  0.25000000  0.94313271  1.0
  Co  Co7  1  0.64863427  0.25000000  0.55686729  1.0
  Sn  Sn8  1  0.69807929  0.75000000  0.38709651  1.0
  Sn  Sn9  1  0.19807929  0.75000000  0.11290349  1.0
  Sn  Sn10  1  0.30192071  0.25000000  0.61290349  1.0
  Sn  Sn11  1  0.80192071  0.25000000  0.88709651  1.0
