# generated using pymatgen
data_SnF2
_symmetry_space_group_name_H-M   'P 1'
_cell_length_a   5.26840234
_cell_length_b   5.28880902
_cell_length_c   8.54966294
_cell_angle_alpha   90.00000000
_cell_angle_beta   90.00000000
_cell_angle_gamma   90.00000000
_symmetry_Int_Tables_number   1
_chemical_formula_structural   SnF2
_chemical_formula_sum   'Sn4 F8'
_cell_volume   238.22416428
_cell_formula_units_Z   4
loop_
 _symmetry_equiv_pos_site_id
 _symmetry_equiv_pos_as_xyz
  1  'x, y, z'
loop_
 _atom_site_type_symbol
 _atom_site_label
 _atom_site_symmetry_multiplicity
 _atom_site_fract_x
 _atom_site_fract_y
 _atom_site_fract_z
 _atom_site_occupancy
  Sn  Sn0  1  0.24840443  0.50209053  0.62490234  1.0
  Sn  Sn1  1  0.74840443  0.99790947  0.37509766  1.0
  Sn  Sn2  1  0.75159557  0.00209053  0.87509766  1.0
  Sn  Sn3  1  0.25159557  0.49790947  0.12490234  1.0
  F  F4  1  0.48867231  0.85725196  0.54462941  1.0
  F  F5  1  0.98867231  0.64274804  0.45537059  1.0
  F  F6  1  0.51132769  0.35725196  0.95537059  1.0
  F  F7  1  0.01132769  0.14274804  0.04462941  1.0
  F  F8  1  0.10565093  0.75942435  0.79479718  1.0
  F  F9  1  0.60565093  0.74057565  0.20520282  1.0
  F  F10  1  0.89434907  0.25942435  0.70520282  1.0
  F  F11  1  0.39434907  0.24057565  0.29479718  1.0
