# generated using pymatgen
data_NiPRh
_symmetry_space_group_name_H-M   'P 1'
_cell_length_a   5.97051532
_cell_length_b   5.97051532
_cell_length_c   3.52964866
_cell_angle_alpha   90.00000000
_cell_angle_beta   90.00000000
_cell_angle_gamma   120.00000000
_symmetry_Int_Tables_number   1
_chemical_formula_structural   NiPRh
_chemical_formula_sum   'Ni3 P3 Rh3'
_cell_volume   108.96467892
_cell_formula_units_Z   3
loop_
 _symmetry_equiv_pos_site_id
 _symmetry_equiv_pos_as_xyz
  1  'x, y, z'
loop_
 _atom_site_type_symbol
 _atom_site_label
 _atom_site_symmetry_multiplicity
 _atom_site_fract_x
 _atom_site_fract_y
 _atom_site_fract_z
 _atom_site_occupancy
  Ni  Ni0  1  0.74082720  0.74082720  0.00000000  1.0
  Ni  Ni1  1  0.25917280  0.00000000  0.00000000  1.0
  Ni  Ni2  1  0.00000000  0.25917280  0.00000000  1.0
  P  P3  1  0.66666667  0.33333333  0.00000000  1.0
  P  P4  1  0.33333333  0.66666667  0.00000000  1.0
  P  P5  1  0.00000000  0.00000000  0.50000000  1.0
  Rh  Rh6  1  0.39044393  0.39044393  0.50000000  1.0
  Rh  Rh7  1  0.60955607  0.00000000  0.50000000  1.0
  Rh  Rh8  1  -0.00000000  0.60955607  0.50000000  1.0
