# generated using pymatgen
data_Rb2TaAgS2
_symmetry_space_group_name_H-M   'P 1'
_cell_length_a   19.06377808
_cell_length_b   18.29386354
_cell_length_c   6.85576038
_cell_angle_alpha   85.83013294
_cell_angle_beta   73.15130617
_cell_angle_gamma   21.01856089
_symmetry_Int_Tables_number   1
_chemical_formula_structural   Rb2TaAgS2
_chemical_formula_sum   'Rb8 Ta4 Ag4 S8'
_cell_volume   670.71817130
_cell_formula_units_Z   4
loop_
 _symmetry_equiv_pos_site_id
 _symmetry_equiv_pos_as_xyz
  1  'x, y, z'
loop_
 _atom_site_type_symbol
 _atom_site_label
 _atom_site_symmetry_multiplicity
 _atom_site_fract_x
 _atom_site_fract_y
 _atom_site_fract_z
 _atom_site_occupancy
  Rb  Rb0  1  1.10104967  0.47436274  0.63384258  1.0
  Rb  Rb1  1  0.79074500  0.63384258  0.47436274  1.0
  Rb  Rb2  1  0.77563726  1.14895033  0.45925500  1.0
  Rb  Rb3  1  0.61615742  0.45925500  1.14895033  1.0
  Rb  Rb4  1  1.63384258  -0.20925500  0.10104967  1.0
  Rb  Rb5  1  1.47436274  0.10104967  -0.20925500  1.0
  Rb  Rb6  1  0.45925500  0.61615742  0.77563726  1.0
  Rb  Rb7  1  1.14895033  0.77563726  0.61615742  1.0
  Ta  Ta8  1  1.12500000  0.12500000  0.62500000  1.0
  Ta  Ta9  1  1.12500000  0.62500000  0.12500000  1.0
  Ta  Ta10  1  1.12500000  0.12500000  0.12500000  1.0
  Ta  Ta11  1  1.62500000  0.12500000  0.12500000  1.0
  Ag  Ag12  1  0.62500000  0.62500000  1.12500000  1.0
  Ag  Ag13  1  0.62500000  1.12500000  0.62500000  1.0
  Ag  Ag14  1  0.62500000  0.62500000  0.62500000  1.0
  Ag  Ag15  1  1.12500000  0.62500000  0.62500000  1.0
  S  S16  1  1.12489570  -0.00239326  0.63582527  1.0
  S  S17  1  1.24167229  0.63582527  -0.00239326  1.0
  S  S18  1  0.25239326  1.12510430  1.00832771  1.0
  S  S19  1  0.61417473  1.00832771  1.12510430  1.0
  S  S20  1  1.63582527  0.24167229  0.12489570  1.0
  S  S21  1  0.99760674  0.12489570  0.24167229  1.0
  S  S22  1  1.00832771  0.61417473  0.25239326  1.0
  S  S23  1  1.12510430  0.25239326  0.61417473  1.0
