# generated using pymatgen
data_K2GeB4O11
_symmetry_space_group_name_H-M   'P 1'
_cell_length_a   6.99883254
_cell_length_b   6.99883254
_cell_length_c   11.99847991
_cell_angle_alpha   89.56657424
_cell_angle_beta   90.43342576
_cell_angle_gamma   58.63937009
_symmetry_Int_Tables_number   1
_chemical_formula_structural   K2GeB4O11
_chemical_formula_sum   'K4 Ge2 B8 O22'
_cell_volume   501.80732263
_cell_formula_units_Z   2
loop_
 _symmetry_equiv_pos_site_id
 _symmetry_equiv_pos_as_xyz
  1  'x, y, z'
loop_
 _atom_site_type_symbol
 _atom_site_label
 _atom_site_symmetry_multiplicity
 _atom_site_fract_x
 _atom_site_fract_y
 _atom_site_fract_z
 _atom_site_occupancy
  O  O0  1  0.95265246  -0.05627822  0.50311635  1.0
  O  O1  1  0.05627822  0.04734754  0.00311635  1.0
  O  O2  1  1.02100929  -0.42593325  0.69737269  1.0
  O  O3  1  0.42593325  -0.02100929  0.19737269  1.0
  O  O4  1  1.17338818  -0.34099165  0.98776240  1.0
  O  O5  1  0.34099165  -0.17338818  0.48776240  1.0
  O  O6  1  0.96683531  -0.59009311  0.95117165  1.0
  O  O7  1  0.59009311  0.03316469  0.45117165  1.0
  O  O8  1  1.24634382  -0.43693601  0.54054935  1.0
  O  O9  1  0.43693601  -0.24634382  0.04054935  1.0
  O  O10  1  0.70981271  -0.05899489  0.64735968  1.0
  O  O11  1  1.05899489  -0.70981271  0.14735968  1.0
  O  O12  1  1.15330276  -0.72708086  0.56977688  1.0
  O  O13  1  0.72708086  -0.15330276  0.06977688  1.0
  O  O14  1  0.78064474  -0.16284039  0.83597385  1.0
  O  O15  1  1.16284039  -0.78064474  0.33597385  1.0
  O  O16  1  0.55066974  -0.52846556  0.78050350  1.0
  O  O17  1  0.52846556  0.44933026  0.28050350  1.0
  O  O18  1  1.32665642  -0.42684395  0.26846118  1.0
  O  O19  1  0.42684395  -0.32665642  0.76846118  1.0
  O  O20  1  0.86729143  -0.35085349  0.50891248  1.0
  O  O21  1  0.35085349  0.13270857  0.00891248  1.0
  Ge  Ge22  1  0.90855115  -0.31514323  0.96225956  1.0
  Ge  Ge23  1  0.31514323  0.09144885  0.46225956  1.0
  K  K24  1  0.69555853  -0.62123468  0.53296221  1.0
  K  K25  1  0.62123468  0.30444147  0.03296221  1.0
  K  K26  1  0.31870567  0.16349398  0.78384890  1.0
  K  K27  1  0.83650602  -0.31870567  0.28384890  1.0
  B  B28  1  0.84318151  -0.22119998  0.72509955  1.0
  B  B29  1  0.22119998  0.15681849  0.22509955  1.0
  B  B30  1  1.17333751  -0.21906014  0.51080722  1.0
  B  B31  1  0.21906014  -0.17333751  0.01080722  1.0
  B  B32  1  1.07018162  -0.48457611  0.57541947  1.0
  B  B33  1  0.48457611  -0.07018162  0.07541947  1.0
  B  B34  1  1.11372500  -0.77652063  0.02764308  1.0
  B  B35  1  0.77652063  -0.11372500  0.52764308  1.0
