# generated using pymatgen
data_CsGeBiS4
_symmetry_space_group_name_H-M   'P 1'
_cell_length_a   6.71982845
_cell_length_b   6.97971150
_cell_length_c   19.63497682
_cell_angle_alpha   90.00000000
_cell_angle_beta   112.65447981
_cell_angle_gamma   90.00000000
_symmetry_Int_Tables_number   1
_chemical_formula_structural   CsGeBiS4
_chemical_formula_sum   'Cs4 Ge4 Bi4 S16'
_cell_volume   849.87397096
_cell_formula_units_Z   4
loop_
 _symmetry_equiv_pos_site_id
 _symmetry_equiv_pos_as_xyz
  1  'x, y, z'
loop_
 _atom_site_type_symbol
 _atom_site_label
 _atom_site_symmetry_multiplicity
 _atom_site_fract_x
 _atom_site_fract_y
 _atom_site_fract_z
 _atom_site_occupancy
  Cs  Cs0  1  0.78665564  0.74794237  0.03376261  1.0
  Cs  Cs1  1  0.78665564  0.75205763  0.53376261  1.0
  Cs  Cs2  1  0.21334436  0.24794237  0.46623739  1.0
  Cs  Cs3  1  0.21334436  0.25205763  0.96623739  1.0
  Ge  Ge4  1  0.11973350  0.27331428  0.16439303  1.0
  Ge  Ge5  1  0.11973350  0.22668572  0.66439303  1.0
  Ge  Ge6  1  0.88026650  0.77331428  0.33560697  1.0
  Ge  Ge7  1  0.88026650  0.72668572  0.83560697  1.0
  Bi  Bi8  1  0.31649089  0.69659033  0.27675852  1.0
  Bi  Bi9  1  0.31649089  0.80340967  0.77675852  1.0
  Bi  Bi10  1  0.68350911  0.19659033  0.22324148  1.0
  Bi  Bi11  1  0.68350911  0.30340967  0.72324148  1.0
  S  S12  1  0.29900649  0.01208234  0.15285550  1.0
  S  S13  1  0.29900649  0.48791766  0.65285550  1.0
  S  S14  1  0.70099351  0.51208234  0.34714450  1.0
  S  S15  1  0.70099351  0.98791766  0.84714450  1.0
  S  S16  1  0.70062459  0.01500514  0.35865255  1.0
  S  S17  1  0.70062459  0.48499486  0.85865255  1.0
  S  S18  1  0.29937541  0.51500514  0.14134745  1.0
  S  S19  1  0.29937541  0.98499486  0.64134745  1.0
  S  S20  1  0.14675842  0.33680051  0.28044580  1.0
  S  S21  1  0.14675842  0.16319949  0.78044580  1.0
  S  S22  1  0.85324158  0.83680051  0.21955420  1.0
  S  S23  1  0.85324158  0.66319949  0.71955420  1.0
  S  S24  1  0.77065203  0.24800778  0.09397917  1.0
  S  S25  1  0.77065203  0.25199222  0.59397917  1.0
  S  S26  1  0.22934797  0.74800778  0.40602083  1.0
  S  S27  1  0.22934797  0.75199222  0.90602083  1.0
