# generated using pymatgen
data_VZnPbO5
_symmetry_space_group_name_H-M   'P 1'
_cell_length_a   8.51567359
_cell_length_b   6.09499511
_cell_length_c   9.20533002
_cell_angle_alpha   90.00000000
_cell_angle_beta   90.00000000
_cell_angle_gamma   90.00000000
_symmetry_Int_Tables_number   1
_chemical_formula_structural   VZnPbO5
_chemical_formula_sum   'V4 Zn4 Pb4 O20'
_cell_volume   477.78414118
_cell_formula_units_Z   4
loop_
 _symmetry_equiv_pos_site_id
 _symmetry_equiv_pos_as_xyz
  1  'x, y, z'
loop_
 _atom_site_type_symbol
 _atom_site_label
 _atom_site_symmetry_multiplicity
 _atom_site_fract_x
 _atom_site_fract_y
 _atom_site_fract_z
 _atom_site_occupancy
  O  O0  1  0.62597033  0.75000000  0.37221648  1.0
  O  O1  1  0.12597033  0.75000000  0.12778352  1.0
  O  O2  1  0.37402967  0.25000000  0.62778352  1.0
  O  O3  1  0.87402967  0.25000000  0.87221648  1.0
  O  O4  1  0.44639045  0.75000000  0.08689699  1.0
  O  O5  1  -0.05360955  0.75000000  0.41310301  1.0
  O  O6  1  0.55360955  0.25000000  0.91310301  1.0
  O  O7  1  1.05360955  0.25000000  0.58689699  1.0
  O  O8  1  0.39800314  0.75000000  0.59228608  1.0
  O  O9  1  0.89800314  0.75000000  0.90771392  1.0
  O  O10  1  0.60199686  0.25000000  0.40771392  1.0
  O  O11  1  0.10199686  0.25000000  0.09228608  1.0
  O  O12  1  0.81358197  0.98781682  0.17658855  1.0
  O  O13  1  0.81358197  0.51218318  0.17658855  1.0
  O  O14  1  0.31358197  0.98781682  0.32341145  1.0
  O  O15  1  0.31358197  0.51218318  0.32341145  1.0
  O  O16  1  0.18641803  0.48781682  0.82341145  1.0
  O  O17  1  0.18641803  0.01218318  0.82341145  1.0
  O  O18  1  0.68641803  0.48781682  0.67658855  1.0
  O  O19  1  0.68641803  0.01218318  0.67658855  1.0
  Zn  Zn20  1  0.00000000  0.00000000  0.00000000  1.0
  Zn  Zn21  1  0.00000000  0.50000000  0.00000000  1.0
  Zn  Zn22  1  0.50000000  0.00000000  0.50000000  1.0
  Zn  Zn23  1  0.50000000  0.50000000  0.50000000  1.0
  Pb  Pb24  1  0.88274753  0.75000000  0.66650070  1.0
  Pb  Pb25  1  0.38274753  0.75000000  0.83349930  1.0
  Pb  Pb26  1  0.11725247  0.25000000  0.33349930  1.0
  Pb  Pb27  1  0.61725247  0.25000000  0.16650070  1.0
  V  V28  1  0.79983633  0.75000000  0.28336982  1.0
  V  V29  1  0.29983633  0.75000000  0.21663018  1.0
  V  V30  1  0.20016367  0.25000000  0.71663018  1.0
  V  V31  1  0.70016367  0.25000000  0.78336982  1.0
