# generated using pymatgen
data_CsMg(BrO2)3
_symmetry_space_group_name_H-M   'P 1'
_cell_length_a   7.63562460
_cell_length_b   7.63562460
_cell_length_c   14.68238424
_cell_angle_alpha   67.05798567
_cell_angle_beta   112.94201433
_cell_angle_gamma   91.43506550
_symmetry_Int_Tables_number   1
_chemical_formula_structural   CsMg(BrO2)3
_chemical_formula_sum   'Cs2 Mg2 Br6 O12'
_cell_volume   717.78293135
_cell_formula_units_Z   2
loop_
 _symmetry_equiv_pos_site_id
 _symmetry_equiv_pos_as_xyz
  1  'x, y, z'
loop_
 _atom_site_type_symbol
 _atom_site_label
 _atom_site_symmetry_multiplicity
 _atom_site_fract_x
 _atom_site_fract_y
 _atom_site_fract_z
 _atom_site_occupancy
  Cs  Cs0  1  0.43898649  -0.56101351  0.25000000  1.0
  Cs  Cs1  1  1.56101351  0.56101351  0.75000000  1.0
  Mg  Mg2  1  0.00000000  -0.00000000  0.50000000  1.0
  Mg  Mg3  1  0.00000000  0.00000000  0.00000000  1.0
  Br  Br4  1  1.65181051  -0.14755623  0.42620171  1.0
  Br  Br5  1  1.14755623  -0.65181051  0.92620171  1.0
  Br  Br6  1  0.85244377  0.65181051  0.07379829  1.0
  Br  Br7  1  0.34818949  0.14755623  0.57379829  1.0
  Br  Br8  1  0.50000000  -0.50000000  0.50000000  1.0
  Br  Br9  1  0.50000000  -0.50000000  0.00000000  1.0
  O  O10  1  1.74948495  0.08785048  0.38273098  1.0
  O  O11  1  0.91214952  -0.74948495  0.88273098  1.0
  O  O12  1  1.08785048  0.74948495  0.11726902  1.0
  O  O13  1  0.25051505  -0.08785048  0.61726902  1.0
  O  O14  1  1.93659062  0.12466684  0.10016826  1.0
  O  O15  1  0.87533316  -0.93659062  0.60016826  1.0
  O  O16  1  1.12466684  0.93659062  0.39983174  1.0
  O  O17  1  0.06340938  -0.12466684  0.89983174  1.0
  O  O18  1  1.23219218  0.05200714  0.37250278  1.0
  O  O19  1  0.94799286  -0.23219218  0.87250278  1.0
  O  O20  1  1.05200714  0.23219218  0.12749722  1.0
  O  O21  1  0.76780782  -0.05200714  0.62749722  1.0
