# generated using pymatgen
data_LaAlH6
_symmetry_space_group_name_H-M   'P 1'
_cell_length_a   4.32212044
_cell_length_b   4.32212044
_cell_length_c   4.32212044
_cell_angle_alpha   98.35690620
_cell_angle_beta   98.35690620
_cell_angle_gamma   98.35690620
_symmetry_Int_Tables_number   1
_chemical_formula_structural   LaAlH6
_chemical_formula_sum   'La1 Al1 H6'
_cell_volume   77.88366409
_cell_formula_units_Z   1
loop_
 _symmetry_equiv_pos_site_id
 _symmetry_equiv_pos_as_xyz
  1  'x, y, z'
loop_
 _atom_site_type_symbol
 _atom_site_label
 _atom_site_symmetry_multiplicity
 _atom_site_fract_x
 _atom_site_fract_y
 _atom_site_fract_z
 _atom_site_occupancy
  La  La0  1  0.50000000  0.50000000  0.50000000  1.0
  Al  Al1  1  0.00000000  0.00000000  0.00000000  1.0
  H  H2  1  0.93983803  0.29375813  0.29375813  1.0
  H  H3  1  1.29375813  0.29375813  -0.06016197  1.0
  H  H4  1  1.29375813  -0.06016197  0.29375813  1.0
  H  H5  1  1.06016197  0.70624187  -0.29375813  1.0
  H  H6  1  0.70624187  0.70624187  0.06016197  1.0
  H  H7  1  0.70624187  1.06016197  -0.29375813  1.0
