# generated using pymatgen
data_KZrCuS3
_symmetry_space_group_name_H-M   'P 1'
_cell_length_a   7.41209779
_cell_length_b   7.41209779
_cell_length_c   9.82190084
_cell_angle_alpha   90.00000000
_cell_angle_beta   90.00000000
_cell_angle_gamma   150.59626117
_symmetry_Int_Tables_number   1
_chemical_formula_structural   KZrCuS3
_chemical_formula_sum   'K2 Zr2 Cu2 S6'
_cell_volume   264.92593193
_cell_formula_units_Z   2
loop_
 _symmetry_equiv_pos_site_id
 _symmetry_equiv_pos_as_xyz
  1  'x, y, z'
loop_
 _atom_site_type_symbol
 _atom_site_label
 _atom_site_symmetry_multiplicity
 _atom_site_fract_x
 _atom_site_fract_y
 _atom_site_fract_z
 _atom_site_occupancy
  K  K0  1  -0.25457544  0.25457544  0.75000000  1.0
  K  K1  1  0.25457544  0.74542456  0.25000000  1.0
  Zr  Zr2  1  0.00000000  0.00000000  0.00000000  1.0
  Zr  Zr3  1  0.00000000  0.00000000  0.50000000  1.0
  Cu  Cu4  1  0.46745821  0.53254179  0.75000000  1.0
  Cu  Cu5  1  -0.46745821  0.46745821  0.25000000  1.0
  S  S6  1  0.38055124  0.61944876  0.94583926  1.0
  S  S7  1  0.38055124  0.61944876  0.55416074  1.0
  S  S8  1  -0.38055124  0.38055124  0.44583926  1.0
  S  S9  1  -0.38055124  0.38055124  0.05416074  1.0
  S  S10  1  0.06425782  0.93574218  0.75000000  1.0
  S  S11  1  -0.06425782  0.06425782  0.25000000  1.0
