# generated using pymatgen
data_NaLa2IrO6
_symmetry_space_group_name_H-M   'P 1'
_cell_length_a   5.63678464
_cell_length_b   6.02252680
_cell_length_c   9.82900239
_cell_angle_alpha   90.00000000
_cell_angle_beta   124.38640803
_cell_angle_gamma   90.00000000
_symmetry_Int_Tables_number   1
_chemical_formula_structural   NaLa2IrO6
_chemical_formula_sum   'Na2 La4 Ir2 O12'
_cell_volume   275.36189431
_cell_formula_units_Z   2
loop_
 _symmetry_equiv_pos_site_id
 _symmetry_equiv_pos_as_xyz
  1  'x, y, z'
loop_
 _atom_site_type_symbol
 _atom_site_label
 _atom_site_symmetry_multiplicity
 _atom_site_fract_x
 _atom_site_fract_y
 _atom_site_fract_z
 _atom_site_occupancy
  Na  Na0  1  0.50000000  0.50000000  -0.00000000  1.0
  Na  Na1  1  0.50000000  0.00000000  0.50000000  1.0
  La  La2  1  0.72888812  0.06877345  0.24708839  1.0
  La  La3  1  0.72888812  0.43122655  0.74708839  1.0
  La  La4  1  0.27111188  0.56877345  0.25291161  1.0
  La  La5  1  0.27111188  0.93122655  0.75291161  1.0
  Ir  Ir6  1  0.00000000  0.50000000  0.50000000  1.0
  Ir  Ir7  1  0.00000000  0.00000000  0.00000000  1.0
  O  O8  1  0.88130120  0.45444338  0.26861781  1.0
  O  O9  1  0.88130120  0.04555662  0.76861781  1.0
  O  O10  1  0.11869880  0.95444338  0.23138219  1.0
  O  O11  1  0.11869880  0.54555662  0.73138219  1.0
  O  O12  1  0.77079315  0.77866699  0.43532552  1.0
  O  O13  1  0.77079315  0.72133301  0.93532552  1.0
  O  O14  1  0.22920685  0.27866699  0.06467448  1.0
  O  O15  1  0.22920685  0.22133301  0.56467448  1.0
  O  O16  1  0.65799202  0.32595827  0.44937487  1.0
  O  O17  1  0.65799202  0.17404173  0.94937487  1.0
  O  O18  1  0.34200798  0.82595827  0.05062513  1.0
  O  O19  1  0.34200798  0.67404173  0.55062513  1.0
