# generated using pymatgen
data_Sr3(GaIr)4
_symmetry_space_group_name_H-M   'P 1'
_cell_length_a   6.76831895
_cell_length_b   6.76831895
_cell_length_c   6.76831895
_cell_angle_alpha   109.47122063
_cell_angle_beta   109.47122063
_cell_angle_gamma   109.47122063
_symmetry_Int_Tables_number   1
_chemical_formula_structural   Sr3(GaIr)4
_chemical_formula_sum   'Sr3 Ga4 Ir4'
_cell_volume   238.68248923
_cell_formula_units_Z   1
loop_
 _symmetry_equiv_pos_site_id
 _symmetry_equiv_pos_as_xyz
  1  'x, y, z'
loop_
 _atom_site_type_symbol
 _atom_site_label
 _atom_site_symmetry_multiplicity
 _atom_site_fract_x
 _atom_site_fract_y
 _atom_site_fract_z
 _atom_site_occupancy
  Sr  Sr0  1  -0.00000000  0.50000000  0.50000000  1.0
  Sr  Sr1  1  0.50000000  0.00000000  0.50000000  1.0
  Sr  Sr2  1  0.50000000  0.50000000  0.00000000  1.0
  Ga  Ga3  1  0.38474902  1.00000000  1.00000000  1.0
  Ga  Ga4  1  1.00000000  0.38474902  1.00000000  1.0
  Ga  Ga5  1  1.00000000  1.00000000  0.38474902  1.0
  Ga  Ga6  1  0.61525098  0.61525098  0.61525098  1.0
  Ir  Ir7  1  0.74556794  1.00000000  1.00000000  1.0
  Ir  Ir8  1  1.00000000  0.74556794  1.00000000  1.0
  Ir  Ir9  1  1.00000000  1.00000000  0.74556794  1.0
  Ir  Ir10  1  0.25443206  0.25443206  0.25443206  1.0
