# generated using pymatgen
data_K4ZnAs2
_symmetry_space_group_name_H-M   'P 1'
_cell_length_a   9.64422681
_cell_length_b   9.64422681
_cell_length_c   9.64422681
_cell_angle_alpha   34.92235819
_cell_angle_beta   34.92235819
_cell_angle_gamma   34.92235819
_symmetry_Int_Tables_number   1
_chemical_formula_structural   K4ZnAs2
_chemical_formula_sum   'K4 Zn1 As2'
_cell_volume   262.44440619
_cell_formula_units_Z   1
loop_
 _symmetry_equiv_pos_site_id
 _symmetry_equiv_pos_as_xyz
  1  'x, y, z'
loop_
 _atom_site_type_symbol
 _atom_site_label
 _atom_site_symmetry_multiplicity
 _atom_site_fract_x
 _atom_site_fract_y
 _atom_site_fract_z
 _atom_site_occupancy
  K  K0  1  0.79116567  0.79116567  0.79116567  1.0
  K  K1  1  1.20883433  1.20883433  0.20883433  1.0
  K  K2  1  1.61524133  0.61524133  0.61524133  1.0
  K  K3  1  1.38475867  0.38475867  0.38475867  1.0
  Zn  Zn4  1  0.00000000  0.00000000  0.00000000  1.0
  As  As5  1  0.91436177  0.91436177  0.91436177  1.0
  As  As6  1  1.08563823  1.08563823  0.08563823  1.0
