# generated using pymatgen
data_Lu2B31(CN)2
_symmetry_space_group_name_H-M   'P 1'
_cell_length_a   5.55649624
_cell_length_b   5.55649624
_cell_length_c   10.87424820
_cell_angle_alpha   90.00000000
_cell_angle_beta   90.00000000
_cell_angle_gamma   120.00000000
_symmetry_Int_Tables_number   1
_chemical_formula_structural   Lu2B31(CN)2
_chemical_formula_sum   'Lu2 B31 C2 N2'
_cell_volume   290.75816740
_cell_formula_units_Z   1
loop_
 _symmetry_equiv_pos_site_id
 _symmetry_equiv_pos_as_xyz
  1  'x, y, z'
loop_
 _atom_site_type_symbol
 _atom_site_label
 _atom_site_symmetry_multiplicity
 _atom_site_fract_x
 _atom_site_fract_y
 _atom_site_fract_z
 _atom_site_occupancy
  Lu  Lu0  1  0.33333333  0.66666667  0.43747673  1.0
  Lu  Lu1  1  0.66666667  0.33333333  0.56252327  1.0
  B  B2  1  0.01850511  0.50925255  0.21321760  1.0
  B  B3  1  0.50925255  0.01850511  0.78678240  1.0
  B  B4  1  0.50925255  0.49074745  0.78678240  1.0
  B  B5  1  0.49074745  0.50925255  0.21321760  1.0
  B  B6  1  0.49074745  0.98149489  0.21321760  1.0
  B  B7  1  0.98149489  0.49074745  0.78678240  1.0
  B  B8  1  0.88223664  0.44111832  0.06011770  1.0
  B  B9  1  0.44111832  0.88223664  0.93988230  1.0
  B  B10  1  0.44111832  0.55888168  0.93988230  1.0
  B  B11  1  0.55888168  0.44111832  0.06011770  1.0
  B  B12  1  0.55888168  0.11776336  0.06011770  1.0
  B  B13  1  0.11776336  0.55888168  0.93988230  1.0
  B  B14  1  0.45213174  0.22606587  0.31488460  1.0
  B  B15  1  0.22606587  0.45213174  0.68511540  1.0
  B  B16  1  0.22606587  0.77393413  0.68511540  1.0
  B  B17  1  0.77393413  0.22606587  0.31488460  1.0
  B  B18  1  0.77393413  0.54786826  0.31488460  1.0
  B  B19  1  0.54786826  0.77393413  0.68511540  1.0
  B  B20  1  0.32482385  0.16241193  0.15910278  1.0
  B  B21  1  0.16241193  0.32482385  0.84089722  1.0
  B  B22  1  0.16241193  0.83758807  0.84089722  1.0
  B  B23  1  0.83758807  0.16241193  0.15910278  1.0
  B  B24  1  0.83758807  0.67517615  0.15910278  1.0
  B  B25  1  0.67517615  0.83758807  0.84089722  1.0
  B  B26  1  0.21215297  0.10607649  0.43284395  1.0
  B  B27  1  0.10607649  0.21215297  0.56715605  1.0
  B  B28  1  0.10607649  0.89392351  0.56715605  1.0
  B  B29  1  0.89392351  0.10607649  0.43284395  1.0
  B  B30  1  0.89392351  0.78784703  0.43284395  1.0
  B  B31  1  0.78784703  0.89392351  0.56715605  1.0
  B  B32  1  0.00000000  0.00000000  0.00000000  1.0
  C  C33  1  -0.00000000  -0.00000000  0.13252745  1.0
  C  C34  1  -0.00000000  -0.00000000  0.86747255  1.0
  N  N35  1  0.33333333  0.66666667  0.23519126  1.0
  N  N36  1  0.66666667  0.33333333  0.76480874  1.0
