# generated using pymatgen
data_Rb2Sn2Hg3S8
_symmetry_space_group_name_H-M   'P 1'
_cell_length_a   10.30045093
_cell_length_b   6.79999337
_cell_length_c   13.87912226
_cell_angle_alpha   90.00000000
_cell_angle_beta   96.09062615
_cell_angle_gamma   90.00000000
_symmetry_Int_Tables_number   1
_chemical_formula_structural   Rb2Sn2Hg3S8
_chemical_formula_sum   'Rb4 Sn4 Hg6 S16'
_cell_volume   966.64793704
_cell_formula_units_Z   2
loop_
 _symmetry_equiv_pos_site_id
 _symmetry_equiv_pos_as_xyz
  1  'x, y, z'
loop_
 _atom_site_type_symbol
 _atom_site_label
 _atom_site_symmetry_multiplicity
 _atom_site_fract_x
 _atom_site_fract_y
 _atom_site_fract_z
 _atom_site_occupancy
  Rb  Rb0  1  0.22978679  0.15619431  0.31750803  1.0
  Rb  Rb1  1  0.22978679  0.34380569  0.81750803  1.0
  Rb  Rb2  1  0.77021321  0.65619431  0.18249197  1.0
  Rb  Rb3  1  0.77021321  0.84380569  0.68249197  1.0
  Sn  Sn4  1  0.71463138  0.19784615  0.41789868  1.0
  Sn  Sn5  1  0.71463138  0.30215385  0.91789868  1.0
  Sn  Sn6  1  0.28536862  0.69784615  0.08210132  1.0
  Sn  Sn7  1  0.28536862  0.80215385  0.58210132  1.0
  Hg  Hg8  1  0.49624147  0.21879612  0.11671528  1.0
  Hg  Hg9  1  0.49624147  0.28120388  0.61671528  1.0
  Hg  Hg10  1  0.50375853  0.71879612  0.38328472  1.0
  Hg  Hg11  1  0.50375853  0.78120388  0.88328472  1.0
  Hg  Hg12  1  -0.00000000  0.50000000  0.50000000  1.0
  Hg  Hg13  1  0.00000000  0.00000000  0.00000000  1.0
  S  S14  1  0.92208673  0.31444185  0.36224684  1.0
  S  S15  1  0.92208673  0.18555815  0.86224684  1.0
  S  S16  1  0.07791327  0.81444185  0.13775316  1.0
  S  S17  1  0.07791327  0.68555815  0.63775316  1.0
  S  S18  1  0.72615818  0.19358944  0.08579075  1.0
  S  S19  1  0.72615818  0.30641056  0.58579075  1.0
  S  S20  1  0.27384182  0.69358944  0.41420925  1.0
  S  S21  1  0.27384182  0.80641056  0.91420925  1.0
  S  S22  1  0.72836042  0.84018894  0.41407015  1.0
  S  S23  1  0.72836042  0.65981106  0.91407015  1.0
  S  S24  1  0.27163958  0.34018894  0.08592985  1.0
  S  S25  1  0.27163958  0.15981106  0.58592985  1.0
  S  S26  1  0.53585796  0.33973283  0.31864325  1.0
  S  S27  1  0.53585796  0.16026717  0.81864325  1.0
  S  S28  1  0.46414204  0.83973283  0.18135675  1.0
  S  S29  1  0.46414204  0.66026717  0.68135675  1.0
