# generated using pymatgen
data_B2PBr2
_symmetry_space_group_name_H-M   'P 1'
_cell_length_a   8.80790810
_cell_length_b   14.04410915
_cell_length_c   13.44681205
_cell_angle_alpha   90.00000000
_cell_angle_beta   131.12111887
_cell_angle_gamma   90.00000000
_symmetry_Int_Tables_number   1
_chemical_formula_structural   B2PBr2
_chemical_formula_sum   'B16 P8 Br16'
_cell_volume   1253.04422922
_cell_formula_units_Z   8
loop_
 _symmetry_equiv_pos_site_id
 _symmetry_equiv_pos_as_xyz
  1  'x, y, z'
loop_
 _atom_site_type_symbol
 _atom_site_label
 _atom_site_symmetry_multiplicity
 _atom_site_fract_x
 _atom_site_fract_y
 _atom_site_fract_z
 _atom_site_occupancy
  B  B0  1  0.99985369  0.31418652  0.85560428  1.0
  B  B1  1  0.99985369  0.18581348  0.35560428  1.0
  B  B2  1  0.00014631  0.68581348  0.14439572  1.0
  B  B3  1  0.00014631  0.81418652  0.64439572  1.0
  B  B4  1  0.94495308  0.33570954  0.70682497  1.0
  B  B5  1  0.94495308  0.16429046  0.20682497  1.0
  B  B6  1  0.05504692  0.66429046  0.29317503  1.0
  B  B7  1  0.05504692  0.83570954  0.79317503  1.0
  B  B8  1  0.76777239  0.25593380  0.12635083  1.0
  B  B9  1  0.76777239  0.24406620  0.62635083  1.0
  B  B10  1  0.23222761  0.74406620  0.87364917  1.0
  B  B11  1  0.23222761  0.75593380  0.37364917  1.0
  B  B12  1  0.75391224  0.33583027  0.70813783  1.0
  B  B13  1  0.75391224  0.16416973  0.20813783  1.0
  B  B14  1  0.24608776  0.66416973  0.29186217  1.0
  B  B15  1  0.24608776  0.83583027  0.79186217  1.0
  P  P16  1  0.80074942  0.29461968  0.28470692  1.0
  P  P17  1  0.80074942  0.20538032  0.78470692  1.0
  P  P18  1  0.19925058  0.70538032  0.71529308  1.0
  P  P19  1  0.19925058  0.79461968  0.21529308  1.0
  P  P20  1  0.05436800  0.29457232  0.28339780  1.0
  P  P21  1  0.05436800  0.20542768  0.78339780  1.0
  P  P22  1  0.94563200  0.70542768  0.71660220  1.0
  P  P23  1  0.94563200  0.79457232  0.21660220  1.0
  Br  Br24  1  0.17394228  0.37058494  0.02817740  1.0
  Br  Br25  1  0.17394228  0.12941506  0.52817740  1.0
  Br  Br26  1  0.82605772  0.62941506  0.97182260  1.0
  Br  Br27  1  0.82605772  0.87058494  0.47182260  1.0
  Br  Br28  1  0.04138357  0.42527195  0.65117405  1.0
  Br  Br29  1  0.04138357  0.07472805  0.15117405  1.0
  Br  Br30  1  0.95861643  0.57472805  0.34882595  1.0
  Br  Br31  1  0.95861643  0.92527195  0.84882595  1.0
  Br  Br32  1  0.59052684  0.30668055  0.95022144  1.0
  Br  Br33  1  0.59052684  0.19331945  0.45022144  1.0
  Br  Br34  1  0.40947316  0.69331945  0.04977856  1.0
  Br  Br35  1  0.40947316  0.80668055  0.54977856  1.0
  Br  Br36  1  0.54790693  0.42528647  0.65528008  1.0
  Br  Br37  1  0.54790693  0.07471353  0.15528008  1.0
  Br  Br38  1  0.45209307  0.57471353  0.34471992  1.0
  Br  Br39  1  0.45209307  0.92528647  0.84471992  1.0
