# generated using pymatgen
data_SnI2
_symmetry_space_group_name_H-M   'P 1'
_cell_length_a   7.72137743
_cell_length_b   7.72137743
_cell_length_c   11.30068353
_cell_angle_alpha   88.54273302
_cell_angle_beta   91.45726698
_cell_angle_gamma   146.15074054
_symmetry_Int_Tables_number   1
_chemical_formula_structural   SnI2
_chemical_formula_sum   'Sn3 I6'
_cell_volume   375.14887182
_cell_formula_units_Z   3
loop_
 _symmetry_equiv_pos_site_id
 _symmetry_equiv_pos_as_xyz
  1  'x, y, z'
loop_
 _atom_site_type_symbol
 _atom_site_label
 _atom_site_symmetry_multiplicity
 _atom_site_fract_x
 _atom_site_fract_y
 _atom_site_fract_z
 _atom_site_occupancy
  Sn  Sn0  1  0.76318828  0.23681172  0.31334838  1.0
  Sn  Sn1  1  0.23681172  -0.23681172  0.68665162  1.0
  Sn  Sn2  1  0.50000000  0.50000000  -0.00000000  1.0
  I  I3  1  0.85908047  0.14091953  0.55517096  1.0
  I  I4  1  0.14091953  -0.14091953  0.44482904  1.0
  I  I5  1  0.86100624  0.13899376  0.91197190  1.0
  I  I6  1  0.13899376  -0.13899376  0.08802810  1.0
  I  I7  1  0.59057199  0.40942801  0.74044861  1.0
  I  I8  1  0.40942801  -0.40942801  0.25955139  1.0
