# generated using pymatgen
data_Al2S3
_symmetry_space_group_name_H-M   'P 1'
_cell_length_a   15.90014862
_cell_length_b   15.90014862
_cell_length_c   15.90014862
_cell_angle_alpha   154.23647015
_cell_angle_beta   154.23647015
_cell_angle_gamma   36.75599078
_symmetry_Int_Tables_number   1
_chemical_formula_structural   Al2S3
_chemical_formula_sum   'Al16 S24'
_cell_volume   758.40985208
_cell_formula_units_Z   8
loop_
 _symmetry_equiv_pos_site_id
 _symmetry_equiv_pos_as_xyz
  1  'x, y, z'
loop_
 _atom_site_type_symbol
 _atom_site_label
 _atom_site_symmetry_multiplicity
 _atom_site_fract_x
 _atom_site_fract_y
 _atom_site_fract_z
 _atom_site_occupancy
  Al  Al0  1  1.37500000  1.12500000  0.75000000  1.0
  Al  Al1  1  0.87500000  0.62500000  0.25000000  1.0
  Al  Al2  1  1.37500000  0.62500000  0.75000000  1.0
  Al  Al3  1  1.37500000  1.62500000  1.25000000  1.0
  Al  Al4  1  0.04345936  0.77293537  0.72947601  1.0
  Al  Al5  1  1.52293537  1.29345936  1.22947601  1.0
  Al  Al6  1  1.06398335  1.29345936  0.77052399  1.0
  Al  Al7  1  0.04345936  0.31398335  0.27052399  1.0
  Al  Al8  1  0.70654064  1.47706463  0.77052399  1.0
  Al  Al9  1  1.22706463  0.95654064  0.27052399  1.0
  Al  Al10  1  1.68601665  0.95654064  0.72947601  1.0
  Al  Al11  1  0.70654064  0.93601665  0.22947601  1.0
  Al  Al12  1  1.17039486  1.17039486  1.00000000  1.0
  Al  Al13  1  0.92039486  1.42039486  0.50000000  1.0
  Al  Al14  1  0.57960514  0.07960514  0.50000000  1.0
  Al  Al15  1  0.82960514  0.82960514  -0.00000000  1.0
  S  S16  1  0.12461007  0.86724132  0.74263125  1.0
  S  S17  1  1.61724132  1.37461007  1.24263125  1.0
  S  S18  1  1.13197883  1.37461007  0.75736875  1.0
  S  S19  1  0.12461007  0.38197883  0.25736875  1.0
  S  S20  1  0.62538993  1.38275868  0.75736875  1.0
  S  S21  1  1.13275868  0.87538993  0.25736875  1.0
  S  S22  1  1.61802117  0.87538993  0.74263125  1.0
  S  S23  1  0.62538993  0.86802117  0.24263125  1.0
  S  S24  1  1.29722537  1.06000429  0.76277892  1.0
  S  S25  1  0.81000429  0.54722537  1.26277892  1.0
  S  S26  1  0.28444644  0.54722537  0.73722108  1.0
  S  S27  1  1.29722537  1.53444644  1.23722108  1.0
  S  S28  1  1.45277463  1.18999571  0.73722108  1.0
  S  S29  1  0.93999571  0.70277463  0.23722108  1.0
  S  S30  1  1.46555356  0.70277463  0.76277892  1.0
  S  S31  1  1.45277463  1.71555356  1.26277892  1.0
  S  S32  1  0.96211155  1.73183245  0.76972089  1.0
  S  S33  1  1.48183245  1.21211155  1.26972089  1.0
  S  S34  1  0.94239066  1.21211155  0.73027911  1.0
  S  S35  1  0.96211155  1.19239066  0.23027911  1.0
  S  S36  1  0.78788845  1.51816755  0.73027911  1.0
  S  S37  1  0.26816755  0.03788845  0.23027911  1.0
  S  S38  1  0.80760934  0.03788845  0.76972089  1.0
  S  S39  1  0.78788845  1.05760934  0.26972089  1.0
