# generated using pymatgen
data_Nb7Co6
_symmetry_space_group_name_H-M   'P 1'
_cell_length_a   9.15234203
_cell_length_b   9.15234203
_cell_length_c   9.15234203
_cell_angle_alpha   31.51278674
_cell_angle_beta   31.51278674
_cell_angle_gamma   31.51278674
_symmetry_Int_Tables_number   1
_chemical_formula_structural   Nb7Co6
_chemical_formula_sum   'Nb7 Co6'
_cell_volume   185.95456876
_cell_formula_units_Z   1
loop_
 _symmetry_equiv_pos_site_id
 _symmetry_equiv_pos_as_xyz
  1  'x, y, z'
loop_
 _atom_site_type_symbol
 _atom_site_label
 _atom_site_symmetry_multiplicity
 _atom_site_fract_x
 _atom_site_fract_y
 _atom_site_fract_z
 _atom_site_occupancy
  Nb  Nb0  1  0.00000000  0.00000000  -0.00000000  1.0
  Nb  Nb1  1  0.83399705  -0.16600295  -0.16600295  1.0
  Nb  Nb2  1  0.16600295  0.16600295  0.16600295  1.0
  Nb  Nb3  1  0.65320998  0.65320998  -0.34679002  1.0
  Nb  Nb4  1  0.34679002  0.34679002  -0.65320998  1.0
  Nb  Nb5  1  0.54986197  0.54986197  -0.45013803  1.0
  Nb  Nb6  1  0.45013803  0.45013803  -0.54986197  1.0
  Co  Co7  1  0.41993036  -0.09229735  -0.09229735  1.0
  Co  Co8  1  0.90770265  -0.09229735  -0.58006964  1.0
  Co  Co9  1  0.90770265  -0.58006964  -0.09229735  1.0
  Co  Co10  1  0.58006964  0.09229735  0.09229735  1.0
  Co  Co11  1  1.09229735  0.09229735  -0.41993036  1.0
  Co  Co12  1  1.09229735  -0.41993036  0.09229735  1.0
