# generated using pymatgen
data_BaH8PtC4(NO)4
_symmetry_space_group_name_H-M   'P 1'
_cell_length_a   9.34105140
_cell_length_b   9.34105140
_cell_length_c   6.94975204
_cell_angle_alpha   76.70286661
_cell_angle_beta   103.29713339
_cell_angle_gamma   83.63168177
_symmetry_Int_Tables_number   1
_chemical_formula_structural   BaH8PtC4(NO)4
_chemical_formula_sum   'Ba2 H16 Pt2 C8 N8 O8'
_cell_volume   565.66658695
_cell_formula_units_Z   2
loop_
 _symmetry_equiv_pos_site_id
 _symmetry_equiv_pos_as_xyz
  1  'x, y, z'
loop_
 _atom_site_type_symbol
 _atom_site_label
 _atom_site_symmetry_multiplicity
 _atom_site_fract_x
 _atom_site_fract_y
 _atom_site_fract_z
 _atom_site_occupancy
  Ba  Ba0  1  0.62352519  0.62352519  0.25000000  1.0
  Ba  Ba1  1  0.37647481  0.37647481  0.75000000  1.0
  H  H2  1  0.72412266  0.39408713  0.05531322  1.0
  H  H3  1  0.60591287  0.27587734  0.55531322  1.0
  H  H4  1  1.39408713  -0.27587734  0.44468678  1.0
  H  H5  1  1.27587734  -0.39408713  0.94468678  1.0
  H  H6  1  1.08070231  -0.46247996  0.28428811  1.0
  H  H7  1  1.46247996  -0.08070231  0.78428811  1.0
  H  H8  1  0.53752004  0.08070231  0.21571189  1.0
  H  H9  1  0.91929769  0.46247996  0.71571189  1.0
  H  H10  1  1.12380527  -0.63054895  0.31002516  1.0
  H  H11  1  1.63054895  -0.12380527  0.81002516  1.0
  H  H12  1  0.36945105  0.12380527  0.18997484  1.0
  H  H13  1  0.87619473  0.63054895  0.68997484  1.0
  H  H14  1  1.28783758  -0.49944929  0.15851568  1.0
  H  H15  1  1.49944929  -0.28783758  0.65851568  1.0
  H  H16  1  0.50055071  0.28783758  0.34148432  1.0
  H  H17  1  0.71216242  0.49944929  0.84148432  1.0
  Pt  Pt18  1  1.00000000  -0.00000000  -0.00000000  1.0
  Pt  Pt19  1  1.00000000  -0.00000000  0.50000000  1.0
  C  C20  1  0.93521921  0.80428800  0.07287302  1.0
  C  C21  1  0.19571200  0.06478079  0.57287302  1.0
  C  C22  1  1.80428800  -0.06478079  0.42712698  1.0
  C  C23  1  1.06478079  -0.80428800  0.92712698  1.0
  C  C24  1  1.09995266  -0.21161463  0.60489687  1.0
  C  C25  1  1.21161463  -0.09995266  0.10489687  1.0
  C  C26  1  0.78838537  0.09995266  0.89510313  1.0
  C  C27  1  0.90004734  0.21161463  0.39510313  1.0
  N  N28  1  0.89537904  0.68974416  0.12159903  1.0
  N  N29  1  0.31025584  0.10462096  0.62159903  1.0
  N  N30  1  1.68974416  -0.10462096  0.37840097  1.0
  N  N31  1  1.10462096  -0.68974416  0.87840097  1.0
  N  N32  1  0.84010580  0.33649299  0.33241086  1.0
  N  N33  1  0.66350701  0.15989420  0.83241086  1.0
  N  N34  1  1.33649299  -0.15989420  0.16758914  1.0
  N  N35  1  1.15989420  -0.33649299  0.66758914  1.0
  O  O36  1  1.16779305  -0.54400385  0.33280528  1.0
  O  O37  1  1.54400385  -0.16779305  0.83280528  1.0
  O  O38  1  0.45599615  0.16779305  0.16719472  1.0
  O  O39  1  0.83220695  0.54400385  0.66719472  1.0
  O  O40  1  1.34826975  -0.46693405  0.06168322  1.0
  O  O41  1  1.46693405  -0.34826975  0.56168322  1.0
  O  O42  1  0.53306595  0.34826975  0.43831678  1.0
  O  O43  1  0.65173025  0.46693405  0.93831678  1.0
