# generated using pymatgen
data_Cs3NaGa4Ge19
_symmetry_space_group_name_H-M   'P 1'
_cell_length_a   10.97574031
_cell_length_b   10.97574031
_cell_length_c   10.97574031
_cell_angle_alpha   90.00000000
_cell_angle_beta   90.00000000
_cell_angle_gamma   90.00000000
_symmetry_Int_Tables_number   1
_chemical_formula_structural   Cs3NaGa4Ge19
_chemical_formula_sum   'Cs6 Na2 Ga8 Ge38'
_cell_volume   1322.21313849
_cell_formula_units_Z   2
loop_
 _symmetry_equiv_pos_site_id
 _symmetry_equiv_pos_as_xyz
  1  'x, y, z'
loop_
 _atom_site_type_symbol
 _atom_site_label
 _atom_site_symmetry_multiplicity
 _atom_site_fract_x
 _atom_site_fract_y
 _atom_site_fract_z
 _atom_site_occupancy
  Cs  Cs0  1  0.00000000  0.24866786  0.50000000  1.0
  Cs  Cs1  1  0.00000000  0.75133214  0.50000000  1.0
  Cs  Cs2  1  0.50000000  0.00000000  0.24866786  1.0
  Cs  Cs3  1  0.50000000  0.00000000  0.75133214  1.0
  Cs  Cs4  1  0.24866786  0.50000000  -0.00000000  1.0
  Cs  Cs5  1  0.75133214  0.50000000  -0.00000000  1.0
  Na  Na6  1  0.00000000  0.00000000  0.00000000  1.0
  Na  Na7  1  0.50000000  0.50000000  0.50000000  1.0
  Ga  Ga8  1  0.81682952  0.18317048  0.18317048  1.0
  Ga  Ga9  1  0.18317048  0.18317048  0.81682952  1.0
  Ga  Ga10  1  0.18317048  0.81682952  0.18317048  1.0
  Ga  Ga11  1  0.81682952  0.81682952  0.81682952  1.0
  Ga  Ga12  1  0.18317048  0.81682952  0.81682952  1.0
  Ga  Ga13  1  0.81682952  0.81682952  0.18317048  1.0
  Ga  Ga14  1  0.81682952  0.18317048  0.81682952  1.0
  Ga  Ga15  1  0.18317048  0.18317048  0.18317048  1.0
  Ge  Ge16  1  0.50000000  0.24749418  0.00000000  1.0
  Ge  Ge17  1  0.50000000  0.75250582  0.00000000  1.0
  Ge  Ge18  1  0.00000000  0.50000000  0.24749418  1.0
  Ge  Ge19  1  0.00000000  0.50000000  0.75250582  1.0
  Ge  Ge20  1  0.24749418  0.00000000  0.50000000  1.0
  Ge  Ge21  1  0.75250582  0.00000000  0.50000000  1.0
  Ge  Ge22  1  0.68574093  0.68574093  0.68574093  1.0
  Ge  Ge23  1  0.31425907  0.68574093  0.31425907  1.0
  Ge  Ge24  1  0.31425907  0.31425907  0.68574093  1.0
  Ge  Ge25  1  0.68574093  0.31425907  0.31425907  1.0
  Ge  Ge26  1  0.31425907  0.31425907  0.31425907  1.0
  Ge  Ge27  1  0.68574093  0.31425907  0.68574093  1.0
  Ge  Ge28  1  0.68574093  0.68574093  0.31425907  1.0
  Ge  Ge29  1  0.31425907  0.68574093  0.68574093  1.0
  Ge  Ge30  1  0.88134124  0.00000000  0.30463039  1.0
  Ge  Ge31  1  0.11865876  0.00000000  0.69536961  1.0
  Ge  Ge32  1  0.11865876  0.00000000  0.30463039  1.0
  Ge  Ge33  1  0.88134124  0.00000000  0.69536961  1.0
  Ge  Ge34  1  0.30463039  0.88134124  0.00000000  1.0
  Ge  Ge35  1  0.69536961  0.11865876  0.00000000  1.0
  Ge  Ge36  1  0.30463039  0.11865876  0.00000000  1.0
  Ge  Ge37  1  0.69536961  0.88134124  0.00000000  1.0
  Ge  Ge38  1  0.00000000  0.30463039  0.88134124  1.0
  Ge  Ge39  1  0.00000000  0.69536961  0.11865876  1.0
  Ge  Ge40  1  0.00000000  0.30463039  0.11865876  1.0
  Ge  Ge41  1  0.00000000  0.69536961  0.88134124  1.0
  Ge  Ge42  1  0.61869015  0.80226204  0.50000000  1.0
  Ge  Ge43  1  0.38130985  0.80226204  0.50000000  1.0
  Ge  Ge44  1  0.38130985  0.19773796  0.50000000  1.0
  Ge  Ge45  1  0.61869015  0.19773796  0.50000000  1.0
  Ge  Ge46  1  0.50000000  0.61869015  0.80226204  1.0
  Ge  Ge47  1  0.50000000  0.38130985  0.80226204  1.0
  Ge  Ge48  1  0.50000000  0.38130985  0.19773796  1.0
  Ge  Ge49  1  0.50000000  0.61869015  0.19773796  1.0
  Ge  Ge50  1  0.80226204  0.50000000  0.61869015  1.0
  Ge  Ge51  1  0.80226204  0.50000000  0.38130985  1.0
  Ge  Ge52  1  0.19773796  0.50000000  0.38130985  1.0
  Ge  Ge53  1  0.19773796  0.50000000  0.61869015  1.0
