# generated using pymatgen
data_SrFeBP2(HO5)2
_symmetry_space_group_name_H-M   'P 1'
_cell_length_a   6.75785773
_cell_length_b   6.75746543
_cell_length_c   9.43557368
_cell_angle_alpha   69.42528338
_cell_angle_beta   69.42543062
_cell_angle_gamma   77.66577241
_symmetry_Int_Tables_number   1
_chemical_formula_structural   SrFeBP2(HO5)2
_chemical_formula_sum   'Sr2 Fe2 B2 P4 H4 O20'
_cell_volume   375.66876170
_cell_formula_units_Z   2
loop_
 _symmetry_equiv_pos_site_id
 _symmetry_equiv_pos_as_xyz
  1  'x, y, z'
loop_
 _atom_site_type_symbol
 _atom_site_label
 _atom_site_symmetry_multiplicity
 _atom_site_fract_x
 _atom_site_fract_y
 _atom_site_fract_z
 _atom_site_occupancy
  Fe  Fe0  1  -0.50000000  -0.50000000  0.50000000  1.0
  Fe  Fe1  1  0.00000000  0.00000000  0.00000000  1.0
  Sr  Sr2  1  0.34626676  -0.84609269  0.24993899  1.0
  Sr  Sr3  1  -0.34626676  -0.15390731  0.75006101  1.0
  O  O4  1  0.17451280  -0.95687842  0.55373574  1.0
  O  O5  1  -0.17451280  -0.04312158  0.44626426  1.0
  O  O6  1  -0.20984688  -0.93662441  0.88078526  1.0
  O  O7  1  0.20984688  -0.06337559  0.11921474  1.0
  O  O8  1  0.08354607  -0.69047741  0.89391808  1.0
  O  O9  1  -0.08354607  -0.30952259  0.10608192  1.0
  O  O10  1  -0.54315058  -0.67425752  0.94612320  1.0
  O  O11  1  0.54315058  -0.32574248  0.05387680  1.0
  O  O12  1  0.19054406  -0.58369913  0.60615865  1.0
  O  O13  1  -0.19054406  -0.41630087  0.39384135  1.0
  O  O14  1  -0.18674078  -0.54027275  0.76054776  1.0
  O  O15  1  0.18674078  -0.45972725  0.23945224  1.0
  O  O16  1  0.04022086  -0.31322554  0.73938350  1.0
  O  O17  1  -0.04022086  -0.68677446  0.26061650  1.0
  O  O18  1  0.56338759  -0.70966388  0.38065132  1.0
  O  O19  1  -0.56338759  -0.29033612  0.61934868  1.0
  O  O20  1  -0.39267740  -0.73502825  0.67593146  1.0
  O  O21  1  0.39267740  -0.26497175  0.32406854  1.0
  O  O22  1  0.76509899  -0.89271156  0.17596970  1.0
  O  O23  1  -0.76509899  -0.10728844  0.82403030  1.0
  H  H24  1  0.17756422  -0.72190672  0.59473831  1.0
  H  H25  1  -0.17756422  -0.27809328  0.40526169  1.0
  H  H26  1  -0.77825352  -0.67747200  0.90531418  1.0
  H  H27  1  0.77825352  -0.32252800  0.09468582  1.0
  P  P28  1  -0.34090741  -0.72062181  0.82016218  1.0
  P  P29  1  0.34090741  -0.27937819  0.17983782  1.0
  P  P30  1  0.22062767  -0.15913442  0.67979256  1.0
  P  P31  1  -0.22062767  -0.84086558  0.32020744  1.0
  B  B32  1  0.03892185  -0.53895358  0.74999957  1.0
  B  B33  1  -0.03892185  -0.46104642  0.25000043  1.0
