# generated using pymatgen
data_NbP2O7
_symmetry_space_group_name_H-M   'P 1'
_cell_length_a   8.43306689
_cell_length_b   8.43306689
_cell_length_c   8.43306689
_cell_angle_alpha   90.00000000
_cell_angle_beta   90.00000000
_cell_angle_gamma   90.00000000
_symmetry_Int_Tables_number   1
_chemical_formula_structural   NbP2O7
_chemical_formula_sum   'Nb4 P8 O28'
_cell_volume   599.73118893
_cell_formula_units_Z   4
loop_
 _symmetry_equiv_pos_site_id
 _symmetry_equiv_pos_as_xyz
  1  'x, y, z'
loop_
 _atom_site_type_symbol
 _atom_site_label
 _atom_site_symmetry_multiplicity
 _atom_site_fract_x
 _atom_site_fract_y
 _atom_site_fract_z
 _atom_site_occupancy
  Nb  Nb0  1  0.00000000  0.50000000  0.00000000  1.0
  Nb  Nb1  1  -0.00000000  -0.00000000  0.50000000  1.0
  Nb  Nb2  1  0.50000000  0.50000000  0.50000000  1.0
  Nb  Nb3  1  0.50000000  -0.00000000  -0.00000000  1.0
  P  P4  1  0.39093736  0.89093736  0.60906264  1.0
  P  P5  1  0.39093736  0.60906264  0.10906264  1.0
  P  P6  1  0.89093736  0.89093736  0.89093736  1.0
  P  P7  1  0.89093736  0.60906264  0.39093736  1.0
  P  P8  1  0.60906264  0.39093736  0.89093736  1.0
  P  P9  1  0.60906264  0.10906264  0.39093736  1.0
  P  P10  1  0.10906264  0.39093736  0.60906264  1.0
  P  P11  1  0.10906264  0.10906264  0.10906264  1.0
  O  O12  1  0.50000000  -0.00000000  0.50000000  1.0
  O  O13  1  0.50000000  0.50000000  -0.00000000  1.0
  O  O14  1  -0.00000000  -0.00000000  0.00000000  1.0
  O  O15  1  0.00000000  0.50000000  0.50000000  1.0
  O  O16  1  0.44158908  0.71965573  0.58025317  1.0
  O  O17  1  0.44158908  0.78034427  0.08025317  1.0
  O  O18  1  0.94158908  0.71965573  0.91974683  1.0
  O  O19  1  0.94158908  0.78034427  0.41974683  1.0
  O  O20  1  0.21965573  0.91974683  0.55841092  1.0
  O  O21  1  0.21965573  0.58025317  0.05841092  1.0
  O  O22  1  0.71965573  0.91974683  0.94158908  1.0
  O  O23  1  0.71965573  0.58025317  0.44158908  1.0
  O  O24  1  0.41974683  0.94158908  0.78034427  1.0
  O  O25  1  0.41974683  0.55841092  0.28034427  1.0
  O  O26  1  0.91974683  0.94158908  0.71965573  1.0
  O  O27  1  0.91974683  0.55841092  0.21965573  1.0
  O  O28  1  0.55841092  0.21965573  0.91974683  1.0
  O  O29  1  0.55841092  0.28034427  0.41974683  1.0
  O  O30  1  0.05841092  0.21965573  0.58025317  1.0
  O  O31  1  0.05841092  0.28034427  0.08025317  1.0
  O  O32  1  0.78034427  0.41974683  0.94158908  1.0
  O  O33  1  0.78034427  0.08025317  0.44158908  1.0
  O  O34  1  0.28034427  0.41974683  0.55841092  1.0
  O  O35  1  0.28034427  0.08025317  0.05841092  1.0
  O  O36  1  0.58025317  0.44158908  0.71965573  1.0
  O  O37  1  0.58025317  0.05841092  0.21965573  1.0
  O  O38  1  0.08025317  0.44158908  0.78034427  1.0
  O  O39  1  0.08025317  0.05841092  0.28034427  1.0
