# generated using pymatgen
data_Na5Ga3F14
_symmetry_space_group_name_H-M   'P 1'
_cell_length_a   7.44500936
_cell_length_b   7.36110346
_cell_length_c   12.82470114
_cell_angle_alpha   90.00000000
_cell_angle_beta   124.56199065
_cell_angle_gamma   90.00000000
_symmetry_Int_Tables_number   1
_chemical_formula_structural   Na5Ga3F14
_chemical_formula_sum   'Na10 Ga6 F28'
_cell_volume   578.79640297
_cell_formula_units_Z   2
loop_
 _symmetry_equiv_pos_site_id
 _symmetry_equiv_pos_as_xyz
  1  'x, y, z'
loop_
 _atom_site_type_symbol
 _atom_site_label
 _atom_site_symmetry_multiplicity
 _atom_site_fract_x
 _atom_site_fract_y
 _atom_site_fract_z
 _atom_site_occupancy
  Na  Na0  1  0.98544625  0.24544084  0.26025365  1.0
  Na  Na1  1  0.98544625  0.25455916  0.76025365  1.0
  Na  Na2  1  0.01455375  0.74544084  0.23974635  1.0
  Na  Na3  1  0.01455375  0.75455916  0.73974635  1.0
  Na  Na4  1  0.49218170  0.29974923  0.25258248  1.0
  Na  Na5  1  0.49218170  0.20025077  0.75258248  1.0
  Na  Na6  1  0.50781830  0.79974923  0.24741752  1.0
  Na  Na7  1  0.50781830  0.70025077  0.74741752  1.0
  Na  Na8  1  -0.00000000  0.50000000  0.50000000  1.0
  Na  Na9  1  0.00000000  0.00000000  0.00000000  1.0
  Ga  Ga10  1  0.50000000  0.50000000  -0.00000000  1.0
  Ga  Ga11  1  0.50000000  -0.00000000  0.50000000  1.0
  Ga  Ga12  1  0.00000000  0.50000000  0.00000000  1.0
  Ga  Ga13  1  -0.00000000  0.00000000  0.50000000  1.0
  Ga  Ga14  1  0.50000000  0.50000000  0.50000000  1.0
  Ga  Ga15  1  0.50000000  0.00000000  -0.00000000  1.0
  F  F16  1  0.88797102  0.83961835  0.35983175  1.0
  F  F17  1  0.88797102  0.66038165  0.85983175  1.0
  F  F18  1  0.11202898  0.33961835  0.14016825  1.0
  F  F19  1  0.11202898  0.16038165  0.64016825  1.0
  F  F20  1  0.85610846  0.20562157  0.39208145  1.0
  F  F21  1  0.85610846  0.29437843  0.89208145  1.0
  F  F22  1  0.14389154  0.70562157  0.10791855  1.0
  F  F23  1  0.14389154  0.79437843  0.60791855  1.0
  F  F24  1  0.81149893  1.00429700  0.11723587  1.0
  F  F25  1  0.81149893  0.49570300  0.61723587  1.0
  F  F26  1  0.18850107  0.50429700  0.38276413  1.0
  F  F27  1  0.18850107  -0.00429700  0.88276413  1.0
  F  F28  1  0.75270624  0.92927534  0.50523631  1.0
  F  F29  1  0.75270624  0.57072466  1.00523631  1.0
  F  F30  1  0.24729376  0.42927534  -0.00523631  1.0
  F  F31  1  0.24729376  0.07072466  0.49476369  1.0
  F  F32  1  0.68032833  0.44370224  0.17334805  1.0
  F  F33  1  0.68032833  0.05629776  0.67334805  1.0
  F  F34  1  0.31967167  0.94370224  0.32665195  1.0
  F  F35  1  0.31967167  0.55629776  0.82665195  1.0
  F  F36  1  0.50920661  0.24679646  0.44988811  1.0
  F  F37  1  0.50920661  0.25320354  0.94988811  1.0
  F  F38  1  0.49079339  0.74679646  0.05011189  1.0
  F  F39  1  0.49079339  0.75320354  0.55011189  1.0
  F  F40  1  0.45110683  0.06227014  0.12599504  1.0
  F  F41  1  0.45110683  0.43772986  0.62599504  1.0
  F  F42  1  0.54889317  0.56227014  0.37400496  1.0
  F  F43  1  0.54889317  0.93772986  0.87400496  1.0
