# generated using pymatgen
data_CdInGaS4
_symmetry_space_group_name_H-M   'P 1'
_cell_length_a   3.91132959
_cell_length_b   3.91132959
_cell_length_c   26.68213962
_cell_angle_alpha   90.00000000
_cell_angle_beta   90.00000000
_cell_angle_gamma   120.00000000
_symmetry_Int_Tables_number   1
_chemical_formula_structural   CdInGaS4
_chemical_formula_sum   'Cd2 In2 Ga2 S8'
_cell_volume   353.50870370
_cell_formula_units_Z   2
loop_
 _symmetry_equiv_pos_site_id
 _symmetry_equiv_pos_as_xyz
  1  'x, y, z'
loop_
 _atom_site_type_symbol
 _atom_site_label
 _atom_site_symmetry_multiplicity
 _atom_site_fract_x
 _atom_site_fract_y
 _atom_site_fract_z
 _atom_site_occupancy
  Cd  Cd0  1  -0.00000000  -0.00000000  0.24297179  1.0
  Cd  Cd1  1  -0.00000000  -0.00000000  0.75702821  1.0
  In  In2  1  0.33333333  0.66666667  0.61348292  1.0
  In  In3  1  0.66666667  0.33333333  0.38651708  1.0
  Ga  Ga4  1  0.33333333  0.66666667  0.10670136  1.0
  Ga  Ga5  1  0.66666667  0.33333333  0.89329864  1.0
  S  S6  1  0.33333333  0.66666667  0.18970506  1.0
  S  S7  1  0.66666667  0.33333333  0.81029494  1.0
  S  S8  1  0.33333333  0.66666667  0.42979605  1.0
  S  S9  1  0.66666667  0.33333333  0.57020395  1.0
  S  S10  1  0.33333333  0.66666667  0.70352754  1.0
  S  S11  1  0.66666667  0.33333333  0.29647246  1.0
  S  S12  1  0.33333333  0.66666667  0.92838758  1.0
  S  S13  1  0.66666667  0.33333333  0.07161242  1.0
