# generated using pymatgen
data_Cs4Sc6CCl13
_symmetry_space_group_name_H-M   'P 1'
_cell_length_a   12.14601464
_cell_length_b   12.14601464
_cell_length_c   12.14601464
_cell_angle_alpha   100.88123892
_cell_angle_beta   100.88123892
_cell_angle_gamma   128.49542941
_symmetry_Int_Tables_number   1
_chemical_formula_structural   Cs4Sc6CCl13
_chemical_formula_sum   'Cs8 Sc12 C2 Cl26'
_cell_volume   1263.11904725
_cell_formula_units_Z   2
loop_
 _symmetry_equiv_pos_site_id
 _symmetry_equiv_pos_as_xyz
  1  'x, y, z'
loop_
 _atom_site_type_symbol
 _atom_site_label
 _atom_site_symmetry_multiplicity
 _atom_site_fract_x
 _atom_site_fract_y
 _atom_site_fract_z
 _atom_site_occupancy
  Cs  Cs0  1  1.15472246  1.15472246  1.30944493  1.0
  Cs  Cs1  1  0.84527754  0.15472246  1.00000000  1.0
  Cs  Cs2  1  0.90472246  0.40472246  0.80944493  1.0
  Cs  Cs3  1  1.59527754  1.40472246  1.50000000  1.0
  Cs  Cs4  1  1.15472246  0.84527754  1.00000000  1.0
  Cs  Cs5  1  0.84527754  0.84527754  1.69055507  1.0
  Cs  Cs6  1  0.90472246  1.09527754  1.50000000  1.0
  Cs  Cs7  1  1.59527754  1.09527754  1.19055507  1.0
  Sc  Sc8  1  1.28729390  1.28729390  1.00000000  1.0
  Sc  Sc9  1  0.03729390  0.53729390  0.50000000  1.0
  Sc  Sc10  1  0.46270610  0.96270610  0.50000000  1.0
  Sc  Sc11  1  0.71270610  0.71270610  1.00000000  1.0
  Sc  Sc12  1  0.49810152  0.35274849  0.85464697  1.0
  Sc  Sc13  1  1.10274849  0.74810152  1.35464697  1.0
  Sc  Sc14  1  0.39345455  0.74810152  0.64535303  1.0
  Sc  Sc15  1  0.49810152  0.64345455  1.14535303  1.0
  Sc  Sc16  1  0.25189848  0.89725151  0.64535303  1.0
  Sc  Sc17  1  1.64725151  1.50189848  1.14535303  1.0
  Sc  Sc18  1  1.35654545  1.50189848  0.85464697  1.0
  Sc  Sc19  1  0.25189848  0.60654545  0.35464697  1.0
  C  C20  1  0.50000000  0.50000000  1.00000000  1.0
  C  C21  1  0.25000000  0.75000000  0.50000000  1.0
  Cl  Cl22  1  0.75000000  1.25000000  0.50000000  1.0
  Cl  Cl23  1  1.00000000  1.00000000  1.00000000  1.0
  Cl  Cl24  1  0.66543865  0.66543865  1.33087730  1.0
  Cl  Cl25  1  1.33456135  0.66543865  1.00000000  1.0
  Cl  Cl26  1  1.41543865  0.91543865  0.83087730  1.0
  Cl  Cl27  1  1.08456135  0.91543865  1.50000000  1.0
  Cl  Cl28  1  0.66543865  0.33456135  1.00000000  1.0
  Cl  Cl29  1  1.33456135  1.33456135  1.66912270  1.0
  Cl  Cl30  1  1.41543865  1.58456135  1.50000000  1.0
  Cl  Cl31  1  1.08456135  0.58456135  1.16912270  1.0
  Cl  Cl32  1  0.74512618  0.57808095  0.83295477  1.0
  Cl  Cl33  1  1.32808095  0.99512618  1.33295477  1.0
  Cl  Cl34  1  0.66217142  0.99512618  0.66704523  1.0
  Cl  Cl35  1  0.74512618  0.91217142  1.16704523  1.0
  Cl  Cl36  1  1.00487382  1.67191905  0.66704523  1.0
  Cl  Cl37  1  1.42191905  1.25487382  1.16704523  1.0
  Cl  Cl38  1  1.08782858  1.25487382  0.83295477  1.0
  Cl  Cl39  1  1.00487382  1.33782858  0.33295477  1.0
  Cl  Cl40  1  1.25310059  1.08664350  0.83354291  1.0
  Cl  Cl41  1  1.83664350  1.50310059  1.33354291  1.0
  Cl  Cl42  1  1.16955769  1.50310059  0.66645709  1.0
  Cl  Cl43  1  1.25310059  1.41955769  1.16645709  1.0
  Cl  Cl44  1  0.49689941  1.16335650  0.66645709  1.0
  Cl  Cl45  1  0.91335650  0.74689941  1.16645709  1.0
  Cl  Cl46  1  0.58044231  0.74689941  0.83354291  1.0
  Cl  Cl47  1  0.49689941  0.83044231  0.33354291  1.0
