# generated using pymatgen
data_Y2GeRh3
_symmetry_space_group_name_H-M   'P 1'
_cell_length_a   5.11708616
_cell_length_b   5.11708616
_cell_length_c   5.11708616
_cell_angle_alpha   66.29042967
_cell_angle_beta   66.29042967
_cell_angle_gamma   66.29042967
_symmetry_Int_Tables_number   1
_chemical_formula_structural   Y2GeRh3
_chemical_formula_sum   'Y2 Ge1 Rh3'
_cell_volume   107.60655620
_cell_formula_units_Z   1
loop_
 _symmetry_equiv_pos_site_id
 _symmetry_equiv_pos_as_xyz
  1  'x, y, z'
loop_
 _atom_site_type_symbol
 _atom_site_label
 _atom_site_symmetry_multiplicity
 _atom_site_fract_x
 _atom_site_fract_y
 _atom_site_fract_z
 _atom_site_occupancy
  Y  Y0  1  0.62944230  0.62944230  -0.37055770  1.0
  Y  Y1  1  0.37055770  0.37055770  -0.62944230  1.0
  Ge  Ge2  1  0.00000000  0.00000000  0.00000000  1.0
  Rh  Rh3  1  1.00000000  1.50000000  -0.00000000  1.0
  Rh  Rh4  1  1.00000000  -0.00000000  -0.50000000  1.0
  Rh  Rh5  1  0.50000000  -0.00000000  -0.00000000  1.0
