# generated using pymatgen
data_Mo(SI)2
_symmetry_space_group_name_H-M   'P 1'
_cell_length_a   6.86389566
_cell_length_b   6.86389566
_cell_length_c   7.82792797
_cell_angle_alpha   79.47599215
_cell_angle_beta   100.52400785
_cell_angle_gamma   64.81601750
_symmetry_Int_Tables_number   1
_chemical_formula_structural   Mo(SI)2
_chemical_formula_sum   'Mo2 S4 I4'
_cell_volume   313.76336224
_cell_formula_units_Z   2
loop_
 _symmetry_equiv_pos_site_id
 _symmetry_equiv_pos_as_xyz
  1  'x, y, z'
loop_
 _atom_site_type_symbol
 _atom_site_label
 _atom_site_symmetry_multiplicity
 _atom_site_fract_x
 _atom_site_fract_y
 _atom_site_fract_z
 _atom_site_occupancy
  Mo  Mo0  1  0.87940979  -0.12059021  0.00000000  1.0
  Mo  Mo1  1  1.12059021  0.12059021  0.00000000  1.0
  S  S2  1  0.71369657  -0.71369657  0.86894108  1.0
  S  S3  1  0.28630343  -0.28630343  0.13105892  1.0
  S  S4  1  0.90724882  -0.90724882  0.73259067  1.0
  S  S5  1  0.09275118  -0.09275118  0.26740933  1.0
  I  I6  1  0.45915268  -0.05628504  0.78391334  1.0
  I  I7  1  1.05628504  0.54084732  0.78391334  1.0
  I  I8  1  0.94371496  -0.54084732  0.21608666  1.0
  I  I9  1  1.54084732  0.05628504  0.21608666  1.0
