# generated using pymatgen
data_Fe3NF9
_symmetry_space_group_name_H-M   'P 1'
_cell_length_a   7.60240739
_cell_length_b   7.60240739
_cell_length_c   7.85045580
_cell_angle_alpha   90.00000000
_cell_angle_beta   90.00000000
_cell_angle_gamma   120.00000000
_symmetry_Int_Tables_number   1
_chemical_formula_structural   Fe3NF9
_chemical_formula_sum   'Fe6 N2 F18'
_cell_volume   392.94139416
_cell_formula_units_Z   2
loop_
 _symmetry_equiv_pos_site_id
 _symmetry_equiv_pos_as_xyz
  1  'x, y, z'
loop_
 _atom_site_type_symbol
 _atom_site_label
 _atom_site_symmetry_multiplicity
 _atom_site_fract_x
 _atom_site_fract_y
 _atom_site_fract_z
 _atom_site_occupancy
  Fe  Fe0  1  0.50001710  0.50001710  0.25000000  1.0
  Fe  Fe1  1  0.50001710  0.00000000  0.75000000  1.0
  Fe  Fe2  1  -0.00000000  0.50001710  0.75000000  1.0
  Fe  Fe3  1  0.00000000  0.49998290  0.25000000  1.0
  Fe  Fe4  1  0.49998290  0.49998290  0.75000000  1.0
  Fe  Fe5  1  0.49998290  -0.00000000  0.25000000  1.0
  N  N6  1  -0.00000000  -0.00000000  0.50000000  1.0
  N  N7  1  0.00000000  0.00000000  0.00000000  1.0
  F  F8  1  0.21173861  0.78825474  0.25000000  1.0
  F  F9  1  0.21173861  0.42348388  0.75000000  1.0
  F  F10  1  0.78825474  0.21173861  0.25000000  1.0
  F  F11  1  0.78825474  0.57651612  0.75000000  1.0
  F  F12  1  0.57651612  0.78825474  0.75000000  1.0
  F  F13  1  0.57651612  0.78826139  0.25000000  1.0
  F  F14  1  0.21174526  0.78826139  0.75000000  1.0
  F  F15  1  0.21174526  0.42348388  0.25000000  1.0
  F  F16  1  0.78826139  0.57651612  0.25000000  1.0
  F  F17  1  0.78826139  0.21174526  0.75000000  1.0
  F  F18  1  0.42348388  0.21173861  0.75000000  1.0
  F  F19  1  0.42348388  0.21174526  0.25000000  1.0
  F  F20  1  0.50000000  0.50000000  0.50000000  1.0
  F  F21  1  0.50000000  0.50000000  0.00000000  1.0
  F  F22  1  0.50000000  0.00000000  -0.00000000  1.0
  F  F23  1  0.50000000  -0.00000000  0.50000000  1.0
  F  F24  1  -0.00000000  0.50000000  0.00000000  1.0
  F  F25  1  -0.00000000  0.50000000  0.50000000  1.0
