# generated using pymatgen
data_BiAsPbO5
_symmetry_space_group_name_H-M   'P 1'
_cell_length_a   7.27767688
_cell_length_b   7.27767688
_cell_length_c   7.23172926
_cell_angle_alpha   70.08552786
_cell_angle_beta   109.91447214
_cell_angle_gamma   134.40820490
_symmetry_Int_Tables_number   1
_chemical_formula_structural   BiAsPbO5
_chemical_formula_sum   'Bi2 As2 Pb2 O10'
_cell_volume   254.26134441
_cell_formula_units_Z   2
loop_
 _symmetry_equiv_pos_site_id
 _symmetry_equiv_pos_as_xyz
  1  'x, y, z'
loop_
 _atom_site_type_symbol
 _atom_site_label
 _atom_site_symmetry_multiplicity
 _atom_site_fract_x
 _atom_site_fract_y
 _atom_site_fract_z
 _atom_site_occupancy
  Bi  Bi0  1  0.98721336  -0.98721336  0.75054708  1.0
  Bi  Bi1  1  1.01278664  -0.01278664  0.24945292  1.0
  As  As2  1  0.66419662  -0.66419662  0.64946742  1.0
  As  As3  1  1.33580338  -0.33580338  0.35053258  1.0
  Pb  Pb4  1  1.33770110  -0.33770110  0.87842029  1.0
  Pb  Pb5  1  0.66229890  -0.66229890  0.12157971  1.0
  O  O6  1  1.39429337  0.10806706  0.77537111  1.0
  O  O7  1  0.89193294  -0.39429337  0.77537111  1.0
  O  O8  1  1.10806706  -0.60570663  0.22462889  1.0
  O  O9  1  1.60570663  -0.10806706  0.22462889  1.0
  O  O10  1  0.80094684  -0.80094684  0.69259923  1.0
  O  O11  1  1.19905316  -0.19905316  0.30740077  1.0
  O  O12  1  1.41312817  -0.41312817  0.60179548  1.0
  O  O13  1  0.58687183  -0.58687183  0.39820452  1.0
  O  O14  1  0.76569877  0.76569877  -0.00000000  1.0
  O  O15  1  0.23430123  0.23430123  -0.00000000  1.0
