# generated using pymatgen
data_ZnS
_symmetry_space_group_name_H-M   'P 1'
_cell_length_a   3.84974290
_cell_length_b   3.84974290
_cell_length_c   106.98233672
_cell_angle_alpha   90.00000000
_cell_angle_beta   90.00000000
_cell_angle_gamma   120.00000000
_symmetry_Int_Tables_number   1
_chemical_formula_structural   ZnS
_chemical_formula_sum   'Zn34 S34'
_cell_volume   1373.11263542
_cell_formula_units_Z   34
loop_
 _symmetry_equiv_pos_site_id
 _symmetry_equiv_pos_as_xyz
  1  'x, y, z'
loop_
 _atom_site_type_symbol
 _atom_site_label
 _atom_site_symmetry_multiplicity
 _atom_site_fract_x
 _atom_site_fract_y
 _atom_site_fract_z
 _atom_site_occupancy
  Zn  Zn0  1  -0.00000000  -0.00000000  0.06617928  1.0
  Zn  Zn1  1  0.00000000  0.00000000  0.18384338  1.0
  Zn  Zn2  1  0.00000000  0.00000000  0.27206614  1.0
  Zn  Zn3  1  0.00000000  0.00000000  0.36029281  1.0
  Zn  Zn4  1  0.00000000  0.00000000  0.47794446  1.0
  Zn  Zn5  1  0.00000000  0.00000000  0.56617827  1.0
  Zn  Zn6  1  -0.00000000  -0.00000000  0.65442590  1.0
  Zn  Zn7  1  0.00000000  0.00000000  0.74264770  1.0
  Zn  Zn8  1  0.00000000  0.00000000  0.86030182  1.0
  Zn  Zn9  1  0.00000000  0.00000000  0.94851229  1.0
  Zn  Zn10  1  0.66666667  0.33333333  0.00733621  1.0
  Zn  Zn11  1  0.66666667  0.33333333  0.12502134  1.0
  Zn  Zn12  1  0.66666667  0.33333333  0.21323665  1.0
  Zn  Zn13  1  0.66666667  0.33333333  0.33089788  1.0
  Zn  Zn14  1  0.66666667  0.33333333  0.41912101  1.0
  Zn  Zn15  1  0.66666667  0.33333333  0.50733849  1.0
  Zn  Zn16  1  0.66666667  0.33333333  0.62499560  1.0
  Zn  Zn17  1  0.66666667  0.33333333  0.68386475  1.0
  Zn  Zn18  1  0.66666667  0.33333333  0.77204002  1.0
  Zn  Zn19  1  0.66666667  0.33333333  0.83091126  1.0
  Zn  Zn20  1  0.66666667  0.33333333  0.91910986  1.0
  Zn  Zn21  1  0.33333333  0.66666667  0.03676463  1.0
  Zn  Zn22  1  0.33333333  0.66666667  0.09560378  1.0
  Zn  Zn23  1  0.33333333  0.66666667  0.15445385  1.0
  Zn  Zn24  1  0.33333333  0.66666667  0.24263182  1.0
  Zn  Zn25  1  0.33333333  0.66666667  0.30150743  1.0
  Zn  Zn26  1  0.33333333  0.66666667  0.38968663  1.0
  Zn  Zn27  1  0.33333333  0.66666667  0.44855643  1.0
  Zn  Zn28  1  0.33333333  0.66666667  0.53673899  1.0
  Zn  Zn29  1  0.33333333  0.66666667  0.59561552  1.0
  Zn  Zn30  1  0.33333333  0.66666667  0.71325256  1.0
  Zn  Zn31  1  0.33333333  0.66666667  0.80147436  1.0
  Zn  Zn32  1  0.33333333  0.66666667  0.88970421  1.0
  Zn  Zn33  1  0.33333333  0.66666667  0.97790865  1.0
  S  S34  1  -0.00000000  -0.00000000  0.08825559  1.0
  S  S35  1  -0.00000000  -0.00000000  0.20588873  1.0
  S  S36  1  0.00000000  0.00000000  0.29414973  1.0
  S  S37  1  0.00000000  0.00000000  0.38233891  1.0
  S  S38  1  -0.00000000  -0.00000000  0.49998963  1.0
  S  S39  1  -0.00000000  -0.00000000  0.58826049  1.0
  S  S40  1  0.00000000  0.00000000  0.67650892  1.0
  S  S41  1  -0.00000000  -0.00000000  0.76469201  1.0
  S  S42  1  0.00000000  0.00000000  0.88234921  1.0
  S  S43  1  0.00000000  0.00000000  0.97055952  1.0
  S  S44  1  0.66666667  0.33333333  0.02941527  1.0
  S  S45  1  0.66666667  0.33333333  0.14710087  1.0
  S  S46  1  0.66666667  0.33333333  0.23528267  1.0
  S  S47  1  0.66666667  0.33333333  0.35294246  1.0
  S  S48  1  0.66666667  0.33333333  0.44120306  1.0
  S  S49  1  0.66666667  0.33333333  0.52938627  1.0
  S  S50  1  0.66666667  0.33333333  0.64703748  1.0
  S  S51  1  0.66666667  0.33333333  0.70590462  1.0
  S  S52  1  0.66666667  0.33333333  0.79408384  1.0
  S  S53  1  0.66666667  0.33333333  0.85295129  1.0
  S  S54  1  0.66666667  0.33333333  0.94115908  1.0
  S  S55  1  0.33333333  0.66666667  -0.00004947  1.0
  S  S56  1  0.33333333  0.66666667  0.05879689  1.0
  S  S57  1  0.33333333  0.66666667  0.11763786  1.0
  S  S58  1  0.33333333  0.66666667  0.17649384  1.0
  S  S59  1  0.33333333  0.66666667  0.26467524  1.0
  S  S60  1  0.33333333  0.66666667  0.32354785  1.0
  S  S61  1  0.33333333  0.66666667  0.41173088  1.0
  S  S62  1  0.33333333  0.66666667  0.47059585  1.0
  S  S63  1  0.33333333  0.66666667  0.55878504  1.0
  S  S64  1  0.33333333  0.66666667  0.61765298  1.0
  S  S65  1  0.33333333  0.66666667  0.73529825  1.0
  S  S66  1  0.33333333  0.66666667  0.82355613  1.0
  S  S67  1  0.33333333  0.66666667  0.91175500  1.0
