# generated using pymatgen
data_K2NiP4(HO2)8
_symmetry_space_group_name_H-M   'P 1'
_cell_length_a   6.99996260
_cell_length_b   7.42189475
_cell_length_c   7.58640619
_cell_angle_alpha   81.33314126
_cell_angle_beta   73.47593909
_cell_angle_gamma   84.43909905
_symmetry_Int_Tables_number   1
_chemical_formula_structural   K2NiP4(HO2)8
_chemical_formula_sum   'K2 Ni1 P4 H8 O16'
_cell_volume   372.93624197
_cell_formula_units_Z   1
loop_
 _symmetry_equiv_pos_site_id
 _symmetry_equiv_pos_as_xyz
  1  'x, y, z'
loop_
 _atom_site_type_symbol
 _atom_site_label
 _atom_site_symmetry_multiplicity
 _atom_site_fract_x
 _atom_site_fract_y
 _atom_site_fract_z
 _atom_site_occupancy
  K  K0  1  0.62097053  0.23715700  0.79763106  1.0
  K  K1  1  0.37902947  0.76284300  0.20236894  1.0
  Ni  Ni2  1  0.00000000  0.00000000  0.00000000  1.0
  P  P3  1  0.82453208  0.77029366  0.74385347  1.0
  P  P4  1  0.17546792  0.22970634  0.25614653  1.0
  P  P5  1  0.24586679  0.69086893  0.74149986  1.0
  P  P6  1  0.75413321  0.30913107  0.25850014  1.0
  H  H7  1  0.88352716  0.68878371  0.20730520  1.0
  H  H8  1  0.11647284  0.31121629  0.79269480  1.0
  H  H9  1  0.87158816  0.82651239  0.35065560  1.0
  H  H10  1  0.12841184  0.17348761  0.64934440  1.0
  H  H11  1  0.75030310  0.54622940  0.97494678  1.0
  H  H12  1  0.24969690  0.45377060  0.02505322  1.0
  H  H13  1  0.54969922  0.76978003  0.57574785  1.0
  H  H14  1  0.45030078  0.23021997  0.42425215  1.0
  O  O15  1  0.94875361  0.79445451  0.22654150  1.0
  O  O16  1  0.05124639  0.20554549  0.77345850  1.0
  O  O17  1  0.93897001  0.27109238  0.35275837  1.0
  O  O18  1  0.06102999  0.72890762  0.64724163  1.0
  O  O19  1  0.79845343  0.89836507  0.88908068  1.0
  O  O20  1  0.20154657  0.10163493  0.11091932  1.0
  O  O21  1  0.73788866  0.83945955  0.58210178  1.0
  O  O22  1  0.26211134  0.16054045  0.41789822  1.0
  O  O23  1  0.73613553  0.57986409  0.83983803  1.0
  O  O24  1  0.26386447  0.42013591  0.16016197  1.0
  O  O25  1  0.42327380  0.71870906  0.55921395  1.0
  O  O26  1  0.57672620  0.28129094  0.44078605  1.0
  O  O27  1  0.24387140  0.49095048  0.83039120  1.0
  O  O28  1  0.75612860  0.50904952  0.16960880  1.0
  O  O29  1  0.23727138  0.82944306  0.87230303  1.0
  O  O30  1  0.76272862  0.17055694  0.12769697  1.0
