# generated using pymatgen
data_Sr2(FeO2)3
_symmetry_space_group_name_H-M   'P 1'
_cell_length_a   5.43119166
_cell_length_b   5.43119166
_cell_length_c   20.08413862
_cell_angle_alpha   90.00000000
_cell_angle_beta   90.00000000
_cell_angle_gamma   90.00000000
_symmetry_Int_Tables_number   1
_chemical_formula_structural   Sr2(FeO2)3
_chemical_formula_sum   'Sr8 Fe12 O24'
_cell_volume   592.43876385
_cell_formula_units_Z   4
loop_
 _symmetry_equiv_pos_site_id
 _symmetry_equiv_pos_as_xyz
  1  'x, y, z'
loop_
 _atom_site_type_symbol
 _atom_site_label
 _atom_site_symmetry_multiplicity
 _atom_site_fract_x
 _atom_site_fract_y
 _atom_site_fract_z
 _atom_site_occupancy
  Sr  Sr0  1  0.25871286  0.74128714  0.09105790  1.0
  Sr  Sr1  1  0.25871286  0.74128714  0.90894210  1.0
  Sr  Sr2  1  0.75871286  0.75871286  0.59105790  1.0
  Sr  Sr3  1  0.75871286  0.75871286  0.40894210  1.0
  Sr  Sr4  1  0.74128714  0.25871286  0.09105790  1.0
  Sr  Sr5  1  0.74128714  0.25871286  0.90894210  1.0
  Sr  Sr6  1  0.24128714  0.24128714  0.59105790  1.0
  Sr  Sr7  1  0.24128714  0.24128714  0.40894210  1.0
  Fe  Fe8  1  0.32006217  0.67993783  0.29520797  1.0
  Fe  Fe9  1  0.32006217  0.67993783  0.70479203  1.0
  Fe  Fe10  1  0.82006217  0.82006217  0.79520797  1.0
  Fe  Fe11  1  0.82006217  0.82006217  0.20479203  1.0
  Fe  Fe12  1  0.67993783  0.32006217  0.29520797  1.0
  Fe  Fe13  1  0.67993783  0.32006217  0.70479203  1.0
  Fe  Fe14  1  0.17993783  0.17993783  0.79520797  1.0
  Fe  Fe15  1  0.17993783  0.17993783  0.20479203  1.0
  Fe  Fe16  1  0.25253667  0.74746333  0.50000000  1.0
  Fe  Fe17  1  0.75253667  0.75253667  -0.00000000  1.0
  Fe  Fe18  1  0.74746333  0.25253667  0.50000000  1.0
  Fe  Fe19  1  0.24746333  0.24746333  -0.00000000  1.0
  O  O20  1  0.24875739  0.75124261  0.38404537  1.0
  O  O21  1  0.24875739  0.75124261  0.61595463  1.0
  O  O22  1  0.74875739  0.74875739  0.88404537  1.0
  O  O23  1  0.74875739  0.74875739  0.11595463  1.0
  O  O24  1  0.75124261  0.24875739  0.38404537  1.0
  O  O25  1  0.75124261  0.24875739  0.61595463  1.0
  O  O26  1  0.25124261  0.25124261  0.88404537  1.0
  O  O27  1  0.25124261  0.25124261  0.11595463  1.0
  O  O28  1  0.19096067  0.80903933  0.21289462  1.0
  O  O29  1  0.19096067  0.80903933  0.78710538  1.0
  O  O30  1  0.69096067  0.69096067  0.71289462  1.0
  O  O31  1  0.69096067  0.69096067  0.28710538  1.0
  O  O32  1  0.80903933  0.19096067  0.21289462  1.0
  O  O33  1  0.80903933  0.19096067  0.78710538  1.0
  O  O34  1  0.30903933  0.30903933  0.71289462  1.0
  O  O35  1  0.30903933  0.30903933  0.28710538  1.0
  O  O36  1  0.50000000  0.00000000  0.50000000  1.0
  O  O37  1  0.00000000  0.50000000  -0.00000000  1.0
  O  O38  1  0.00000000  0.50000000  0.50000000  1.0
  O  O39  1  0.50000000  0.00000000  -0.00000000  1.0
  O  O40  1  0.50000000  0.50000000  -0.00000000  1.0
  O  O41  1  0.00000000  0.00000000  0.50000000  1.0
  O  O42  1  0.50000000  0.50000000  0.50000000  1.0
  O  O43  1  0.00000000  0.00000000  0.00000000  1.0
