# generated using pymatgen
data_Nb5(NiP)4
_symmetry_space_group_name_H-M   'P 1'
_cell_length_a   7.27172458
_cell_length_b   7.27172458
_cell_length_c   7.27172458
_cell_angle_alpha   93.37803639
_cell_angle_beta   93.37803639
_cell_angle_gamma   151.90312893
_symmetry_Int_Tables_number   1
_chemical_formula_structural   Nb5(NiP)4
_chemical_formula_sum   'Nb5 Ni4 P4'
_cell_volume   175.67587391
_cell_formula_units_Z   1
loop_
 _symmetry_equiv_pos_site_id
 _symmetry_equiv_pos_as_xyz
  1  'x, y, z'
loop_
 _atom_site_type_symbol
 _atom_site_label
 _atom_site_symmetry_multiplicity
 _atom_site_fract_x
 _atom_site_fract_y
 _atom_site_fract_z
 _atom_site_occupancy
  Nb  Nb0  1  0.63053181  0.69469508  1.32522689  1.0
  Nb  Nb1  1  0.69469508  1.36946819  1.06416327  1.0
  Nb  Nb2  1  0.36946819  0.30530492  0.67477311  1.0
  Nb  Nb3  1  1.30530492  0.63053181  0.93583673  1.0
  Nb  Nb4  1  0.00000000  0.00000000  0.00000000  1.0
  Ni  Ni5  1  0.89015858  0.58523885  0.47539744  1.0
  Ni  Ni6  1  0.58523885  0.10984142  0.69508027  1.0
  Ni  Ni7  1  1.10984142  1.41476115  1.52460256  1.0
  Ni  Ni8  1  0.41476115  0.89015858  1.30491973  1.0
  P  P9  1  0.74106160  0.94425591  1.68531750  1.0
  P  P10  1  0.94425591  1.25893840  1.20319431  1.0
  P  P11  1  0.25893840  0.05574409  0.31468250  1.0
  P  P12  1  1.05574409  0.74106160  0.79680569  1.0
