# generated using pymatgen
data_Tm2B31(CN)2
_symmetry_space_group_name_H-M   'P 1'
_cell_length_a   5.57641561
_cell_length_b   5.57641561
_cell_length_c   10.88320792
_cell_angle_alpha   90.00000000
_cell_angle_beta   90.00000000
_cell_angle_gamma   120.00000000
_symmetry_Int_Tables_number   1
_chemical_formula_structural   Tm2B31(CN)2
_chemical_formula_sum   'Tm2 B31 C2 N2'
_cell_volume   293.08785756
_cell_formula_units_Z   1
loop_
 _symmetry_equiv_pos_site_id
 _symmetry_equiv_pos_as_xyz
  1  'x, y, z'
loop_
 _atom_site_type_symbol
 _atom_site_label
 _atom_site_symmetry_multiplicity
 _atom_site_fract_x
 _atom_site_fract_y
 _atom_site_fract_z
 _atom_site_occupancy
  Tm  Tm0  1  0.33333333  0.66666667  0.43529286  1.0
  Tm  Tm1  1  0.66666667  0.33333333  0.56470714  1.0
  B  B2  1  0.01882105  0.50941052  0.21241750  1.0
  B  B3  1  0.50941052  0.01882105  0.78758250  1.0
  B  B4  1  0.50941052  0.49058948  0.78758250  1.0
  B  B5  1  0.49058948  0.50941052  0.21241750  1.0
  B  B6  1  0.49058948  0.98117895  0.21241750  1.0
  B  B7  1  0.98117895  0.49058948  0.78758250  1.0
  B  B8  1  0.88174713  0.44087356  0.05983462  1.0
  B  B9  1  0.44087356  0.88174713  0.94016538  1.0
  B  B10  1  0.44087356  0.55912644  0.94016538  1.0
  B  B11  1  0.55912644  0.44087356  0.05983462  1.0
  B  B12  1  0.55912644  0.11825287  0.05983462  1.0
  B  B13  1  0.11825287  0.55912644  0.94016538  1.0
  B  B14  1  0.45171951  0.22585976  0.31532889  1.0
  B  B15  1  0.22585976  0.45171951  0.68467111  1.0
  B  B16  1  0.22585976  0.77414024  0.68467111  1.0
  B  B17  1  0.77414024  0.22585976  0.31532889  1.0
  B  B18  1  0.77414024  0.54828049  0.31532889  1.0
  B  B19  1  0.54828049  0.77414024  0.68467111  1.0
  B  B20  1  0.32515653  0.16257827  0.15896246  1.0
  B  B21  1  0.16257827  0.32515653  0.84103754  1.0
  B  B22  1  0.16257827  0.83742173  0.84103754  1.0
  B  B23  1  0.83742173  0.16257827  0.15896246  1.0
  B  B24  1  0.83742173  0.67484347  0.15896246  1.0
  B  B25  1  0.67484347  0.83742173  0.84103754  1.0
  B  B26  1  0.20781558  0.10390779  0.43186046  1.0
  B  B27  1  0.10390779  0.20781558  0.56813954  1.0
  B  B28  1  0.10390779  0.89609221  0.56813954  1.0
  B  B29  1  0.89609221  0.10390779  0.43186046  1.0
  B  B30  1  0.89609221  0.79218442  0.43186046  1.0
  B  B31  1  0.79218442  0.89609221  0.56813954  1.0
  B  B32  1  0.00000000  0.00000000  0.00000000  1.0
  C  C33  1  0.00000000  0.00000000  0.13259423  1.0
  C  C34  1  0.00000000  0.00000000  0.86740577  1.0
  N  N35  1  0.33333333  0.66666667  0.23106420  1.0
  N  N36  1  0.66666667  0.33333333  0.76893580  1.0
