# generated using pymatgen
data_Bi12Rh3Cl4
_symmetry_space_group_name_H-M   'P 1'
_cell_length_a   19.20680783
_cell_length_b   17.27722593
_cell_length_c   9.81223517
_cell_angle_alpha   85.62221078
_cell_angle_beta   63.75509811
_cell_angle_gamma   30.62269111
_symmetry_Int_Tables_number   1
_chemical_formula_structural   Bi12Rh3Cl4
_chemical_formula_sum   'Bi24 Rh6 Cl8'
_cell_volume   1109.89344031
_cell_formula_units_Z   2
loop_
 _symmetry_equiv_pos_site_id
 _symmetry_equiv_pos_as_xyz
  1  'x, y, z'
loop_
 _atom_site_type_symbol
 _atom_site_label
 _atom_site_symmetry_multiplicity
 _atom_site_fract_x
 _atom_site_fract_y
 _atom_site_fract_z
 _atom_site_occupancy
  Bi  Bi0  1  0.83247962  0.29543338  0.73658923  1.0
  Bi  Bi1  1  1.13549777  0.73658923  0.29543338  1.0
  Bi  Bi2  1  0.95456662  0.41752038  1.11450223  1.0
  Bi  Bi3  1  0.51341077  1.11450223  0.41752038  1.0
  Bi  Bi4  1  0.73658923  1.13549777  0.83247962  1.0
  Bi  Bi5  1  0.29543338  0.83247962  1.13549777  1.0
  Bi  Bi6  1  1.11450223  0.51341077  0.95456662  1.0
  Bi  Bi7  1  0.41752038  0.95456662  0.51341077  1.0
  Bi  Bi8  1  0.89083904  0.11896198  0.35940584  1.0
  Bi  Bi9  1  1.63079314  0.35940584  0.11896198  1.0
  Bi  Bi10  1  1.13103802  0.35916096  0.61920686  1.0
  Bi  Bi11  1  0.89059416  0.61920686  0.35916096  1.0
  Bi  Bi12  1  1.35940584  0.63079314  -0.10916096  1.0
  Bi  Bi13  1  1.11896198  -0.10916096  0.63079314  1.0
  Bi  Bi14  1  0.61920686  0.89059416  1.13103802  1.0
  Bi  Bi15  1  0.35916096  1.13103802  0.89059416  1.0
  Bi  Bi16  1  1.38595159  -0.04180987  0.21604918  1.0
  Bi  Bi17  1  1.43980909  0.21604918  -0.04180987  1.0
  Bi  Bi18  1  0.29180987  0.86404841  0.81019091  1.0
  Bi  Bi19  1  1.03395082  0.81019091  0.86404841  1.0
  Bi  Bi20  1  1.21604918  0.43980909  0.38595159  1.0
  Bi  Bi21  1  0.95819013  0.38595159  0.43980909  1.0
  Bi  Bi22  1  0.81019091  1.03395082  0.29180987  1.0
  Bi  Bi23  1  0.86404841  0.29180987  1.03395082  1.0
  Rh  Rh24  1  0.00000000  0.00000000  0.00000000  1.0
  Rh  Rh25  1  1.25000000  0.25000000  0.25000000  1.0
  Rh  Rh26  1  1.12500000  0.12500000  0.62500000  1.0
  Rh  Rh27  1  1.12500000  0.62500000  0.12500000  1.0
  Rh  Rh28  1  1.12500000  0.12500000  0.12500000  1.0
  Rh  Rh29  1  1.62500000  0.12500000  0.12500000  1.0
  Cl  Cl30  1  0.79000805  0.38740454  0.41164440  1.0
  Cl  Cl31  1  1.41094302  0.41164440  0.38740454  1.0
  Cl  Cl32  1  0.86259546  0.45999195  0.83905698  1.0
  Cl  Cl33  1  0.83835560  0.83905698  0.45999195  1.0
  Cl  Cl34  1  1.41164440  0.41094302  -0.20999195  1.0
  Cl  Cl35  1  1.38740454  -0.20999195  0.41094302  1.0
  Cl  Cl36  1  0.83905698  0.83835560  0.86259546  1.0
  Cl  Cl37  1  0.45999195  0.86259546  0.83835560  1.0
