# generated using pymatgen
data_LuGa2Ni
_symmetry_space_group_name_H-M   'P 1'
_cell_length_a   5.34485872
_cell_length_b   5.34485872
_cell_length_c   6.61207738
_cell_angle_alpha   90.00000000
_cell_angle_beta   90.00000000
_cell_angle_gamma   134.85487535
_symmetry_Int_Tables_number   1
_chemical_formula_structural   LuGa2Ni
_chemical_formula_sum   'Lu2 Ga4 Ni2'
_cell_volume   133.90371724
_cell_formula_units_Z   2
loop_
 _symmetry_equiv_pos_site_id
 _symmetry_equiv_pos_as_xyz
  1  'x, y, z'
loop_
 _atom_site_type_symbol
 _atom_site_label
 _atom_site_symmetry_multiplicity
 _atom_site_fract_x
 _atom_site_fract_y
 _atom_site_fract_z
 _atom_site_occupancy
  Lu  Lu0  1  0.42619981  0.57380019  0.75000000  1.0
  Lu  Lu1  1  -0.42619981  0.42619981  0.25000000  1.0
  Ga  Ga2  1  0.14023246  0.85976754  0.94745330  1.0
  Ga  Ga3  1  0.14023246  0.85976754  0.55254670  1.0
  Ga  Ga4  1  -0.14023246  0.14023246  0.44745330  1.0
  Ga  Ga5  1  -0.14023246  0.14023246  0.05254670  1.0
  Ni  Ni6  1  -0.29073112  0.29073112  0.75000000  1.0
  Ni  Ni7  1  0.29073112  0.70926888  0.25000000  1.0
