# generated using pymatgen
data_Y2O3
_symmetry_space_group_name_H-M   'P 1'
_cell_length_a   9.22658074
_cell_length_b   9.22658074
_cell_length_c   9.22658074
_cell_angle_alpha   109.47122063
_cell_angle_beta   109.47122063
_cell_angle_gamma   109.47122063
_symmetry_Int_Tables_number   1
_chemical_formula_structural   Y2O3
_chemical_formula_sum   'Y16 O24'
_cell_volume   604.64500385
_cell_formula_units_Z   8
loop_
 _symmetry_equiv_pos_site_id
 _symmetry_equiv_pos_as_xyz
  1  'x, y, z'
loop_
 _atom_site_type_symbol
 _atom_site_label
 _atom_site_symmetry_multiplicity
 _atom_site_fract_x
 _atom_site_fract_y
 _atom_site_fract_z
 _atom_site_occupancy
  Y  Y0  1  0.00000000  0.50000000  0.50000000  1.0
  Y  Y1  1  1.00000000  1.00000000  1.00000000  1.0
  Y  Y2  1  0.50000000  1.00000000  0.50000000  1.0
  Y  Y3  1  0.50000000  0.50000000  0.00000000  1.0
  Y  Y4  1  0.71737387  0.75000000  0.46737387  1.0
  Y  Y5  1  0.78262613  0.25000000  1.03262613  1.0
  Y  Y6  1  0.25000000  1.03262613  0.78262613  1.0
  Y  Y7  1  0.75000000  1.46737387  0.71737387  1.0
  Y  Y8  1  0.46737387  0.71737387  0.75000000  1.0
  Y  Y9  1  1.03262613  0.78262613  1.25000000  1.0
  Y  Y10  1  1.28262613  1.25000000  1.53262613  1.0
  Y  Y11  1  0.21737387  0.75000000  0.96737387  1.0
  Y  Y12  1  0.75000000  0.96737387  0.21737387  1.0
  Y  Y13  1  0.25000000  0.53262613  0.28262613  1.0
  Y  Y14  1  1.53262613  1.28262613  1.25000000  1.0
  Y  Y15  1  0.96737387  1.21737387  0.75000000  1.0
  O  O16  1  1.01094531  1.46848934  0.73917467  1.0
  O  O17  1  1.27068532  1.03151066  1.04245597  1.0
  O  O18  1  1.48905469  1.22822936  1.45754403  1.0
  O  O19  1  1.22931468  1.27177064  1.76082533  1.0
  O  O20  1  1.27177064  0.76082533  1.22931468  1.0
  O  O21  1  1.22822936  1.45754403  1.48905469  1.0
  O  O22  1  1.03151066  1.04245597  0.27068532  1.0
  O  O23  1  1.46848934  0.73917467  1.01094531  1.0
  O  O24  1  1.04245597  0.27068532  1.03151066  1.0
  O  O25  1  0.73917467  1.01094531  0.46848934  1.0
  O  O26  1  1.76082533  1.22931468  1.27177064  1.0
  O  O27  1  1.45754403  1.48905469  1.22822936  1.0
  O  O28  1  0.98905469  0.53151066  1.26082533  1.0
  O  O29  1  0.72931468  0.96848934  0.95754403  1.0
  O  O30  1  0.51094531  0.77177064  0.54245597  1.0
  O  O31  1  0.77068532  0.72822936  0.23917467  1.0
  O  O32  1  0.72822936  1.23917467  0.77068532  1.0
  O  O33  1  0.77177064  0.54245597  0.51094531  1.0
  O  O34  1  0.96848934  0.95754403  1.72931468  1.0
  O  O35  1  0.53151066  1.26082533  0.98905469  1.0
  O  O36  1  0.95754403  1.72931468  0.96848934  1.0
  O  O37  1  1.26082533  0.98905469  1.53151066  1.0
  O  O38  1  0.23917467  0.77068532  0.72822936  1.0
  O  O39  1  0.54245597  0.51094531  0.77177064  1.0
