# generated using pymatgen
data_Si2H6O
_symmetry_space_group_name_H-M   'P 1'
_cell_length_a   5.08829448
_cell_length_b   8.04919815
_cell_length_c   13.74289247
_cell_angle_alpha   90.00000000
_cell_angle_beta   90.00000000
_cell_angle_gamma   90.00000000
_symmetry_Int_Tables_number   1
_chemical_formula_structural   Si2H6O
_chemical_formula_sum   'Si8 H24 O4'
_cell_volume   562.86339359
_cell_formula_units_Z   4
loop_
 _symmetry_equiv_pos_site_id
 _symmetry_equiv_pos_as_xyz
  1  'x, y, z'
loop_
 _atom_site_type_symbol
 _atom_site_label
 _atom_site_symmetry_multiplicity
 _atom_site_fract_x
 _atom_site_fract_y
 _atom_site_fract_z
 _atom_site_occupancy
  Si  Si0  1  0.46337353  0.77386570  0.72307905  1.0
  Si  Si1  1  0.96337353  0.72613430  0.27692095  1.0
  Si  Si2  1  0.53662647  0.27386570  0.77692095  1.0
  Si  Si3  1  0.03662647  0.22613430  0.22307905  1.0
  Si  Si4  1  0.25478651  0.99650036  0.55615237  1.0
  Si  Si5  1  0.75478651  0.50349964  0.44384763  1.0
  Si  Si6  1  0.74521349  0.49650036  0.94384763  1.0
  Si  Si7  1  0.24521349  0.00349964  0.05615237  1.0
  H  H8  1  0.42003272  0.80653942  0.82860470  1.0
  H  H9  1  0.92003272  0.69346058  0.17139530  1.0
  H  H10  1  0.57996728  0.30653942  0.67139530  1.0
  H  H11  1  0.07996728  0.19346058  0.32860470  1.0
  H  H12  1  0.40296187  0.84898904  0.06879293  1.0
  H  H13  1  0.90296187  0.65101096  0.93120707  1.0
  H  H14  1  0.59703813  0.34898904  0.43120707  1.0
  H  H15  1  0.09703813  0.15101096  0.56879293  1.0
  H  H16  1  0.29496097  0.63370827  0.68878961  1.0
  H  H17  1  0.79496097  0.86629173  0.31121039  1.0
  H  H18  1  0.70503903  0.13370827  0.81121039  1.0
  H  H19  1  0.20503903  0.36629173  0.18878961  1.0
  H  H20  1  0.25409412  0.23613922  0.79561689  1.0
  H  H21  1  0.75409412  0.26386078  0.20438311  1.0
  H  H22  1  0.74590588  0.73613922  0.70438311  1.0
  H  H23  1  0.24590588  0.76386078  0.29561689  1.0
  H  H24  1  0.08274920  0.85924934  0.51971383  1.0
  H  H25  1  0.58274920  0.64075066  0.48028617  1.0
  H  H26  1  0.91725080  0.35924934  0.98028617  1.0
  H  H27  1  0.41725080  0.14075066  0.01971383  1.0
  H  H28  1  0.97026572  0.47354095  0.51546240  1.0
  H  H29  1  0.47026572  1.02645905  0.48453760  1.0
  H  H30  1  0.02973428  -0.02645905  0.98453760  1.0
  H  H31  1  0.52973428  0.52645905  0.01546240  1.0
  O  O32  1  0.38081991  0.94572495  0.66325798  1.0
  O  O33  1  0.88081991  0.55427505  0.33674202  1.0
  O  O34  1  0.61918009  0.44572495  0.83674202  1.0
  O  O35  1  0.11918009  0.05427505  0.16325798  1.0
