# generated using pymatgen
data_Zr(SiO)2
_symmetry_space_group_name_H-M   'P 1'
_cell_length_a   7.53287965
_cell_length_b   7.53287965
_cell_length_c   7.53287965
_cell_angle_alpha   105.56375171
_cell_angle_beta   105.56375171
_cell_angle_gamma   117.60537439
_symmetry_Int_Tables_number   1
_chemical_formula_structural   Zr(SiO)2
_chemical_formula_sum   'Zr4 Si8 O8'
_cell_volume   324.01023054
_cell_formula_units_Z   4
loop_
 _symmetry_equiv_pos_site_id
 _symmetry_equiv_pos_as_xyz
  1  'x, y, z'
loop_
 _atom_site_type_symbol
 _atom_site_label
 _atom_site_symmetry_multiplicity
 _atom_site_fract_x
 _atom_site_fract_y
 _atom_site_fract_z
 _atom_site_occupancy
  Zr  Zr0  1  1.37500000  1.12500000  1.25000000  1.0
  Zr  Zr1  1  0.87500000  1.12500000  0.75000000  1.0
  Zr  Zr2  1  0.87500000  1.12500000  0.25000000  1.0
  Zr  Zr3  1  0.87500000  1.62500000  0.75000000  1.0
  Si  Si4  1  1.18230942  1.47886840  0.70344103  1.0
  Si  Si5  1  0.97457263  0.77113160  0.20344103  1.0
  Si  Si6  1  0.77542737  0.47886840  0.29655897  1.0
  Si  Si7  1  1.56769058  0.77113160  0.79655897  1.0
  Si  Si8  1  0.52113160  0.22457263  0.70344103  1.0
  Si  Si9  1  1.22886840  1.43230942  1.20344103  1.0
  Si  Si10  1  0.52113160  0.81769058  0.29655897  1.0
  Si  Si11  1  1.22886840  1.02542737  0.79655897  1.0
  O  O12  1  1.21743470  1.35973442  0.85770027  1.0
  O  O13  1  1.24796585  0.89026558  1.35770027  1.0
  O  O14  1  0.50203415  0.35973442  0.14229973  1.0
  O  O15  1  0.53256530  0.89026558  0.64229973  1.0
  O  O16  1  0.64026558  0.49796585  0.85770027  1.0
  O  O17  1  1.10973442  1.46743470  0.35770027  1.0
  O  O18  1  0.64026558  0.78256530  0.14229973  1.0
  O  O19  1  1.10973442  1.75203415  0.64229973  1.0
