# generated using pymatgen
data_Ta2B
_symmetry_space_group_name_H-M   'P 1'
_cell_length_a   4.77146847
_cell_length_b   4.77146847
_cell_length_c   4.77146847
_cell_angle_alpha   105.17570046
_cell_angle_beta   105.17570046
_cell_angle_gamma   118.45316477
_symmetry_Int_Tables_number   1
_chemical_formula_structural   Ta2B
_chemical_formula_sum   'Ta4 B2'
_cell_volume   82.06163808
_cell_formula_units_Z   2
loop_
 _symmetry_equiv_pos_site_id
 _symmetry_equiv_pos_as_xyz
  1  'x, y, z'
loop_
 _atom_site_type_symbol
 _atom_site_label
 _atom_site_symmetry_multiplicity
 _atom_site_fract_x
 _atom_site_fract_y
 _atom_site_fract_z
 _atom_site_occupancy
  Ta  Ta0  1  0.83287125  0.33287125  1.16574251  1.0
  Ta  Ta1  1  0.66712875  0.83287125  0.50000000  1.0
  Ta  Ta2  1  0.33287125  0.16712875  0.50000000  1.0
  Ta  Ta3  1  1.16712875  0.66712875  0.83425749  1.0
  B  B4  1  0.25000000  0.25000000  -0.00000000  1.0
  B  B5  1  0.75000000  0.75000000  -0.00000000  1.0
