# generated using pymatgen
data_Ta3Ge
_symmetry_space_group_name_H-M   'P 1'
_cell_length_a   10.29316536
_cell_length_b   10.29316536
_cell_length_c   5.26303908
_cell_angle_alpha   90.00000000
_cell_angle_beta   90.00000000
_cell_angle_gamma   90.00000000
_symmetry_Int_Tables_number   1
_chemical_formula_structural   Ta3Ge
_chemical_formula_sum   'Ta24 Ge8'
_cell_volume   557.61505985
_cell_formula_units_Z   8
loop_
 _symmetry_equiv_pos_site_id
 _symmetry_equiv_pos_as_xyz
  1  'x, y, z'
loop_
 _atom_site_type_symbol
 _atom_site_label
 _atom_site_symmetry_multiplicity
 _atom_site_fract_x
 _atom_site_fract_y
 _atom_site_fract_z
 _atom_site_occupancy
  Ta  Ta0  1  0.48269503  0.35032691  1.22031104  1.0
  Ta  Ta1  1  0.98269503  0.85032691  0.27968896  1.0
  Ta  Ta2  1  0.35032691  0.51730497  -0.22031104  1.0
  Ta  Ta3  1  0.85032691  0.01730497  0.72031104  1.0
  Ta  Ta4  1  0.51730497  0.64967309  1.22031104  1.0
  Ta  Ta5  1  0.01730497  0.14967309  0.27968896  1.0
  Ta  Ta6  1  0.64967309  0.48269503  -0.22031104  1.0
  Ta  Ta7  1  0.14967309  0.98269503  0.72031104  1.0
  Ta  Ta8  1  0.31174418  0.78752308  0.48581906  1.0
  Ta  Ta9  1  0.81174418  0.28752308  0.01418094  1.0
  Ta  Ta10  1  0.78752308  0.68825582  0.51418094  1.0
  Ta  Ta11  1  0.28752308  0.18825582  0.98581906  1.0
  Ta  Ta12  1  0.68825582  0.21247692  0.48581906  1.0
  Ta  Ta13  1  0.18825582  0.71247692  0.01418094  1.0
  Ta  Ta14  1  0.21247692  0.31174418  0.51418094  1.0
  Ta  Ta15  1  0.71247692  0.81174418  0.98581906  1.0
  Ta  Ta16  1  1.09882859  0.41479297  0.03237573  1.0
  Ta  Ta17  1  0.59882859  0.91479297  0.46762427  1.0
  Ta  Ta18  1  0.41479297  -0.09882859  0.96762427  1.0
  Ta  Ta19  1  0.91479297  0.40117141  0.53237573  1.0
  Ta  Ta20  1  -0.09882859  0.58520703  0.03237573  1.0
  Ta  Ta21  1  0.40117141  0.08520703  0.46762427  1.0
  Ta  Ta22  1  0.58520703  1.09882859  0.96762427  1.0
  Ta  Ta23  1  0.08520703  0.59882859  0.53237573  1.0
  Ge  Ge24  1  0.47172682  0.29636665  0.71685488  1.0
  Ge  Ge25  1  0.97172682  0.79636665  -0.21685488  1.0
  Ge  Ge26  1  0.29636665  0.52827318  0.28314512  1.0
  Ge  Ge27  1  0.79636665  0.02827318  1.21685488  1.0
  Ge  Ge28  1  0.52827318  0.70363335  0.71685488  1.0
  Ge  Ge29  1  0.02827318  0.20363335  -0.21685488  1.0
  Ge  Ge30  1  0.70363335  0.47172682  0.28314512  1.0
  Ge  Ge31  1  0.20363335  0.97172682  1.21685488  1.0
