# generated using pymatgen
data_BaPS3
_symmetry_space_group_name_H-M   'P 1'
_cell_length_a   6.85359040
_cell_length_b   7.92956215
_cell_length_c   11.95986890
_cell_angle_alpha   90.00000000
_cell_angle_beta   123.29308802
_cell_angle_gamma   90.00000000
_symmetry_Int_Tables_number   1
_chemical_formula_structural   BaPS3
_chemical_formula_sum   'Ba4 P4 S12'
_cell_volume   543.29333116
_cell_formula_units_Z   4
loop_
 _symmetry_equiv_pos_site_id
 _symmetry_equiv_pos_as_xyz
  1  'x, y, z'
loop_
 _atom_site_type_symbol
 _atom_site_label
 _atom_site_symmetry_multiplicity
 _atom_site_fract_x
 _atom_site_fract_y
 _atom_site_fract_z
 _atom_site_occupancy
  Ba  Ba0  1  0.70430917  0.10356387  0.24588497  1.0
  Ba  Ba1  1  0.70430917  0.39643613  0.74588497  1.0
  Ba  Ba2  1  0.29569083  0.60356387  0.25411503  1.0
  Ba  Ba3  1  0.29569083  0.89643613  0.75411503  1.0
  P  P4  1  0.38399380  0.10772113  0.43676641  1.0
  P  P5  1  0.38399380  0.39227887  0.93676641  1.0
  P  P6  1  0.61600620  0.60772113  0.06323359  1.0
  P  P7  1  0.61600620  0.89227887  0.56323359  1.0
  S  S8  1  0.82501380  0.51588906  0.25217737  1.0
  S  S9  1  0.82501380  0.98411094  0.75217737  1.0
  S  S10  1  0.17498620  0.01588906  0.24782263  1.0
  S  S11  1  0.17498620  0.48411094  0.74782263  1.0
  S  S12  1  0.78429265  0.81255743  0.47529288  1.0
  S  S13  1  0.78429265  0.68744257  0.97529288  1.0
  S  S14  1  0.21570735  0.31255743  0.02470712  1.0
  S  S15  1  0.21570735  0.18744257  0.52470712  1.0
  S  S16  1  0.61009542  0.28902999  0.45197683  1.0
  S  S17  1  0.61009542  0.21097001  0.95197683  1.0
  S  S18  1  0.38990458  0.78902999  0.04802317  1.0
  S  S19  1  0.38990458  0.71097001  0.54802317  1.0
