# generated using pymatgen
data_Cs2WO4
_symmetry_space_group_name_H-M   'P 1'
_cell_length_a   8.70238205
_cell_length_b   6.82166314
_cell_length_c   11.78366241
_cell_angle_alpha   90.00000000
_cell_angle_beta   90.00000000
_cell_angle_gamma   90.00000000
_symmetry_Int_Tables_number   1
_chemical_formula_structural   Cs2WO4
_chemical_formula_sum   'Cs8 W4 O16'
_cell_volume   699.53380644
_cell_formula_units_Z   4
loop_
 _symmetry_equiv_pos_site_id
 _symmetry_equiv_pos_as_xyz
  1  'x, y, z'
loop_
 _atom_site_type_symbol
 _atom_site_label
 _atom_site_symmetry_multiplicity
 _atom_site_fract_x
 _atom_site_fract_y
 _atom_site_fract_z
 _atom_site_occupancy
  Cs  Cs0  1  0.82215982  0.75000000  0.42739815  1.0
  Cs  Cs1  1  0.32215982  0.75000000  0.07260185  1.0
  Cs  Cs2  1  0.17784018  0.25000000  0.57260185  1.0
  Cs  Cs3  1  0.67784018  0.25000000  0.92739815  1.0
  Cs  Cs4  1  0.48894609  0.75000000  0.70995820  1.0
  Cs  Cs5  1  -0.01105391  0.75000000  0.79004180  1.0
  Cs  Cs6  1  0.51105391  0.25000000  0.29004180  1.0
  Cs  Cs7  1  1.01105391  0.25000000  0.20995820  1.0
  W  W8  1  0.78413760  0.75000000  0.08740845  1.0
  W  W9  1  0.28413760  0.75000000  0.41259155  1.0
  W  W10  1  0.21586240  0.25000000  0.91259155  1.0
  W  W11  1  0.71586240  0.25000000  0.58740845  1.0
  O  O12  1  0.73323069  0.96602401  0.16704948  1.0
  O  O13  1  0.73323069  0.53397599  0.16704948  1.0
  O  O14  1  0.23323069  0.96602401  0.33295052  1.0
  O  O15  1  0.23323069  0.53397599  0.33295052  1.0
  O  O16  1  0.26676931  0.46602401  0.83295052  1.0
  O  O17  1  0.26676931  0.03397599  0.83295052  1.0
  O  O18  1  0.76676931  0.46602401  0.66704948  1.0
  O  O19  1  0.76676931  0.03397599  0.66704948  1.0
  O  O20  1  0.98697972  0.75000000  0.06043889  1.0
  O  O21  1  0.48697972  0.75000000  0.43956111  1.0
  O  O22  1  0.01302028  0.25000000  0.93956111  1.0
  O  O23  1  0.51302028  0.25000000  0.56043889  1.0
  O  O24  1  0.18161517  0.75000000  0.54592227  1.0
  O  O25  1  0.68161517  0.75000000  0.95407773  1.0
  O  O26  1  0.81838483  0.25000000  0.45407773  1.0
  O  O27  1  0.31838483  0.25000000  0.04592227  1.0
