# generated using pymatgen
data_TbAlB14
_symmetry_space_group_name_H-M   'P 1'
_cell_length_a   7.31555559
_cell_length_b   7.31555559
_cell_length_c   7.31555559
_cell_angle_alpha   132.50404079
_cell_angle_beta   87.89023512
_cell_angle_gamma   111.17217898
_symmetry_Int_Tables_number   1
_chemical_formula_structural   TbAlB14
_chemical_formula_sum   'Tb2 Al2 B28'
_cell_volume   256.63245416
_cell_formula_units_Z   2
loop_
 _symmetry_equiv_pos_site_id
 _symmetry_equiv_pos_as_xyz
  1  'x, y, z'
loop_
 _atom_site_type_symbol
 _atom_site_label
 _atom_site_symmetry_multiplicity
 _atom_site_fract_x
 _atom_site_fract_y
 _atom_site_fract_z
 _atom_site_occupancy
  Tb  Tb0  1  1.10665859  0.35665859  0.75000000  1.0
  Tb  Tb1  1  0.89334141  0.64334141  0.25000000  1.0
  Al  Al2  1  1.50000000  1.50000000  1.50000000  1.0
  Al  Al3  1  1.50000000  1.00000000  1.00000000  1.0
  B  B4  1  1.27832521  0.67496423  1.27633362  1.0
  B  B5  1  1.10136939  0.99800841  1.77633362  1.0
  B  B6  1  0.72167479  0.99800841  0.39663903  1.0
  B  B7  1  0.89863061  1.67496423  0.89663903  1.0
  B  B8  1  1.27832521  1.00199159  1.60336097  1.0
  B  B9  1  1.10136939  0.32503577  1.10336097  1.0
  B  B10  1  0.72167479  1.32503577  0.72366638  1.0
  B  B11  1  0.89863061  1.00199159  0.22366638  1.0
  B  B12  1  0.87263256  0.70422818  0.67295542  1.0
  B  B13  1  1.46872723  0.80032286  1.17295542  1.0
  B  B14  1  1.12736744  0.80032286  0.83159562  1.0
  B  B15  1  0.53127277  0.70422818  0.33159562  1.0
  B  B16  1  0.87263256  1.19967714  1.16840438  1.0
  B  B17  1  1.46872723  1.29577182  1.66840438  1.0
  B  B18  1  1.12736744  1.29577182  1.32704458  1.0
  B  B19  1  0.53127277  1.19967714  0.82704458  1.0
  B  B20  1  1.74505964  0.83362126  0.91143838  1.0
  B  B21  1  1.57781712  1.16637874  1.41143838  1.0
  B  B22  1  0.25494036  0.16637874  0.08856162  1.0
  B  B23  1  0.42218288  0.83362126  0.58856162  1.0
  B  B24  1  1.48880308  0.62837313  0.86042995  1.0
  B  B25  1  0.73205682  0.37162687  0.36042995  1.0
  B  B26  1  0.51119692  0.37162687  0.13957005  1.0
  B  B27  1  1.26794318  0.62837313  0.63957005  1.0
  B  B28  1  1.29746228  0.96439711  1.33306517  1.0
  B  B29  1  0.86866806  1.03560289  0.83306517  1.0
  B  B30  1  0.70253772  1.03560289  0.66693483  1.0
  B  B31  1  1.13133194  0.96439711  1.16693483  1.0
