# generated using pymatgen
data_VBiO4
_symmetry_space_group_name_H-M   'P 1'
_cell_length_a   6.14951794
_cell_length_b   6.14951794
_cell_length_c   6.14951794
_cell_angle_alpha   106.07732225
_cell_angle_beta   106.07732225
_cell_angle_gamma   116.49574127
_symmetry_Int_Tables_number   1
_chemical_formula_structural   VBiO4
_chemical_formula_sum   'V2 Bi2 O8'
_cell_volume   176.97803076
_cell_formula_units_Z   2
loop_
 _symmetry_equiv_pos_site_id
 _symmetry_equiv_pos_as_xyz
  1  'x, y, z'
loop_
 _atom_site_type_symbol
 _atom_site_label
 _atom_site_symmetry_multiplicity
 _atom_site_fract_x
 _atom_site_fract_y
 _atom_site_fract_z
 _atom_site_occupancy
  V  V0  1  0.00000000  0.00000000  0.00000000  1.0
  V  V1  1  0.75000000  1.25000000  0.50000000  1.0
  Bi  Bi2  1  0.25000000  0.75000000  0.50000000  1.0
  Bi  Bi3  1  0.50000000  0.50000000  -0.00000000  1.0
  O  O4  1  0.16906031  0.98862646  0.81956615  1.0
  O  O5  1  0.73862646  0.41906031  0.31956615  1.0
  O  O6  1  1.09949416  1.41906031  0.68043385  1.0
  O  O7  1  0.16906031  0.34949416  0.18043385  1.0
  O  O8  1  0.58093969  1.26137354  0.68043385  1.0
  O  O9  1  1.01137354  0.83093969  1.18043385  1.0
  O  O10  1  1.65050584  0.83093969  0.81956615  1.0
  O  O11  1  0.58093969  0.90050584  0.31956615  1.0
