# generated using pymatgen
data_Li4H6Ru
_symmetry_space_group_name_H-M   'P 1'
_cell_length_a   5.74775814
_cell_length_b   5.74775814
_cell_length_c   5.74775814
_cell_angle_alpha   90.01512972
_cell_angle_beta   90.01512972
_cell_angle_gamma   90.01512972
_symmetry_Int_Tables_number   1
_chemical_formula_structural   Li4H6Ru
_chemical_formula_sum   'Li8 H12 Ru2'
_cell_volume   189.88707703
_cell_formula_units_Z   2
loop_
 _symmetry_equiv_pos_site_id
 _symmetry_equiv_pos_as_xyz
  1  'x, y, z'
loop_
 _atom_site_type_symbol
 _atom_site_label
 _atom_site_symmetry_multiplicity
 _atom_site_fract_x
 _atom_site_fract_y
 _atom_site_fract_z
 _atom_site_occupancy
  Li  Li0  1  0.86208214  0.25000000  -0.36208214  1.0
  Li  Li1  1  0.36208214  0.13791786  -0.25000000  1.0
  Li  Li2  1  0.75000000  0.36208214  -0.86208214  1.0
  Li  Li3  1  0.25000000  0.63791786  -0.13791786  1.0
  Li  Li4  1  0.13791786  0.75000000  -0.63791786  1.0
  Li  Li5  1  0.63791786  -0.13791786  0.25000000  1.0
  Li  Li6  1  1.25000000  1.25000000  0.25000000  1.0
  Li  Li7  1  0.75000000  0.75000000  -0.25000000  1.0
  H  H8  1  0.21057836  0.44236096  -0.45273831  1.0
  H  H9  1  0.71057836  0.04726169  -0.05763904  1.0
  H  H10  1  0.95273831  0.05763904  -0.71057836  1.0
  H  H11  1  0.45273831  0.78942164  -0.44236096  1.0
  H  H12  1  0.55763904  0.45273831  -0.21057836  1.0
  H  H13  1  1.05763904  -0.71057836  -0.04726169  1.0
  H  H14  1  0.78942164  0.55763904  -0.54726169  1.0
  H  H15  1  0.28942164  -0.04726169  0.05763904  1.0
  H  H16  1  0.54726169  0.21057836  -0.55763904  1.0
  H  H17  1  1.04726169  -0.05763904  -0.28942164  1.0
  H  H18  1  0.94236096  -0.28942164  0.04726169  1.0
  H  H19  1  0.44236096  0.54726169  -0.78942164  1.0
  Ru  Ru20  1  0.50000000  0.50000000  -0.50000000  1.0
  Ru  Ru21  1  0.00000000  0.00000000  0.00000000  1.0
