# generated using pymatgen
data_CdI2
_symmetry_space_group_name_H-M   'P 1'
_cell_length_a   4.32733762
_cell_length_b   4.32733762
_cell_length_c   22.87148260
_cell_angle_alpha   90.00000000
_cell_angle_beta   90.00000000
_cell_angle_gamma   120.00000000
_symmetry_Int_Tables_number   1
_chemical_formula_structural   CdI2
_chemical_formula_sum   'Cd3 I6'
_cell_volume   370.90826398
_cell_formula_units_Z   3
loop_
 _symmetry_equiv_pos_site_id
 _symmetry_equiv_pos_as_xyz
  1  'x, y, z'
loop_
 _atom_site_type_symbol
 _atom_site_label
 _atom_site_symmetry_multiplicity
 _atom_site_fract_x
 _atom_site_fract_y
 _atom_site_fract_z
 _atom_site_occupancy
  Cd  Cd0  1  0.33333333  0.66666667  0.66707084  1.0
  Cd  Cd1  1  0.66666667  0.33333333  0.33292916  1.0
  Cd  Cd2  1  0.00000000  0.00000000  0.00000000  1.0
  I  I3  1  0.33333333  0.66666667  0.07515944  1.0
  I  I4  1  0.66666667  0.33333333  0.92484056  1.0
  I  I5  1  0.33333333  0.66666667  0.40810162  1.0
  I  I6  1  0.66666667  0.33333333  0.59189838  1.0
  I  I7  1  0.00000000  0.00000000  0.25774053  1.0
  I  I8  1  0.00000000  0.00000000  0.74225947  1.0
