# generated using pymatgen
data_Bi2AsO6
_symmetry_space_group_name_H-M   'P 1'
_cell_length_a   7.04244996
_cell_length_b   7.54618878
_cell_length_c   10.78905092
_cell_angle_alpha   90.00000000
_cell_angle_beta   107.51757845
_cell_angle_gamma   90.00000000
_symmetry_Int_Tables_number   1
_chemical_formula_structural   Bi2AsO6
_chemical_formula_sum   'Bi8 As4 O24'
_cell_volume   546.77940288
_cell_formula_units_Z   4
loop_
 _symmetry_equiv_pos_site_id
 _symmetry_equiv_pos_as_xyz
  1  'x, y, z'
loop_
 _atom_site_type_symbol
 _atom_site_label
 _atom_site_symmetry_multiplicity
 _atom_site_fract_x
 _atom_site_fract_y
 _atom_site_fract_z
 _atom_site_occupancy
  O  O0  1  0.63534450  0.31035756  0.95846755  1.0
  O  O1  1  0.63534450  0.18964244  0.45846755  1.0
  O  O2  1  0.36465550  0.81035756  0.54153245  1.0
  O  O3  1  0.36465550  0.68964244  0.04153245  1.0
  O  O4  1  0.34229030  0.86629408  0.81516540  1.0
  O  O5  1  0.34229030  0.63370592  0.31516540  1.0
  O  O6  1  0.65770970  0.36629408  0.68483460  1.0
  O  O7  1  0.65770970  0.13370592  0.18483460  1.0
  O  O8  1  1.01604509  0.90069812  0.90486316  1.0
  O  O9  1  1.01604509  0.59930188  0.40486316  1.0
  O  O10  1  -0.01604509  0.40069812  0.59513684  1.0
  O  O11  1  -0.01604509  0.09930188  0.09513684  1.0
  O  O12  1  0.78114839  0.62187424  0.87568024  1.0
  O  O13  1  0.78114839  0.87812576  0.37568024  1.0
  O  O14  1  0.21885161  0.12187424  0.62431976  1.0
  O  O15  1  0.21885161  0.37812576  0.12431976  1.0
  O  O16  1  0.94716012  0.77957784  0.64688048  1.0
  O  O17  1  0.94716012  0.72042216  0.14688048  1.0
  O  O18  1  0.05283988  0.27957784  0.85311952  1.0
  O  O19  1  0.05283988  0.22042216  0.35311952  1.0
  O  O20  1  0.63510999  1.00719809  0.74311140  1.0
  O  O21  1  0.63510999  0.49280191  0.24311140  1.0
  O  O22  1  0.36489001  0.50719809  0.75688860  1.0
  O  O23  1  0.36489001  -0.00719809  0.25688860  1.0
  Bi  Bi24  1  0.88490271  0.15870494  0.67195570  1.0
  Bi  Bi25  1  0.88490271  0.34129506  0.17195570  1.0
  Bi  Bi26  1  0.11509729  0.65870494  0.82804430  1.0
  Bi  Bi27  1  0.11509729  0.84129506  0.32804430  1.0
  Bi  Bi28  1  0.76865195  0.88694298  0.98779572  1.0
  Bi  Bi29  1  0.76865195  0.61305702  0.48779572  1.0
  Bi  Bi30  1  0.23134805  0.38694298  0.51220428  1.0
  Bi  Bi31  1  0.23134805  0.11305702  0.01220428  1.0
  As  As32  1  0.61305508  0.44691488  0.82564494  1.0
  As  As33  1  0.61305508  0.05308512  0.32564494  1.0
  As  As34  1  0.38694492  0.94691488  0.67435506  1.0
  As  As35  1  0.38694492  0.55308512  0.17435506  1.0
