# generated using pymatgen
data_BrF3
_symmetry_space_group_name_H-M   'P 1'
_cell_length_a   5.32406494
_cell_length_b   5.32406494
_cell_length_c   6.00857924
_cell_angle_alpha   90.00000000
_cell_angle_beta   90.00000000
_cell_angle_gamma   108.43229769
_symmetry_Int_Tables_number   1
_chemical_formula_structural   BrF3
_chemical_formula_sum   'Br2 F6'
_cell_volume   161.57956473
_cell_formula_units_Z   2
loop_
 _symmetry_equiv_pos_site_id
 _symmetry_equiv_pos_as_xyz
  1  'x, y, z'
loop_
 _atom_site_type_symbol
 _atom_site_label
 _atom_site_symmetry_multiplicity
 _atom_site_fract_x
 _atom_site_fract_y
 _atom_site_fract_z
 _atom_site_occupancy
  Br  Br0  1  0.34087395  0.65912605  0.10137031  1.0
  Br  Br1  1  -0.34087395  1.34087395  0.60137031  1.0
  F  F2  1  0.16100190  0.83899810  -0.05627335  1.0
  F  F3  1  -0.16100190  1.16100190  0.44372665  1.0
  F  F4  1  0.23295900  0.76704100  0.36045381  1.0
  F  F5  1  -0.23295900  1.23295900  0.86045381  1.0
  F  F6  1  -0.45359179  1.45359179  0.28444922  1.0
  F  F7  1  0.45359179  0.54640821  0.78444922  1.0
