# generated using pymatgen
data_NbPt
_symmetry_space_group_name_H-M   'P 1'
_cell_length_a   4.64008261
_cell_length_b   2.80377569
_cell_length_c   5.04285902
_cell_angle_alpha   90.00000000
_cell_angle_beta   90.00000000
_cell_angle_gamma   90.00000000
_symmetry_Int_Tables_number   1
_chemical_formula_structural   NbPt
_chemical_formula_sum   'Nb2 Pt2'
_cell_volume   65.60633944
_cell_formula_units_Z   2
loop_
 _symmetry_equiv_pos_site_id
 _symmetry_equiv_pos_as_xyz
  1  'x, y, z'
loop_
 _atom_site_type_symbol
 _atom_site_label
 _atom_site_symmetry_multiplicity
 _atom_site_fract_x
 _atom_site_fract_y
 _atom_site_fract_z
 _atom_site_occupancy
  Nb  Nb0  1  0.75000000  0.00000000  0.17859014  1.0
  Nb  Nb1  1  0.25000000  0.00000000  0.82140986  1.0
  Pt  Pt2  1  0.75000000  0.50000000  0.67410669  1.0
  Pt  Pt3  1  0.25000000  0.50000000  0.32589331  1.0
