# generated using pymatgen
data_CS2O3F2
_symmetry_space_group_name_H-M   'P 1'
_cell_length_a   6.18911085
_cell_length_b   6.18911085
_cell_length_c   12.52802706
_cell_angle_alpha   90.00000000
_cell_angle_beta   90.00000000
_cell_angle_gamma   120.00000000
_symmetry_Int_Tables_number   1
_chemical_formula_structural   CS2O3F2
_chemical_formula_sum   'C3 S6 O9 F6'
_cell_volume   415.59454354
_cell_formula_units_Z   3
loop_
 _symmetry_equiv_pos_site_id
 _symmetry_equiv_pos_as_xyz
  1  'x, y, z'
loop_
 _atom_site_type_symbol
 _atom_site_label
 _atom_site_symmetry_multiplicity
 _atom_site_fract_x
 _atom_site_fract_y
 _atom_site_fract_z
 _atom_site_occupancy
  C  C0  1  0.69458961  0.66669818  0.86088640  1.0
  C  C1  1  0.97210856  0.30541039  0.52755306  1.0
  C  C2  1  0.33330182  0.02789144  0.19421973  1.0
  S  S3  1  0.00091058  0.84315334  0.77998525  1.0
  S  S4  1  0.84224276  0.99908942  0.44665191  1.0
  S  S5  1  0.15684666  0.15775724  0.11331858  1.0
  S  S6  1  0.82455742  0.49017465  0.94165221  1.0
  S  S7  1  0.66561724  0.17544258  0.60831888  1.0
  S  S8  1  0.50982535  0.33438277  0.27498555  1.0
  O  O9  1  0.94531586  0.73113276  0.67242351  1.0
  O  O10  1  0.78581690  0.05468414  0.33909018  1.0
  O  O11  1  0.26886724  0.21418310  0.00575685  1.0
  O  O12  1  0.07608764  0.66661351  0.86076657  1.0
  O  O13  1  0.59052587  0.92391236  0.52743324  1.0
  O  O14  1  0.33338649  0.40947413  0.19409991  1.0
  O  O15  1  0.88121590  0.60217834  0.04921695  1.0
  O  O16  1  0.72096245  0.11878410  0.71588362  1.0
  O  O17  1  0.39782166  0.27903755  0.38255029  1.0
  F  F18  1  0.47889999  0.97800369  0.13201058  1.0
  F  F19  1  0.49910371  0.52110001  0.79867724  1.0
  F  F20  1  0.02199631  0.50089629  0.46534391  1.0
  F  F21  1  0.18768972  0.83252658  0.25649186  1.0
  F  F22  1  0.64483686  0.81231028  0.92315852  1.0
  F  F23  1  0.16747342  0.35516314  0.58982519  1.0
