# generated using pymatgen
data_Ca7Si6H4CO23
_symmetry_space_group_name_H-M   'P 1'
_cell_length_a   9.45706172
_cell_length_b   9.45706172
_cell_length_c   6.68244370
_cell_angle_alpha   75.40339930
_cell_angle_beta   104.59660070
_cell_angle_gamma   71.85157231
_symmetry_Int_Tables_number   1
_chemical_formula_structural   Ca7Si6H4CO23
_chemical_formula_sum   'Ca7 Si6 H4 C1 O23'
_cell_volume   512.86553937
_cell_formula_units_Z   1
loop_
 _symmetry_equiv_pos_site_id
 _symmetry_equiv_pos_as_xyz
  1  'x, y, z'
loop_
 _atom_site_type_symbol
 _atom_site_label
 _atom_site_symmetry_multiplicity
 _atom_site_fract_x
 _atom_site_fract_y
 _atom_site_fract_z
 _atom_site_occupancy
  Ca  Ca0  1  0.66926539  -0.39994929  0.14841424  1.0
  Ca  Ca1  1  1.39994929  0.33073461  0.14841424  1.0
  Ca  Ca2  1  0.96750315  -0.26042908  0.12299939  1.0
  Ca  Ca3  1  1.26042908  0.03249685  0.12299939  1.0
  Ca  Ca4  1  1.08211971  0.41799782  0.63395455  1.0
  Ca  Ca5  1  0.58200218  -0.08211971  0.63395455  1.0
  Ca  Ca6  1  0.34099901  -0.34099901  0.60871132  1.0
  Si  Si7  1  0.95506880  -0.16342026  0.56999072  1.0
  Si  Si8  1  1.16342026  0.04493120  0.56999072  1.0
  Si  Si9  1  0.71232770  -0.50287610  0.70231800  1.0
  Si  Si10  1  1.50287610  0.28767230  0.70231800  1.0
  Si  Si11  1  1.00587005  0.34715863  0.13117642  1.0
  Si  Si12  1  0.65284137  -0.00587005  0.13117642  1.0
  H  H13  1  1.00633631  -1.00633631  0.85403144  1.0
  H  H14  1  0.69119592  -0.69119592  0.43776312  1.0
  H  H15  1  0.77296212  -0.77296212  0.29207392  1.0
  H  H16  1  0.91639732  -0.91639732  0.98921945  1.0
  C  C17  1  0.34331246  -0.34331246  0.14770764  1.0
  O  O18  1  0.86725510  -0.19348979  0.74378461  1.0
  O  O19  1  1.19348979  0.13274490  0.74378461  1.0
  O  O20  1  0.79634671  -0.47064103  0.52449835  1.0
  O  O21  1  1.47064103  0.20365329  0.52449835  1.0
  O  O22  1  1.07044944  0.68702998  0.52890499  1.0
  O  O23  1  0.31297002  -0.07044944  0.52890499  1.0
  O  O24  1  0.96261606  -0.50899422  0.22547640  1.0
  O  O25  1  1.50899422  0.03738394  0.22547640  1.0
  O  O26  1  0.84641916  -0.63900837  0.94092682  1.0
  O  O27  1  1.63900837  0.15358084  0.94092682  1.0
  O  O28  1  1.24598915  0.60727026  0.21899742  1.0
  O  O29  1  0.39272974  -0.24598915  0.21899742  1.0
  O  O30  1  1.15149671  0.32143374  0.03697108  1.0
  O  O31  1  0.67856626  -0.15149671  0.03697108  1.0
  O  O32  1  1.04182396  0.17606240  0.32010221  1.0
  O  O33  1  0.82393760  -0.04182396  0.32010221  1.0
  O  O34  1  1.35366853  0.39311340  0.75369442  1.0
  O  O35  1  0.60688660  -0.35366853  0.75369442  1.0
  O  O36  1  0.00857250  -0.00857250  0.00573301  1.0
  O  O37  1  0.06157741  -0.06157741  0.65269589  1.0
  O  O38  1  0.40137776  -0.40137776  0.01474832  1.0
  O  O39  1  0.58807475  -0.58807475  0.61266137  1.0
  O  O40  1  0.68303292  -0.68303292  0.28513528  1.0
