# generated using pymatgen
data_Rb2MoO8
_symmetry_space_group_name_H-M   'P 1'
_cell_length_a   7.04114458
_cell_length_b   8.98510684
_cell_length_c   13.67919105
_cell_angle_alpha   90.00000000
_cell_angle_beta   116.14100379
_cell_angle_gamma   90.00000000
_symmetry_Int_Tables_number   1
_chemical_formula_structural   Rb2MoO8
_chemical_formula_sum   'Rb8 Mo4 O32'
_cell_volume   776.89834596
_cell_formula_units_Z   4
loop_
 _symmetry_equiv_pos_site_id
 _symmetry_equiv_pos_as_xyz
  1  'x, y, z'
loop_
 _atom_site_type_symbol
 _atom_site_label
 _atom_site_symmetry_multiplicity
 _atom_site_fract_x
 _atom_site_fract_y
 _atom_site_fract_z
 _atom_site_occupancy
  Rb  Rb0  1  0.99562748  0.97953692  0.23602935  1.0
  Rb  Rb1  1  0.99562748  0.52046308  0.73602935  1.0
  Rb  Rb2  1  0.00437252  0.47953692  0.26397065  1.0
  Rb  Rb3  1  0.00437252  0.02046308  0.76397065  1.0
  Rb  Rb4  1  0.65937336  0.79552513  0.41235530  1.0
  Rb  Rb5  1  0.65937336  0.70447487  0.91235530  1.0
  Rb  Rb6  1  0.34062664  0.29552513  0.08764470  1.0
  Rb  Rb7  1  0.34062664  0.20447487  0.58764470  1.0
  Mo  Mo8  1  0.67475763  0.26952157  0.41318240  1.0
  Mo  Mo9  1  0.67475763  0.23047843  0.91318240  1.0
  Mo  Mo10  1  0.32524237  0.76952157  0.08681760  1.0
  Mo  Mo11  1  0.32524237  0.73047843  0.58681760  1.0
  O  O12  1  0.92413426  0.18998828  0.40018955  1.0
  O  O13  1  0.92413426  0.31001172  0.90018955  1.0
  O  O14  1  0.07586574  0.68998828  0.09981045  1.0
  O  O15  1  0.07586574  0.81001172  0.59981045  1.0
  O  O16  1  0.83303267  0.22253753  0.07457002  1.0
  O  O17  1  0.83303267  0.27746247  0.57457002  1.0
  O  O18  1  0.16696733  0.72253753  0.42542998  1.0
  O  O19  1  0.16696733  0.77746247  0.92542998  1.0
  O  O20  1  0.77230915  0.47533804  0.40568805  1.0
  O  O21  1  0.77230915  0.02466196  0.90568805  1.0
  O  O22  1  0.22769085  0.97533804  0.09431195  1.0
  O  O23  1  0.22769085  0.52466196  0.59431195  1.0
  O  O24  1  0.73009044  0.10586473  0.33181557  1.0
  O  O25  1  0.73009044  0.39413527  0.83181557  1.0
  O  O26  1  0.26990956  0.60586473  0.16818443  1.0
  O  O27  1  0.26990956  0.89413527  0.66818443  1.0
  O  O28  1  0.71684354  0.36424257  0.03633362  1.0
  O  O29  1  0.71684354  0.13575743  0.53633362  1.0
  O  O30  1  0.28315646  0.86424257  0.46366638  1.0
  O  O31  1  0.28315646  0.63575743  0.96366638  1.0
  O  O32  1  0.63419793  0.41454250  0.29762902  1.0
  O  O33  1  0.63419793  0.08545750  0.79762902  1.0
  O  O34  1  0.36580207  0.91454250  0.20237098  1.0
  O  O35  1  0.36580207  0.58545750  0.70237098  1.0
  O  O36  1  0.41060289  0.34357889  0.41299932  1.0
  O  O37  1  0.41060289  0.15642111  0.91299932  1.0
  O  O38  1  0.58939711  0.84357889  0.08700068  1.0
  O  O39  1  0.58939711  0.65642111  0.58700068  1.0
  O  O40  1  0.36897432  0.21631686  0.33809237  1.0
  O  O41  1  0.36897432  0.28368314  0.83809237  1.0
  O  O42  1  0.63102568  0.71631686  0.16190763  1.0
  O  O43  1  0.63102568  0.78368314  0.66190763  1.0
