# generated using pymatgen
data_Mg2Al4Zn3
_symmetry_space_group_name_H-M   'P 1'
_cell_length_a   5.02724572
_cell_length_b   5.02724572
_cell_length_c   14.61466766
_cell_angle_alpha   90.00000000
_cell_angle_beta   90.00000000
_cell_angle_gamma   120.00000000
_symmetry_Int_Tables_number   1
_chemical_formula_structural   Mg2Al4Zn3
_chemical_formula_sum   'Mg4 Al8 Zn6'
_cell_volume   319.87463314
_cell_formula_units_Z   2
loop_
 _symmetry_equiv_pos_site_id
 _symmetry_equiv_pos_as_xyz
  1  'x, y, z'
loop_
 _atom_site_type_symbol
 _atom_site_label
 _atom_site_symmetry_multiplicity
 _atom_site_fract_x
 _atom_site_fract_y
 _atom_site_fract_z
 _atom_site_occupancy
  Mg  Mg0  1  0.33333333  0.66666667  0.85973894  1.0
  Mg  Mg1  1  0.33333333  0.66666667  0.64026106  1.0
  Mg  Mg2  1  0.66666667  0.33333333  0.35973894  1.0
  Mg  Mg3  1  0.66666667  0.33333333  0.14026106  1.0
  Al  Al4  1  0.33333333  0.66666667  0.43612506  1.0
  Al  Al5  1  0.33333333  0.66666667  0.06387494  1.0
  Al  Al6  1  0.66666667  0.33333333  0.93612506  1.0
  Al  Al7  1  0.66666667  0.33333333  0.56387494  1.0
  Al  Al8  1  0.00000000  0.00000000  0.41066535  1.0
  Al  Al9  1  -0.00000000  0.00000000  0.08933465  1.0
  Al  Al10  1  0.00000000  0.00000000  0.91066535  1.0
  Al  Al11  1  -0.00000000  0.00000000  0.58933465  1.0
  Zn  Zn12  1  0.16800810  0.83199190  0.25000000  1.0
  Zn  Zn13  1  0.16800810  0.33601621  0.25000000  1.0
  Zn  Zn14  1  0.83199190  0.16800810  0.75000000  1.0
  Zn  Zn15  1  0.83199190  0.66398379  0.75000000  1.0
  Zn  Zn16  1  0.66398379  0.83199190  0.25000000  1.0
  Zn  Zn17  1  0.33601621  0.16800810  0.75000000  1.0
