# generated using pymatgen
data_Lu2Zn17
_symmetry_space_group_name_H-M   'P 1'
_cell_length_a   6.73576870
_cell_length_b   6.73576870
_cell_length_c   6.73576870
_cell_angle_alpha   82.68435296
_cell_angle_beta   82.68435296
_cell_angle_gamma   82.68435295
_symmetry_Int_Tables_number   1
_chemical_formula_structural   Lu2Zn17
_chemical_formula_sum   'Lu2 Zn17'
_cell_volume   298.72649127
_cell_formula_units_Z   1
loop_
 _symmetry_equiv_pos_site_id
 _symmetry_equiv_pos_as_xyz
  1  'x, y, z'
loop_
 _atom_site_type_symbol
 _atom_site_label
 _atom_site_symmetry_multiplicity
 _atom_site_fract_x
 _atom_site_fract_y
 _atom_site_fract_z
 _atom_site_occupancy
  Lu  Lu0  1  0.66524153  0.66524153  -0.33475847  1.0
  Lu  Lu1  1  1.33475847  1.33475847  0.33475847  1.0
  Zn  Zn2  1  0.35360627  0.35360627  -0.16211535  1.0
  Zn  Zn3  1  0.35360627  0.83788465  -0.64639373  1.0
  Zn  Zn4  1  0.16211535  0.64639373  -0.35360627  1.0
  Zn  Zn5  1  0.64639373  0.16211535  -0.35360627  1.0
  Zn  Zn6  1  0.64639373  -0.35360627  0.16211535  1.0
  Zn  Zn7  1  0.83788465  0.35360627  -0.64639373  1.0
  Zn  Zn8  1  0.70034881  -0.00000000  0.29965119  1.0
  Zn  Zn9  1  0.70034881  -0.70034881  -0.00000000  1.0
  Zn  Zn10  1  -0.00000000  0.70034881  -0.70034881  1.0
  Zn  Zn11  1  0.00000000  0.29965119  -0.29965119  1.0
  Zn  Zn12  1  1.29965119  0.00000000  -0.29965119  1.0
  Zn  Zn13  1  0.29965119  -0.29965119  -0.00000000  1.0
  Zn  Zn14  1  1.00000000  1.50000000  0.00000000  1.0
  Zn  Zn15  1  1.00000000  0.00000000  -0.50000000  1.0
  Zn  Zn16  1  0.50000000  0.00000000  0.00000000  1.0
  Zn  Zn17  1  0.89942685  0.89942685  -0.10057315  1.0
  Zn  Zn18  1  1.10057315  1.10057315  0.10057315  1.0
