# generated using pymatgen
data_H3C2N6O
_symmetry_space_group_name_H-M   'P 1'
_cell_length_a   4.18414482
_cell_length_b   10.44974223
_cell_length_c   7.03257848
_cell_angle_alpha   71.47637428
_cell_angle_beta   85.72655819
_cell_angle_gamma   82.26555273
_symmetry_Int_Tables_number   1
_chemical_formula_structural   H3C2N6O
_chemical_formula_sum   'H6 C4 N12 O2'
_cell_volume   288.73945862
_cell_formula_units_Z   2
loop_
 _symmetry_equiv_pos_site_id
 _symmetry_equiv_pos_as_xyz
  1  'x, y, z'
loop_
 _atom_site_type_symbol
 _atom_site_label
 _atom_site_symmetry_multiplicity
 _atom_site_fract_x
 _atom_site_fract_y
 _atom_site_fract_z
 _atom_site_occupancy
  H  H0  1  -0.68136702  -0.83166825  -0.65672209  1.0
  H  H1  1  -0.31863298  -0.16833175  -0.34327791  1.0
  H  H2  1  -0.71369417  -0.80333761  -0.36092250  1.0
  H  H3  1  -0.28630583  -0.19666239  -0.63907750  1.0
  H  H4  1  -0.37977571  -0.87974564  -0.39670143  1.0
  H  H5  1  -0.62022429  -0.12025436  -0.60329857  1.0
  C  C6  1  -0.94116363  -0.94729241  -0.96939612  1.0
  C  C7  1  -0.05883637  -0.05270759  -0.03060388  1.0
  C  C8  1  -0.79440079  -0.76074244  -0.97679494  1.0
  C  C9  1  -0.20559921  -0.23925756  -0.02320506  1.0
  N  N10  1  -0.90591641  -0.82005944  -0.09699237  1.0
  N  N11  1  -0.09408359  -0.17994056  -0.90300763  1.0
  N  N12  1  -0.85668075  -0.96732558  -0.78142830  1.0
  N  N13  1  -0.14331925  -0.03267442  -0.21857170  1.0
  N  N14  1  -0.79537231  -0.47184240  -0.34850314  1.0
  N  N15  1  -0.20462769  -0.52815760  -0.65149686  1.0
  N  N16  1  -0.76387439  -0.84672379  -0.78856666  1.0
  N  N17  1  -0.23612561  -0.15327621  -0.21143334  1.0
  N  N18  1  -0.28864007  -0.36992547  -0.97581046  1.0
  N  N19  1  -0.71135993  -0.63007453  -0.02418954  1.0
  N  N20  1  -0.23780420  -0.44635351  -0.80247715  1.0
  N  N21  1  -0.76219580  -0.55364649  -0.19752285  1.0
  O  O22  1  -0.55109129  -0.80959430  -0.46794637  1.0
  O  O23  1  -0.44890871  -0.19040570  -0.53205363  1.0
