# generated using pymatgen
data_CaTeO3
_symmetry_space_group_name_H-M   'P 1'
_cell_length_a   8.78694107
_cell_length_b   5.77545162
_cell_length_c   11.53750187
_cell_angle_alpha   90.00000000
_cell_angle_beta   110.83756408
_cell_angle_gamma   90.00000000
_symmetry_Int_Tables_number   1
_chemical_formula_structural   CaTeO3
_chemical_formula_sum   'Ca6 Te6 O18'
_cell_volume   547.21477460
_cell_formula_units_Z   6
loop_
 _symmetry_equiv_pos_site_id
 _symmetry_equiv_pos_as_xyz
  1  'x, y, z'
loop_
 _atom_site_type_symbol
 _atom_site_label
 _atom_site_symmetry_multiplicity
 _atom_site_fract_x
 _atom_site_fract_y
 _atom_site_fract_z
 _atom_site_occupancy
  Ca  Ca0  1  0.98036847  0.24198593  0.38053866  1.0
  Ca  Ca1  1  0.01963153  0.74198593  0.61946134  1.0
  Ca  Ca2  1  0.99787935  0.16223235  0.87012525  1.0
  Ca  Ca3  1  0.00212065  0.66223235  0.12987475  1.0
  Ca  Ca4  1  0.30158076  0.68100032  0.95264674  1.0
  Ca  Ca5  1  0.69841924  0.18100032  0.04735326  1.0
  Te  Te6  1  0.32027146  0.24616284  0.75264319  1.0
  Te  Te7  1  0.67972854  0.74616284  0.24735681  1.0
  Te  Te8  1  0.69816845  0.26913750  0.52406699  1.0
  Te  Te9  1  0.30183155  0.76913750  0.47593301  1.0
  Te  Te10  1  0.25637077  0.16476721  0.17295304  1.0
  Te  Te11  1  0.74362923  0.66476721  0.82704696  1.0
  O  O12  1  0.76000216  0.30136544  0.70119358  1.0
  O  O13  1  0.23999784  0.80136544  0.29880642  1.0
  O  O14  1  0.82518781  0.50164897  0.47815347  1.0
  O  O15  1  0.17481219  1.00164897  0.52184653  1.0
  O  O16  1  0.82621290  0.01913486  0.49686514  1.0
  O  O17  1  0.17378710  0.51913486  0.50313486  1.0
  O  O18  1  0.14325276  0.43858721  0.76123988  1.0
  O  O19  1  0.85674724  0.93858721  0.23876012  1.0
  O  O20  1  0.23116964  0.96637959  0.79907632  1.0
  O  O21  1  0.76883036  0.46637959  0.20092368  1.0
  O  O22  1  0.47377995  0.36918533  0.90824521  1.0
  O  O23  1  0.52622005  0.86918533  0.09175479  1.0
  O  O24  1  0.21079785  0.40251345  0.04531293  1.0
  O  O25  1  0.78920215  0.90251345  0.95468707  1.0
  O  O26  1  0.14734040  0.92890858  0.04955989  1.0
  O  O27  1  0.85265960  0.42890858  0.95044011  1.0
  O  O28  1  0.08642336  0.28709043  0.22575805  1.0
  O  O29  1  0.91357664  0.78709043  0.77424195  1.0
