# generated using pymatgen
data_Ba3Zr2S7
_symmetry_space_group_name_H-M   'P 1'
_cell_length_a   13.35875465
_cell_length_b   13.35875465
_cell_length_c   13.35875465
_cell_angle_alpha   158.31597874
_cell_angle_beta   158.31597874
_cell_angle_gamma   30.85462836
_symmetry_Int_Tables_number   1
_chemical_formula_structural   Ba3Zr2S7
_chemical_formula_sum   'Ba3 Zr2 S7'
_cell_volume   325.24105707
_cell_formula_units_Z   1
loop_
 _symmetry_equiv_pos_site_id
 _symmetry_equiv_pos_as_xyz
  1  'x, y, z'
loop_
 _atom_site_type_symbol
 _atom_site_label
 _atom_site_symmetry_multiplicity
 _atom_site_fract_x
 _atom_site_fract_y
 _atom_site_fract_z
 _atom_site_occupancy
  Ba  Ba0  1  0.68093572  0.68093572  1.00000000  1.0
  Ba  Ba1  1  0.31906428  0.31906428  0.00000000  1.0
  Ba  Ba2  1  0.50000000  0.50000000  1.00000000  1.0
  Zr  Zr3  1  0.89971392  0.89971392  1.00000000  1.0
  Zr  Zr4  1  0.10028608  0.10028608  0.00000000  1.0
  S  S5  1  0.40371303  0.90371303  0.50000000  1.0
  S  S6  1  0.59628697  0.09628697  0.50000000  1.0
  S  S7  1  0.90371303  0.40371303  0.50000000  1.0
  S  S8  1  0.09628697  0.59628697  0.50000000  1.0
  S  S9  1  0.80179291  0.80179291  1.00000000  1.0
  S  S10  1  0.19820709  0.19820709  0.00000000  1.0
  S  S11  1  0.00000000  0.00000000  0.00000000  1.0
