# generated using pymatgen
data_AlBiSeCl4
_symmetry_space_group_name_H-M   'P 1'
_cell_length_a   10.56404480
_cell_length_b   10.56404480
_cell_length_c   10.56404480
_cell_angle_alpha   106.98886058
_cell_angle_beta   106.98886058
_cell_angle_gamma   114.55889923
_symmetry_Int_Tables_number   1
_chemical_formula_structural   AlBiSeCl4
_chemical_formula_sum   'Al4 Bi4 Se4 Cl16'
_cell_volume   902.13081938
_cell_formula_units_Z   4
loop_
 _symmetry_equiv_pos_site_id
 _symmetry_equiv_pos_as_xyz
  1  'x, y, z'
loop_
 _atom_site_type_symbol
 _atom_site_label
 _atom_site_symmetry_multiplicity
 _atom_site_fract_x
 _atom_site_fract_y
 _atom_site_fract_z
 _atom_site_occupancy
  Al  Al0  1  0.66623418  1.05874043  0.78524466  1.0
  Al  Al1  1  0.11901048  0.33376582  0.39250625  1.0
  Al  Al2  1  1.27349577  1.88098952  1.21475534  1.0
  Al  Al3  1  0.94125957  0.72650423  0.60749375  1.0
  Bi  Bi4  1  0.46627767  0.67458222  0.90433103  1.0
  Bi  Bi5  1  1.43805336  1.53372233  1.20830455  1.0
  Bi  Bi6  1  0.77025119  1.56194664  1.09566897  1.0
  Bi  Bi7  1  1.32541778  1.22974881  1.79169545  1.0
  Se  Se8  1  0.51349785  1.31647959  1.09164792  1.0
  Se  Se9  1  1.57815007  1.48650215  1.80298175  1.0
  Se  Se10  1  1.22483167  1.42184993  0.90835208  1.0
  Se  Se11  1  0.68352041  0.77516833  1.19701825  1.0
  Cl  Cl12  1  0.73454293  0.95064194  0.91798045  1.0
  Cl  Cl13  1  0.18343752  0.26545707  0.21609902  1.0
  Cl  Cl14  1  1.03266150  0.81656248  1.08201955  1.0
  Cl  Cl15  1  1.04935806  0.96733850  1.78390098  1.0
  Cl  Cl16  1  0.42808066  0.99154136  0.74666568  1.0
  Cl  Cl17  1  0.31858502  0.57191934  0.56346070  1.0
  Cl  Cl18  1  1.24487568  0.68141498  1.25333432  1.0
  Cl  Cl19  1  1.00845864  0.75512432  1.43653930  1.0
  Cl  Cl20  1  0.39597842  0.90419549  1.08032869  1.0
  Cl  Cl21  1  0.68435027  0.60402158  0.50821707  1.0
  Cl  Cl22  1  0.82386680  1.31564973  0.91967131  1.0
  Cl  Cl23  1  1.09580451  1.17613320  0.49178293  1.0
  Cl  Cl24  1  0.90190413  1.31660835  1.30110986  1.0
  Cl  Cl25  1  1.39920573  1.09809587  1.41470421  1.0
  Cl  Cl26  1  1.01549848  1.60079427  0.69889014  1.0
  Cl  Cl27  1  0.68339165  0.98450152  1.58529579  1.0
