# generated using pymatgen
data_SbTeIr
_symmetry_space_group_name_H-M   'P 1'
_cell_length_a   6.49455336
_cell_length_b   6.49455336
_cell_length_c   6.49455336
_cell_angle_alpha   90.00000000
_cell_angle_beta   90.00000000
_cell_angle_gamma   90.00000000
_symmetry_Int_Tables_number   1
_chemical_formula_structural   SbTeIr
_chemical_formula_sum   'Sb4 Te4 Ir4'
_cell_volume   273.93521674
_cell_formula_units_Z   4
loop_
 _symmetry_equiv_pos_site_id
 _symmetry_equiv_pos_as_xyz
  1  'x, y, z'
loop_
 _atom_site_type_symbol
 _atom_site_label
 _atom_site_symmetry_multiplicity
 _atom_site_fract_x
 _atom_site_fract_y
 _atom_site_fract_z
 _atom_site_occupancy
  Sb  Sb0  1  0.12740855  0.62740855  0.87259145  1.0
  Sb  Sb1  1  0.62740855  0.87259145  0.12740855  1.0
  Sb  Sb2  1  0.87259145  0.12740855  0.62740855  1.0
  Sb  Sb3  1  0.37259145  0.37259145  0.37259145  1.0
  Te  Te4  1  0.87442463  0.37442463  0.12557537  1.0
  Te  Te5  1  0.37442463  0.12557537  0.87442463  1.0
  Te  Te6  1  0.12557537  0.87442463  0.37442463  1.0
  Te  Te7  1  0.62557537  0.62557537  0.62557537  1.0
  Ir  Ir8  1  0.50277597  1.00277597  0.49722403  1.0
  Ir  Ir9  1  1.00277597  0.49722403  0.50277597  1.0
  Ir  Ir10  1  0.49722403  0.50277597  1.00277597  1.0
  Ir  Ir11  1  -0.00277597  -0.00277597  -0.00277597  1.0
