# generated using pymatgen
data_K2GdNb5O15
_symmetry_space_group_name_H-M   'P 1'
_cell_length_a   12.67238065
_cell_length_b   12.67238065
_cell_length_c   3.93265954
_cell_angle_alpha   90.00000000
_cell_angle_beta   90.00000000
_cell_angle_gamma   90.00000000
_symmetry_Int_Tables_number   1
_chemical_formula_structural   K2GdNb5O15
_chemical_formula_sum   'K4 Gd2 Nb10 O30'
_cell_volume   631.54277338
_cell_formula_units_Z   2
loop_
 _symmetry_equiv_pos_site_id
 _symmetry_equiv_pos_as_xyz
  1  'x, y, z'
loop_
 _atom_site_type_symbol
 _atom_site_label
 _atom_site_symmetry_multiplicity
 _atom_site_fract_x
 _atom_site_fract_y
 _atom_site_fract_z
 _atom_site_occupancy
  K  K0  1  0.32908275  0.17091725  0.50000000  1.0
  K  K1  1  0.82908275  0.32908275  0.50000000  1.0
  K  K2  1  0.67091725  0.82908275  0.50000000  1.0
  K  K3  1  0.17091725  0.67091725  0.50000000  1.0
  Gd  Gd4  1  0.50000000  0.50000000  0.50000000  1.0
  Gd  Gd5  1  0.00000000  0.00000000  0.50000000  1.0
  Nb  Nb6  1  0.42392360  0.71272506  0.00000000  1.0
  Nb  Nb7  1  0.92392360  0.78727494  0.00000000  1.0
  Nb  Nb8  1  0.28727494  0.42392360  0.00000000  1.0
  Nb  Nb9  1  0.78727494  0.07607640  0.00000000  1.0
  Nb  Nb10  1  0.57607640  0.28727494  0.00000000  1.0
  Nb  Nb11  1  0.07607640  0.21272506  0.00000000  1.0
  Nb  Nb12  1  0.71272506  0.57607640  0.00000000  1.0
  Nb  Nb13  1  0.21272506  0.92392360  0.00000000  1.0
  Nb  Nb14  1  0.50000000  0.00000000  0.00000000  1.0
  Nb  Nb15  1  0.00000000  0.50000000  0.00000000  1.0
  O  O16  1  0.42196165  0.68875006  0.50000000  1.0
  O  O17  1  0.92196165  0.81124994  0.50000000  1.0
  O  O18  1  0.31124994  0.42196165  0.50000000  1.0
  O  O19  1  0.81124994  0.07803835  0.50000000  1.0
  O  O20  1  0.57803835  0.31124994  0.50000000  1.0
  O  O21  1  0.07803835  0.18875006  0.50000000  1.0
  O  O22  1  0.68875006  0.57803835  0.50000000  1.0
  O  O23  1  0.18875006  0.92196165  0.50000000  1.0
  O  O24  1  0.50072018  0.84239042  0.00000000  1.0
  O  O25  1  0.00072018  0.65760958  0.00000000  1.0
  O  O26  1  0.15760958  0.50072018  0.00000000  1.0
  O  O27  1  0.65760958  -0.00072018  0.00000000  1.0
  O  O28  1  0.49927982  0.15760958  0.00000000  1.0
  O  O29  1  -0.00072018  0.34239042  0.00000000  1.0
  O  O30  1  0.84239042  0.49927982  0.00000000  1.0
  O  O31  1  0.34239042  0.00072018  0.00000000  1.0
  O  O32  1  0.36773201  0.55965119  0.00000000  1.0
  O  O33  1  0.86773201  0.94034881  0.00000000  1.0
  O  O34  1  0.44034881  0.36773201  0.00000000  1.0
  O  O35  1  0.94034881  0.13226799  0.00000000  1.0
  O  O36  1  0.63226799  0.44034881  0.00000000  1.0
  O  O37  1  0.13226799  0.05965119  0.00000000  1.0
  O  O38  1  0.55965119  0.63226799  0.00000000  1.0
  O  O39  1  0.05965119  0.86773201  0.00000000  1.0
  O  O40  1  0.78418094  0.71581906  0.00000000  1.0
  O  O41  1  0.28418094  0.78418094  0.00000000  1.0
  O  O42  1  0.21581906  0.28418094  0.00000000  1.0
  O  O43  1  0.71581906  0.21581906  0.00000000  1.0
  O  O44  1  0.50000000  0.00000000  0.50000000  1.0
  O  O45  1  0.00000000  0.50000000  0.50000000  1.0
