# generated using pymatgen
data_SrSiPt
_symmetry_space_group_name_H-M   'P 1'
_cell_length_a   6.54339062
_cell_length_b   6.54339062
_cell_length_c   6.54339062
_cell_angle_alpha   90.00000000
_cell_angle_beta   90.00000000
_cell_angle_gamma   90.00000000
_symmetry_Int_Tables_number   1
_chemical_formula_structural   SrSiPt
_chemical_formula_sum   'Sr4 Si4 Pt4'
_cell_volume   280.16155672
_cell_formula_units_Z   4
loop_
 _symmetry_equiv_pos_site_id
 _symmetry_equiv_pos_as_xyz
  1  'x, y, z'
loop_
 _atom_site_type_symbol
 _atom_site_label
 _atom_site_symmetry_multiplicity
 _atom_site_fract_x
 _atom_site_fract_y
 _atom_site_fract_z
 _atom_site_occupancy
  Sr  Sr0  1  0.61991639  1.11991639  0.38008361  1.0
  Sr  Sr1  1  1.11991639  0.38008361  0.61991639  1.0
  Sr  Sr2  1  0.38008361  0.61991639  1.11991639  1.0
  Sr  Sr3  1  -0.11991639  -0.11991639  -0.11991639  1.0
  Si  Si4  1  0.91022697  0.41022697  0.08977303  1.0
  Si  Si5  1  0.41022697  0.08977303  0.91022697  1.0
  Si  Si6  1  0.08977303  0.91022697  0.41022697  1.0
  Si  Si7  1  0.58977303  0.58977303  0.58977303  1.0
  Pt  Pt8  1  0.33828765  0.83828765  0.66171235  1.0
  Pt  Pt9  1  0.83828765  0.66171235  0.33828765  1.0
  Pt  Pt10  1  0.66171235  0.33828765  0.83828765  1.0
  Pt  Pt11  1  0.16171235  0.16171235  0.16171235  1.0
