# generated using pymatgen
data_Hf2SiH
_symmetry_space_group_name_H-M   'P 1'
_cell_length_a   5.36086294
_cell_length_b   5.36086294
_cell_length_c   5.36086294
_cell_angle_alpha   104.89522573
_cell_angle_beta   104.89522573
_cell_angle_gamma   119.07115754
_symmetry_Int_Tables_number   1
_chemical_formula_structural   Hf2SiH
_chemical_formula_sum   'Hf4 Si2 H2'
_cell_volume   116.06548433
_cell_formula_units_Z   2
loop_
 _symmetry_equiv_pos_site_id
 _symmetry_equiv_pos_as_xyz
  1  'x, y, z'
loop_
 _atom_site_type_symbol
 _atom_site_label
 _atom_site_symmetry_multiplicity
 _atom_site_fract_x
 _atom_site_fract_y
 _atom_site_fract_z
 _atom_site_occupancy
  Hf  Hf0  1  0.83602870  0.33602870  1.17205740  1.0
  Hf  Hf1  1  0.66397130  0.83602870  0.50000000  1.0
  Hf  Hf2  1  0.33602870  0.16397130  0.50000000  1.0
  Hf  Hf3  1  1.16397130  0.66397130  0.82794260  1.0
  Si  Si4  1  0.25000000  0.25000000  0.00000000  1.0
  Si  Si5  1  0.75000000  0.75000000  0.00000000  1.0
  H  H6  1  0.75000000  0.25000000  0.50000000  1.0
  H  H7  1  0.25000000  0.75000000  0.50000000  1.0
