# generated using pymatgen
data_Sc2P7Ru12
_symmetry_space_group_name_H-M   'P 1'
_cell_length_a   9.34224541
_cell_length_b   9.34224541
_cell_length_c   3.90587138
_cell_angle_alpha   90.00000000
_cell_angle_beta   90.00000000
_cell_angle_gamma   120.00000000
_symmetry_Int_Tables_number   1
_chemical_formula_structural   Sc2P7Ru12
_chemical_formula_sum   'Sc2 P7 Ru12'
_cell_volume   295.22362781
_cell_formula_units_Z   1
loop_
 _symmetry_equiv_pos_site_id
 _symmetry_equiv_pos_as_xyz
  1  'x, y, z'
loop_
 _atom_site_type_symbol
 _atom_site_label
 _atom_site_symmetry_multiplicity
 _atom_site_fract_x
 _atom_site_fract_y
 _atom_site_fract_z
 _atom_site_occupancy
  Sc  Sc0  1  0.33333333  0.66666667  0.00000000  1.0
  Sc  Sc1  1  0.66666667  0.33333333  0.50000000  1.0
  P  P2  1  0.00000000  0.00000000  0.00000000  1.0
  P  P3  1  0.42691582  0.30888860  0.00000000  1.0
  P  P4  1  0.88197278  0.57308418  0.00000000  1.0
  P  P5  1  0.69111140  0.11802722  0.00000000  1.0
  P  P6  1  0.28240755  0.87989219  0.50000000  1.0
  P  P7  1  0.59748464  0.71759245  0.50000000  1.0
  P  P8  1  0.12010781  0.40251536  0.50000000  1.0
  Ru  Ru9  1  0.93206076  0.35924749  0.00000000  1.0
  Ru  Ru10  1  0.42718673  0.06793924  0.00000000  1.0
  Ru  Ru11  1  0.64075251  0.57281327  0.00000000  1.0
  Ru  Ru12  1  0.10938885  0.83546770  0.00000000  1.0
  Ru  Ru13  1  0.72607885  0.89061115  0.00000000  1.0
  Ru  Ru14  1  0.16453230  0.27392115  0.00000000  1.0
  Ru  Ru15  1  0.39255876  0.44575946  0.50000000  1.0
  Ru  Ru16  1  0.05320071  0.60744124  0.50000000  1.0
  Ru  Ru17  1  0.55424054  0.94679929  0.50000000  1.0
  Ru  Ru18  1  0.20899908  0.08657960  0.50000000  1.0
  Ru  Ru19  1  0.87758051  0.79100092  0.50000000  1.0
  Ru  Ru20  1  0.91342040  0.12241949  0.50000000  1.0
