# generated using pymatgen
data_CsY(SeO3)2
_symmetry_space_group_name_H-M   'P 1'
_cell_length_a   8.99958685
_cell_length_b   8.99958685
_cell_length_c   8.99958685
_cell_angle_alpha   90.00000000
_cell_angle_beta   90.00000000
_cell_angle_gamma   90.00000000
_symmetry_Int_Tables_number   1
_chemical_formula_structural   CsY(SeO3)2
_chemical_formula_sum   'Cs4 Y4 Se8 O24'
_cell_volume   728.89960985
_cell_formula_units_Z   4
loop_
 _symmetry_equiv_pos_site_id
 _symmetry_equiv_pos_as_xyz
  1  'x, y, z'
loop_
 _atom_site_type_symbol
 _atom_site_label
 _atom_site_symmetry_multiplicity
 _atom_site_fract_x
 _atom_site_fract_y
 _atom_site_fract_z
 _atom_site_occupancy
  Cs  Cs0  1  0.50000000  0.00000000  0.50000000  1.0
  Cs  Cs1  1  0.50000000  0.50000000  0.00000000  1.0
  Cs  Cs2  1  0.00000000  0.00000000  0.00000000  1.0
  Cs  Cs3  1  0.00000000  0.50000000  0.50000000  1.0
  Y  Y4  1  0.00000000  0.50000000  0.00000000  1.0
  Y  Y5  1  0.00000000  0.00000000  0.50000000  1.0
  Y  Y6  1  0.50000000  0.50000000  0.50000000  1.0
  Y  Y7  1  0.50000000  0.00000000  0.00000000  1.0
  Se  Se8  1  0.26671376  0.76671376  0.73328624  1.0
  Se  Se9  1  0.26671376  0.73328624  0.23328624  1.0
  Se  Se10  1  0.76671376  0.76671376  0.76671376  1.0
  Se  Se11  1  0.76671376  0.73328624  0.26671376  1.0
  Se  Se12  1  0.73328624  0.26671376  0.76671376  1.0
  Se  Se13  1  0.73328624  0.23328624  0.26671376  1.0
  Se  Se14  1  0.23328624  0.26671376  0.73328624  1.0
  Se  Se15  1  0.23328624  0.23328624  0.23328624  1.0
  O  O16  1  0.42010328  0.68295884  0.65447759  1.0
  O  O17  1  0.42010328  0.81704116  0.15447759  1.0
  O  O18  1  0.92010328  0.68295884  0.84552241  1.0
  O  O19  1  0.92010328  0.81704116  0.34552241  1.0
  O  O20  1  0.18295884  0.84552241  0.57989672  1.0
  O  O21  1  0.18295884  0.65447759  0.07989672  1.0
  O  O22  1  0.68295884  0.84552241  0.92010328  1.0
  O  O23  1  0.68295884  0.65447759  0.42010328  1.0
  O  O24  1  0.34552241  0.92010328  0.81704116  1.0
  O  O25  1  0.34552241  0.57989672  0.31704116  1.0
  O  O26  1  0.84552241  0.92010328  0.68295884  1.0
  O  O27  1  0.84552241  0.57989672  0.18295884  1.0
  O  O28  1  0.57989672  0.18295884  0.84552241  1.0
  O  O29  1  0.57989672  0.31704116  0.34552241  1.0
  O  O30  1  0.07989672  0.18295884  0.65447759  1.0
  O  O31  1  0.07989672  0.31704116  0.15447759  1.0
  O  O32  1  0.81704116  0.34552241  0.92010328  1.0
  O  O33  1  0.81704116  0.15447759  0.42010328  1.0
  O  O34  1  0.31704116  0.34552241  0.57989672  1.0
  O  O35  1  0.31704116  0.15447759  0.07989672  1.0
  O  O36  1  0.65447759  0.42010328  0.68295884  1.0
  O  O37  1  0.65447759  0.07989672  0.18295884  1.0
  O  O38  1  0.15447759  0.42010328  0.81704116  1.0
  O  O39  1  0.15447759  0.07989672  0.31704116  1.0
