# generated using pymatgen
data_MgAlPO5
_symmetry_space_group_name_H-M   'P 1'
_cell_length_a   7.20476310
_cell_length_b   10.47002873
_cell_length_c   5.31551270
_cell_angle_alpha   90.00000000
_cell_angle_beta   90.20388223
_cell_angle_gamma   90.00000000
_symmetry_Int_Tables_number   1
_chemical_formula_structural   MgAlPO5
_chemical_formula_sum   'Mg4 Al4 P4 O20'
_cell_volume   400.96825407
_cell_formula_units_Z   4
loop_
 _symmetry_equiv_pos_site_id
 _symmetry_equiv_pos_as_xyz
  1  'x, y, z'
loop_
 _atom_site_type_symbol
 _atom_site_label
 _atom_site_symmetry_multiplicity
 _atom_site_fract_x
 _atom_site_fract_y
 _atom_site_fract_z
 _atom_site_occupancy
  Mg  Mg0  1  0.98020618  0.64262911  0.90706863  1.0
  Mg  Mg1  1  0.98020618  0.85737089  0.40706863  1.0
  Mg  Mg2  1  0.01979382  0.14262911  0.59293137  1.0
  Mg  Mg3  1  0.01979382  0.35737089  0.09293137  1.0
  Al  Al4  1  0.64117176  0.82953187  0.82613868  1.0
  Al  Al5  1  0.64117176  0.67046813  0.32613868  1.0
  Al  Al6  1  0.35882824  0.32953187  0.67386132  1.0
  Al  Al7  1  0.35882824  0.17046813  0.17386132  1.0
  P  P8  1  0.77891365  0.40707894  0.58772477  1.0
  P  P9  1  0.77891365  0.09292106  0.08772477  1.0
  P  P10  1  0.22108635  0.90707894  0.91227523  1.0
  P  P11  1  0.22108635  0.59292106  0.41227523  1.0
  O  O12  1  0.91000139  0.18449174  0.94072229  1.0
  O  O13  1  0.91000139  0.31550826  0.44072229  1.0
  O  O14  1  0.08999861  0.68449174  0.55927771  1.0
  O  O15  1  0.08999861  0.81550826  0.05927771  1.0
  O  O16  1  0.88248676  0.46035100  0.82246078  1.0
  O  O17  1  0.88248676  0.03964900  0.32246078  1.0
  O  O18  1  0.11751324  0.96035100  0.67753922  1.0
  O  O19  1  0.11751324  0.53964900  0.17753922  1.0
  O  O20  1  0.72992295  0.78967434  0.52904706  1.0
  O  O21  1  0.72992295  0.71032566  0.02904706  1.0
  O  O22  1  0.27007705  0.28967434  0.97095294  1.0
  O  O23  1  0.27007705  0.21032566  0.47095294  1.0
  O  O24  1  0.72362973  0.98284646  0.90827895  1.0
  O  O25  1  0.72362973  0.51715354  0.40827895  1.0
  O  O26  1  0.27637027  0.48284646  0.59172105  1.0
  O  O27  1  0.27637027  0.01715354  0.09172105  1.0
  O  O28  1  0.39681803  0.83410507  0.82853942  1.0
  O  O29  1  0.39681803  0.66589493  0.32853942  1.0
  O  O30  1  0.60318197  0.33410507  0.67146058  1.0
  O  O31  1  0.60318197  0.16589493  0.17146058  1.0
