# generated using pymatgen
data_NaLiV2O6
_symmetry_space_group_name_H-M   'P 1'
_cell_length_a   7.01844370
_cell_length_b   7.01844370
_cell_length_c   5.88937659
_cell_angle_alpha   74.20392231
_cell_angle_beta   105.79607769
_cell_angle_gamma   96.52110597
_symmetry_Int_Tables_number   1
_chemical_formula_structural   NaLiV2O6
_chemical_formula_sum   'Na2 Li2 V4 O12'
_cell_volume   268.36124916
_cell_formula_units_Z   2
loop_
 _symmetry_equiv_pos_site_id
 _symmetry_equiv_pos_as_xyz
  1  'x, y, z'
loop_
 _atom_site_type_symbol
 _atom_site_label
 _atom_site_symmetry_multiplicity
 _atom_site_fract_x
 _atom_site_fract_y
 _atom_site_fract_z
 _atom_site_occupancy
  Na  Na0  1  0.77800552  0.77800552  0.25000000  1.0
  Na  Na1  1  0.22199448  0.22199448  0.75000000  1.0
  Li  Li2  1  0.39614767  0.39614767  0.25000000  1.0
  Li  Li3  1  0.60385233  0.60385233  0.75000000  1.0
  V  V4  1  1.30055656  -0.12046061  0.25226066  1.0
  V  V5  1  1.12046061  -0.30055656  0.75226066  1.0
  V  V6  1  0.87953939  0.30055656  0.24773934  1.0
  V  V7  1  0.69944344  0.12046061  0.74773934  1.0
  O  O8  1  1.47611142  -0.28540144  0.36191359  1.0
  O  O9  1  1.28540144  -0.47611142  0.86191359  1.0
  O  O10  1  0.71459856  0.47611142  0.13808641  1.0
  O  O11  1  0.52388858  0.28540144  0.63808641  1.0
  O  O12  1  0.85983517  0.15468129  0.54483268  1.0
  O  O13  1  0.84531871  0.14016483  0.04483268  1.0
  O  O14  1  1.15468129  -0.14016483  0.95516732  1.0
  O  O15  1  1.14016483  -0.15468129  0.45516732  1.0
  O  O16  1  0.39732389  0.10843753  0.20508643  1.0
  O  O17  1  0.89156247  0.60267611  0.70508643  1.0
  O  O18  1  1.10843753  -0.60267611  0.29491357  1.0
  O  O19  1  1.60267611  -0.10843753  0.79491357  1.0
