# generated using pymatgen
data_Na2H6Pt
_symmetry_space_group_name_H-M   'P 1'
_cell_length_a   5.20354484
_cell_length_b   5.20354484
_cell_length_c   5.20354484
_cell_angle_alpha   60.00000000
_cell_angle_beta   60.00000000
_cell_angle_gamma   60.00000000
_symmetry_Int_Tables_number   1
_chemical_formula_structural   Na2H6Pt
_chemical_formula_sum   'Na2 H6 Pt1'
_cell_volume   99.62834272
_cell_formula_units_Z   1
loop_
 _symmetry_equiv_pos_site_id
 _symmetry_equiv_pos_as_xyz
  1  'x, y, z'
loop_
 _atom_site_type_symbol
 _atom_site_label
 _atom_site_symmetry_multiplicity
 _atom_site_fract_x
 _atom_site_fract_y
 _atom_site_fract_z
 _atom_site_occupancy
  Na  Na0  1  0.75000000  0.75000000  -0.25000000  1.0
  Na  Na1  1  1.25000000  0.25000000  0.25000000  1.0
  H  H2  1  -0.77599830  0.77599830  0.77599830  1.0
  H  H3  1  -0.22400170  0.22400170  0.77599830  1.0
  H  H4  1  0.77599830  0.77599830  -0.77599830  1.0
  H  H5  1  0.22400170  1.22400170  -0.22400170  1.0
  H  H6  1  0.22400170  -0.22400170  1.22400170  1.0
  H  H7  1  -0.22400170  0.22400170  0.22400170  1.0
  Pt  Pt8  1  0.00000000  0.00000000  0.00000000  1.0
