# generated using pymatgen
data_Sc2CoSi2
_symmetry_space_group_name_H-M   'P 1'
_cell_length_a   5.32080744
_cell_length_b   5.32080744
_cell_length_c   9.42992656
_cell_angle_alpha   63.43425899
_cell_angle_beta   116.56574101
_cell_angle_gamma   136.36362294
_symmetry_Int_Tables_number   1
_chemical_formula_structural   Sc2CoSi2
_chemical_formula_sum   'Sc4 Co2 Si4'
_cell_volume   161.44492308
_cell_formula_units_Z   2
loop_
 _symmetry_equiv_pos_site_id
 _symmetry_equiv_pos_as_xyz
  1  'x, y, z'
loop_
 _atom_site_type_symbol
 _atom_site_label
 _atom_site_symmetry_multiplicity
 _atom_site_fract_x
 _atom_site_fract_y
 _atom_site_fract_z
 _atom_site_occupancy
  Sc  Sc0  1  0.99993252  -0.99993252  0.67186412  1.0
  Sc  Sc1  1  0.00006748  -0.00006748  0.32813588  1.0
  Sc  Sc2  1  0.81599986  0.18400014  0.89483647  1.0
  Sc  Sc3  1  1.18400014  -0.18400014  0.10516353  1.0
  Co  Co4  1  0.72599942  -0.72599942  0.37561440  1.0
  Co  Co5  1  0.27400058  -0.27400058  0.62438560  1.0
  Si  Si6  1  0.64496577  0.35503423  0.56929549  1.0
  Si  Si7  1  1.35503423  -0.35503423  0.43070451  1.0
  Si  Si8  1  0.51188584  0.48811416  0.87466052  1.0
  Si  Si9  1  1.48811416  -0.48811416  0.12533948  1.0
