# generated using pymatgen
data_Li4CO4
_symmetry_space_group_name_H-M   'P 1'
_cell_length_a   4.75468124
_cell_length_b   4.75468124
_cell_length_c   4.78215177
_cell_angle_alpha   65.08908444
_cell_angle_beta   114.91091556
_cell_angle_gamma   121.54948923
_symmetry_Int_Tables_number   1
_chemical_formula_structural   Li4CO4
_chemical_formula_sum   'Li4 C1 O4'
_cell_volume   80.68902526
_cell_formula_units_Z   1
loop_
 _symmetry_equiv_pos_site_id
 _symmetry_equiv_pos_as_xyz
  1  'x, y, z'
loop_
 _atom_site_type_symbol
 _atom_site_label
 _atom_site_symmetry_multiplicity
 _atom_site_fract_x
 _atom_site_fract_y
 _atom_site_fract_z
 _atom_site_occupancy
  Li  Li0  1  0.24676605  -0.06097412  0.53599874  1.0
  Li  Li1  1  0.93902588  0.24676605  0.46400126  1.0
  Li  Li2  1  0.51259226  -0.23106519  0.09446732  1.0
  Li  Li3  1  0.76893481  0.51259226  0.90553268  1.0
  C  C4  1  0.22571387  0.22571387  -0.00000000  1.0
  O  O5  1  0.15273416  -0.04589119  0.89267515  1.0
  O  O6  1  0.95410881  0.15273416  0.10732485  1.0
  O  O7  1  1.29129557  0.52636858  0.74369781  1.0
  O  O8  1  0.52636858  0.29129557  0.25630219  1.0
