# generated using pymatgen
data_Ni3GeTe2
_symmetry_space_group_name_H-M   'P 1'
_cell_length_a   3.96384822
_cell_length_b   3.96384822
_cell_length_c   16.81011937
_cell_angle_alpha   90.00000000
_cell_angle_beta   90.00000000
_cell_angle_gamma   120.00000000
_symmetry_Int_Tables_number   1
_chemical_formula_structural   Ni3GeTe2
_chemical_formula_sum   'Ni6 Ge2 Te4'
_cell_volume   228.73649510
_cell_formula_units_Z   2
loop_
 _symmetry_equiv_pos_site_id
 _symmetry_equiv_pos_as_xyz
  1  'x, y, z'
loop_
 _atom_site_type_symbol
 _atom_site_label
 _atom_site_symmetry_multiplicity
 _atom_site_fract_x
 _atom_site_fract_y
 _atom_site_fract_z
 _atom_site_occupancy
  Ni  Ni0  1  0.00000000  0.00000000  0.33004360  1.0
  Ni  Ni1  1  0.00000000  0.00000000  0.16995640  1.0
  Ni  Ni2  1  0.00000000  -0.00000000  0.83004360  1.0
  Ni  Ni3  1  -0.00000000  -0.00000000  0.66995640  1.0
  Ni  Ni4  1  0.33333333  0.66666667  0.25000000  1.0
  Ni  Ni5  1  0.66666667  0.33333333  0.75000000  1.0
  Ge  Ge6  1  0.33333333  0.66666667  0.75000000  1.0
  Ge  Ge7  1  0.66666667  0.33333333  0.25000000  1.0
  Te  Te8  1  0.33333333  0.66666667  0.40504706  1.0
  Te  Te9  1  0.33333333  0.66666667  0.09495294  1.0
  Te  Te10  1  0.66666667  0.33333333  0.90504706  1.0
  Te  Te11  1  0.66666667  0.33333333  0.59495294  1.0
