# generated using pymatgen
data_CrH17N4Cl2O3
_symmetry_space_group_name_H-M   'P 1'
_cell_length_a   10.43549066
_cell_length_b   7.70907688
_cell_length_c   7.09614302
_cell_angle_alpha   106.36443801
_cell_angle_beta   105.85898025
_cell_angle_gamma   91.62962893
_symmetry_Int_Tables_number   1
_chemical_formula_structural   CrH17N4Cl2O3
_chemical_formula_sum   'Cr2 H34 N8 Cl4 O6'
_cell_volume   523.44638911
_cell_formula_units_Z   2
loop_
 _symmetry_equiv_pos_site_id
 _symmetry_equiv_pos_as_xyz
  1  'x, y, z'
loop_
 _atom_site_type_symbol
 _atom_site_label
 _atom_site_symmetry_multiplicity
 _atom_site_fract_x
 _atom_site_fract_y
 _atom_site_fract_z
 _atom_site_occupancy
  Cr  Cr0  1  -0.85126166  -0.99441742  -0.98829945  1.0
  Cr  Cr1  1  -0.14873834  -0.00558258  -0.01170055  1.0
  H  H2  1  -0.95970858  -0.07280322  -0.73367313  1.0
  H  H3  1  -0.04029142  -0.92719678  -0.26632687  1.0
  H  H4  1  -0.72568006  -0.66554976  -0.90388013  1.0
  H  H5  1  -0.27431994  -0.33445024  -0.09611987  1.0
  H  H6  1  -0.84700565  -0.63668051  -0.79584504  1.0
  H  H7  1  -0.15299435  -0.36331949  -0.20415496  1.0
  H  H8  1  -0.88215851  -0.67360230  -1.04706878  1.0
  H  H9  1  -0.11784149  -0.32639770  0.04706878  1.0
  H  H10  1  -0.75354404  -0.30831184  -0.06181514  1.0
  H  H11  1  -0.24645596  -0.69168816  -0.93818486  1.0
  H  H12  1  -0.91622533  -0.35644117  -0.17473753  1.0
  H  H13  1  -0.08377467  -0.64355883  -0.82526247  1.0
  H  H14  1  -0.85647747  -0.31426799  -0.92231177  1.0
  H  H15  1  -0.14352253  -0.68573201  -0.07768823  1.0
  H  H16  1  -0.69455401  -0.87905005  -0.61540013  1.0
  H  H17  1  -0.30544599  -0.12094995  -0.38459987  1.0
  H  H18  1  -0.59662231  -0.89159243  -0.76487493  1.0
  H  H19  1  -0.40337769  -0.10840757  -0.23512507  1.0
  H  H20  1  -0.64434030  -0.07916043  -0.71684902  1.0
  H  H21  1  -0.35565970  -0.92083957  -0.28315098  1.0
  H  H22  1  -0.81953758  -0.10594432  -0.35051542  1.0
  H  H23  1  -0.18046242  -0.89405568  -0.64948458  1.0
  H  H24  1  -0.66909294  -0.08110850  -0.18946981  1.0
  H  H25  1  -0.33090706  -0.91889150  -0.81053019  1.0
  H  H26  1  -0.73419017  -0.90058017  -0.24895695  1.0
  H  H27  1  -0.26580983  -0.09941983  -0.75104305  1.0
  H  H28  1  -0.30922332  -0.40878663  -0.67302959  1.0
  H  H29  1  -0.69077668  -0.59121337  -0.32697041  1.0
  H  H30  1  -0.16067466  -0.31217978  -0.59689632  1.0
  H  H31  1  -0.83932534  -0.68782022  -0.40310368  1.0
  H  H32  1  -0.55150908  -0.40085393  -0.71913459  1.0
  H  H33  1  -0.44849092  -0.59914607  -0.28086541  1.0
  H  H34  1  -0.60103240  -0.32406240  -0.52845011  1.0
  H  H35  1  -0.39896760  -0.67593760  -0.47154989  1.0
  N  N36  1  -0.82365982  -0.71042756  -0.92460890  1.0
  N  N37  1  -0.17634018  -0.28957244  -0.07539110  1.0
  N  N38  1  -0.84561487  -0.27550647  -0.04525799  1.0
  N  N39  1  -0.15438513  -0.72449353  -0.95474201  1.0
  N  N40  1  -0.67583391  -0.96074733  -0.74601736  1.0
  N  N41  1  -0.32416609  -0.03925267  -0.25398264  1.0
  N  N42  1  -0.75546538  -1.01889848  -0.21655823  1.0
  N  N43  1  -0.24453462  0.01889848  -0.78344177  1.0
  Cl  Cl44  1  -0.95718675  -0.32996697  -0.65049993  1.0
  Cl  Cl45  1  -0.04281325  -0.67003303  -0.34950007  1.0
  Cl  Cl46  1  -0.45179583  -0.66286955  -0.80542369  1.0
  Cl  Cl47  1  -0.54820417  -0.33713045  -0.19457631  1.0
  O  O48  1  -0.96917777  -0.98089396  -0.80802164  1.0
  O  O49  1  -0.03082223  -0.01910604  -0.19197836  1.0
  O  O50  1  -0.25485530  -0.28899548  -0.61192397  1.0
  O  O51  1  -0.74514470  -0.71100452  -0.38807603  1.0
  O  O52  1  -0.60849061  -0.31238364  -0.66545324  1.0
  O  O53  1  -0.39150939  -0.68761636  -0.33454676  1.0
