# generated using pymatgen
data_CdGeO3
_symmetry_space_group_name_H-M   'P 1'
_cell_length_a   5.89375249
_cell_length_b   5.89375249
_cell_length_c   5.89375249
_cell_angle_alpha   52.17786983
_cell_angle_beta   52.17786983
_cell_angle_gamma   52.17786983
_symmetry_Int_Tables_number   1
_chemical_formula_structural   CdGeO3
_chemical_formula_sum   'Cd2 Ge2 O6'
_cell_volume   118.15508682
_cell_formula_units_Z   2
loop_
 _symmetry_equiv_pos_site_id
 _symmetry_equiv_pos_as_xyz
  1  'x, y, z'
loop_
 _atom_site_type_symbol
 _atom_site_label
 _atom_site_symmetry_multiplicity
 _atom_site_fract_x
 _atom_site_fract_y
 _atom_site_fract_z
 _atom_site_occupancy
  Cd  Cd0  1  0.36764143  0.36764143  -0.63235857  1.0
  Cd  Cd1  1  0.63235857  0.63235857  -0.36764143  1.0
  Ge  Ge2  1  0.15960639  0.15960639  0.15960639  1.0
  Ge  Ge3  1  0.84039361  -0.15960639  -0.15960639  1.0
  O  O4  1  0.43958423  0.03536445  -0.18820543  1.0
  O  O5  1  1.18820543  -0.43958423  -0.03536445  1.0
  O  O6  1  0.96463555  0.18820543  -0.43958423  1.0
  O  O7  1  0.56041577  -0.03536445  0.18820543  1.0
  O  O8  1  0.81179457  -0.56041577  0.03536445  1.0
  O  O9  1  1.03536445  -0.18820543  -0.56041577  1.0
