# generated using pymatgen
data_ClO6
_symmetry_space_group_name_H-M   'P 1'
_cell_length_a   5.16995995
_cell_length_b   8.48365725
_cell_length_c   10.88214373
_cell_angle_alpha   90.00000000
_cell_angle_beta   90.00000000
_cell_angle_gamma   90.00000000
_symmetry_Int_Tables_number   1
_chemical_formula_structural   ClO6
_chemical_formula_sum   'Cl4 O24'
_cell_volume   477.29265468
_cell_formula_units_Z   4
loop_
 _symmetry_equiv_pos_site_id
 _symmetry_equiv_pos_as_xyz
  1  'x, y, z'
loop_
 _atom_site_type_symbol
 _atom_site_label
 _atom_site_symmetry_multiplicity
 _atom_site_fract_x
 _atom_site_fract_y
 _atom_site_fract_z
 _atom_site_occupancy
  O  O0  1  0.44541636  0.42769119  0.57346973  1.0
  O  O1  1  0.44541636  0.07230881  0.57346973  1.0
  O  O2  1  0.94541636  0.42769119  0.92653027  1.0
  O  O3  1  0.94541636  0.07230881  0.92653027  1.0
  O  O4  1  0.55458364  0.92769119  0.42653027  1.0
  O  O5  1  0.55458364  0.57230881  0.42653027  1.0
  O  O6  1  0.05458364  0.92769119  0.07346973  1.0
  O  O7  1  0.05458364  0.57230881  0.07346973  1.0
  O  O8  1  -0.13871903  0.25000000  0.55472180  1.0
  O  O9  1  0.36128097  0.25000000  0.94527820  1.0
  O  O10  1  1.13871903  0.75000000  0.44527820  1.0
  O  O11  1  0.63871903  0.75000000  0.05472180  1.0
  O  O12  1  0.77464872  0.25000000  0.05375986  1.0
  O  O13  1  0.27464872  0.25000000  0.44624014  1.0
  O  O14  1  0.22535128  0.75000000  0.94624014  1.0
  O  O15  1  0.72535128  0.75000000  0.55375986  1.0
  O  O16  1  0.41425408  0.39184281  0.13613808  1.0
  O  O17  1  0.41425408  0.10815719  0.13613808  1.0
  O  O18  1  0.91425408  0.39184281  0.36386192  1.0
  O  O19  1  0.91425408  0.10815719  0.36386192  1.0
  O  O20  1  0.58574592  0.89184281  0.86386192  1.0
  O  O21  1  0.58574592  0.60815719  0.86386192  1.0
  O  O22  1  0.08574592  0.89184281  0.63613808  1.0
  O  O23  1  0.08574592  0.60815719  0.63613808  1.0
  Cl  Cl24  1  -0.02313789  0.25000000  0.43277164  1.0
  Cl  Cl25  1  0.47686211  0.25000000  1.06722836  1.0
  Cl  Cl26  1  1.02313789  0.75000000  0.56722836  1.0
  Cl  Cl27  1  0.52313789  0.75000000  -0.06722836  1.0
