# generated using pymatgen
data_TlV3O8
_symmetry_space_group_name_H-M   'P 1'
_cell_length_a   5.14654402
_cell_length_b   8.76931599
_cell_length_c   8.29074161
_cell_angle_alpha   90.00000000
_cell_angle_beta   102.51759561
_cell_angle_gamma   90.00000000
_symmetry_Int_Tables_number   1
_chemical_formula_structural   TlV3O8
_chemical_formula_sum   'Tl2 V6 O16'
_cell_volume   365.28069034
_cell_formula_units_Z   2
loop_
 _symmetry_equiv_pos_site_id
 _symmetry_equiv_pos_as_xyz
  1  'x, y, z'
loop_
 _atom_site_type_symbol
 _atom_site_label
 _atom_site_symmetry_multiplicity
 _atom_site_fract_x
 _atom_site_fract_y
 _atom_site_fract_z
 _atom_site_occupancy
  Tl  Tl0  1  0.49553718  0.25000000  0.45595703  1.0
  Tl  Tl1  1  0.50446282  0.75000000  0.54404297  1.0
  V  V2  1  0.04140185  0.43961509  0.82562706  1.0
  V  V3  1  0.04140185  0.06038491  0.82562706  1.0
  V  V4  1  0.95859815  0.93961509  0.17437294  1.0
  V  V5  1  0.95859815  0.56038491  0.17437294  1.0
  V  V6  1  0.58506145  0.25000000  0.94970140  1.0
  V  V7  1  0.41493855  0.75000000  0.05029860  1.0
  O  O8  1  0.90148711  0.95243670  0.67360181  1.0
  O  O9  1  0.90148711  0.54756330  0.67360181  1.0
  O  O10  1  0.09851289  0.45243670  0.32639819  1.0
  O  O11  1  0.09851289  0.04756330  0.32639819  1.0
  O  O12  1  0.83291357  0.40837543  0.99842781  1.0
  O  O13  1  0.83291357  0.09162457  0.99842781  1.0
  O  O14  1  0.16708643  0.90837543  0.00157219  1.0
  O  O15  1  0.16708643  0.59162457  0.00157219  1.0
  O  O16  1  0.36055223  0.39216835  0.80315925  1.0
  O  O17  1  0.36055223  0.10783165  0.80315925  1.0
  O  O18  1  0.63944777  0.89216835  0.19684075  1.0
  O  O19  1  0.63944777  0.60783165  0.19684075  1.0
  O  O20  1  0.89755299  0.25000000  0.75866518  1.0
  O  O21  1  0.10244701  0.75000000  0.24133482  1.0
  O  O22  1  0.45124190  0.25000000  0.10630402  1.0
  O  O23  1  0.54875810  0.75000000  0.89369598  1.0
