# generated using pymatgen
data_VS4N3
_symmetry_space_group_name_H-M   'P 1'
_cell_length_a   7.09503320
_cell_length_b   8.11639126
_cell_length_c   9.32806312
_cell_angle_alpha   90.00000000
_cell_angle_beta   90.00000000
_cell_angle_gamma   90.00000000
_symmetry_Int_Tables_number   1
_chemical_formula_structural   VS4N3
_chemical_formula_sum   'V4 S16 N12'
_cell_volume   537.16645325
_cell_formula_units_Z   4
loop_
 _symmetry_equiv_pos_site_id
 _symmetry_equiv_pos_as_xyz
  1  'x, y, z'
loop_
 _atom_site_type_symbol
 _atom_site_label
 _atom_site_symmetry_multiplicity
 _atom_site_fract_x
 _atom_site_fract_y
 _atom_site_fract_z
 _atom_site_occupancy
  V  V0  1  0.06840857  0.75000000  -0.05024204  1.0
  V  V1  1  0.56840857  0.75000000  0.55024204  1.0
  V  V2  1  0.93159143  0.25000000  1.05024204  1.0
  V  V3  1  0.43159143  0.25000000  0.44975796  1.0
  S  S4  1  0.16620649  1.04836956  0.94650266  1.0
  S  S5  1  0.16620649  0.45163044  0.94650266  1.0
  S  S6  1  0.66620649  1.04836956  0.55349734  1.0
  S  S7  1  0.66620649  0.45163044  0.55349734  1.0
  S  S8  1  0.83379351  0.54836956  0.05349734  1.0
  S  S9  1  0.83379351  -0.04836956  0.05349734  1.0
  S  S10  1  0.33379351  0.54836956  0.44650266  1.0
  S  S11  1  0.33379351  -0.04836956  0.44650266  1.0
  S  S12  1  0.41742500  0.75000000  0.88007482  1.0
  S  S13  1  0.91742500  0.75000000  0.61992518  1.0
  S  S14  1  0.58257500  0.25000000  0.11992518  1.0
  S  S15  1  0.08257500  0.25000000  0.38007482  1.0
  S  S16  1  0.24428033  0.75000000  0.20075940  1.0
  S  S17  1  0.74428033  0.75000000  0.29924060  1.0
  S  S18  1  0.75571967  0.25000000  0.79924060  1.0
  S  S19  1  0.25571967  0.25000000  0.70075940  1.0
  N  N20  1  0.23038994  0.42064562  0.77694028  1.0
  N  N21  1  0.23038994  0.07935438  0.77694028  1.0
  N  N22  1  0.73038994  0.42064562  0.72305972  1.0
  N  N23  1  0.73038994  0.07935438  0.72305972  1.0
  N  N24  1  0.76961006  0.92064562  0.22305972  1.0
  N  N25  1  0.76961006  0.57935438  0.22305972  1.0
  N  N26  1  0.26961006  0.92064562  0.27694028  1.0
  N  N27  1  0.26961006  0.57935438  0.27694028  1.0
  N  N28  1  0.46882518  0.75000000  0.71440902  1.0
  N  N29  1  0.96882518  0.75000000  0.78559098  1.0
  N  N30  1  0.53117482  0.25000000  0.28559098  1.0
  N  N31  1  0.03117482  0.25000000  0.21440902  1.0
