# generated using pymatgen
data_K2Sn3O7
_symmetry_space_group_name_H-M   'P 1'
_cell_length_a   17.12558134
_cell_length_b   3.19371478
_cell_length_c   12.88421905
_cell_angle_alpha   90.00000000
_cell_angle_beta   90.00000000
_cell_angle_gamma   90.00000000
_symmetry_Int_Tables_number   1
_chemical_formula_structural   K2Sn3O7
_chemical_formula_sum   'K8 Sn12 O28'
_cell_volume   704.69234057
_cell_formula_units_Z   4
loop_
 _symmetry_equiv_pos_site_id
 _symmetry_equiv_pos_as_xyz
  1  'x, y, z'
loop_
 _atom_site_type_symbol
 _atom_site_label
 _atom_site_symmetry_multiplicity
 _atom_site_fract_x
 _atom_site_fract_y
 _atom_site_fract_z
 _atom_site_occupancy
  K  K0  1  0.80618403  0.25000000  0.06027836  1.0
  K  K1  1  0.30618403  0.25000000  0.43972164  1.0
  K  K2  1  0.19381597  0.75000000  0.93972164  1.0
  K  K3  1  0.69381597  0.75000000  0.56027836  1.0
  K  K4  1  0.93347313  0.25000000  0.60758031  1.0
  K  K5  1  0.43347313  0.25000000  0.89241969  1.0
  K  K6  1  0.06652687  0.75000000  0.39241969  1.0
  K  K7  1  0.56652687  0.75000000  0.10758031  1.0
  Sn  Sn8  1  0.51891894  0.25000000  0.38819207  1.0
  Sn  Sn9  1  0.01891894  0.25000000  0.11180793  1.0
  Sn  Sn10  1  0.48108106  0.75000000  0.61180793  1.0
  Sn  Sn11  1  0.98108106  0.75000000  0.88819207  1.0
  Sn  Sn12  1  0.79111036  0.25000000  0.79211402  1.0
  Sn  Sn13  1  0.29111036  0.25000000  0.70788598  1.0
  Sn  Sn14  1  0.20888964  0.75000000  0.20788598  1.0
  Sn  Sn15  1  0.70888964  0.75000000  0.29211402  1.0
  Sn  Sn16  1  0.87619806  0.25000000  0.33460123  1.0
  Sn  Sn17  1  0.37619806  0.25000000  0.16539877  1.0
  Sn  Sn18  1  0.12380194  0.75000000  0.66539877  1.0
  Sn  Sn19  1  0.62380194  0.75000000  0.83460123  1.0
  O  O20  1  0.59419738  0.25000000  0.93003071  1.0
  O  O21  1  0.09419738  0.25000000  0.56996929  1.0
  O  O22  1  0.40580262  0.75000000  0.06996929  1.0
  O  O23  1  0.90580262  0.75000000  0.43003071  1.0
  O  O24  1  0.67327290  0.25000000  0.74069945  1.0
  O  O25  1  0.17327290  0.25000000  0.75930055  1.0
  O  O26  1  0.32672710  0.75000000  0.25930055  1.0
  O  O27  1  0.82672710  0.75000000  0.24069945  1.0
  O  O28  1  0.67938959  0.25000000  0.19727405  1.0
  O  O29  1  0.17938959  0.25000000  0.30272595  1.0
  O  O30  1  0.32061041  0.75000000  0.80272595  1.0
  O  O31  1  0.82061041  0.75000000  0.69727405  1.0
  O  O32  1  0.75147122  0.25000000  0.39006867  1.0
  O  O33  1  0.25147122  0.25000000  0.10993133  1.0
  O  O34  1  0.24852878  0.75000000  0.60993133  1.0
  O  O35  1  0.74852878  0.75000000  0.89006867  1.0
  O  O36  1  0.90029454  0.25000000  0.86964853  1.0
  O  O37  1  0.40029454  0.25000000  0.63035147  1.0
  O  O38  1  0.09970546  0.75000000  0.13035147  1.0
  O  O39  1  0.59970546  0.75000000  0.36964853  1.0
  O  O40  1  0.98131193  0.25000000  0.25875990  1.0
  O  O41  1  0.48131193  0.25000000  0.24124010  1.0
  O  O42  1  0.01868807  0.75000000  0.74124010  1.0
  O  O43  1  0.51868807  0.75000000  0.75875990  1.0
  O  O44  1  0.05140907  0.25000000  0.94661232  1.0
  O  O45  1  0.55140907  0.25000000  0.55338768  1.0
  O  O46  1  0.94859093  0.75000000  0.05338768  1.0
  O  O47  1  0.44859093  0.75000000  0.44661232  1.0
