# generated using pymatgen
data_MnMoO4
_symmetry_space_group_name_H-M   'P 1'
_cell_length_a   7.11784486
_cell_length_b   7.11784486
_cell_length_c   7.17306523
_cell_angle_alpha   78.01964352
_cell_angle_beta   101.98035648
_cell_angle_gamma   95.53186611
_symmetry_Int_Tables_number   1
_chemical_formula_structural   MnMoO4
_chemical_formula_sum   'Mn4 Mo4 O16'
_cell_volume   347.21526805
_cell_formula_units_Z   4
loop_
 _symmetry_equiv_pos_site_id
 _symmetry_equiv_pos_as_xyz
  1  'x, y, z'
loop_
 _atom_site_type_symbol
 _atom_site_label
 _atom_site_symmetry_multiplicity
 _atom_site_fract_x
 _atom_site_fract_y
 _atom_site_fract_z
 _atom_site_occupancy
  Mn  Mn0  1  0.79326173  0.20673827  0.63615114  1.0
  Mn  Mn1  1  1.20673827  -0.20673827  0.36384886  1.0
  Mn  Mn2  1  0.81465188  0.81465188  0.00000000  1.0
  Mn  Mn3  1  0.18534812  0.18534812  0.00000000  1.0
  Mo  Mo4  1  1.27066532  -0.27066532  0.90601467  1.0
  Mo  Mo5  1  0.72933468  0.27066532  0.09398533  1.0
  Mo  Mo6  1  0.74875712  0.74875712  0.50000000  1.0
  Mo  Mo7  1  0.25124288  0.25124288  0.50000000  1.0
  O  O8  1  1.80396035  -0.11049049  0.69195759  1.0
  O  O9  1  1.11049049  -0.80396035  0.69195759  1.0
  O  O10  1  0.88950951  0.80396035  0.30804241  1.0
  O  O11  1  0.19603965  0.11049049  0.30804241  1.0
  O  O12  1  1.51826598  -0.21227865  0.97088099  1.0
  O  O13  1  1.21227865  -0.51826598  0.97088099  1.0
  O  O14  1  0.78772135  0.51826598  0.02911901  1.0
  O  O15  1  0.48173402  0.21227865  0.02911901  1.0
  O  O16  1  0.49445673  0.21632415  0.60668860  1.0
  O  O17  1  0.78367585  0.50554327  0.60668860  1.0
  O  O18  1  1.21632415  -0.50554327  0.39331140  1.0
  O  O19  1  1.50554327  -0.21632415  0.39331140  1.0
  O  O20  1  0.85774730  0.14225270  0.96245353  1.0
  O  O21  1  1.14225270  -0.14225270  0.03754647  1.0
  O  O22  1  0.79803894  0.20196106  0.34992821  1.0
  O  O23  1  1.20196106  -0.20196106  0.65007179  1.0
