# generated using pymatgen
data_La2CdPd2
_symmetry_space_group_name_H-M   'P 1'
_cell_length_a   7.92549548
_cell_length_b   7.92549548
_cell_length_c   4.00286226
_cell_angle_alpha   90.00000000
_cell_angle_beta   90.00000000
_cell_angle_gamma   90.00000000
_symmetry_Int_Tables_number   1
_chemical_formula_structural   La2CdPd2
_chemical_formula_sum   'La4 Cd2 Pd4'
_cell_volume   251.43370297
_cell_formula_units_Z   2
loop_
 _symmetry_equiv_pos_site_id
 _symmetry_equiv_pos_as_xyz
  1  'x, y, z'
loop_
 _atom_site_type_symbol
 _atom_site_label
 _atom_site_symmetry_multiplicity
 _atom_site_fract_x
 _atom_site_fract_y
 _atom_site_fract_z
 _atom_site_occupancy
  La  La0  1  0.32543304  0.17456696  0.50000000  1.0
  La  La1  1  0.82543304  0.32543304  0.50000000  1.0
  La  La2  1  0.67456696  0.82543304  0.50000000  1.0
  La  La3  1  0.17456696  0.67456696  0.50000000  1.0
  Cd  Cd4  1  0.50000000  0.50000000  0.00000000  1.0
  Cd  Cd5  1  0.00000000  0.00000000  0.00000000  1.0
  Pd  Pd6  1  0.87223114  0.62776886  0.00000000  1.0
  Pd  Pd7  1  0.37223114  0.87223114  0.00000000  1.0
  Pd  Pd8  1  0.12776886  0.37223114  0.00000000  1.0
  Pd  Pd9  1  0.62776886  0.12776886  0.00000000  1.0
