# generated using pymatgen
data_BaLa4Cu5O12
_symmetry_space_group_name_H-M   'P 1'
_cell_length_a   8.72814021
_cell_length_b   3.88714631
_cell_length_c   8.72791056
_cell_angle_alpha   90.00000000
_cell_angle_beta   90.00014920
_cell_angle_gamma   90.00000000
_symmetry_Int_Tables_number   1
_chemical_formula_structural   BaLa4Cu5O12
_chemical_formula_sum   'Ba1 La4 Cu5 O12'
_cell_volume   296.11669169
_cell_formula_units_Z   1
loop_
 _symmetry_equiv_pos_site_id
 _symmetry_equiv_pos_as_xyz
  1  'x, y, z'
loop_
 _atom_site_type_symbol
 _atom_site_label
 _atom_site_symmetry_multiplicity
 _atom_site_fract_x
 _atom_site_fract_y
 _atom_site_fract_z
 _atom_site_occupancy
  Ba  Ba0  1  0.50000000  0.50000000  0.50000000  1.0
  La  La1  1  0.87309445  0.50000000  0.70114222  1.0
  La  La2  1  0.12690555  0.50000000  0.29885778  1.0
  La  La3  1  0.29886970  0.50000000  0.87309698  1.0
  La  La4  1  0.70113030  0.50000000  0.12690302  1.0
  Cu  Cu5  1  0.83484844  -0.00000000  0.40638369  1.0
  Cu  Cu6  1  0.16515156  -0.00000000  0.59361631  1.0
  Cu  Cu7  1  0.59361656  -0.00000000  0.83484716  1.0
  Cu  Cu8  1  0.40638344  -0.00000000  0.16515284  1.0
  Cu  Cu9  1  0.00000000  0.00000000  0.00000000  1.0
  O  O10  1  0.84670288  0.50000000  0.40966568  1.0
  O  O11  1  0.15329712  0.50000000  0.59033432  1.0
  O  O12  1  0.59032995  0.50000000  0.84670770  1.0
  O  O13  1  0.40967005  0.50000000  0.15329230  1.0
  O  O14  1  0.94889284  0.00000000  0.21517231  1.0
  O  O15  1  0.05110716  0.00000000  0.78482769  1.0
  O  O16  1  0.78482972  0.00000000  0.94887995  1.0
  O  O17  1  0.21517028  0.00000000  0.05112005  1.0
  O  O18  1  0.73451103  0.00000000  0.60387533  1.0
  O  O19  1  0.26548897  0.00000000  0.39612467  1.0
  O  O20  1  0.39613092  -0.00000000  0.73450666  1.0
  O  O21  1  0.60386908  -0.00000000  0.26549334  1.0
