# generated using pymatgen
data_Sr2CuWO6
_symmetry_space_group_name_H-M   'P 1'
_cell_length_a   5.80782066
_cell_length_b   5.80782066
_cell_length_c   5.80782066
_cell_angle_alpha   124.36967348
_cell_angle_beta   124.36967348
_cell_angle_gamma   82.58470091
_symmetry_Int_Tables_number   1
_chemical_formula_structural   Sr2CuWO6
_chemical_formula_sum   'Sr2 Cu1 W1 O6'
_cell_volume   128.19504045
_cell_formula_units_Z   1
loop_
 _symmetry_equiv_pos_site_id
 _symmetry_equiv_pos_as_xyz
  1  'x, y, z'
loop_
 _atom_site_type_symbol
 _atom_site_label
 _atom_site_symmetry_multiplicity
 _atom_site_fract_x
 _atom_site_fract_y
 _atom_site_fract_z
 _atom_site_occupancy
  Sr  Sr0  1  0.25000000  0.75000000  0.50000000  1.0
  Sr  Sr1  1  0.75000000  0.25000000  0.50000000  1.0
  Cu  Cu2  1  0.50000000  0.50000000  1.00000000  1.0
  W  W3  1  0.00000000  0.00000000  0.00000000  1.0
  O  O4  1  0.70072848  0.80537571  1.50610418  1.0
  O  O5  1  0.19462429  0.70072848  0.89535277  1.0
  O  O6  1  0.29927152  0.19462429  0.49389582  1.0
  O  O7  1  0.80537571  0.29927152  1.10464723  1.0
  O  O8  1  0.77780671  0.77780671  1.00000000  1.0
  O  O9  1  0.22219329  0.22219329  0.00000000  1.0
