# generated using pymatgen
data_Ba4NaGe3S10Cl
_symmetry_space_group_name_H-M   'P 1'
_cell_length_a   9.96636928
_cell_length_b   9.96636928
_cell_length_c   12.36575920
_cell_angle_alpha   90.00000000
_cell_angle_beta   90.00000000
_cell_angle_gamma   120.00000000
_symmetry_Int_Tables_number   1
_chemical_formula_structural   Ba4NaGe3S10Cl
_chemical_formula_sum   'Ba8 Na2 Ge6 S20 Cl2'
_cell_volume   1063.71520236
_cell_formula_units_Z   2
loop_
 _symmetry_equiv_pos_site_id
 _symmetry_equiv_pos_as_xyz
  1  'x, y, z'
loop_
 _atom_site_type_symbol
 _atom_site_label
 _atom_site_symmetry_multiplicity
 _atom_site_fract_x
 _atom_site_fract_y
 _atom_site_fract_z
 _atom_site_occupancy
  Ba  Ba0  1  0.73866049  0.64728736  0.00394791  1.0
  Ba  Ba1  1  0.64728736  0.90862686  0.50394791  1.0
  Ba  Ba2  1  0.90862686  0.26133951  0.00394791  1.0
  Ba  Ba3  1  0.35271264  0.09137314  0.00394791  1.0
  Ba  Ba4  1  0.26133951  0.35271264  0.50394791  1.0
  Ba  Ba5  1  0.09137314  0.73866049  0.50394791  1.0
  Ba  Ba6  1  0.33333333  0.66666667  0.19255229  1.0
  Ba  Ba7  1  0.66666667  0.33333333  0.69255229  1.0
  Na  Na8  1  0.00000000  0.00000000  0.25551465  1.0
  Na  Na9  1  0.00000000  0.00000000  0.75551465  1.0
  Ge  Ge10  1  0.67440084  0.55457805  0.34415294  1.0
  Ge  Ge11  1  0.55457805  0.88017722  0.84415294  1.0
  Ge  Ge12  1  0.88017722  0.32559916  0.34415294  1.0
  Ge  Ge13  1  0.44542195  0.11982278  0.34415294  1.0
  Ge  Ge14  1  0.32559916  0.44542195  0.84415294  1.0
  Ge  Ge15  1  0.11982278  0.67440084  0.84415294  1.0
  S  S16  1  0.25159982  0.94344568  0.24729150  1.0
  S  S17  1  0.94344568  0.69184586  0.74729150  1.0
  S  S18  1  0.69184586  0.74840018  0.24729150  1.0
  S  S19  1  0.05655432  0.30815414  0.24729150  1.0
  S  S20  1  0.74840018  0.05655432  0.74729150  1.0
  S  S21  1  0.30815414  0.25159982  0.74729150  1.0
  S  S22  1  0.08795224  0.66939557  0.01905564  1.0
  S  S23  1  0.66939557  0.58144332  0.51905564  1.0
  S  S24  1  0.58144332  0.91204776  0.01905564  1.0
  S  S25  1  0.33060443  0.41855668  0.01905564  1.0
  S  S26  1  0.91204776  0.33060443  0.51905564  1.0
  S  S27  1  0.41855668  0.08795224  0.51905564  1.0
  S  S28  1  0.88653250  0.54490802  0.28150083  1.0
  S  S29  1  0.54490802  0.65837552  0.78150083  1.0
  S  S30  1  0.65837552  0.11346750  0.28150083  1.0
  S  S31  1  0.45509198  0.34162448  0.28150083  1.0
  S  S32  1  0.11346750  0.45509198  0.78150083  1.0
  S  S33  1  0.34162448  0.88653250  0.78150083  1.0
  S  S34  1  0.33333333  0.66666667  0.43607185  1.0
  S  S35  1  0.66666667  0.33333333  0.93607185  1.0
  Cl  Cl36  1  0.00000000  0.00000000  -0.00998524  1.0
  Cl  Cl37  1  0.00000000  0.00000000  0.49001476  1.0
