# generated using pymatgen
data_SmZn3
_symmetry_space_group_name_H-M   'P 1'
_cell_length_a   6.85861535
_cell_length_b   4.55153975
_cell_length_c   10.16899335
_cell_angle_alpha   90.00000000
_cell_angle_beta   90.00000000
_cell_angle_gamma   90.00000000
_symmetry_Int_Tables_number   1
_chemical_formula_structural   SmZn3
_chemical_formula_sum   'Sm4 Zn12'
_cell_volume   317.44811321
_cell_formula_units_Z   4
loop_
 _symmetry_equiv_pos_site_id
 _symmetry_equiv_pos_as_xyz
  1  'x, y, z'
loop_
 _atom_site_type_symbol
 _atom_site_label
 _atom_site_symmetry_multiplicity
 _atom_site_fract_x
 _atom_site_fract_y
 _atom_site_fract_z
 _atom_site_occupancy
  Sm  Sm0  1  0.72404602  0.75000000  0.33741058  1.0
  Sm  Sm1  1  0.22404602  0.75000000  0.16258942  1.0
  Sm  Sm2  1  0.27595398  0.25000000  0.66258942  1.0
  Sm  Sm3  1  0.77595398  0.25000000  0.83741058  1.0
  Zn  Zn4  1  0.95857174  0.75000000  0.61047472  1.0
  Zn  Zn5  1  0.45857174  0.75000000  0.88952528  1.0
  Zn  Zn6  1  0.04142826  0.25000000  0.38952528  1.0
  Zn  Zn7  1  0.54142826  0.25000000  0.11047472  1.0
  Zn  Zn8  1  0.77271038  0.75000000  0.03970067  1.0
  Zn  Zn9  1  0.27271038  0.75000000  0.46029933  1.0
  Zn  Zn10  1  0.22728962  0.25000000  0.96029933  1.0
  Zn  Zn11  1  0.72728962  0.25000000  0.53970067  1.0
  Zn  Zn12  1  0.58326375  0.75000000  0.64094398  1.0
  Zn  Zn13  1  0.08326375  0.75000000  0.85905602  1.0
  Zn  Zn14  1  0.41673625  0.25000000  0.35905602  1.0
  Zn  Zn15  1  0.91673625  0.25000000  0.14094398  1.0
