# generated using pymatgen
data_TiCl3
_symmetry_space_group_name_H-M   'P 1'
_cell_length_a   6.09473731
_cell_length_b   6.09473731
_cell_length_c   20.23660930
_cell_angle_alpha   89.59814080
_cell_angle_beta   90.40185920
_cell_angle_gamma   60.31632067
_symmetry_Int_Tables_number   1
_chemical_formula_structural   TiCl3
_chemical_formula_sum   'Ti6 Cl18'
_cell_volume   652.99750905
_cell_formula_units_Z   6
loop_
 _symmetry_equiv_pos_site_id
 _symmetry_equiv_pos_as_xyz
  1  'x, y, z'
loop_
 _atom_site_type_symbol
 _atom_site_label
 _atom_site_symmetry_multiplicity
 _atom_site_fract_x
 _atom_site_fract_y
 _atom_site_fract_z
 _atom_site_occupancy
  Ti  Ti0  1  0.65892905  0.02242854  0.83369518  1.0
  Ti  Ti1  1  0.97757146  -0.65892905  0.83369518  1.0
  Ti  Ti2  1  1.02242854  -0.34107095  0.16630482  1.0
  Ti  Ti3  1  0.34107095  -0.02242854  0.16630482  1.0
  Ti  Ti4  1  0.65921587  -0.34078413  0.50000000  1.0
  Ti  Ti5  1  0.34078413  0.34078413  0.50000000  1.0
  Cl  Cl6  1  0.66908961  -0.31601086  0.76546263  1.0
  Cl  Cl7  1  1.31601086  -0.66908961  0.76546263  1.0
  Cl  Cl8  1  0.68398914  -0.33091039  0.23453737  1.0
  Cl  Cl9  1  0.33091039  0.31601086  0.23453737  1.0
  Cl  Cl10  1  0.64902450  -0.00223537  0.56823191  1.0
  Cl  Cl11  1  1.00223537  -0.64902450  0.56823191  1.0
  Cl  Cl12  1  0.99776463  -0.35097550  0.43176809  1.0
  Cl  Cl13  1  0.35097550  0.00223537  0.43176809  1.0
  Cl  Cl14  1  0.32048691  0.03258411  0.90192359  1.0
  Cl  Cl15  1  0.96741589  -0.32048691  0.90192359  1.0
  Cl  Cl16  1  1.03258411  -0.67951309  0.09807641  1.0
  Cl  Cl17  1  0.67951309  -0.03258411  0.09807641  1.0
  Cl  Cl18  1  0.96316961  -0.96316961  0.76169682  1.0
  Cl  Cl19  1  0.03683039  -0.03683039  0.23830318  1.0
  Cl  Cl20  1  0.67339466  -0.67339466  0.90570887  1.0
  Cl  Cl21  1  0.32660534  -0.32660534  0.09429113  1.0
  Cl  Cl22  1  0.64496543  -0.64496543  0.42796610  1.0
  Cl  Cl23  1  0.35503457  -0.35503457  0.57203390  1.0
