# generated using pymatgen
data_Rb2PdSe2
_symmetry_space_group_name_H-M   'P 1'
_cell_length_a   6.70281299
_cell_length_b   6.70281299
_cell_length_c   6.70281299
_cell_angle_alpha   146.53888930
_cell_angle_beta   110.08872995
_cell_angle_gamma   79.76212930
_symmetry_Int_Tables_number   1
_chemical_formula_structural   Rb2PdSe2
_chemical_formula_sum   'Rb2 Pd1 Se2'
_cell_volume   152.45761277
_cell_formula_units_Z   1
loop_
 _symmetry_equiv_pos_site_id
 _symmetry_equiv_pos_as_xyz
  1  'x, y, z'
loop_
 _atom_site_type_symbol
 _atom_site_label
 _atom_site_symmetry_multiplicity
 _atom_site_fract_x
 _atom_site_fract_y
 _atom_site_fract_z
 _atom_site_occupancy
  Rb  Rb0  1  0.69503669  0.19503669  0.50000000  1.0
  Rb  Rb1  1  1.30496331  0.80496331  0.50000000  1.0
  Pd  Pd2  1  0.00000000  0.00000000  0.00000000  1.0
  Se  Se3  1  0.21127445  0.50000000  0.71127445  1.0
  Se  Se4  1  0.78872555  0.50000000  1.28872555  1.0
