# generated using pymatgen
data_H2CN3Cl
_symmetry_space_group_name_H-M   'P 1'
_cell_length_a   4.47301484
_cell_length_b   10.28761276
_cell_length_c   9.16806130
_cell_angle_alpha   90.00000000
_cell_angle_beta   98.63612796
_cell_angle_gamma   90.00000000
_symmetry_Int_Tables_number   1
_chemical_formula_structural   H2CN3Cl
_chemical_formula_sum   'H8 C4 N12 Cl4'
_cell_volume   417.10005980
_cell_formula_units_Z   4
loop_
 _symmetry_equiv_pos_site_id
 _symmetry_equiv_pos_as_xyz
  1  'x, y, z'
loop_
 _atom_site_type_symbol
 _atom_site_label
 _atom_site_symmetry_multiplicity
 _atom_site_fract_x
 _atom_site_fract_y
 _atom_site_fract_z
 _atom_site_occupancy
  H  H0  1  0.95863446  0.46307775  0.25339282  1.0
  H  H1  1  0.95863446  0.03692225  0.75339282  1.0
  H  H2  1  0.04136554  0.96307775  0.24660718  1.0
  H  H3  1  0.04136554  0.53692225  0.74660718  1.0
  H  H4  1  0.80377539  0.31136288  0.19323810  1.0
  H  H5  1  0.80377539  0.18863712  0.69323810  1.0
  H  H6  1  0.19622461  0.81136288  0.30676190  1.0
  H  H7  1  0.19622461  0.68863712  0.80676190  1.0
  C  C8  1  0.84621024  0.35429036  0.41828899  1.0
  C  C9  1  0.84621024  0.14570964  0.91828899  1.0
  C  C10  1  0.15378976  0.85429036  0.08171101  1.0
  C  C11  1  0.15378976  0.64570964  0.58171101  1.0
  N  N12  1  0.95011105  0.05047079  0.02706954  1.0
  N  N13  1  0.95011105  0.44952921  0.52706954  1.0
  N  N14  1  0.04988895  0.55047079  0.47293046  1.0
  N  N15  1  0.04988895  0.94952921  0.97293046  1.0
  N  N16  1  0.86030685  0.37780641  0.27651826  1.0
  N  N17  1  0.86030685  0.12219359  0.77651826  1.0
  N  N18  1  0.13969315  0.87780641  0.22348174  1.0
  N  N19  1  0.13969315  0.62219359  0.72348174  1.0
  N  N20  1  0.74308964  0.25258014  0.48267233  1.0
  N  N21  1  0.74308964  0.24741986  0.98267233  1.0
  N  N22  1  0.25691036  0.75258014  0.01732767  1.0
  N  N23  1  0.25691036  0.74741986  0.51732767  1.0
  Cl  Cl24  1  0.60678725  0.13248709  0.36010060  1.0
  Cl  Cl25  1  0.60678725  0.36751291  0.86010060  1.0
  Cl  Cl26  1  0.39321275  0.63248709  0.13989940  1.0
  Cl  Cl27  1  0.39321275  0.86751291  0.63989940  1.0
