# generated using pymatgen
data_LaMg2H7
_symmetry_space_group_name_H-M   'P 1'
_cell_length_a   6.34917466
_cell_length_b   6.34917466
_cell_length_c   9.55119442
_cell_angle_alpha   90.00000000
_cell_angle_beta   90.00000000
_cell_angle_gamma   90.00000000
_symmetry_Int_Tables_number   1
_chemical_formula_structural   LaMg2H7
_chemical_formula_sum   'La4 Mg8 H28'
_cell_volume   385.02792958
_cell_formula_units_Z   4
loop_
 _symmetry_equiv_pos_site_id
 _symmetry_equiv_pos_as_xyz
  1  'x, y, z'
loop_
 _atom_site_type_symbol
 _atom_site_label
 _atom_site_symmetry_multiplicity
 _atom_site_fract_x
 _atom_site_fract_y
 _atom_site_fract_z
 _atom_site_occupancy
  La  La0  1  0.22817387  0.77182613  0.25000000  1.0
  La  La1  1  0.72817387  0.72817387  0.50000000  1.0
  La  La2  1  0.77182613  0.22817387  0.75000000  1.0
  La  La3  1  0.27182613  0.27182613  0.00000000  1.0
  Mg  Mg4  1  0.47696661  0.76241839  0.89954294  1.0
  Mg  Mg5  1  0.97696661  0.73758161  0.85045706  1.0
  Mg  Mg6  1  0.23758161  0.52303339  0.60045706  1.0
  Mg  Mg7  1  0.73758161  0.97696661  0.14954294  1.0
  Mg  Mg8  1  0.52303339  0.23758161  0.39954294  1.0
  Mg  Mg9  1  0.02303339  0.26241839  0.35045706  1.0
  Mg  Mg10  1  0.76241839  0.47696661  0.10045706  1.0
  Mg  Mg11  1  0.26241839  0.02303339  0.64954294  1.0
  H  H12  1  0.46776845  0.53567851  0.12061943  1.0
  H  H13  1  0.96776845  0.96432149  0.62938057  1.0
  H  H14  1  0.46432149  0.53223155  0.37938057  1.0
  H  H15  1  0.96432149  0.96776845  0.37061943  1.0
  H  H16  1  0.53223155  0.46432149  0.62061943  1.0
  H  H17  1  0.03223155  0.03567851  0.12938057  1.0
  H  H18  1  0.53567851  0.46776845  0.87938057  1.0
  H  H19  1  0.03567851  0.03223155  0.87061943  1.0
  H  H20  1  0.43192073  0.93697278  0.07259326  1.0
  H  H21  1  0.93192073  0.56302722  0.67740674  1.0
  H  H22  1  0.06302722  0.56807927  0.42740674  1.0
  H  H23  1  0.56302722  0.93192073  0.32259326  1.0
  H  H24  1  0.56807927  0.06302722  0.57259326  1.0
  H  H25  1  0.06807927  0.43697278  0.17740674  1.0
  H  H26  1  0.93697278  0.43192073  0.92740674  1.0
  H  H27  1  0.43697278  0.06807927  0.82259326  1.0
  H  H28  1  0.19818384  0.66251800  0.99554545  1.0
  H  H29  1  0.69818384  0.83748200  0.75445455  1.0
  H  H30  1  0.33748200  0.80181616  0.50445455  1.0
  H  H31  1  0.83748200  0.69818384  0.24554545  1.0
  H  H32  1  0.80181616  0.33748200  0.49554545  1.0
  H  H33  1  0.30181616  0.16251800  0.25445455  1.0
  H  H34  1  0.66251800  0.19818384  0.00445455  1.0
  H  H35  1  0.16251800  0.30181616  0.74554545  1.0
  H  H36  1  0.73999905  0.26000095  0.25000000  1.0
  H  H37  1  0.23999905  0.23999905  0.50000000  1.0
  H  H38  1  0.26000095  0.73999905  0.75000000  1.0
  H  H39  1  0.76000095  0.76000095  0.00000000  1.0
