# generated using pymatgen
data_H10C(N2O)4
_symmetry_space_group_name_H-M   'P 1'
_cell_length_a   9.60894028
_cell_length_b   3.92310504
_cell_length_c   12.81677296
_cell_angle_alpha   90.00000000
_cell_angle_beta   121.52816470
_cell_angle_gamma   90.00000000
_symmetry_Int_Tables_number   1
_chemical_formula_structural   H10C(N2O)4
_chemical_formula_sum   'H20 C2 N16 O8'
_cell_volume   411.83097957
_cell_formula_units_Z   2
loop_
 _symmetry_equiv_pos_site_id
 _symmetry_equiv_pos_as_xyz
  1  'x, y, z'
loop_
 _atom_site_type_symbol
 _atom_site_label
 _atom_site_symmetry_multiplicity
 _atom_site_fract_x
 _atom_site_fract_y
 _atom_site_fract_z
 _atom_site_occupancy
  H  H0  1  0.84986613  0.72876786  0.78233901  1.0
  H  H1  1  0.84986613  0.27123214  0.28233901  1.0
  H  H2  1  0.80077915  0.60568511  0.18287664  1.0
  H  H3  1  0.80077915  0.39431489  0.68287664  1.0
  H  H4  1  0.75561260  0.61974366  0.29464785  1.0
  H  H5  1  0.75561260  0.38025634  0.79464785  1.0
  H  H6  1  0.65029037  0.34954935  0.17694884  1.0
  H  H7  1  0.65029037  0.65045065  0.67694884  1.0
  H  H8  1  0.43389819  0.47420580  0.20589592  1.0
  H  H9  1  0.43389819  0.52579420  0.70589592  1.0
  H  H10  1  0.36487333  0.88686326  0.65592127  1.0
  H  H11  1  0.36487333  0.11313674  0.15592127  1.0
  H  H12  1  0.35365599  0.76405277  0.91837462  1.0
  H  H13  1  0.35365599  0.23594723  0.41837462  1.0
  H  H14  1  0.30180579  0.52104362  0.48903151  1.0
  H  H15  1  0.30180579  0.47895638  0.98903151  1.0
  H  H16  1  0.20408511  0.52590817  0.33160341  1.0
  H  H17  1  0.20408511  0.47409183  0.83160341  1.0
  H  H18  1  0.16631774  0.79003357  0.90515023  1.0
  H  H19  1  0.16631774  0.20996643  0.40515023  1.0
  C  C20  1  0.86429516  0.96459684  0.00868990  1.0
  C  C21  1  0.86429516  0.03540316  0.50868990  1.0
  N  N22  1  0.72643045  0.89114696  0.41353760  1.0
  N  N23  1  0.72643045  0.10885304  0.91353760  1.0
  N  N24  1  -0.00160428  1.05134261  0.49735237  1.0
  N  N25  1  -0.00160428  -0.05134261  -0.00264763  1.0
  N  N26  1  0.91060259  0.84391379  0.12074839  1.0
  N  N27  1  0.91060259  0.15608621  0.62074839  1.0
  N  N28  1  0.76327411  0.46027259  0.23279080  1.0
  N  N29  1  0.76327411  0.53972741  0.73279080  1.0
  N  N30  1  0.58988674  0.91082173  0.41367572  1.0
  N  N31  1  0.58988674  0.08917827  0.91367572  1.0
  N  N32  1  0.25606634  0.62655599  0.90982269  1.0
  N  N33  1  0.25606634  0.37344401  0.40982269  1.0
  N  N34  1  0.12561251  0.82930740  0.10215038  1.0
  N  N35  1  0.12561251  0.17069260  0.60215038  1.0
  N  N36  1  0.07036688  0.76641927  0.17480140  1.0
  N  N37  1  0.07036688  0.23358073  0.67480140  1.0
  O  O38  1  0.57821777  0.93232100  -0.00490250  1.0
  O  O39  1  0.57821777  0.06767900  0.49509750  1.0
  O  O40  1  0.46457054  0.76702463  0.32591597  1.0
  O  O41  1  0.46457054  0.23297537  0.82591597  1.0
  O  O42  1  0.41922783  0.30608444  0.14335254  1.0
  O  O43  1  0.41922783  0.69391556  0.64335254  1.0
  O  O44  1  0.00606897  0.97664817  0.40077543  1.0
  O  O45  1  0.00606897  0.02335183  0.90077543  1.0
