# generated using pymatgen
data_HgBr2
_symmetry_space_group_name_H-M   'P 1'
_cell_length_a   4.31838005
_cell_length_b   4.31838005
_cell_length_c   13.50423460
_cell_angle_alpha   90.00000000
_cell_angle_beta   90.00000000
_cell_angle_gamma   108.89253689
_symmetry_Int_Tables_number   1
_chemical_formula_structural   HgBr2
_chemical_formula_sum   'Hg2 Br4'
_cell_volume   238.26561986
_cell_formula_units_Z   2
loop_
 _symmetry_equiv_pos_site_id
 _symmetry_equiv_pos_as_xyz
  1  'x, y, z'
loop_
 _atom_site_type_symbol
 _atom_site_label
 _atom_site_symmetry_multiplicity
 _atom_site_fract_x
 _atom_site_fract_y
 _atom_site_fract_z
 _atom_site_occupancy
  Hg  Hg0  1  0.16021335  0.83978665  0.36923083  1.0
  Hg  Hg1  1  -0.16021335  1.16021335  0.86923083  1.0
  Br  Br2  1  0.10291314  0.89708686  -0.00937010  1.0
  Br  Br3  1  -0.10291314  1.10291314  0.49062990  1.0
  Br  Br4  1  0.42443313  0.57556687  0.24833927  1.0
  Br  Br5  1  -0.42443313  1.42443313  0.74833927  1.0
