# generated using pymatgen
data_KInS2
_symmetry_space_group_name_H-M   'P 1'
_cell_length_a   7.68097126
_cell_length_b   7.68097126
_cell_length_c   7.68097126
_cell_angle_alpha   29.69741342
_cell_angle_beta   29.69741342
_cell_angle_gamma   29.69741342
_symmetry_Int_Tables_number   1
_chemical_formula_structural   KInS2
_chemical_formula_sum   'K1 In1 S2'
_cell_volume   98.47533815
_cell_formula_units_Z   1
loop_
 _symmetry_equiv_pos_site_id
 _symmetry_equiv_pos_as_xyz
  1  'x, y, z'
loop_
 _atom_site_type_symbol
 _atom_site_label
 _atom_site_symmetry_multiplicity
 _atom_site_fract_x
 _atom_site_fract_y
 _atom_site_fract_z
 _atom_site_occupancy
  K  K0  1  -0.00000000  0.00000000  -0.00000000  1.0
  In  In1  1  1.50000000  0.50000000  0.50000000  1.0
  S  S2  1  0.76796127  0.76796127  0.76796127  1.0
  S  S3  1  1.23203873  1.23203873  0.23203873  1.0
