# generated using pymatgen
data_ZnH8(O2F)2
_symmetry_space_group_name_H-M   'P 1'
_cell_length_a   12.70465268
_cell_length_b   5.33310741
_cell_length_c   7.49814980
_cell_angle_alpha   90.00000000
_cell_angle_beta   90.00000000
_cell_angle_gamma   90.00000000
_symmetry_Int_Tables_number   1
_chemical_formula_structural   ZnH8(O2F)2
_chemical_formula_sum   'Zn4 H32 O16 F8'
_cell_volume   508.03921891
_cell_formula_units_Z   4
loop_
 _symmetry_equiv_pos_site_id
 _symmetry_equiv_pos_as_xyz
  1  'x, y, z'
loop_
 _atom_site_type_symbol
 _atom_site_label
 _atom_site_symmetry_multiplicity
 _atom_site_fract_x
 _atom_site_fract_y
 _atom_site_fract_z
 _atom_site_occupancy
  Zn  Zn0  1  0.37624942  0.30408993  0.69811205  1.0
  Zn  Zn1  1  0.87624942  0.69591007  0.69811205  1.0
  Zn  Zn2  1  0.62375058  0.69591007  0.19811205  1.0
  Zn  Zn3  1  0.12375058  0.30408993  0.19811205  1.0
  H  H4  1  0.51824179  -0.02019172  0.95524259  1.0
  H  H5  1  0.01824179  1.02019172  0.95524259  1.0
  H  H6  1  0.48175821  1.02019172  0.45524259  1.0
  H  H7  1  -0.01824179  -0.02019172  0.45524259  1.0
  H  H8  1  0.26799184  0.57212831  0.93888547  1.0
  H  H9  1  0.76799184  0.42787169  0.93888547  1.0
  H  H10  1  0.73200816  0.42787169  0.43888547  1.0
  H  H11  1  0.23200816  0.57212831  0.43888547  1.0
  H  H12  1  0.17585850  0.12557507  0.58239570  1.0
  H  H13  1  0.67585850  0.87442493  0.58239570  1.0
  H  H14  1  0.82414150  0.87442493  0.08239570  1.0
  H  H15  1  0.32414150  0.12557507  0.08239570  1.0
  H  H16  1  0.17411203  0.13223675  0.79426351  1.0
  H  H17  1  0.67411203  0.86776325  0.79426351  1.0
  H  H18  1  0.82588797  0.86776325  0.29426351  1.0
  H  H19  1  0.32588797  0.13223675  0.29426351  1.0
  H  H20  1  0.07595684  0.56496828  0.81327912  1.0
  H  H21  1  0.57595684  0.43503172  0.81327912  1.0
  H  H22  1  0.92404316  0.43503172  0.31327912  1.0
  H  H23  1  0.42404316  0.56496828  0.31327912  1.0
  H  H24  1  0.07756133  0.55464542  0.60000956  1.0
  H  H25  1  0.57756133  0.44535458  0.60000956  1.0
  H  H26  1  0.92243867  0.44535458  0.10000956  1.0
  H  H27  1  0.42243867  0.55464542  0.10000956  1.0
  H  H28  1  0.87991728  0.12881760  0.51328562  1.0
  H  H29  1  0.37991728  0.87118240  0.51328562  1.0
  H  H30  1  0.12008272  0.87118240  0.01328562  1.0
  H  H31  1  0.62008272  0.12881760  0.01328562  1.0
  H  H32  1  0.86246195  0.25048593  0.87547121  1.0
  H  H33  1  0.36246195  0.74951407  0.87547121  1.0
  H  H34  1  0.13753805  0.74951407  0.37547121  1.0
  H  H35  1  0.63753805  0.25048593  0.37547121  1.0
  O  O36  1  0.40574533  0.04502917  0.48868512  1.0
  O  O37  1  0.90574533  0.95497083  0.48868512  1.0
  O  O38  1  0.59425467  0.95497083  -0.01131488  1.0
  O  O39  1  0.09425467  0.04502917  -0.01131488  1.0
  O  O40  1  0.34403572  0.57063332  0.90057774  1.0
  O  O41  1  0.84403572  0.42936668  0.90057774  1.0
  O  O42  1  0.65596428  0.42936668  0.40057774  1.0
  O  O43  1  0.15596428  0.57063332  0.40057774  1.0
  O  O44  1  0.21934635  0.16157664  0.68906538  1.0
  O  O45  1  0.71934635  0.83842336  0.68906538  1.0
  O  O46  1  0.78065365  0.83842336  0.18906538  1.0
  O  O47  1  0.28065365  0.16157664  0.18906538  1.0
  O  O48  1  0.03073960  0.56109523  0.70556998  1.0
  O  O49  1  0.53073960  0.43890477  0.70556998  1.0
  O  O50  1  0.96926040  0.43890477  0.20556998  1.0
  O  O51  1  0.46926040  0.56109523  0.20556998  1.0
  F  F52  1  0.39966634  0.04110022  0.90089417  1.0
  F  F53  1  0.89966634  0.95889978  0.90089417  1.0
  F  F54  1  0.60033366  0.95889978  0.40089417  1.0
  F  F55  1  0.10033366  0.04110022  0.40089417  1.0
  F  F56  1  0.34880070  0.57440512  0.49926277  1.0
  F  F57  1  0.84880070  0.42559488  0.49926277  1.0
  F  F58  1  0.65119930  0.42559488  -0.00073723  1.0
  F  F59  1  0.15119930  0.57440512  -0.00073723  1.0
