# generated using pymatgen
data_Mg2Xe
_symmetry_space_group_name_H-M   'P 1'
_cell_length_a   3.84293621
_cell_length_b   3.84293621
_cell_length_c   17.67816183
_cell_angle_alpha   90.00000000
_cell_angle_beta   90.00000000
_cell_angle_gamma   90.00000000
_symmetry_Int_Tables_number   1
_chemical_formula_structural   Mg2Xe
_chemical_formula_sum   'Mg4 Xe2'
_cell_volume   261.07390023
_cell_formula_units_Z   2
loop_
 _symmetry_equiv_pos_site_id
 _symmetry_equiv_pos_as_xyz
  1  'x, y, z'
loop_
 _atom_site_type_symbol
 _atom_site_label
 _atom_site_symmetry_multiplicity
 _atom_site_fract_x
 _atom_site_fract_y
 _atom_site_fract_z
 _atom_site_occupancy
  Mg  Mg0  1  0.00000000  0.50000000  0.36700391  1.0
  Mg  Mg1  1  0.50000000  0.00000000  0.63299609  1.0
  Mg  Mg2  1  0.00000000  0.50000000  0.54936631  1.0
  Mg  Mg3  1  0.50000000  0.00000000  0.45063369  1.0
  Xe  Xe4  1  0.00000000  0.50000000  0.87787146  1.0
  Xe  Xe5  1  0.50000000  0.00000000  0.12212854  1.0
