# generated using pymatgen
data_LaAlGe
_symmetry_space_group_name_H-M   'P 1'
_cell_length_a   8.04501664
_cell_length_b   8.04501664
_cell_length_c   8.04501664
_cell_angle_alpha   148.45237690
_cell_angle_beta   148.45237690
_cell_angle_gamma   45.21800789
_symmetry_Int_Tables_number   1
_chemical_formula_structural   LaAlGe
_chemical_formula_sum   'La2 Al2 Ge2'
_cell_volume   142.08265405
_cell_formula_units_Z   2
loop_
 _symmetry_equiv_pos_site_id
 _symmetry_equiv_pos_as_xyz
  1  'x, y, z'
loop_
 _atom_site_type_symbol
 _atom_site_label
 _atom_site_symmetry_multiplicity
 _atom_site_fract_x
 _atom_site_fract_y
 _atom_site_fract_z
 _atom_site_occupancy
  La  La0  1  0.58235358  0.58235358  1.00000000  1.0
  La  La1  1  0.33235358  0.83235358  0.50000000  1.0
  Al  Al2  1  0.16573915  0.16573915  -0.00000000  1.0
  Al  Al3  1  0.91573915  0.41573915  0.50000000  1.0
  Ge  Ge4  1  -0.00109273  -0.00109273  0.00000000  1.0
  Ge  Ge5  1  0.74890727  0.24890727  0.50000000  1.0
