# generated using pymatgen
data_Ce2Mo2C3
_symmetry_space_group_name_H-M   'P 1'
_cell_length_a   6.30838085
_cell_length_b   6.30838085
_cell_length_c   5.78220389
_cell_angle_alpha   65.89816413
_cell_angle_beta   114.10183587
_cell_angle_gamma   149.15199511
_symmetry_Int_Tables_number   1
_chemical_formula_structural   Ce2Mo2C3
_chemical_formula_sum   'Ce2 Mo2 C3'
_cell_volume   106.88028153
_cell_formula_units_Z   1
loop_
 _symmetry_equiv_pos_site_id
 _symmetry_equiv_pos_as_xyz
  1  'x, y, z'
loop_
 _atom_site_type_symbol
 _atom_site_label
 _atom_site_symmetry_multiplicity
 _atom_site_fract_x
 _atom_site_fract_y
 _atom_site_fract_z
 _atom_site_occupancy
  Ce  Ce0  1  0.60390493  -0.60390493  0.80564437  1.0
  Ce  Ce1  1  1.39609507  -0.39609507  0.19435563  1.0
  Mo  Mo2  1  0.84075683  -0.84075683  0.67576207  1.0
  Mo  Mo3  1  1.15924317  -0.15924317  0.32423793  1.0
  C  C4  1  0.74833198  -0.74833198  0.26254996  1.0
  C  C5  1  1.25166802  -0.25166802  0.73745004  1.0
  C  C6  1  0.00000000  0.00000000  0.00000000  1.0
