# generated using pymatgen
data_NaH4C2I(NO)2
_symmetry_space_group_name_H-M   'P 1'
_cell_length_a   10.43472410
_cell_length_b   4.94715719
_cell_length_c   7.24115436
_cell_angle_alpha   90.00000000
_cell_angle_beta   90.27802426
_cell_angle_gamma   90.00000000
_symmetry_Int_Tables_number   1
_chemical_formula_structural   NaH4C2I(NO)2
_chemical_formula_sum   'Na2 H8 C4 I2 N4 O4'
_cell_volume   373.80006532
_cell_formula_units_Z   2
loop_
 _symmetry_equiv_pos_site_id
 _symmetry_equiv_pos_as_xyz
  1  'x, y, z'
loop_
 _atom_site_type_symbol
 _atom_site_label
 _atom_site_symmetry_multiplicity
 _atom_site_fract_x
 _atom_site_fract_y
 _atom_site_fract_z
 _atom_site_occupancy
  Na  Na0  1  0.00000000  0.00000000  0.00000000  1.0
  Na  Na1  1  0.00000000  0.50000000  0.50000000  1.0
  H  H2  1  0.84254542  0.37794849  0.81599135  1.0
  H  H3  1  0.84254542  0.12205151  0.31599135  1.0
  H  H4  1  0.15745458  0.87794849  0.68400865  1.0
  H  H5  1  0.15745458  0.62205151  0.18400865  1.0
  H  H6  1  0.15754683  0.62323485  0.81788412  1.0
  H  H7  1  0.15754683  0.87676515  0.31788412  1.0
  H  H8  1  0.84245317  0.12323485  0.68211588  1.0
  H  H9  1  0.84245317  0.37676515  0.18211588  1.0
  C  C10  1  0.68742374  0.76388034  0.99932006  1.0
  C  C11  1  0.68742374  0.73611966  0.49932006  1.0
  C  C12  1  0.31257626  0.26388034  0.50067994  1.0
  C  C13  1  0.31257626  0.23611966  0.00067994  1.0
  I  I14  1  0.50000000  0.00000000  0.00000000  1.0
  I  I15  1  0.50000000  0.50000000  0.50000000  1.0
  N  N16  1  0.78390992  0.64227889  0.99884051  1.0
  N  N17  1  0.78390992  0.85772111  0.49884051  1.0
  N  N18  1  0.21609008  0.14227889  0.50115949  1.0
  N  N19  1  0.21609008  0.35772111  0.00115949  1.0
  O  O20  1  0.89813551  0.25056495  0.74937199  1.0
  O  O21  1  0.89813551  0.24943505  0.24937199  1.0
  O  O22  1  0.10186449  0.75056495  0.75062801  1.0
  O  O23  1  0.10186449  0.74943505  0.25062801  1.0
