# generated using pymatgen
data_LaGe2Pt
_symmetry_space_group_name_H-M   'P 1'
_cell_length_a   8.98793283
_cell_length_b   8.98793283
_cell_length_c   4.46463671
_cell_angle_alpha   90.00000000
_cell_angle_beta   90.00000000
_cell_angle_gamma   151.49307398
_symmetry_Int_Tables_number   1
_chemical_formula_structural   LaGe2Pt
_chemical_formula_sum   'La2 Ge4 Pt2'
_cell_volume   172.13347642
_cell_formula_units_Z   2
loop_
 _symmetry_equiv_pos_site_id
 _symmetry_equiv_pos_as_xyz
  1  'x, y, z'
loop_
 _atom_site_type_symbol
 _atom_site_label
 _atom_site_symmetry_multiplicity
 _atom_site_fract_x
 _atom_site_fract_y
 _atom_site_fract_z
 _atom_site_occupancy
  La  La0  1  -0.60889369  0.60889369  0.25000000  1.0
  La  La1  1  -0.39110631  1.39110631  0.75000000  1.0
  Ge  Ge2  1  -0.96400744  0.96400744  0.25000000  1.0
  Ge  Ge3  1  -0.03599256  1.03599256  0.75000000  1.0
  Ge  Ge4  1  -0.24940038  1.24940038  0.25000000  1.0
  Ge  Ge5  1  -0.75059962  0.75059962  0.75000000  1.0
  Pt  Pt6  1  -0.82179263  0.82179263  0.25000000  1.0
  Pt  Pt7  1  -0.17820737  1.17820737  0.75000000  1.0
