# generated using pymatgen
data_KFeBP2HO9
_symmetry_space_group_name_H-M   'P 1'
_cell_length_a   8.44614475
_cell_length_b   8.25828944
_cell_length_c   5.24584444
_cell_angle_alpha   86.44515841
_cell_angle_beta   80.37897685
_cell_angle_gamma   87.02217980
_symmetry_Int_Tables_number   1
_chemical_formula_structural   KFeBP2HO9
_chemical_formula_sum   'K2 Fe2 B2 P4 H2 O18'
_cell_volume   359.73907470
_cell_formula_units_Z   2
loop_
 _symmetry_equiv_pos_site_id
 _symmetry_equiv_pos_as_xyz
  1  'x, y, z'
loop_
 _atom_site_type_symbol
 _atom_site_label
 _atom_site_symmetry_multiplicity
 _atom_site_fract_x
 _atom_site_fract_y
 _atom_site_fract_z
 _atom_site_occupancy
  Fe  Fe0  1  -0.19071947  -0.80564009  -0.73018129  1.0
  Fe  Fe1  1  -0.80928053  -0.19435991  -0.26981871  1.0
  K  K2  1  -0.88615307  -0.67254775  -0.27554597  1.0
  K  K3  1  -0.11384693  -0.32745225  -0.72445403  1.0
  B  B4  1  -0.55484498  -0.73136421  -0.87668042  1.0
  B  B5  1  -0.44515502  -0.26863579  -0.12331958  1.0
  P  P6  1  -0.69791117  -0.41834531  -0.80237799  1.0
  P  P7  1  -0.30208883  -0.58165469  -0.19762201  1.0
  P  P8  1  -0.81087308  -0.93871657  -0.78289813  1.0
  P  P9  1  -0.18912692  -0.06128343  -0.21710187  1.0
  O  O10  1  -0.66243805  -0.85021166  -0.94635635  1.0
  O  O11  1  -0.33756195  -0.14978834  -0.05364365  1.0
  O  O12  1  -0.53578609  -0.32788499  -0.87509179  1.0
  O  O13  1  -0.46421391  -0.67211501  -0.12490821  1.0
  O  O14  1  -0.65461769  -0.60163003  -0.73153340  1.0
  O  O15  1  -0.34538231  -0.39836997  -0.26846660  1.0
  O  O16  1  -0.44341306  -0.80517797  -0.70999482  1.0
  O  O17  1  -0.55658694  -0.19482203  -0.29000518  1.0
  O  O18  1  -0.95306953  -0.80928338  -0.74633151  1.0
  O  O19  1  -0.04693047  -0.19071662  -0.25366849  1.0
  O  O20  1  -0.84529156  -0.07802376  -0.94249579  1.0
  O  O21  1  -0.15470844  -0.92197624  -0.05750421  1.0
  O  O22  1  -0.77098430  -0.99705633  -0.51314115  1.0
  O  O23  1  -0.22901570  -0.00294367  -0.48685885  1.0
  O  O24  1  -0.79569883  -0.35487331  -0.55283283  1.0
  O  O25  1  -0.20430117  -0.64512669  -0.44716717  1.0
  O  O26  1  -0.20567555  -0.59485838  -0.97130311  1.0
  O  O27  1  -0.79432445  -0.40514162  -0.02869689  1.0
  H  H28  1  -0.49632711  -0.83751967  -0.53642436  1.0
  H  H29  1  -0.50367289  -0.16248033  -0.46357564  1.0
