# generated using pymatgen
data_Na3In2(PO4)3
_symmetry_space_group_name_H-M   'P 1'
_cell_length_a   9.06727927
_cell_length_b   9.06727927
_cell_length_c   6.71325312
_cell_angle_alpha   73.30384950
_cell_angle_beta   106.69615050
_cell_angle_gamma   88.45239013
_symmetry_Int_Tables_number   1
_chemical_formula_structural   Na3In2(PO4)3
_chemical_formula_sum   'Na6 In4 P6 O24'
_cell_volume   502.75507438
_cell_formula_units_Z   2
loop_
 _symmetry_equiv_pos_site_id
 _symmetry_equiv_pos_as_xyz
  1  'x, y, z'
loop_
 _atom_site_type_symbol
 _atom_site_label
 _atom_site_symmetry_multiplicity
 _atom_site_fract_x
 _atom_site_fract_y
 _atom_site_fract_z
 _atom_site_occupancy
  Na  Na0  1  0.77499277  -0.22500723  0.75000000  1.0
  Na  Na1  1  1.22500723  0.22500723  0.25000000  1.0
  Na  Na2  1  1.48091113  0.48091113  0.75000000  1.0
  Na  Na3  1  0.51908887  -0.48091113  0.25000000  1.0
  Na  Na4  1  0.00000000  0.00000000  0.00000000  1.0
  Na  Na5  1  -0.00000000  0.00000000  0.50000000  1.0
  In  In6  1  0.42861835  -0.11578177  0.84529224  1.0
  In  In7  1  1.11578177  0.57138165  0.34529224  1.0
  In  In8  1  0.88421823  -0.57138165  0.65470776  1.0
  In  In9  1  1.57138165  0.11578177  0.15470776  1.0
  P  P10  1  1.63831555  0.15866805  0.63367211  1.0
  P  P11  1  0.84133195  -0.63831555  0.13367211  1.0
  P  P12  1  1.15866805  0.63831555  0.86632789  1.0
  P  P13  1  0.36168445  -0.15866805  0.36632789  1.0
  P  P14  1  1.22586085  0.22586085  0.75000000  1.0
  P  P15  1  0.77413915  -0.22586085  0.25000000  1.0
  O  O16  1  1.78753539  0.05785123  0.67255341  1.0
  O  O17  1  0.94214877  -0.78753539  0.17255341  1.0
  O  O18  1  1.05785123  0.78753539  0.82744659  1.0
  O  O19  1  0.21246461  -0.05785123  0.32744659  1.0
  O  O20  1  0.48970856  -0.16567930  0.58410498  1.0
  O  O21  1  1.16567930  0.51029144  0.08410498  1.0
  O  O22  1  0.83432070  -0.51029144  0.91589502  1.0
  O  O23  1  1.51029144  0.16567930  0.41589502  1.0
  O  O24  1  1.56508875  0.09325617  0.82527897  1.0
  O  O25  1  0.90674383  -0.56508875  0.32527897  1.0
  O  O26  1  1.09325617  0.56508875  0.67472103  1.0
  O  O27  1  0.43491125  -0.09325617  0.17472103  1.0
  O  O28  1  1.66460952  0.33247146  0.62051378  1.0
  O  O29  1  0.66752854  -0.66460952  0.12051378  1.0
  O  O30  1  1.33247146  0.66460952  0.87948622  1.0
  O  O31  1  0.33539048  -0.33247146  0.37948622  1.0
  O  O32  1  1.24007761  0.06266348  0.71758986  1.0
  O  O33  1  0.93733652  -0.24007761  0.21758986  1.0
  O  O34  1  1.06266348  0.24007761  0.78241014  1.0
  O  O35  1  0.75992239  -0.06266348  0.28241014  1.0
  O  O36  1  1.34742537  0.24536742  0.95591948  1.0
  O  O37  1  0.75463258  -0.34742537  0.45591948  1.0
  O  O38  1  1.24536742  0.34742537  0.54408052  1.0
  O  O39  1  0.65257463  -0.24536742  0.04408052  1.0
