# generated using pymatgen
data_EuH12(BrO2)3
_symmetry_space_group_name_H-M   'P 1'
_cell_length_a   8.19402614
_cell_length_b   6.98662096
_cell_length_c   12.72770795
_cell_angle_alpha   90.00000000
_cell_angle_beta   127.02795553
_cell_angle_gamma   90.00000000
_symmetry_Int_Tables_number   1
_chemical_formula_structural   EuH12(BrO2)3
_chemical_formula_sum   'Eu2 H24 Br6 O12'
_cell_volume   581.70605798
_cell_formula_units_Z   2
loop_
 _symmetry_equiv_pos_site_id
 _symmetry_equiv_pos_as_xyz
  1  'x, y, z'
loop_
 _atom_site_type_symbol
 _atom_site_label
 _atom_site_symmetry_multiplicity
 _atom_site_fract_x
 _atom_site_fract_y
 _atom_site_fract_z
 _atom_site_occupancy
  Eu  Eu0  1  0.50000000  0.83956043  0.25000000  1.0
  Eu  Eu1  1  0.50000000  0.16043957  0.75000000  1.0
  H  H2  1  0.95561537  0.74788170  0.45752748  1.0
  H  H3  1  0.95561537  0.25211830  0.95752748  1.0
  H  H4  1  0.04438463  0.74788170  0.04247252  1.0
  H  H5  1  0.04438463  0.25211830  0.54247252  1.0
  H  H6  1  0.86056029  0.32001921  0.02631853  1.0
  H  H7  1  0.86056029  0.67998079  0.52631853  1.0
  H  H8  1  0.13943971  0.32001921  0.47368147  1.0
  H  H9  1  0.13943971  0.67998079  0.97368147  1.0
  H  H10  1  0.81972563  0.93734197  0.73731781  1.0
  H  H11  1  0.81972563  0.06265803  0.23731781  1.0
  H  H12  1  0.18027437  0.93734197  0.76268219  1.0
  H  H13  1  0.18027437  0.06265803  0.26268219  1.0
  H  H14  1  0.73931063  0.89532773  0.13624864  1.0
  H  H15  1  0.73931063  0.10467227  0.63624864  1.0
  H  H16  1  0.26068937  0.89532773  0.36375136  1.0
  H  H17  1  0.26068937  0.10467227  0.86375136  1.0
  H  H18  1  0.69883482  0.52389221  0.18842964  1.0
  H  H19  1  0.69883482  0.47610779  0.68842964  1.0
  H  H20  1  0.30116518  0.52389221  0.31157036  1.0
  H  H21  1  0.30116518  0.47610779  0.81157036  1.0
  H  H22  1  0.52624581  0.45762231  0.37967726  1.0
  H  H23  1  0.52624581  0.54237769  0.87967726  1.0
  H  H24  1  0.47375419  0.45762231  0.12032274  1.0
  H  H25  1  0.47375419  0.54237769  0.62032274  1.0
  O  O26  1  0.82632294  0.70279923  0.43858332  1.0
  O  O27  1  0.82632294  0.29720077  0.93858332  1.0
  O  O28  1  0.17367706  0.70279923  0.06141668  1.0
  O  O29  1  0.17367706  0.29720077  0.56141668  1.0
  O  O30  1  0.75890380  0.93388807  0.21791097  1.0
  O  O31  1  0.75890380  0.06611193  0.71791097  1.0
  O  O32  1  0.24109620  0.93388807  0.28208903  1.0
  O  O33  1  0.24109620  0.06611193  0.78208903  1.0
  O  O34  1  0.43892615  0.57285011  0.34892112  1.0
  O  O35  1  0.43892615  0.42714989  0.84892112  1.0
  O  O36  1  0.56107385  0.57285011  0.15107888  1.0
  O  O37  1  0.56107385  0.42714989  0.65107888  1.0
  Br  Br38  1  0.70119721  0.83251464  0.94228162  1.0
  Br  Br39  1  0.70119721  0.16748536  0.44228162  1.0
  Br  Br40  1  0.29880279  0.83251464  0.55771838  1.0
  Br  Br41  1  0.29880279  0.16748536  0.05771838  1.0
  Br  Br42  1  -0.00000000  0.34900091  0.25000000  1.0
  Br  Br43  1  -0.00000000  0.65099909  0.75000000  1.0
