# generated using pymatgen
data_Li8IrO6
_symmetry_space_group_name_H-M   'P 1'
_cell_length_a   5.93412337
_cell_length_b   5.93412337
_cell_length_c   5.93412337
_cell_angle_alpha   54.46669497
_cell_angle_beta   54.46669497
_cell_angle_gamma   54.46669497
_symmetry_Int_Tables_number   1
_chemical_formula_structural   Li8IrO6
_chemical_formula_sum   'Li8 Ir1 O6'
_cell_volume   128.69580655
_cell_formula_units_Z   1
loop_
 _symmetry_equiv_pos_site_id
 _symmetry_equiv_pos_as_xyz
  1  'x, y, z'
loop_
 _atom_site_type_symbol
 _atom_site_label
 _atom_site_symmetry_multiplicity
 _atom_site_fract_x
 _atom_site_fract_y
 _atom_site_fract_z
 _atom_site_occupancy
  Li  Li0  1  0.23406341  0.89951669  -0.48436500  1.0
  Li  Li1  1  0.48436500  -0.23406341  0.10048331  1.0
  Li  Li2  1  1.10048331  -0.51563500  -0.23406341  1.0
  Li  Li3  1  0.76593659  0.10048331  -0.51563500  1.0
  Li  Li4  1  0.51563500  0.23406341  -0.10048331  1.0
  Li  Li5  1  0.89951669  0.51563500  -0.76593659  1.0
  Li  Li6  1  0.34189044  0.34189044  -0.65810956  1.0
  Li  Li7  1  0.65810956  0.65810956  -0.34189044  1.0
  Ir  Ir8  1  0.00000000  0.00000000  0.00000000  1.0
  O  O9  1  0.09093346  0.76374894  -0.61496395  1.0
  O  O10  1  0.61496395  -0.09093346  0.23625106  1.0
  O  O11  1  1.23625106  -0.38503605  -0.09093346  1.0
  O  O12  1  0.90906654  0.23625106  -0.38503605  1.0
  O  O13  1  0.38503605  0.09093346  -0.23625106  1.0
  O  O14  1  0.76374894  0.38503605  -0.90906654  1.0
