# generated using pymatgen
data_Sr4LiSi4N8F
_symmetry_space_group_name_H-M   'P 1'
_cell_length_a   9.37527569
_cell_length_b   9.37527569
_cell_length_c   5.53894540
_cell_angle_alpha   90.00000000
_cell_angle_beta   90.00000000
_cell_angle_gamma   90.00000000
_symmetry_Int_Tables_number   1
_chemical_formula_structural   Sr4LiSi4N8F
_chemical_formula_sum   'Sr8 Li2 Si8 N16 F2'
_cell_volume   486.85000461
_cell_formula_units_Z   2
loop_
 _symmetry_equiv_pos_site_id
 _symmetry_equiv_pos_as_xyz
  1  'x, y, z'
loop_
 _atom_site_type_symbol
 _atom_site_label
 _atom_site_symmetry_multiplicity
 _atom_site_fract_x
 _atom_site_fract_y
 _atom_site_fract_z
 _atom_site_occupancy
  Sr  Sr0  1  0.73267976  0.94432502  0.39570772  1.0
  Sr  Sr1  1  0.26732024  0.05567498  0.39570772  1.0
  Sr  Sr2  1  0.05567498  0.73267976  0.39570772  1.0
  Sr  Sr3  1  0.94432502  0.26732024  0.39570772  1.0
  Sr  Sr4  1  0.23267976  0.55567498  0.89570772  1.0
  Sr  Sr5  1  0.76732024  0.44432502  0.89570772  1.0
  Sr  Sr6  1  0.55567498  0.76732024  0.89570772  1.0
  Sr  Sr7  1  0.44432502  0.23267976  0.89570772  1.0
  Li  Li8  1  0.00000000  0.00000000  0.80604110  1.0
  Li  Li9  1  0.50000000  0.50000000  0.30604110  1.0
  Si  Si10  1  0.73021185  0.61929145  0.39792045  1.0
  Si  Si11  1  0.26978815  0.38070855  0.39792045  1.0
  Si  Si12  1  0.38070855  0.73021185  0.39792045  1.0
  Si  Si13  1  0.61929145  0.26978815  0.39792045  1.0
  Si  Si14  1  0.23021185  0.88070855  0.89792045  1.0
  Si  Si15  1  0.76978815  0.11929145  0.89792045  1.0
  Si  Si16  1  0.88070855  0.76978815  0.89792045  1.0
  Si  Si17  1  0.11929145  0.23021185  0.89792045  1.0
  N  N18  1  0.82853669  0.67391906  0.14914748  1.0
  N  N19  1  0.17146331  0.32608094  0.14914748  1.0
  N  N20  1  0.32608094  0.82853669  0.14914748  1.0
  N  N21  1  0.67391906  0.17146331  0.14914748  1.0
  N  N22  1  0.32853669  0.82608094  0.64914748  1.0
  N  N23  1  0.67146331  0.17391906  0.64914748  1.0
  N  N24  1  0.82608094  0.67146331  0.64914748  1.0
  N  N25  1  0.17391906  0.32853669  0.64914748  1.0
  N  N26  1  0.70924645  0.43488333  0.39080547  1.0
  N  N27  1  0.29075355  0.56511667  0.39080547  1.0
  N  N28  1  0.56511667  0.70924645  0.39080547  1.0
  N  N29  1  0.43488333  0.29075355  0.39080547  1.0
  N  N30  1  0.20924645  0.06511667  0.89080547  1.0
  N  N31  1  0.79075355  0.93488333  0.89080547  1.0
  N  N32  1  0.06511667  0.79075355  0.89080547  1.0
  N  N33  1  0.93488333  0.20924645  0.89080547  1.0
  F  F34  1  0.00000000  0.00000000  0.43303442  1.0
  F  F35  1  0.50000000  0.50000000  0.93303442  1.0
