# generated using pymatgen
data_Rb2FeOF5
_symmetry_space_group_name_H-M   'P 1'
_cell_length_a   6.19758613
_cell_length_b   6.19758613
_cell_length_c   8.58940923
_cell_angle_alpha   90.00000000
_cell_angle_beta   90.00000000
_cell_angle_gamma   90.66656840
_symmetry_Int_Tables_number   1
_chemical_formula_structural   Rb2FeOF5
_chemical_formula_sum   'Rb4 Fe2 O2 F10'
_cell_volume   329.89751648
_cell_formula_units_Z   2
loop_
 _symmetry_equiv_pos_site_id
 _symmetry_equiv_pos_as_xyz
  1  'x, y, z'
loop_
 _atom_site_type_symbol
 _atom_site_label
 _atom_site_symmetry_multiplicity
 _atom_site_fract_x
 _atom_site_fract_y
 _atom_site_fract_z
 _atom_site_occupancy
  Rb  Rb0  1  0.76413595  0.76413595  0.50000000  1.0
  Rb  Rb1  1  0.76413595  0.76413595  0.00000000  1.0
  Rb  Rb2  1  0.23586405  0.23586405  0.50000000  1.0
  Rb  Rb3  1  0.23586405  0.23586405  0.00000000  1.0
  Fe  Fe4  1  0.26660048  0.73339952  0.25000000  1.0
  Fe  Fe5  1  -0.26660048  1.26660048  0.75000000  1.0
  O  O6  1  -0.54454633  1.54454633  0.25000000  1.0
  O  O7  1  0.54454633  0.45545367  0.75000000  1.0
  F  F8  1  0.04567455  0.53475819  0.25000000  1.0
  F  F9  1  -0.46524181  1.04567455  0.75000000  1.0
  F  F10  1  0.46524181  0.95432545  0.25000000  1.0
  F  F11  1  -0.04567455  1.46524181  0.75000000  1.0
  F  F12  1  0.25524685  0.74475315  0.46251232  1.0
  F  F13  1  0.25524685  0.74475315  0.03748768  1.0
  F  F14  1  -0.25524685  1.25524685  0.96251232  1.0
  F  F15  1  -0.25524685  1.25524685  0.53748768  1.0
  F  F16  1  0.04883596  0.95116404  0.25000000  1.0
  F  F17  1  -0.04883596  1.04883596  0.75000000  1.0
