# generated using pymatgen
data_Sr11In3Ga4
_symmetry_space_group_name_H-M   'P 1'
_cell_length_a   12.32407053
_cell_length_b   12.32407053
_cell_length_c   12.32407053
_cell_angle_alpha   60.00000000
_cell_angle_beta   60.00000000
_cell_angle_gamma   60.00000000
_symmetry_Int_Tables_number   1
_chemical_formula_structural   Sr11In3Ga4
_chemical_formula_sum   'Sr22 In6 Ga8'
_cell_volume   1323.57186770
_cell_formula_units_Z   2
loop_
 _symmetry_equiv_pos_site_id
 _symmetry_equiv_pos_as_xyz
  1  'x, y, z'
loop_
 _atom_site_type_symbol
 _atom_site_label
 _atom_site_symmetry_multiplicity
 _atom_site_fract_x
 _atom_site_fract_y
 _atom_site_fract_z
 _atom_site_occupancy
  Sr  Sr0  1  1.66225085  0.00000000  -0.00000000  1.0
  Sr  Sr1  1  1.00000000  0.33774915  -0.33774915  1.0
  Sr  Sr2  1  1.00000000  0.66225085  -0.66225085  1.0
  Sr  Sr3  1  1.33774915  0.00000000  -0.00000000  1.0
  Sr  Sr4  1  0.00000000  1.66225085  -0.00000000  1.0
  Sr  Sr5  1  0.33774915  1.00000000  -0.33774915  1.0
  Sr  Sr6  1  0.00000000  0.00000000  0.66225085  1.0
  Sr  Sr7  1  0.33774915  -0.33774915  1.00000000  1.0
  Sr  Sr8  1  0.66225085  1.00000000  -0.66225085  1.0
  Sr  Sr9  1  0.00000000  1.33774915  -0.00000000  1.0
  Sr  Sr10  1  0.66225085  -0.66225085  1.00000000  1.0
  Sr  Sr11  1  -0.00000000  -0.00000000  0.33774915  1.0
  Sr  Sr12  1  0.63323427  0.63323427  -0.36676573  1.0
  Sr  Sr13  1  0.36676573  1.36676573  -0.10029720  1.0
  Sr  Sr14  1  1.36676573  -0.10029720  0.36676573  1.0
  Sr  Sr15  1  1.10029720  0.63323427  0.63323427  1.0
  Sr  Sr16  1  -0.10029720  1.36676573  0.36676573  1.0
  Sr  Sr17  1  0.63323427  1.10029720  -0.36676573  1.0
  Sr  Sr18  1  0.63323427  0.63323427  1.10029720  1.0
  Sr  Sr19  1  1.36676573  0.36676573  0.36676573  1.0
  Sr  Sr20  1  -0.50000000  0.50000000  0.50000000  1.0
  Sr  Sr21  1  0.00000000  0.00000000  0.00000000  1.0
  In  In22  1  -0.71915185  0.71915185  0.71915185  1.0
  In  In23  1  -0.28084815  0.28084815  0.71915185  1.0
  In  In24  1  0.71915185  0.71915185  -0.71915185  1.0
  In  In25  1  0.28084815  1.28084815  -0.28084815  1.0
  In  In26  1  0.28084815  -0.28084815  1.28084815  1.0
  In  In27  1  -0.28084815  0.28084815  0.28084815  1.0
  Ga  Ga28  1  0.80619373  0.80619373  -0.19380627  1.0
  Ga  Ga29  1  1.19380627  0.19380627  0.41858118  1.0
  Ga  Ga30  1  1.19380627  0.41858118  0.19380627  1.0
  Ga  Ga31  1  0.58141882  0.80619373  -0.19380627  1.0
  Ga  Ga32  1  1.41858118  0.19380627  0.19380627  1.0
  Ga  Ga33  1  0.80619373  0.58141882  -0.19380627  1.0
  Ga  Ga34  1  0.80619373  0.80619373  -0.41858118  1.0
  Ga  Ga35  1  1.19380627  0.19380627  0.19380627  1.0
