# generated using pymatgen
data_Ag2Se
_symmetry_space_group_name_H-M   'P 1'
_cell_length_a   7.30439140
_cell_length_b   7.93915287
_cell_length_c   4.55320109
_cell_angle_alpha   90.00000000
_cell_angle_beta   90.00000000
_cell_angle_gamma   90.00000000
_symmetry_Int_Tables_number   1
_chemical_formula_structural   Ag2Se
_chemical_formula_sum   'Ag8 Se4'
_cell_volume   264.04322695
_cell_formula_units_Z   4
loop_
 _symmetry_equiv_pos_site_id
 _symmetry_equiv_pos_as_xyz
  1  'x, y, z'
loop_
 _atom_site_type_symbol
 _atom_site_label
 _atom_site_symmetry_multiplicity
 _atom_site_fract_x
 _atom_site_fract_y
 _atom_site_fract_z
 _atom_site_occupancy
  Ag  Ag0  1  0.60276940  0.74997365  0.50138463  1.0
  Ag  Ag1  1  0.60276940  0.25002635  0.49861537  1.0
  Ag  Ag2  1  0.39723060  0.74997365  0.99861537  1.0
  Ag  Ag3  1  0.39723060  0.25002635  0.00138463  1.0
  Ag  Ag4  1  0.88845197  0.50000000  0.50000000  1.0
  Ag  Ag5  1  0.11154803  0.50000000  0.00000000  1.0
  Ag  Ag6  1  0.88842458  0.00000000  0.50000000  1.0
  Ag  Ag7  1  0.11157542  0.00000000  0.00000000  1.0
  Se  Se8  1  0.79483353  0.74999785  0.00536026  1.0
  Se  Se9  1  0.79483353  0.25000215  0.99463974  1.0
  Se  Se10  1  0.20516647  0.74999785  0.49463974  1.0
  Se  Se11  1  0.20516647  0.25000215  0.50536026  1.0
