# generated using pymatgen
data_Mn3(PO4)2
_symmetry_space_group_name_H-M   'P 1'
_cell_length_a   5.28520363
_cell_length_b   6.76779871
_cell_length_c   10.05971833
_cell_angle_alpha   90.00000000
_cell_angle_beta   116.31141283
_cell_angle_gamma   90.00000000
_symmetry_Int_Tables_number   1
_chemical_formula_structural   Mn3(PO4)2
_chemical_formula_sum   'Mn6 P4 O16'
_cell_volume   322.54917331
_cell_formula_units_Z   2
loop_
 _symmetry_equiv_pos_site_id
 _symmetry_equiv_pos_as_xyz
  1  'x, y, z'
loop_
 _atom_site_type_symbol
 _atom_site_label
 _atom_site_symmetry_multiplicity
 _atom_site_fract_x
 _atom_site_fract_y
 _atom_site_fract_z
 _atom_site_occupancy
  Mn  Mn0  1  0.71472075  0.34404574  0.12725270  1.0
  Mn  Mn1  1  0.71472075  0.15595426  0.62725270  1.0
  Mn  Mn2  1  0.28527925  0.84404574  0.37274730  1.0
  Mn  Mn3  1  0.28527925  0.65595426  0.87274730  1.0
  Mn  Mn4  1  -0.00000000  0.50000000  0.50000000  1.0
  Mn  Mn5  1  0.00000000  0.00000000  0.00000000  1.0
  P  P6  1  0.34347234  0.33424167  0.30828923  1.0
  P  P7  1  0.34347234  0.16575833  0.80828923  1.0
  P  P8  1  0.65652766  0.83424167  0.19171077  1.0
  P  P9  1  0.65652766  0.66575833  0.69171077  1.0
  O  O10  1  0.76235765  0.01493948  0.13402533  1.0
  O  O11  1  0.76235765  0.48506052  0.63402533  1.0
  O  O12  1  0.23764235  0.51493948  0.36597467  1.0
  O  O13  1  0.23764235  0.98506052  0.86597467  1.0
  O  O14  1  0.87332430  0.79258313  0.35514810  1.0
  O  O15  1  0.87332430  0.70741687  0.85514810  1.0
  O  O16  1  0.12667570  0.29258313  0.14485190  1.0
  O  O17  1  0.12667570  0.20741687  0.64485190  1.0
  O  O18  1  0.64224992  0.37398942  0.31586022  1.0
  O  O19  1  0.64224992  0.12601058  0.81586022  1.0
  O  O20  1  0.35775008  0.87398942  0.18413978  1.0
  O  O21  1  0.35775008  0.62601058  0.68413978  1.0
  O  O22  1  0.37254417  0.15553477  0.41287859  1.0
  O  O23  1  0.37254417  0.34446523  0.91287859  1.0
  O  O24  1  0.62745583  0.65553477  0.08712141  1.0
  O  O25  1  0.62745583  0.84446523  0.58712141  1.0
