# generated using pymatgen
data_AsPb2S3I
_symmetry_space_group_name_H-M   'P 1'
_cell_length_a   11.84243756
_cell_length_b   6.83053511
_cell_length_c   10.06661152
_cell_angle_alpha   90.00000000
_cell_angle_beta   90.00000000
_cell_angle_gamma   90.00000000
_symmetry_Int_Tables_number   1
_chemical_formula_structural   AsPb2S3I
_chemical_formula_sum   'As4 Pb8 S12 I4'
_cell_volume   814.29007312
_cell_formula_units_Z   4
loop_
 _symmetry_equiv_pos_site_id
 _symmetry_equiv_pos_as_xyz
  1  'x, y, z'
loop_
 _atom_site_type_symbol
 _atom_site_label
 _atom_site_symmetry_multiplicity
 _atom_site_fract_x
 _atom_site_fract_y
 _atom_site_fract_z
 _atom_site_occupancy
  As  As0  1  0.41807284  0.75000000  0.53934831  1.0
  As  As1  1  0.91807284  0.75000000  0.96065169  1.0
  As  As2  1  0.58192716  0.25000000  0.46065169  1.0
  As  As3  1  0.08192716  0.25000000  0.03934831  1.0
  Pb  Pb4  1  0.18434347  0.75000000  0.77522418  1.0
  Pb  Pb5  1  0.68434347  0.75000000  0.72477582  1.0
  Pb  Pb6  1  0.81565653  0.25000000  0.22477582  1.0
  Pb  Pb7  1  0.31565653  0.25000000  0.27522418  1.0
  Pb  Pb8  1  0.11427583  0.75000000  0.28673688  1.0
  Pb  Pb9  1  0.61427583  0.75000000  0.21326312  1.0
  Pb  Pb10  1  0.88572417  0.25000000  0.71326312  1.0
  Pb  Pb11  1  0.38572417  0.25000000  0.78673688  1.0
  S  S12  1  0.29426997  0.99732618  0.58849541  1.0
  S  S13  1  0.29426997  0.50267382  0.58849541  1.0
  S  S14  1  0.79426997  0.99732618  0.91150459  1.0
  S  S15  1  0.79426997  0.50267382  0.91150459  1.0
  S  S16  1  0.70573003  0.49732618  0.41150459  1.0
  S  S17  1  0.70573003  0.00267382  0.41150459  1.0
  S  S18  1  0.20573003  0.49732618  0.08849541  1.0
  S  S19  1  0.20573003  0.00267382  0.08849541  1.0
  S  S20  1  0.39364652  0.75000000  0.31536618  1.0
  S  S21  1  0.89364652  0.75000000  0.18463382  1.0
  S  S22  1  0.60635348  0.25000000  0.68463382  1.0
  S  S23  1  0.10635348  0.25000000  0.81536618  1.0
  I  I24  1  0.45830570  0.75000000  0.89664326  1.0
  I  I25  1  0.95830570  0.75000000  0.60335674  1.0
  I  I26  1  0.54169430  0.25000000  0.10335674  1.0
  I  I27  1  0.04169430  0.25000000  0.39664326  1.0
