# generated using pymatgen
data_VBiPbO5
_symmetry_space_group_name_H-M   'P 1'
_cell_length_a   6.06914208
_cell_length_b   7.24911994
_cell_length_c   7.63686786
_cell_angle_alpha   112.87196254
_cell_angle_beta   117.03673273
_cell_angle_gamma   78.92826654
_symmetry_Int_Tables_number   1
_chemical_formula_structural   VBiPbO5
_chemical_formula_sum   'V2 Bi2 Pb2 O10'
_cell_volume   275.69407513
_cell_formula_units_Z   2
loop_
 _symmetry_equiv_pos_site_id
 _symmetry_equiv_pos_as_xyz
  1  'x, y, z'
loop_
 _atom_site_type_symbol
 _atom_site_label
 _atom_site_symmetry_multiplicity
 _atom_site_fract_x
 _atom_site_fract_y
 _atom_site_fract_z
 _atom_site_occupancy
  V  V0  1  0.49372529  -0.62265616  0.00196684  1.0
  V  V1  1  0.11727333  -0.93665864  -0.75382041  1.0
  Bi  Bi2  1  -0.25756759  -0.02512587  -0.33508991  1.0
  Bi  Bi3  1  -0.13144220  -0.53419082  -0.41673710  1.0
  Pb  Pb4  1  0.47438191  -0.16750019  -0.04991484  1.0
  Pb  Pb5  1  0.13654037  -0.39180451  -0.70196165  1.0
  O  O6  1  0.06290433  0.04237582  -0.00283000  1.0
  O  O7  1  -0.60857982  -0.06513551  -0.66154339  1.0
  O  O8  1  0.21958716  -0.49416639  -0.09031615  1.0
  O  O9  1  -0.45189522  -0.60163719  -0.74900806  1.0
  O  O10  1  -0.00769138  -0.28601779  -0.42980533  1.0
  O  O11  1  -0.10640041  -0.05485404  -0.76131198  1.0
  O  O12  1  0.48400406  -0.87463972  -0.15467434  1.0
  O  O13  1  0.12695794  -0.68468663  -0.59715697  1.0
  O  O14  1  0.71740938  -0.50451659  0.00940769  1.0
  O  O15  1  0.61869286  -0.27328577  -0.32200439  1.0
