# generated using pymatgen
data_Mo3C8S13N2
_symmetry_space_group_name_H-M   'P 1'
_cell_length_a   9.83530270
_cell_length_b   9.83530270
_cell_length_c   6.32600052
_cell_angle_alpha   90.00000000
_cell_angle_beta   90.00000000
_cell_angle_gamma   120.00000000
_symmetry_Int_Tables_number   1
_chemical_formula_structural   Mo3C8S13N2
_chemical_formula_sum   'Mo3 C8 S13 N2'
_cell_volume   529.95051259
_cell_formula_units_Z   1
loop_
 _symmetry_equiv_pos_site_id
 _symmetry_equiv_pos_as_xyz
  1  'x, y, z'
loop_
 _atom_site_type_symbol
 _atom_site_label
 _atom_site_symmetry_multiplicity
 _atom_site_fract_x
 _atom_site_fract_y
 _atom_site_fract_z
 _atom_site_occupancy
  Mo  Mo0  1  0.49189990  0.82576212  0.66221676  1.0
  Mo  Mo1  1  0.33386222  0.50810010  0.66221676  1.0
  Mo  Mo2  1  0.17423788  0.66613778  0.66221676  1.0
  C  C3  1  0.89113795  0.85284713  -0.06761113  1.0
  C  C4  1  0.96170918  0.10886205  -0.06761113  1.0
  C  C5  1  0.14715287  0.03829082  -0.06761113  1.0
  C  C6  1  0.00000000  0.00000000  0.81817224  1.0
  C  C7  1  0.51880321  0.22538107  -0.07107876  1.0
  C  C8  1  0.70657786  0.48119679  -0.07107876  1.0
  C  C9  1  0.77461893  0.29342214  -0.07107876  1.0
  C  C10  1  0.66666667  0.33333333  0.81552831  1.0
  S  S11  1  0.72241972  1.05721086  0.86582791  1.0
  S  S12  1  0.33479114  0.27758028  0.86582791  1.0
  S  S13  1  -0.05721086  0.66520886  0.86582791  1.0
  S  S14  1  0.73213010  0.06573230  0.54662309  1.0
  S  S15  1  0.33360221  0.26786990  0.54662309  1.0
  S  S16  1  0.93426770  0.66639779  0.54662309  1.0
  S  S17  1  0.33333333  0.66666667  0.94916772  1.0
  S  S18  1  0.33244416  0.95379005  0.69070179  1.0
  S  S19  1  0.62134588  0.66755584  0.69070179  1.0
  S  S20  1  0.04620995  0.37865412  0.69070179  1.0
  S  S21  1  0.33266709  0.86061011  0.40174472  1.0
  S  S22  1  0.52794302  0.66733291  0.40174472  1.0
  S  S23  1  0.13938989  0.47205698  0.40174472  1.0
  N  N24  1  0.00000000  0.00000000  0.07223524  1.0
  N  N25  1  0.66666667  0.33333333  0.06888336  1.0
