# generated using pymatgen
data_Lu2InAu2
_symmetry_space_group_name_H-M   'P 1'
_cell_length_a   7.86789567
_cell_length_b   7.86789567
_cell_length_c   7.32770644
_cell_angle_alpha   90.00000000
_cell_angle_beta   90.00000000
_cell_angle_gamma   90.00000000
_symmetry_Int_Tables_number   1
_chemical_formula_structural   Lu2InAu2
_chemical_formula_sum   'Lu8 In4 Au8'
_cell_volume   453.61274431
_cell_formula_units_Z   4
loop_
 _symmetry_equiv_pos_site_id
 _symmetry_equiv_pos_as_xyz
  1  'x, y, z'
loop_
 _atom_site_type_symbol
 _atom_site_label
 _atom_site_symmetry_multiplicity
 _atom_site_fract_x
 _atom_site_fract_y
 _atom_site_fract_z
 _atom_site_occupancy
  Lu  Lu0  1  0.17401102  0.17401102  0.50000000  1.0
  Lu  Lu1  1  0.67401102  0.32598898  0.00000000  1.0
  Lu  Lu2  1  0.82598898  0.82598898  0.50000000  1.0
  Lu  Lu3  1  0.32598898  0.67401102  0.00000000  1.0
  Lu  Lu4  1  0.33960758  0.66039242  0.50000000  1.0
  Lu  Lu5  1  0.83960758  0.83960758  0.00000000  1.0
  Lu  Lu6  1  0.66039242  0.33960758  0.50000000  1.0
  Lu  Lu7  1  0.16039242  0.16039242  0.00000000  1.0
  In  In8  1  0.50000000  0.00000000  0.25000000  1.0
  In  In9  1  0.50000000  0.00000000  0.75000000  1.0
  In  In10  1  0.00000000  0.50000000  0.75000000  1.0
  In  In11  1  0.00000000  0.50000000  0.25000000  1.0
  Au  Au12  1  0.13041313  0.86958687  0.26360803  1.0
  Au  Au13  1  0.13041313  0.86958687  0.73639197  1.0
  Au  Au14  1  0.63041313  0.63041313  0.76360803  1.0
  Au  Au15  1  0.63041313  0.63041313  0.23639197  1.0
  Au  Au16  1  0.86958687  0.13041313  0.26360803  1.0
  Au  Au17  1  0.86958687  0.13041313  0.73639197  1.0
  Au  Au18  1  0.36958687  0.36958687  0.76360803  1.0
  Au  Au19  1  0.36958687  0.36958687  0.23639197  1.0
