# generated using pymatgen
data_Ba2TaCrO6
_symmetry_space_group_name_H-M   'P 1'
_cell_length_a   5.78662543
_cell_length_b   5.78662543
_cell_length_c   19.01485410
_cell_angle_alpha   90.00000000
_cell_angle_beta   90.00000000
_cell_angle_gamma   120.00000000
_symmetry_Int_Tables_number   1
_chemical_formula_structural   Ba2TaCrO6
_chemical_formula_sum   'Ba8 Ta4 Cr4 O24'
_cell_volume   551.40966227
_cell_formula_units_Z   4
loop_
 _symmetry_equiv_pos_site_id
 _symmetry_equiv_pos_as_xyz
  1  'x, y, z'
loop_
 _atom_site_type_symbol
 _atom_site_label
 _atom_site_symmetry_multiplicity
 _atom_site_fract_x
 _atom_site_fract_y
 _atom_site_fract_z
 _atom_site_occupancy
  Ba  Ba0  1  0.33333333  0.66666667  0.35814675  1.0
  Ba  Ba1  1  0.33333333  0.66666667  0.14185325  1.0
  Ba  Ba2  1  0.66666667  0.33333333  0.85814675  1.0
  Ba  Ba3  1  0.66666667  0.33333333  0.64185325  1.0
  Ba  Ba4  1  0.33333333  0.66666667  0.75000000  1.0
  Ba  Ba5  1  0.66666667  0.33333333  0.25000000  1.0
  Ba  Ba6  1  0.00000000  0.00000000  0.50000000  1.0
  Ba  Ba7  1  0.00000000  0.00000000  0.00000000  1.0
  Ta  Ta8  1  0.33333333  0.66666667  0.93614513  1.0
  Ta  Ta9  1  0.33333333  0.66666667  0.56385487  1.0
  Ta  Ta10  1  0.66666667  0.33333333  0.43614513  1.0
  Ta  Ta11  1  0.66666667  0.33333333  0.06385487  1.0
  Cr  Cr12  1  0.00000000  0.00000000  0.31853532  1.0
  Cr  Cr13  1  0.00000000  0.00000000  0.18146468  1.0
  Cr  Cr14  1  0.00000000  0.00000000  0.81853532  1.0
  Cr  Cr15  1  0.00000000  0.00000000  0.68146468  1.0
  O  O16  1  0.16967759  0.83032241  0.87903792  1.0
  O  O17  1  0.16967759  0.83032241  0.62096208  1.0
  O  O18  1  0.16967759  0.33935519  0.87903792  1.0
  O  O19  1  0.16967759  0.33935519  0.62096208  1.0
  O  O20  1  0.83032241  0.16967759  0.37903792  1.0
  O  O21  1  0.83032241  0.16967759  0.12096208  1.0
  O  O22  1  0.83032241  0.66064481  0.37903792  1.0
  O  O23  1  0.83032241  0.66064481  0.12096208  1.0
  O  O24  1  0.66064481  0.83032241  0.87903792  1.0
  O  O25  1  0.66064481  0.83032241  0.62096208  1.0
  O  O26  1  0.33935519  0.16967759  0.37903792  1.0
  O  O27  1  0.33935519  0.16967759  0.12096208  1.0
  O  O28  1  0.14824707  0.85175293  0.25000000  1.0
  O  O29  1  0.14824707  0.29649415  0.25000000  1.0
  O  O30  1  0.85175293  0.14824707  0.75000000  1.0
  O  O31  1  0.85175293  0.70350585  0.75000000  1.0
  O  O32  1  0.70350585  0.85175293  0.25000000  1.0
  O  O33  1  0.29649415  0.14824707  0.75000000  1.0
  O  O34  1  0.50000000  0.50000000  0.50000000  1.0
  O  O35  1  0.50000000  0.50000000  0.00000000  1.0
  O  O36  1  0.50000000  0.00000000  0.50000000  1.0
  O  O37  1  0.50000000  0.00000000  0.00000000  1.0
  O  O38  1  0.00000000  0.50000000  0.50000000  1.0
  O  O39  1  0.00000000  0.50000000  0.00000000  1.0
