# generated using pymatgen
data_Ca2SnS4
_symmetry_space_group_name_H-M   'P 1'
_cell_length_a   14.07374577
_cell_length_b   8.24207441
_cell_length_c   6.59540586
_cell_angle_alpha   90.00000000
_cell_angle_beta   90.00000000
_cell_angle_gamma   90.00000000
_symmetry_Int_Tables_number   1
_chemical_formula_structural   Ca2SnS4
_chemical_formula_sum   'Ca8 Sn4 S16'
_cell_volume   765.04636914
_cell_formula_units_Z   4
loop_
 _symmetry_equiv_pos_site_id
 _symmetry_equiv_pos_as_xyz
  1  'x, y, z'
loop_
 _atom_site_type_symbol
 _atom_site_label
 _atom_site_symmetry_multiplicity
 _atom_site_fract_x
 _atom_site_fract_y
 _atom_site_fract_z
 _atom_site_occupancy
  Ca  Ca0  1  0.77171858  0.25000000  0.50673429  1.0
  Ca  Ca1  1  0.27171858  0.25000000  0.99326571  1.0
  Ca  Ca2  1  0.22828142  0.75000000  0.49326571  1.0
  Ca  Ca3  1  0.72828142  0.75000000  0.00673429  1.0
  Ca  Ca4  1  0.00000000  0.50000000  0.00000000  1.0
  Ca  Ca5  1  0.00000000  0.00000000  0.00000000  1.0
  Ca  Ca6  1  0.50000000  0.50000000  0.50000000  1.0
  Ca  Ca7  1  0.50000000  0.00000000  0.50000000  1.0
  Sn  Sn8  1  0.59286903  0.25000000  0.08368955  1.0
  Sn  Sn9  1  0.09286903  0.25000000  0.41631045  1.0
  Sn  Sn10  1  0.40713097  0.75000000  0.91631045  1.0
  Sn  Sn11  1  0.90713097  0.75000000  0.58368955  1.0
  S  S12  1  0.66864559  0.47823638  0.25175841  1.0
  S  S13  1  0.66864559  0.02176362  0.25175841  1.0
  S  S14  1  0.16864559  0.47823638  0.24824159  1.0
  S  S15  1  0.16864559  0.02176362  0.24824159  1.0
  S  S16  1  0.33135441  0.97823638  0.74824159  1.0
  S  S17  1  0.33135441  0.52176362  0.74824159  1.0
  S  S18  1  0.83135441  0.97823638  0.75175841  1.0
  S  S19  1  0.83135441  0.52176362  0.75175841  1.0
  S  S20  1  0.93569116  0.25000000  0.26033289  1.0
  S  S21  1  0.43569116  0.25000000  0.23966711  1.0
  S  S22  1  0.06430884  0.75000000  0.73966711  1.0
  S  S23  1  0.56430884  0.75000000  0.76033289  1.0
  S  S24  1  0.59391458  0.25000000  0.72042266  1.0
  S  S25  1  0.09391458  0.25000000  0.77957734  1.0
  S  S26  1  0.40608542  0.75000000  0.27957734  1.0
  S  S27  1  0.90608542  0.75000000  0.22042266  1.0
