# generated using pymatgen
data_GdSi2
_symmetry_space_group_name_H-M   'P 1'
_cell_length_a   10.88886062
_cell_length_b   10.88886062
_cell_length_c   10.88886062
_cell_angle_alpha   148.77481314
_cell_angle_beta   148.77481314
_cell_angle_gamma   44.74287544
_symmetry_Int_Tables_number   1
_chemical_formula_structural   GdSi2
_chemical_formula_sum   'Gd4 Si8'
_cell_volume   345.90284036
_cell_formula_units_Z   4
loop_
 _symmetry_equiv_pos_site_id
 _symmetry_equiv_pos_as_xyz
  1  'x, y, z'
loop_
 _atom_site_type_symbol
 _atom_site_label
 _atom_site_symmetry_multiplicity
 _atom_site_fract_x
 _atom_site_fract_y
 _atom_site_fract_z
 _atom_site_occupancy
  Gd  Gd0  1  0.37500000  0.12500000  0.25000000  1.0
  Gd  Gd1  1  0.87500000  0.12500000  0.75000000  1.0
  Gd  Gd2  1  0.87500000  1.12500000  1.25000000  1.0
  Gd  Gd3  1  0.87500000  0.62500000  0.75000000  1.0
  Si  Si4  1  1.05526173  0.27410008  0.78116165  1.0
  Si  Si5  1  1.25706156  0.97589992  1.28116165  1.0
  Si  Si6  1  0.49293844  0.27410008  0.21883835  1.0
  Si  Si7  1  0.69473827  0.97589992  0.71883835  1.0
  Si  Si8  1  0.72589992  0.50706156  0.78116165  1.0
  Si  Si9  1  0.02410008  0.30526173  0.28116165  1.0
  Si  Si10  1  0.72589992  0.94473827  1.21883835  1.0
  Si  Si11  1  0.02410008  0.74293844  0.71883835  1.0
