# generated using pymatgen
data_BaFeO2F
_symmetry_space_group_name_H-M   'P 1'
_cell_length_a   5.72749821
_cell_length_b   5.72749821
_cell_length_c   14.28748345
_cell_angle_alpha   90.00000000
_cell_angle_beta   90.00000000
_cell_angle_gamma   120.00000000
_symmetry_Int_Tables_number   1
_chemical_formula_structural   BaFeO2F
_chemical_formula_sum   'Ba6 Fe6 O12 F6'
_cell_volume   405.89742494
_cell_formula_units_Z   6
loop_
 _symmetry_equiv_pos_site_id
 _symmetry_equiv_pos_as_xyz
  1  'x, y, z'
loop_
 _atom_site_type_symbol
 _atom_site_label
 _atom_site_symmetry_multiplicity
 _atom_site_fract_x
 _atom_site_fract_y
 _atom_site_fract_z
 _atom_site_occupancy
  Ba  Ba0  1  0.33333333  0.66666667  0.41502365  1.0
  Ba  Ba1  1  0.33333333  0.66666667  0.08497635  1.0
  Ba  Ba2  1  0.66666667  0.33333333  0.91502365  1.0
  Ba  Ba3  1  0.66666667  0.33333333  0.58497635  1.0
  Ba  Ba4  1  0.00000000  0.00000000  0.25000000  1.0
  Ba  Ba5  1  0.00000000  0.00000000  0.75000000  1.0
  Fe  Fe6  1  0.33333333  0.66666667  0.86329289  1.0
  Fe  Fe7  1  0.33333333  0.66666667  0.63670711  1.0
  Fe  Fe8  1  0.66666667  0.33333333  0.36329289  1.0
  Fe  Fe9  1  0.66666667  0.33333333  0.13670711  1.0
  Fe  Fe10  1  0.00000000  0.00000000  0.50000000  1.0
  Fe  Fe11  1  0.00000000  0.00000000  0.00000000  1.0
  O  O12  1  0.16140729  0.83859271  0.92026446  1.0
  O  O13  1  0.16140729  0.83859271  0.57973554  1.0
  O  O14  1  0.16140729  0.32281458  0.92026446  1.0
  O  O15  1  0.16140729  0.32281458  0.57973554  1.0
  O  O16  1  0.83859271  0.16140729  0.42026446  1.0
  O  O17  1  0.83859271  0.16140729  0.07973554  1.0
  O  O18  1  0.83859271  0.67718542  0.42026446  1.0
  O  O19  1  0.83859271  0.67718542  0.07973554  1.0
  O  O20  1  0.67718542  0.83859271  0.92026446  1.0
  O  O21  1  0.67718542  0.83859271  0.57973554  1.0
  O  O22  1  0.32281458  0.16140729  0.42026446  1.0
  O  O23  1  0.32281458  0.16140729  0.07973554  1.0
  F  F24  1  0.50746405  0.49253595  0.25000000  1.0
  F  F25  1  0.50746405  0.01492810  0.25000000  1.0
  F  F26  1  0.49253595  0.50746405  0.75000000  1.0
  F  F27  1  0.49253595  0.98507190  0.75000000  1.0
  F  F28  1  0.98507190  0.49253595  0.25000000  1.0
  F  F29  1  0.01492810  0.50746405  0.75000000  1.0
