# generated using pymatgen
data_LiH7C3NClO
_symmetry_space_group_name_H-M   'P 1'
_cell_length_a   5.90677128
_cell_length_b   6.96186061
_cell_length_c   16.30610424
_cell_angle_alpha   90.00000000
_cell_angle_beta   100.07358480
_cell_angle_gamma   90.00000000
_symmetry_Int_Tables_number   1
_chemical_formula_structural   LiH7C3NClO
_chemical_formula_sum   'Li4 H28 C12 N4 Cl4 O4'
_cell_volume   660.20442951
_cell_formula_units_Z   4
loop_
 _symmetry_equiv_pos_site_id
 _symmetry_equiv_pos_as_xyz
  1  'x, y, z'
loop_
 _atom_site_type_symbol
 _atom_site_label
 _atom_site_symmetry_multiplicity
 _atom_site_fract_x
 _atom_site_fract_y
 _atom_site_fract_z
 _atom_site_occupancy
  Li  Li0  1  0.74196692  0.99374733  0.00332048  1.0
  Li  Li1  1  0.25803308  0.49374733  0.49667952  1.0
  Li  Li2  1  0.25803308  0.00625267  0.99667952  1.0
  Li  Li3  1  0.74196692  0.50625267  0.50332048  1.0
  H  H4  1  0.68331605  0.38809640  0.92679047  1.0
  H  H5  1  0.31668395  0.88809640  0.57320953  1.0
  H  H6  1  0.31668395  0.61190360  0.07320953  1.0
  H  H7  1  0.68331605  0.11190360  0.42679047  1.0
  H  H8  1  0.59268620  0.62916735  0.84511466  1.0
  H  H9  1  0.40731380  0.12916735  0.65488534  1.0
  H  H10  1  0.40731380  0.37083265  0.15488534  1.0
  H  H11  1  0.59268620  0.87083265  0.34511466  1.0
  H  H12  1  0.40105442  0.56672420  0.75050251  1.0
  H  H13  1  0.59894558  0.06672420  0.74949749  1.0
  H  H14  1  0.59894558  0.43327580  0.24949749  1.0
  H  H15  1  0.40105442  0.93327580  0.25050251  1.0
  H  H16  1  0.29600285  0.69440174  0.83169667  1.0
  H  H17  1  0.70399715  0.19440174  0.66830333  1.0
  H  H18  1  0.70399715  0.30559826  0.16830333  1.0
  H  H19  1  0.29600285  0.80559826  0.33169667  1.0
  H  H20  1  0.00734002  0.42665453  0.84766786  1.0
  H  H21  1  0.99265998  0.92665453  0.65233214  1.0
  H  H22  1  0.99265998  0.57334547  0.15233214  1.0
  H  H23  1  0.00734002  0.07334547  0.34766786  1.0
  H  H24  1  0.09784413  0.32149795  0.75860041  1.0
  H  H25  1  0.90215587  0.82149795  0.74139959  1.0
  H  H26  1  0.90215587  0.67850205  0.24139959  1.0
  H  H27  1  0.09784413  0.17850205  0.25860041  1.0
  H  H28  1  0.11442768  0.18460315  0.85285579  1.0
  H  H29  1  0.88557232  0.68460315  0.64714421  1.0
  H  H30  1  0.88557232  0.81539685  0.14714421  1.0
  H  H31  1  0.11442768  0.31539685  0.35285579  1.0
  C  C32  1  0.51614017  0.31352693  0.91197678  1.0
  C  C33  1  0.48385983  0.81352693  0.58802322  1.0
  C  C34  1  0.48385983  0.68647307  0.08802322  1.0
  C  C35  1  0.51614017  0.18647307  0.41197678  1.0
  C  C36  1  0.41743514  0.58386502  0.81833114  1.0
  C  C37  1  0.58256486  0.08386502  0.68166886  1.0
  C  C38  1  0.58256486  0.41613498  0.18166886  1.0
  C  C39  1  0.41743514  0.91613498  0.31833114  1.0
  C  C40  1  0.13159022  0.32798157  0.82706525  1.0
  C  C41  1  0.86840978  0.82798157  0.67293475  1.0
  C  C42  1  0.86840978  0.67201843  0.17293475  1.0
  C  C43  1  0.13159022  0.17201843  0.32706525  1.0
  N  N44  1  0.36286490  0.40221897  0.85499696  1.0
  N  N45  1  0.63713510  0.90221897  0.64500304  1.0
  N  N46  1  0.63713510  0.59778103  0.14500304  1.0
  N  N47  1  0.36286490  0.09778103  0.35499696  1.0
  Cl  Cl48  1  0.04143285  0.17077354  0.08344925  1.0
  Cl  Cl49  1  0.95856715  0.67077354  0.41655075  1.0
  Cl  Cl50  1  0.95856715  0.82922646  0.91655075  1.0
  Cl  Cl51  1  0.04143285  0.32922646  0.58344925  1.0
  O  O52  1  0.48369196  0.15822314  0.94763429  1.0
  O  O53  1  0.51630804  0.65822314  0.55236571  1.0
  O  O54  1  0.51630804  0.84177686  0.05236571  1.0
  O  O55  1  0.48369196  0.34177686  0.44763429  1.0
