# generated using pymatgen
data_Zn3Ni2Ge
_symmetry_space_group_name_H-M   'P 1'
_cell_length_a   7.70047444
_cell_length_b   7.70047444
_cell_length_c   7.70047444
_cell_angle_alpha   60.00000000
_cell_angle_beta   60.00000000
_cell_angle_gamma   60.00000000
_symmetry_Int_Tables_number   1
_chemical_formula_structural   Zn3Ni2Ge
_chemical_formula_sum   'Zn12 Ni8 Ge4'
_cell_volume   322.87725524
_cell_formula_units_Z   4
loop_
 _symmetry_equiv_pos_site_id
 _symmetry_equiv_pos_as_xyz
  1  'x, y, z'
loop_
 _atom_site_type_symbol
 _atom_site_label
 _atom_site_symmetry_multiplicity
 _atom_site_fract_x
 _atom_site_fract_y
 _atom_site_fract_z
 _atom_site_occupancy
  Zn  Zn0  1  0.56647358  0.56647358  0.93352642  1.0
  Zn  Zn1  1  0.93352642  0.56647358  0.93352642  1.0
  Zn  Zn2  1  0.56647358  0.93352642  0.93352642  1.0
  Zn  Zn3  1  0.93352642  0.93352642  0.56647358  1.0
  Zn  Zn4  1  0.56647358  0.93352642  0.56647358  1.0
  Zn  Zn5  1  0.93352642  0.56647358  0.56647358  1.0
  Zn  Zn6  1  0.68352642  0.68352642  -0.68352642  1.0
  Zn  Zn7  1  1.31647358  -0.31647358  0.31647358  1.0
  Zn  Zn8  1  -0.31647358  0.31647358  0.31647358  1.0
  Zn  Zn9  1  0.31647358  0.31647358  -0.31647358  1.0
  Zn  Zn10  1  0.68352642  -0.68352642  0.68352642  1.0
  Zn  Zn11  1  -0.68352642  0.68352642  0.68352642  1.0
  Ni  Ni12  1  0.91138584  -0.08861416  0.26584249  1.0
  Ni  Ni13  1  0.91138584  -0.73415751  0.91138584  1.0
  Ni  Ni14  1  0.26584249  0.91138584  0.91138584  1.0
  Ni  Ni15  1  0.91138584  0.91138584  0.91138584  1.0
  Ni  Ni16  1  1.33861416  0.33861416  -0.01584249  1.0
  Ni  Ni17  1  1.33861416  -0.01584249  0.33861416  1.0
  Ni  Ni18  1  0.98415751  0.33861416  0.33861416  1.0
  Ni  Ni19  1  1.33861416  0.33861416  0.33861416  1.0
  Ge  Ge20  1  0.12500000  0.12500000  1.62500000  1.0
  Ge  Ge21  1  0.12500000  0.62500000  1.12500000  1.0
  Ge  Ge22  1  1.62500000  0.12500000  0.12500000  1.0
  Ge  Ge23  1  1.12500000  0.12500000  0.12500000  1.0
