# generated using pymatgen
data_SnSe2
_symmetry_space_group_name_H-M   'P 1'
_cell_length_a   21.00752489
_cell_length_b   21.00752489
_cell_length_c   21.00752489
_cell_angle_alpha   10.57214556
_cell_angle_beta   10.57214556
_cell_angle_gamma   10.57214556
_symmetry_Int_Tables_number   1
_chemical_formula_structural   SnSe2
_chemical_formula_sum   'Sn3 Se6'
_cell_volume   271.03931669
_cell_formula_units_Z   3
loop_
 _symmetry_equiv_pos_site_id
 _symmetry_equiv_pos_as_xyz
  1  'x, y, z'
loop_
 _atom_site_type_symbol
 _atom_site_label
 _atom_site_symmetry_multiplicity
 _atom_site_fract_x
 _atom_site_fract_y
 _atom_site_fract_z
 _atom_site_occupancy
  Sn  Sn0  1  1.55546946  0.55546946  0.55546946  1.0
  Sn  Sn1  1  1.44453054  0.44453054  0.44453054  1.0
  Sn  Sn2  1  0.00000000  0.00000000  0.00000000  1.0
  Se  Se3  1  0.86332169  0.86332169  0.86332169  1.0
  Se  Se4  1  1.13667831  1.13667831  0.13667831  1.0
  Se  Se5  1  0.75237792  0.75237792  0.75237792  1.0
  Se  Se6  1  1.24762208  1.24762208  0.24762208  1.0
  Se  Se7  1  1.64116998  0.64116998  0.64116998  1.0
  Se  Se8  1  1.35883002  0.35883002  0.35883002  1.0
