# generated using pymatgen
data_KPt2Se3
_symmetry_space_group_name_H-M   'P 1'
_cell_length_a   7.84155722
_cell_length_b   7.84155722
_cell_length_c   7.84155722
_cell_angle_alpha   57.35162370
_cell_angle_beta   57.35162370
_cell_angle_gamma   57.35162370
_symmetry_Int_Tables_number   1
_chemical_formula_structural   KPt2Se3
_chemical_formula_sum   'K2 Pt4 Se6'
_cell_volume   320.16740606
_cell_formula_units_Z   2
loop_
 _symmetry_equiv_pos_site_id
 _symmetry_equiv_pos_as_xyz
  1  'x, y, z'
loop_
 _atom_site_type_symbol
 _atom_site_label
 _atom_site_symmetry_multiplicity
 _atom_site_fract_x
 _atom_site_fract_y
 _atom_site_fract_z
 _atom_site_occupancy
  K  K0  1  0.79972595  0.79972595  0.79972595  1.0
  K  K1  1  1.20027405  1.20027405  0.20027405  1.0
  Pt  Pt2  1  0.50000000  -0.00000000  -0.50000000  1.0
  Pt  Pt3  1  0.50000000  -0.50000000  -0.00000000  1.0
  Pt  Pt4  1  -0.00000000  0.50000000  -0.50000000  1.0
  Pt  Pt5  1  0.00000000  0.00000000  -0.00000000  1.0
  Se  Se6  1  1.23374316  0.23374316  0.72082216  1.0
  Se  Se7  1  1.23374316  0.72082216  0.23374316  1.0
  Se  Se8  1  1.27917784  0.76625684  0.76625684  1.0
  Se  Se9  1  1.76625684  0.27917784  0.76625684  1.0
  Se  Se10  1  1.76625684  0.76625684  0.27917784  1.0
  Se  Se11  1  1.72082216  0.23374316  0.23374316  1.0
