# generated using pymatgen
data_Sc2GaC
_symmetry_space_group_name_H-M   'P 1'
_cell_length_a   3.30316954
_cell_length_b   3.30316954
_cell_length_c   14.74150154
_cell_angle_alpha   90.00000000
_cell_angle_beta   90.00000000
_cell_angle_gamma   120.00000000
_symmetry_Int_Tables_number   1
_chemical_formula_structural   Sc2GaC
_chemical_formula_sum   'Sc4 Ga2 C2'
_cell_volume   139.29453698
_cell_formula_units_Z   2
loop_
 _symmetry_equiv_pos_site_id
 _symmetry_equiv_pos_as_xyz
  1  'x, y, z'
loop_
 _atom_site_type_symbol
 _atom_site_label
 _atom_site_symmetry_multiplicity
 _atom_site_fract_x
 _atom_site_fract_y
 _atom_site_fract_z
 _atom_site_occupancy
  Sc  Sc0  1  0.33333333  0.66666667  0.41579795  1.0
  Sc  Sc1  1  0.66666667  0.33333333  0.58420205  1.0
  Sc  Sc2  1  0.66666667  0.33333333  0.91579795  1.0
  Sc  Sc3  1  0.33333333  0.66666667  0.08420205  1.0
  Ga  Ga4  1  0.33333333  0.66666667  0.75000000  1.0
  Ga  Ga5  1  0.66666667  0.33333333  0.25000000  1.0
  C  C6  1  0.00000000  0.00000000  0.50000000  1.0
  C  C7  1  0.00000000  0.00000000  0.00000000  1.0
