# generated using pymatgen
data_Gd2GeI2
_symmetry_space_group_name_H-M   'P 1'
_cell_length_a   11.71254272
_cell_length_b   11.71254272
_cell_length_c   11.71254272
_cell_angle_alpha   21.10342773
_cell_angle_beta   21.10342773
_cell_angle_gamma   21.10342773
_symmetry_Int_Tables_number   1
_chemical_formula_structural   Gd2GeI2
_chemical_formula_sum   'Gd2 Ge1 I2'
_cell_volume   182.43019898
_cell_formula_units_Z   1
loop_
 _symmetry_equiv_pos_site_id
 _symmetry_equiv_pos_as_xyz
  1  'x, y, z'
loop_
 _atom_site_type_symbol
 _atom_site_label
 _atom_site_symmetry_multiplicity
 _atom_site_fract_x
 _atom_site_fract_y
 _atom_site_fract_z
 _atom_site_occupancy
  Gd  Gd0  1  1.62029052  0.62029052  0.62029052  1.0
  Gd  Gd1  1  1.37970948  0.37970948  0.37970948  1.0
  Ge  Ge2  1  -0.00000000  0.00000000  0.00000000  1.0
  I  I3  1  0.77167554  0.77167554  0.77167554  1.0
  I  I4  1  1.22832446  1.22832446  0.22832446  1.0
