# generated using pymatgen
data_Hf2Ni2Sn
_symmetry_space_group_name_H-M   'P 1'
_cell_length_a   7.08816264
_cell_length_b   7.08816264
_cell_length_c   6.78030759
_cell_angle_alpha   90.00000000
_cell_angle_beta   90.00000000
_cell_angle_gamma   90.00000000
_symmetry_Int_Tables_number   1
_chemical_formula_structural   Hf2Ni2Sn
_chemical_formula_sum   'Hf8 Ni8 Sn4'
_cell_volume   340.65655057
_cell_formula_units_Z   4
loop_
 _symmetry_equiv_pos_site_id
 _symmetry_equiv_pos_as_xyz
  1  'x, y, z'
loop_
 _atom_site_type_symbol
 _atom_site_label
 _atom_site_symmetry_multiplicity
 _atom_site_fract_x
 _atom_site_fract_y
 _atom_site_fract_z
 _atom_site_occupancy
  Hf  Hf0  1  0.18083897  0.18083897  0.50000000  1.0
  Hf  Hf1  1  0.68083897  0.31916103  0.00000000  1.0
  Hf  Hf2  1  0.81916103  0.81916103  0.50000000  1.0
  Hf  Hf3  1  0.31916103  0.68083897  0.00000000  1.0
  Hf  Hf4  1  0.34742776  0.65257224  0.50000000  1.0
  Hf  Hf5  1  0.84742776  0.84742776  0.00000000  1.0
  Hf  Hf6  1  0.65257224  0.34742776  0.50000000  1.0
  Hf  Hf7  1  0.15257224  0.15257224  0.00000000  1.0
  Ni  Ni8  1  0.12629224  0.87370776  0.28405876  1.0
  Ni  Ni9  1  0.12629224  0.87370776  0.71594124  1.0
  Ni  Ni10  1  0.62629224  0.62629224  0.78405876  1.0
  Ni  Ni11  1  0.62629224  0.62629224  0.21594124  1.0
  Ni  Ni12  1  0.87370776  0.12629224  0.28405876  1.0
  Ni  Ni13  1  0.87370776  0.12629224  0.71594124  1.0
  Ni  Ni14  1  0.37370776  0.37370776  0.78405876  1.0
  Ni  Ni15  1  0.37370776  0.37370776  0.21594124  1.0
  Sn  Sn16  1  0.50000000  0.00000000  0.25000000  1.0
  Sn  Sn17  1  0.50000000  0.00000000  0.75000000  1.0
  Sn  Sn18  1  0.00000000  0.50000000  0.75000000  1.0
  Sn  Sn19  1  0.00000000  0.50000000  0.25000000  1.0
