# generated using pymatgen
data_BaNi2(AsO4)2
_symmetry_space_group_name_H-M   'P 1'
_cell_length_a   8.61635389
_cell_length_b   8.61635389
_cell_length_c   8.61635389
_cell_angle_alpha   33.85955598
_cell_angle_beta   33.85955598
_cell_angle_gamma   33.85955598
_symmetry_Int_Tables_number   1
_chemical_formula_structural   BaNi2(AsO4)2
_chemical_formula_sum   'Ba1 Ni2 As2 O8'
_cell_volume   176.96553383
_cell_formula_units_Z   1
loop_
 _symmetry_equiv_pos_site_id
 _symmetry_equiv_pos_as_xyz
  1  'x, y, z'
loop_
 _atom_site_type_symbol
 _atom_site_label
 _atom_site_symmetry_multiplicity
 _atom_site_fract_x
 _atom_site_fract_y
 _atom_site_fract_z
 _atom_site_occupancy
  Ba  Ba0  1  -0.00000000  0.00000000  0.00000000  1.0
  O  O1  1  0.35801052  0.35801052  -0.64198948  1.0
  O  O2  1  0.64198948  0.64198948  -0.35801052  1.0
  O  O3  1  0.11753842  0.79067273  -0.55838520  1.0
  O  O4  1  0.55838520  -0.11753842  0.20932727  1.0
  O  O5  1  1.20932727  -0.44161480  -0.11753842  1.0
  O  O6  1  0.88246158  0.20932727  -0.44161480  1.0
  O  O7  1  0.44161480  0.11753842  -0.20932727  1.0
  O  O8  1  0.79067273  -0.55838520  0.11753842  1.0
  Ni  Ni9  1  0.16850073  0.16850073  0.16850073  1.0
  Ni  Ni10  1  0.83149927  -0.16850073  -0.16850073  1.0
  As  As11  1  0.42841215  0.42841215  -0.57158785  1.0
  As  As12  1  0.57158785  0.57158785  -0.42841215  1.0
