# generated using pymatgen
data_TbAg3H6C6(N2O)3
_symmetry_space_group_name_H-M   'P 1'
_cell_length_a   6.73381470
_cell_length_b   6.73381470
_cell_length_c   18.46251935
_cell_angle_alpha   90.00000000
_cell_angle_beta   90.00000000
_cell_angle_gamma   120.00000000
_symmetry_Int_Tables_number   1
_chemical_formula_structural   TbAg3H6C6(N2O)3
_chemical_formula_sum   'Tb2 Ag6 H12 C12 N12 O6'
_cell_volume   725.00986884
_cell_formula_units_Z   2
loop_
 _symmetry_equiv_pos_site_id
 _symmetry_equiv_pos_as_xyz
  1  'x, y, z'
loop_
 _atom_site_type_symbol
 _atom_site_label
 _atom_site_symmetry_multiplicity
 _atom_site_fract_x
 _atom_site_fract_y
 _atom_site_fract_z
 _atom_site_occupancy
  Tb  Tb0  1  0.00000000  0.00000000  0.25000000  1.0
  Tb  Tb1  1  -0.00000000  -0.00000000  0.75000000  1.0
  Ag  Ag2  1  0.50000000  0.50000000  0.50000000  1.0
  Ag  Ag3  1  0.50000000  0.50000000  -0.00000000  1.0
  Ag  Ag4  1  0.50000000  -0.00000000  0.00000000  1.0
  Ag  Ag5  1  0.50000000  0.00000000  0.50000000  1.0
  Ag  Ag6  1  -0.00000000  0.50000000  0.00000000  1.0
  Ag  Ag7  1  -0.00000000  0.50000000  0.50000000  1.0
  H  H8  1  0.45254547  0.45254547  0.29223625  1.0
  H  H9  1  0.45254547  0.45254547  0.20776375  1.0
  H  H10  1  0.45254547  -0.00000000  0.79223625  1.0
  H  H11  1  0.45254547  -0.00000000  0.70776375  1.0
  H  H12  1  -0.00000000  0.45254547  0.79223625  1.0
  H  H13  1  -0.00000000  0.45254547  0.70776375  1.0
  H  H14  1  0.00000000  0.54745453  0.29223625  1.0
  H  H15  1  0.00000000  0.54745453  0.20776375  1.0
  H  H16  1  0.54745453  0.54745453  0.79223625  1.0
  H  H17  1  0.54745453  0.54745453  0.70776375  1.0
  H  H18  1  0.54745453  0.00000000  0.29223625  1.0
  H  H19  1  0.54745453  -0.00000000  0.20776375  1.0
  C  C20  1  0.65296715  0.65296715  0.40400963  1.0
  C  C21  1  0.65296715  0.65296715  0.09599037  1.0
  C  C22  1  0.65296715  -0.00000000  0.90400963  1.0
  C  C23  1  0.65296715  -0.00000000  0.59599037  1.0
  C  C24  1  -0.00000000  0.65296715  0.90400963  1.0
  C  C25  1  -0.00000000  0.65296715  0.59599037  1.0
  C  C26  1  0.00000000  0.34703285  0.40400963  1.0
  C  C27  1  0.00000000  0.34703285  0.09599037  1.0
  C  C28  1  0.34703285  0.34703285  0.90400963  1.0
  C  C29  1  0.34703285  0.34703285  0.59599037  1.0
  C  C30  1  0.34703285  -0.00000000  0.40400963  1.0
  C  C31  1  0.34703285  0.00000000  0.09599037  1.0
  N  N32  1  0.74209925  0.74209925  0.34960996  1.0
  N  N33  1  0.74209925  0.74209925  0.15039004  1.0
  N  N34  1  0.74209925  -0.00000000  0.84960996  1.0
  N  N35  1  0.74209925  -0.00000000  0.65039004  1.0
  N  N36  1  -0.00000000  0.74209925  0.84960996  1.0
  N  N37  1  -0.00000000  0.74209925  0.65039004  1.0
  N  N38  1  0.00000000  0.25790075  0.34960996  1.0
  N  N39  1  0.00000000  0.25790075  0.15039004  1.0
  N  N40  1  0.25790075  0.25790075  0.84960996  1.0
  N  N41  1  0.25790075  0.25790075  0.65039004  1.0
  N  N42  1  0.25790075  -0.00000000  0.34960996  1.0
  N  N43  1  0.25790075  0.00000000  0.15039004  1.0
  O  O44  1  0.36536452  0.36536452  0.25000000  1.0
  O  O45  1  0.36536452  -0.00000000  0.75000000  1.0
  O  O46  1  -0.00000000  0.36536452  0.75000000  1.0
  O  O47  1  0.00000000  0.63463548  0.25000000  1.0
  O  O48  1  0.63463548  0.63463548  0.75000000  1.0
  O  O49  1  0.63463548  0.00000000  0.25000000  1.0
