# generated using pymatgen
data_AlSiHO4
_symmetry_space_group_name_H-M   'P 1'
_cell_length_a   7.10264074
_cell_length_b   4.43727861
_cell_length_c   9.27888257
_cell_angle_alpha   90.00000000
_cell_angle_beta   130.15502833
_cell_angle_gamma   90.00000000
_symmetry_Int_Tables_number   1
_chemical_formula_structural   AlSiHO4
_chemical_formula_sum   'Al4 Si4 H4 O16'
_cell_volume   223.51025630
_cell_formula_units_Z   4
loop_
 _symmetry_equiv_pos_site_id
 _symmetry_equiv_pos_as_xyz
  1  'x, y, z'
loop_
 _atom_site_type_symbol
 _atom_site_label
 _atom_site_symmetry_multiplicity
 _atom_site_fract_x
 _atom_site_fract_y
 _atom_site_fract_z
 _atom_site_occupancy
  Al  Al0  1  0.63791518  0.03246210  0.43387275  1.0
  Al  Al1  1  0.63791518  0.46753790  0.93387275  1.0
  Al  Al2  1  0.36208482  0.53246210  0.06612725  1.0
  Al  Al3  1  0.36208482  0.96753790  0.56612725  1.0
  Si  Si4  1  0.91022839  0.47003960  0.32055144  1.0
  Si  Si5  1  0.91022839  0.02996040  0.82055144  1.0
  Si  Si6  1  0.08977161  0.97003960  0.17944856  1.0
  Si  Si7  1  0.08977161  0.52996040  0.67944856  1.0
  H  H8  1  0.36428245  0.46882685  0.31307009  1.0
  H  H9  1  0.36428245  0.03117315  0.81307009  1.0
  H  H10  1  0.63571755  0.96882685  0.18692991  1.0
  H  H11  1  0.63571755  0.53117315  0.68692991  1.0
  O  O12  1  0.89356272  0.69729206  0.15307311  1.0
  O  O13  1  0.89356272  0.80270794  0.65307311  1.0
  O  O14  1  0.10643728  0.19729206  0.34692689  1.0
  O  O15  1  0.10643728  0.30270794  0.84692689  1.0
  O  O16  1  0.87395212  0.31342166  0.48008265  1.0
  O  O17  1  0.87395212  0.18657834  0.98008265  1.0
  O  O18  1  0.12604788  0.81342166  0.01991735  1.0
  O  O19  1  0.12604788  0.68657834  0.51991735  1.0
  O  O20  1  0.63856215  0.30755767  0.12524149  1.0
  O  O21  1  0.63856215  0.19244233  0.62524149  1.0
  O  O22  1  0.36143785  0.80755767  0.37475851  1.0
  O  O23  1  0.36143785  0.69244233  0.87475851  1.0
  O  O24  1  0.37259397  0.30213520  0.24249009  1.0
  O  O25  1  0.37259397  0.19786480  0.74249009  1.0
  O  O26  1  0.62740603  0.80213520  0.25750991  1.0
  O  O27  1  0.62740603  0.69786480  0.75750991  1.0
