# generated using pymatgen
data_Gd4(GeS4)3
_symmetry_space_group_name_H-M   'P 1'
_cell_length_a   11.47538981
_cell_length_b   11.47538981
_cell_length_c   11.47538981
_cell_angle_alpha   114.95691527
_cell_angle_beta   114.95691527
_cell_angle_gamma   114.95691527
_symmetry_Int_Tables_number   1
_chemical_formula_structural   Gd4(GeS4)3
_chemical_formula_sum   'Gd8 Ge6 S24'
_cell_volume   849.02648925
_cell_formula_units_Z   2
loop_
 _symmetry_equiv_pos_site_id
 _symmetry_equiv_pos_as_xyz
  1  'x, y, z'
loop_
 _atom_site_type_symbol
 _atom_site_label
 _atom_site_symmetry_multiplicity
 _atom_site_fract_x
 _atom_site_fract_y
 _atom_site_fract_z
 _atom_site_occupancy
  Gd  Gd0  1  -0.01045246  -0.01045246  -0.01045246  1.0
  Gd  Gd1  1  0.48954754  0.48954754  0.48954754  1.0
  Gd  Gd2  1  0.47410709  -0.06200366  -0.28116288  1.0
  Gd  Gd3  1  0.43799634  0.97410709  -0.78116288  1.0
  Gd  Gd4  1  0.97410709  0.21883712  0.43799634  1.0
  Gd  Gd5  1  0.71883712  0.47410709  -0.06200366  1.0
  Gd  Gd6  1  1.21883712  1.43799634  -0.02589291  1.0
  Gd  Gd7  1  0.93799634  0.71883712  0.47410709  1.0
  Ge  Ge8  1  0.64512073  0.85542568  -0.52947367  1.0
  Ge  Ge9  1  0.35542568  0.14512073  -0.02947367  1.0
  Ge  Ge10  1  1.14512073  0.97052633  0.35542568  1.0
  Ge  Ge11  1  1.47052633  0.64512073  0.85542568  1.0
  Ge  Ge12  1  0.97052633  0.35542568  0.14512073  1.0
  Ge  Ge13  1  0.85542568  0.47052633  0.64512073  1.0
  S  S14  1  0.67381966  0.86132026  -0.31772328  1.0
  S  S15  1  0.36132026  0.17381966  0.18227672  1.0
  S  S16  1  1.17381966  1.18227672  0.36132026  1.0
  S  S17  1  0.68227672  -0.32618034  -0.13867974  1.0
  S  S18  1  1.18227672  0.36132026  0.17381966  1.0
  S  S19  1  0.86132026  0.68227672  0.67381966  1.0
  S  S20  1  0.80157583  0.27263501  -0.11968275  1.0
  S  S21  1  0.77263501  0.30157583  0.38031725  1.0
  S  S22  1  1.30157583  0.38031725  0.77263501  1.0
  S  S23  1  0.88031725  0.80157583  0.27263501  1.0
  S  S24  1  0.38031725  0.77263501  -0.69842417  1.0
  S  S25  1  1.27263501  0.88031725  0.80157583  1.0
  S  S26  1  0.85769487  1.13746310  -0.40755014  1.0
  S  S27  1  0.63746310  0.35769487  0.09244986  1.0
  S  S28  1  0.35769487  0.09244986  -0.36253690  1.0
  S  S29  1  0.59244986  -0.14230513  0.13746310  1.0
  S  S30  1  1.09244986  0.63746310  0.35769487  1.0
  S  S31  1  1.13746310  0.59244986  0.85769487  1.0
  S  S32  1  0.79304039  0.11025244  0.08689378  1.0
  S  S33  1  0.61025244  1.29304039  -0.41310622  1.0
  S  S34  1  1.29304039  0.58689378  0.61025244  1.0
  S  S35  1  1.08689378  0.79304039  0.11025244  1.0
  S  S36  1  0.58689378  0.61025244  -0.70695961  1.0
  S  S37  1  1.11025244  1.08689378  0.79304039  1.0
