# generated using pymatgen
data_Ba2Mn(HO)6
_symmetry_space_group_name_H-M   'P 1'
_cell_length_a   6.04591464
_cell_length_b   6.55256160
_cell_length_c   10.41467934
_cell_angle_alpha   90.00000000
_cell_angle_beta   124.38556973
_cell_angle_gamma   90.00000000
_symmetry_Int_Tables_number   1
_chemical_formula_structural   Ba2Mn(HO)6
_chemical_formula_sum   'Ba4 Mn2 H12 O12'
_cell_volume   340.49253269
_cell_formula_units_Z   2
loop_
 _symmetry_equiv_pos_site_id
 _symmetry_equiv_pos_as_xyz
  1  'x, y, z'
loop_
 _atom_site_type_symbol
 _atom_site_label
 _atom_site_symmetry_multiplicity
 _atom_site_fract_x
 _atom_site_fract_y
 _atom_site_fract_z
 _atom_site_occupancy
  Ba  Ba0  1  0.72526868  0.06456397  0.25507723  1.0
  Ba  Ba1  1  0.72526868  0.43543603  0.75507723  1.0
  Ba  Ba2  1  0.27473132  0.56456397  0.24492277  1.0
  Ba  Ba3  1  0.27473132  0.93543603  0.74492277  1.0
  Mn  Mn4  1  -0.00000000  0.50000000  0.50000000  1.0
  Mn  Mn5  1  0.00000000  0.00000000  0.00000000  1.0
  H  H6  1  0.69010244  0.77854617  0.51165633  1.0
  H  H7  1  0.69010244  0.72145383  0.01165633  1.0
  H  H8  1  0.30989756  0.27854617  -0.01165633  1.0
  H  H9  1  0.30989756  0.22145383  0.48834367  1.0
  H  H10  1  0.70379955  0.32384984  0.03105271  1.0
  H  H11  1  0.70379955  0.17615016  0.53105271  1.0
  H  H12  1  0.29620045  0.82384984  0.46894729  1.0
  H  H13  1  0.29620045  0.67615016  0.96894729  1.0
  H  H14  1  0.30044704  0.07246985  0.31161793  1.0
  H  H15  1  0.30044704  0.42753015  0.81161793  1.0
  H  H16  1  0.69955296  0.57246985  0.18838207  1.0
  H  H17  1  0.69955296  0.92753015  0.68838207  1.0
  O  O18  1  0.84146198  0.47303206  0.25307446  1.0
  O  O19  1  0.84146198  0.02696794  0.75307446  1.0
  O  O20  1  0.15853802  0.97303206  0.24692554  1.0
  O  O21  1  0.15853802  0.52696794  0.74692554  1.0
  O  O22  1  0.78473420  0.77260262  0.46040257  1.0
  O  O23  1  0.78473420  0.72739738  0.96040257  1.0
  O  O24  1  0.21526580  0.27260262  0.03959743  1.0
  O  O25  1  0.21526580  0.22739738  0.53959743  1.0
  O  O26  1  0.61805209  0.28103072  0.45003163  1.0
  O  O27  1  0.61805209  0.21896928  0.95003163  1.0
  O  O28  1  0.38194791  0.78103072  0.04996837  1.0
  O  O29  1  0.38194791  0.71896928  0.54996837  1.0
