# generated using pymatgen
data_KBa4Bi3O
_symmetry_space_group_name_H-M   'P 1'
_cell_length_a   10.65219725
_cell_length_b   10.65219725
_cell_length_c   10.65219725
_cell_angle_alpha   129.48095949
_cell_angle_beta   129.48095949
_cell_angle_gamma   74.23791079
_symmetry_Int_Tables_number   1
_chemical_formula_structural   KBa4Bi3O
_chemical_formula_sum   'K2 Ba8 Bi6 O2'
_cell_volume   701.98734322
_cell_formula_units_Z   2
loop_
 _symmetry_equiv_pos_site_id
 _symmetry_equiv_pos_as_xyz
  1  'x, y, z'
loop_
 _atom_site_type_symbol
 _atom_site_label
 _atom_site_symmetry_multiplicity
 _atom_site_fract_x
 _atom_site_fract_y
 _atom_site_fract_z
 _atom_site_occupancy
  K  K0  1  0.00000000  0.00000000  0.00000000  1.0
  K  K1  1  0.50000000  0.50000000  1.00000000  1.0
  Ba  Ba2  1  1.18977332  0.68977332  1.19040946  1.0
  Ba  Ba3  1  0.50063615  1.00063615  1.19040946  1.0
  Ba  Ba4  1  0.99936385  1.18977332  1.50000000  1.0
  Ba  Ba5  1  0.31022668  0.50063615  0.50000000  1.0
  Ba  Ba6  1  0.68977332  0.49936385  0.50000000  1.0
  Ba  Ba7  1  1.00063615  0.81022668  1.50000000  1.0
  Ba  Ba8  1  0.49936385  0.99936385  0.80959054  1.0
  Ba  Ba9  1  0.81022668  0.31022668  0.80959054  1.0
  Bi  Bi10  1  0.87938816  0.37938816  1.25877633  1.0
  Bi  Bi11  1  0.62061184  0.87938816  1.50000000  1.0
  Bi  Bi12  1  0.37938816  0.12061184  0.50000000  1.0
  Bi  Bi13  1  0.12061184  0.62061184  0.74122367  1.0
  Bi  Bi14  1  0.75000000  0.75000000  1.00000000  1.0
  Bi  Bi15  1  0.25000000  0.25000000  0.00000000  1.0
  O  O16  1  0.25000000  0.75000000  0.50000000  1.0
  O  O17  1  0.75000000  0.25000000  0.50000000  1.0
