# generated using pymatgen
data_Pb3WO6
_symmetry_space_group_name_H-M   'P 1'
_cell_length_a   8.07981310
_cell_length_b   8.94710093
_cell_length_c   10.43336966
_cell_angle_alpha   90.00000000
_cell_angle_beta   87.06177238
_cell_angle_gamma   90.00000000
_symmetry_Int_Tables_number   1
_chemical_formula_structural   Pb3WO6
_chemical_formula_sum   'Pb12 W4 O24'
_cell_volume   753.24618035
_cell_formula_units_Z   4
loop_
 _symmetry_equiv_pos_site_id
 _symmetry_equiv_pos_as_xyz
  1  'x, y, z'
loop_
 _atom_site_type_symbol
 _atom_site_label
 _atom_site_symmetry_multiplicity
 _atom_site_fract_x
 _atom_site_fract_y
 _atom_site_fract_z
 _atom_site_occupancy
  Pb  Pb0  1  0.25363191  0.00288501  0.75245973  1.0
  Pb  Pb1  1  0.74636809  0.50288501  0.74754027  1.0
  Pb  Pb2  1  0.74636809  0.99711499  0.24754027  1.0
  Pb  Pb3  1  0.25363191  0.49711499  0.25245973  1.0
  Pb  Pb4  1  0.50475554  0.19329871  0.99058717  1.0
  Pb  Pb5  1  0.49524446  0.69329871  0.50941283  1.0
  Pb  Pb6  1  0.49524446  0.80670129  0.00941283  1.0
  Pb  Pb7  1  0.50475554  0.30670129  0.49058717  1.0
  Pb  Pb8  1  0.21299468  1.05301697  0.27556266  1.0
  Pb  Pb9  1  0.78700532  0.55301697  0.22443734  1.0
  Pb  Pb10  1  0.78700532  -0.05301697  0.72443734  1.0
  Pb  Pb11  1  0.21299468  0.44698303  0.77556266  1.0
  W  W12  1  0.00978034  0.19278291  0.00486054  1.0
  W  W13  1  0.99021966  0.69278291  0.49513946  1.0
  W  W14  1  0.99021966  0.80721709  0.99513946  1.0
  W  W15  1  0.00978034  0.30721709  0.50486054  1.0
  O  O16  1  0.46177590  0.01270111  0.14128852  1.0
  O  O17  1  0.53822410  0.51270111  0.35871148  1.0
  O  O18  1  0.53822410  0.98729889  0.85871148  1.0
  O  O19  1  0.46177590  0.48729889  0.64128852  1.0
  O  O20  1  0.13469059  0.25209958  0.14282268  1.0
  O  O21  1  0.86530941  0.75209958  0.35717732  1.0
  O  O22  1  0.86530941  0.74790042  0.85717732  1.0
  O  O23  1  0.13469059  0.24790042  0.64282268  1.0
  O  O24  1  0.23790641  0.17977173  0.90837712  1.0
  O  O25  1  0.76209359  0.67977173  0.59162288  1.0
  O  O26  1  0.76209359  0.82022827  0.09162288  1.0
  O  O27  1  0.23790641  0.32022827  0.40837712  1.0
  O  O28  1  0.80281472  0.18401573  0.09413715  1.0
  O  O29  1  0.19718528  0.68401573  0.40586285  1.0
  O  O30  1  0.19718528  0.81598427  0.90586285  1.0
  O  O31  1  0.80281472  0.31598427  0.59413715  1.0
  O  O32  1  0.95920470  0.03172338  0.88596272  1.0
  O  O33  1  0.04079530  0.53172338  0.61403728  1.0
  O  O34  1  0.04079530  0.96827662  0.11403728  1.0
  O  O35  1  0.95920470  0.46827662  0.38596272  1.0
  O  O36  1  1.03932545  0.64212294  1.08191667  1.0
  O  O37  1  -0.03932545  0.14212294  0.41808333  1.0
  O  O38  1  -0.03932545  0.35787706  -0.08191667  1.0
  O  O39  1  1.03932545  0.85787706  0.58191667  1.0
