# generated using pymatgen
data_Ba(TeP2)2
_symmetry_space_group_name_H-M   'P 1'
_cell_length_a   16.68835738
_cell_length_b   6.53234829
_cell_length_c   7.23099794
_cell_angle_alpha   90.00000000
_cell_angle_beta   90.00000000
_cell_angle_gamma   90.00000000
_symmetry_Int_Tables_number   1
_chemical_formula_structural   Ba(TeP2)2
_chemical_formula_sum   'Ba4 Te8 P16'
_cell_volume   788.28118703
_cell_formula_units_Z   4
loop_
 _symmetry_equiv_pos_site_id
 _symmetry_equiv_pos_as_xyz
  1  'x, y, z'
loop_
 _atom_site_type_symbol
 _atom_site_label
 _atom_site_symmetry_multiplicity
 _atom_site_fract_x
 _atom_site_fract_y
 _atom_site_fract_z
 _atom_site_occupancy
  Ba  Ba0  1  0.33838163  0.75000000  0.59945002  1.0
  Ba  Ba1  1  0.83838163  0.75000000  0.90054998  1.0
  Ba  Ba2  1  0.66161837  0.25000000  0.40054998  1.0
  Ba  Ba3  1  0.16161837  0.25000000  0.09945002  1.0
  Te  Te4  1  0.25199633  0.75000000  0.08640219  1.0
  Te  Te5  1  0.75199633  0.75000000  0.41359781  1.0
  Te  Te6  1  0.74800367  0.25000000  0.91359781  1.0
  Te  Te7  1  0.24800367  0.25000000  0.58640219  1.0
  Te  Te8  1  0.06411446  0.75000000  0.93673012  1.0
  Te  Te9  1  0.56411446  0.75000000  0.56326988  1.0
  Te  Te10  1  0.93588554  0.25000000  0.06326988  1.0
  Te  Te11  1  0.43588554  0.25000000  0.43673012  1.0
  P  P12  1  0.43494218  0.99196923  0.96240749  1.0
  P  P13  1  0.43494218  0.50803077  0.96240749  1.0
  P  P14  1  0.93494218  0.99196923  0.53759251  1.0
  P  P15  1  0.93494218  0.50803077  0.53759251  1.0
  P  P16  1  0.56505782  0.49196923  0.03759251  1.0
  P  P17  1  0.56505782  0.00803077  0.03759251  1.0
  P  P18  1  0.06505782  0.49196923  0.46240749  1.0
  P  P19  1  0.06505782  0.00803077  0.46240749  1.0
  P  P20  1  0.40308253  0.75000000  0.16582683  1.0
  P  P21  1  0.90308253  0.75000000  0.33417317  1.0
  P  P22  1  0.59691747  0.25000000  0.83417317  1.0
  P  P23  1  0.09691747  0.25000000  0.66582683  1.0
  P  P24  1  0.12186913  0.75000000  0.61736454  1.0
  P  P25  1  0.62186913  0.75000000  0.88263546  1.0
  P  P26  1  0.87813087  0.25000000  0.38263546  1.0
  P  P27  1  0.37813087  0.25000000  0.11736454  1.0
