# generated using pymatgen
data_YCu2
_symmetry_space_group_name_H-M   'P 1'
_cell_length_a   5.46632036
_cell_length_b   5.46632036
_cell_length_c   5.46632036
_cell_angle_alpha   133.86429978
_cell_angle_beta   102.21596634
_cell_angle_gamma   95.47722705
_symmetry_Int_Tables_number   1
_chemical_formula_structural   YCu2
_chemical_formula_sum   'Y2 Cu4'
_cell_volume   108.09191550
_cell_formula_units_Z   2
loop_
 _symmetry_equiv_pos_site_id
 _symmetry_equiv_pos_as_xyz
  1  'x, y, z'
loop_
 _atom_site_type_symbol
 _atom_site_label
 _atom_site_symmetry_multiplicity
 _atom_site_fract_x
 _atom_site_fract_y
 _atom_site_fract_z
 _atom_site_occupancy
  Y  Y0  1  1.70728171  1.45728171  1.25000000  1.0
  Y  Y1  1  0.29271829  0.54271829  0.75000000  1.0
  Cu  Cu2  1  1.28515833  0.83516784  1.44999050  1.0
  Cu  Cu3  1  1.11482266  0.16483216  0.94999050  1.0
  Cu  Cu4  1  0.71484167  1.16483216  0.55000950  1.0
  Cu  Cu5  1  0.88517734  0.83516784  0.05000950  1.0
