# generated using pymatgen
data_Li2Fe(PO4)2
_symmetry_space_group_name_H-M   'P 1'
_cell_length_a   4.93426372
_cell_length_b   8.04140864
_cell_length_c   8.82013193
_cell_angle_alpha   90.00000000
_cell_angle_beta   119.57432868
_cell_angle_gamma   90.00000000
_symmetry_Int_Tables_number   1
_chemical_formula_structural   Li2Fe(PO4)2
_chemical_formula_sum   'Li4 Fe2 P4 O16'
_cell_volume   304.37368801
_cell_formula_units_Z   2
loop_
 _symmetry_equiv_pos_site_id
 _symmetry_equiv_pos_as_xyz
  1  'x, y, z'
loop_
 _atom_site_type_symbol
 _atom_site_label
 _atom_site_symmetry_multiplicity
 _atom_site_fract_x
 _atom_site_fract_y
 _atom_site_fract_z
 _atom_site_occupancy
  Fe  Fe0  1  -0.00000000  0.50000000  0.50000000  1.0
  Fe  Fe1  1  -0.00000000  0.00000000  -0.00000000  1.0
  O  O2  1  0.73834810  0.12157812  0.04813759  1.0
  O  O3  1  0.73834810  0.37842188  0.54813759  1.0
  O  O4  1  0.26165190  0.62157812  0.45186241  1.0
  O  O5  1  0.26165190  0.87842188  0.95186241  1.0
  O  O6  1  0.78712694  0.06574262  0.34865969  1.0
  O  O7  1  0.78712694  0.43425738  0.84865969  1.0
  O  O8  1  0.21287306  0.56574262  0.15134031  1.0
  O  O9  1  0.21287306  0.93425738  0.65134031  1.0
  O  O10  1  0.28719953  0.18088060  0.09810686  1.0
  O  O11  1  0.28719953  0.31911940  0.59810686  1.0
  O  O12  1  0.71280047  0.68088060  0.40189314  1.0
  O  O13  1  0.71280047  0.81911940  0.90189314  1.0
  O  O14  1  0.78125022  0.36136278  0.23774606  1.0
  O  O15  1  0.78125022  0.13863722  0.73774606  1.0
  O  O16  1  0.21874978  0.86136278  0.26225394  1.0
  O  O17  1  0.21874978  0.63863722  0.76225394  1.0
  P  P18  1  0.65791664  0.18144435  0.19476368  1.0
  P  P19  1  0.65791664  0.31855565  0.69476368  1.0
  P  P20  1  0.34208336  0.68144435  0.30523632  1.0
  P  P21  1  0.34208336  0.81855565  0.80523632  1.0
  Li  Li22  1  1.00868838  0.86856357  0.41165935  1.0
  Li  Li23  1  1.00868838  0.63143643  0.91165935  1.0
  Li  Li24  1  -0.00868838  0.36856357  0.08834065  1.0
  Li  Li25  1  -0.00868838  0.13143643  0.58834065  1.0
