# generated using pymatgen
data_K3Al4P2O8F9
_symmetry_space_group_name_H-M   'P 1'
_cell_length_a   6.83603528
_cell_length_b   14.05162706
_cell_length_c   7.41032189
_cell_angle_alpha   90.00000000
_cell_angle_beta   106.17814188
_cell_angle_gamma   90.00000000
_symmetry_Int_Tables_number   1
_chemical_formula_structural   K3Al4P2O8F9
_chemical_formula_sum   'K6 Al8 P4 O16 F18'
_cell_volume   683.62849583
_cell_formula_units_Z   2
loop_
 _symmetry_equiv_pos_site_id
 _symmetry_equiv_pos_as_xyz
  1  'x, y, z'
loop_
 _atom_site_type_symbol
 _atom_site_label
 _atom_site_symmetry_multiplicity
 _atom_site_fract_x
 _atom_site_fract_y
 _atom_site_fract_z
 _atom_site_occupancy
  K  K0  1  0.41973196  0.25000000  0.95955060  1.0
  K  K1  1  0.58026804  0.75000000  0.04044940  1.0
  K  K2  1  0.68425917  0.48738528  0.29020143  1.0
  K  K3  1  0.68425917  0.01261472  0.29020143  1.0
  K  K4  1  0.31574083  0.98738528  0.70979857  1.0
  K  K5  1  0.31574083  0.51261472  0.70979857  1.0
  Al  Al6  1  0.82683673  0.37786633  0.81828325  1.0
  Al  Al7  1  0.82683673  0.12213367  0.81828325  1.0
  Al  Al8  1  0.17316327  0.87786633  0.18171675  1.0
  Al  Al9  1  0.17316327  0.62213367  0.18171675  1.0
  Al  Al10  1  0.98404785  0.25000000  0.46295715  1.0
  Al  Al11  1  0.01595215  0.75000000  0.53704285  1.0
  Al  Al12  1  0.47223931  0.25000000  0.44790246  1.0
  Al  Al13  1  0.52776069  0.75000000  0.55209754  1.0
  P  P14  1  0.84880695  0.89761952  0.78423661  1.0
  P  P15  1  0.84880695  0.60238048  0.78423661  1.0
  P  P16  1  0.15119305  0.39761952  0.21576339  1.0
  P  P17  1  0.15119305  0.10238048  0.21576339  1.0
  O  O18  1  0.99763528  0.34975462  0.30621421  1.0
  O  O19  1  0.99763528  0.15024538  0.30621421  1.0
  O  O20  1  0.00236472  0.84975462  0.69378579  1.0
  O  O21  1  0.00236472  0.65024538  0.69378579  1.0
  O  O22  1  0.81724685  0.49842569  0.71097778  1.0
  O  O23  1  0.81724685  0.00157431  0.71097778  1.0
  O  O24  1  0.18275315  0.99842569  0.28902222  1.0
  O  O25  1  0.18275315  0.50157431  0.28902222  1.0
  O  O26  1  0.63863418  0.84570691  0.72359910  1.0
  O  O27  1  0.63863418  0.65429309  0.72359910  1.0
  O  O28  1  0.36136582  0.34570691  0.27640090  1.0
  O  O29  1  0.36136582  0.15429309  0.27640090  1.0
  O  O30  1  0.07460526  0.39438515  0.99865078  1.0
  O  O31  1  0.07460526  0.10561485  0.99865078  1.0
  O  O32  1  0.92539474  0.89438515  0.00134922  1.0
  O  O33  1  0.92539474  0.60561485  0.00134922  1.0
  F  F34  1  0.26566400  0.25000000  0.56530064  1.0
  F  F35  1  0.73433600  0.75000000  0.43469936  1.0
  F  F36  1  0.97319923  0.33873760  0.64821306  1.0
  F  F37  1  0.97319923  0.16126240  0.64821306  1.0
  F  F38  1  0.02680077  0.83873760  0.35178694  1.0
  F  F39  1  0.02680077  0.66126240  0.35178694  1.0
  F  F40  1  0.65227794  0.40811323  0.95138026  1.0
  F  F41  1  0.65227794  0.09188677  0.95138026  1.0
  F  F42  1  0.34772206  0.90811323  0.04861974  1.0
  F  F43  1  0.34772206  0.59188677  0.04861974  1.0
  F  F44  1  0.59117778  0.34422152  0.61945767  1.0
  F  F45  1  0.59117778  0.15577848  0.61945767  1.0
  F  F46  1  0.40882222  0.84422152  0.38054233  1.0
  F  F47  1  0.40882222  0.65577848  0.38054233  1.0
  F  F48  1  0.81956213  0.25000000  0.88837647  1.0
  F  F49  1  0.18043787  0.75000000  0.11162353  1.0
  F  F50  1  0.70396229  0.25000000  0.36837553  1.0
  F  F51  1  0.29603771  0.75000000  0.63162447  1.0
