# generated using pymatgen
data_SbTe3O8
_symmetry_space_group_name_H-M   'P 1'
_cell_length_a   10.08096705
_cell_length_b   10.08096705
_cell_length_c   10.08096705
_cell_angle_alpha   109.47122063
_cell_angle_beta   109.47122063
_cell_angle_gamma   109.47122063
_symmetry_Int_Tables_number   1
_chemical_formula_structural   SbTe3O8
_chemical_formula_sum   'Sb4 Te12 O32'
_cell_volume   788.65070440
_cell_formula_units_Z   4
loop_
 _symmetry_equiv_pos_site_id
 _symmetry_equiv_pos_as_xyz
  1  'x, y, z'
loop_
 _atom_site_type_symbol
 _atom_site_label
 _atom_site_symmetry_multiplicity
 _atom_site_fract_x
 _atom_site_fract_y
 _atom_site_fract_z
 _atom_site_occupancy
  Sb  Sb0  1  1.00000000  0.50000000  1.00000000  1.0
  Sb  Sb1  1  0.50000000  0.50000000  0.50000000  1.0
  Sb  Sb2  1  1.00000000  1.00000000  1.50000000  1.0
  Sb  Sb3  1  1.50000000  1.00000000  1.00000000  1.0
  Te  Te4  1  0.79982753  0.54982753  0.25000000  1.0
  Te  Te5  1  1.29982753  1.04982753  1.25000000  1.0
  Te  Te6  1  0.75000000  0.70017247  0.95017247  1.0
  Te  Te7  1  1.25000000  1.29982753  1.04982753  1.0
  Te  Te8  1  0.25000000  0.79982753  0.54982753  1.0
  Te  Te9  1  0.75000000  1.20017247  0.45017247  1.0
  Te  Te10  1  0.54982753  1.25000000  0.79982753  1.0
  Te  Te11  1  1.04982753  1.25000000  1.29982753  1.0
  Te  Te12  1  0.95017247  0.75000000  0.70017247  1.0
  Te  Te13  1  1.45017247  0.75000000  1.20017247  1.0
  Te  Te14  1  1.20017247  0.45017247  0.75000000  1.0
  Te  Te15  1  0.70017247  0.95017247  0.75000000  1.0
  O  O16  1  0.56601147  0.52365724  0.73397796  1.0
  O  O17  1  1.06601147  1.33203351  1.04235423  1.0
  O  O18  1  0.28967928  0.83203351  0.76602204  1.0
  O  O19  1  0.78967928  1.02365724  0.45764577  1.0
  O  O20  1  0.54235423  1.21032072  0.97634276  1.0
  O  O21  1  1.04235423  1.06601147  1.33203351  1.0
  O  O22  1  0.73397796  0.56601147  0.52365724  1.0
  O  O23  1  1.23397796  0.71032072  1.16796649  1.0
  O  O24  1  0.83203351  0.76602204  0.28967928  1.0
  O  O25  1  1.33203351  1.04235423  1.06601147  1.0
  O  O26  1  0.97634276  1.54235423  1.21032072  1.0
  O  O27  1  1.47634276  1.26602204  1.43398853  1.0
  O  O28  1  1.71032072  1.16796649  1.23397796  1.0
  O  O29  1  1.21032072  0.97634276  1.54235423  1.0
  O  O30  1  1.43398853  1.47634276  1.26602204  1.0
  O  O31  1  0.93398853  0.66796649  0.95764577  1.0
  O  O32  1  1.26602204  1.43398853  1.47634276  1.0
  O  O33  1  0.76602204  1.28967928  0.83203351  1.0
  O  O34  1  1.45764577  0.78967928  1.02365724  1.0
  O  O35  1  0.95764577  0.93398853  0.66796649  1.0
  O  O36  1  1.02365724  0.45764577  0.78967928  1.0
  O  O37  1  0.52365724  0.73397796  0.56601147  1.0
  O  O38  1  1.16796649  1.23397796  1.71032072  1.0
  O  O39  1  0.66796649  0.95764577  0.93398853  1.0
  O  O40  1  0.67078921  1.50000000  1.00000000  1.0
  O  O41  1  1.17078921  1.17078921  1.17078921  1.0
  O  O42  1  1.00000000  0.67078921  1.50000000  1.0
  O  O43  1  1.50000000  1.00000000  1.32921079  1.0
  O  O44  1  1.00000000  1.32921079  1.50000000  1.0
  O  O45  1  0.50000000  1.00000000  0.67078921  1.0
  O  O46  1  1.32921079  0.50000000  1.00000000  1.0
  O  O47  1  0.82921079  0.82921079  0.82921079  1.0
