# generated using pymatgen
data_TiSe
_symmetry_space_group_name_H-M   'P 1'
_cell_length_a   6.48431351
_cell_length_b   3.46356907
_cell_length_c   6.26451409
_cell_angle_alpha   90.00000000
_cell_angle_beta   90.00000000
_cell_angle_gamma   90.00000000
_symmetry_Int_Tables_number   1
_chemical_formula_structural   TiSe
_chemical_formula_sum   'Ti4 Se4'
_cell_volume   140.69389338
_cell_formula_units_Z   4
loop_
 _symmetry_equiv_pos_site_id
 _symmetry_equiv_pos_as_xyz
  1  'x, y, z'
loop_
 _atom_site_type_symbol
 _atom_site_label
 _atom_site_symmetry_multiplicity
 _atom_site_fract_x
 _atom_site_fract_y
 _atom_site_fract_z
 _atom_site_occupancy
  Ti  Ti0  1  0.99368287  0.75000000  0.19340191  1.0
  Ti  Ti1  1  0.49368287  0.75000000  0.30659809  1.0
  Ti  Ti2  1  0.00631713  0.25000000  0.80659809  1.0
  Ti  Ti3  1  0.50631713  0.25000000  0.69340191  1.0
  Se  Se4  1  0.78437123  0.75000000  0.57891894  1.0
  Se  Se5  1  0.28437123  0.75000000  0.92108106  1.0
  Se  Se6  1  0.21562877  0.25000000  0.42108106  1.0
  Se  Se7  1  0.71562877  0.25000000  0.07891894  1.0
