# generated using pymatgen
data_Ca3Tl5
_symmetry_space_group_name_H-M   'P 1'
_cell_length_a   6.70625471
_cell_length_b   6.70625471
_cell_length_c   10.84890356
_cell_angle_alpha   90.00000000
_cell_angle_beta   90.00000000
_cell_angle_gamma   75.97053739
_symmetry_Int_Tables_number   1
_chemical_formula_structural   Ca3Tl5
_chemical_formula_sum   'Ca6 Tl10'
_cell_volume   473.36300583
_cell_formula_units_Z   2
loop_
 _symmetry_equiv_pos_site_id
 _symmetry_equiv_pos_as_xyz
  1  'x, y, z'
loop_
 _atom_site_type_symbol
 _atom_site_label
 _atom_site_symmetry_multiplicity
 _atom_site_fract_x
 _atom_site_fract_y
 _atom_site_fract_z
 _atom_site_occupancy
  Ca  Ca0  1  0.77925283  0.77925283  0.50000000  1.0
  Ca  Ca1  1  0.77925283  0.77925283  0.00000000  1.0
  Ca  Ca2  1  0.22074717  0.22074717  0.50000000  1.0
  Ca  Ca3  1  0.22074717  0.22074717  0.00000000  1.0
  Ca  Ca4  1  -0.43251947  1.43251947  0.25000000  1.0
  Ca  Ca5  1  0.43251947  0.56748053  0.75000000  1.0
  Tl  Tl6  1  0.04095708  0.51843856  0.25000000  1.0
  Tl  Tl7  1  -0.48156144  1.04095708  0.75000000  1.0
  Tl  Tl8  1  0.48156144  0.95904292  0.25000000  1.0
  Tl  Tl9  1  -0.04095708  1.48156144  0.75000000  1.0
  Tl  Tl10  1  0.28721516  0.71278484  0.47255428  1.0
  Tl  Tl11  1  0.28721516  0.71278484  0.02744572  1.0
  Tl  Tl12  1  -0.28721516  1.28721516  0.97255428  1.0
  Tl  Tl13  1  -0.28721516  1.28721516  0.52744572  1.0
  Tl  Tl14  1  -0.02403104  1.02403104  0.25000000  1.0
  Tl  Tl15  1  0.02403104  0.97596896  0.75000000  1.0
