# generated using pymatgen
data_TlAsF6
_symmetry_space_group_name_H-M   'P 1'
_cell_length_a   5.23795110
_cell_length_b   5.23795110
_cell_length_c   5.23795110
_cell_angle_alpha   97.59415261
_cell_angle_beta   97.59415261
_cell_angle_gamma   97.59415261
_symmetry_Int_Tables_number   1
_chemical_formula_structural   TlAsF6
_chemical_formula_sum   'Tl1 As1 F6'
_cell_volume   139.55248879
_cell_formula_units_Z   1
loop_
 _symmetry_equiv_pos_site_id
 _symmetry_equiv_pos_as_xyz
  1  'x, y, z'
loop_
 _atom_site_type_symbol
 _atom_site_label
 _atom_site_symmetry_multiplicity
 _atom_site_fract_x
 _atom_site_fract_y
 _atom_site_fract_z
 _atom_site_occupancy
  Tl  Tl0  1  0.50000000  0.50000000  0.50000000  1.0
  As  As1  1  0.00000000  0.00000000  0.00000000  1.0
  F  F2  1  0.76657524  0.74936257  0.07832429  1.0
  F  F3  1  1.25063743  -0.07832429  0.23342476  1.0
  F  F4  1  0.92167571  0.23342476  0.25063743  1.0
  F  F5  1  1.23342476  0.25063743  -0.07832429  1.0
  F  F6  1  0.74936257  1.07832429  -0.23342476  1.0
  F  F7  1  1.07832429  0.76657524  -0.25063743  1.0
