# generated using pymatgen
data_Co3H2(C4O5)2
_symmetry_space_group_name_H-M   'P 1'
_cell_length_a   7.73211144
_cell_length_b   7.73211144
_cell_length_c   5.61272738
_cell_angle_alpha   90.98465072
_cell_angle_beta   89.01534928
_cell_angle_gamma   75.47694658
_symmetry_Int_Tables_number   1
_chemical_formula_structural   Co3H2(C4O5)2
_chemical_formula_sum   'Co3 H2 C8 O10'
_cell_volume   324.70970988
_cell_formula_units_Z   1
loop_
 _symmetry_equiv_pos_site_id
 _symmetry_equiv_pos_as_xyz
  1  'x, y, z'
loop_
 _atom_site_type_symbol
 _atom_site_label
 _atom_site_symmetry_multiplicity
 _atom_site_fract_x
 _atom_site_fract_y
 _atom_site_fract_z
 _atom_site_occupancy
  C  C0  1  0.56562676  -0.05024337  0.83785871  1.0
  C  C1  1  1.05024337  0.43437324  0.83785871  1.0
  C  C2  1  0.94975663  -0.43437324  0.16214129  1.0
  C  C3  1  1.43437324  0.05024337  0.16214129  1.0
  C  C4  1  0.37931510  -0.00544639  0.92815095  1.0
  C  C5  1  1.00544639  0.62068490  0.92815095  1.0
  C  C6  1  0.99455361  -0.62068490  0.07184905  1.0
  C  C7  1  1.62068490  0.00544639  0.07184905  1.0
  H  H8  1  0.79705160  -0.79705160  0.71918672  1.0
  H  H9  1  0.20294840  -0.20294840  0.28081328  1.0
  Co  Co10  1  0.88320389  -0.11679611  0.50000000  1.0
  Co  Co11  1  1.11679611  0.11679611  0.50000000  1.0
  Co  Co12  1  0.00000000  0.00000000  0.00000000  1.0
  O  O13  1  0.63950297  -0.11334049  0.64470885  1.0
  O  O14  1  1.11334049  0.36049703  0.64470885  1.0
  O  O15  1  0.88665951  -0.36049703  0.35529115  1.0
  O  O16  1  1.36049703  0.11334049  0.35529115  1.0
  O  O17  1  0.23277537  -0.01272754  0.83354629  1.0
  O  O18  1  1.01272754  0.76722463  0.83354629  1.0
  O  O19  1  0.98727246  -0.76722463  0.16645371  1.0
  O  O20  1  1.76722463  0.01272754  0.16645371  1.0
  O  O21  1  0.89972998  -0.89972998  0.70756674  1.0
  O  O22  1  0.10027002  -0.10027002  0.29243326  1.0
