# generated using pymatgen
data_NbSeBr3
_symmetry_space_group_name_H-M   'P 1'
_cell_length_a   7.02152708
_cell_length_b   7.44880810
_cell_length_c   12.80048999
_cell_angle_alpha   90.00000000
_cell_angle_beta   97.94806766
_cell_angle_gamma   90.00000000
_symmetry_Int_Tables_number   1
_chemical_formula_structural   NbSeBr3
_chemical_formula_sum   'Nb4 Se4 Br12'
_cell_volume   663.06006354
_cell_formula_units_Z   4
loop_
 _symmetry_equiv_pos_site_id
 _symmetry_equiv_pos_as_xyz
  1  'x, y, z'
loop_
 _atom_site_type_symbol
 _atom_site_label
 _atom_site_symmetry_multiplicity
 _atom_site_fract_x
 _atom_site_fract_y
 _atom_site_fract_z
 _atom_site_occupancy
  Nb  Nb0  1  0.93008362  0.62564214  0.84967169  1.0
  Nb  Nb1  1  0.93008362  0.37435786  0.34967169  1.0
  Nb  Nb2  1  0.06991638  0.62564214  0.65032831  1.0
  Nb  Nb3  1  0.06991638  0.37435786  0.15032831  1.0
  Se  Se4  1  0.84595471  0.87799667  0.70263046  1.0
  Se  Se5  1  0.84595471  0.12200333  0.20263046  1.0
  Se  Se6  1  0.15404529  0.87799667  0.79736954  1.0
  Se  Se7  1  0.15404529  0.12200333  0.29736954  1.0
  Br  Br8  1  0.85620378  0.67726065  0.46289175  1.0
  Br  Br9  1  0.85620378  0.32273935  0.96289175  1.0
  Br  Br10  1  0.14379621  0.67726065  0.03710825  1.0
  Br  Br11  1  0.14379622  0.32273935  0.53710825  1.0
  Br  Br12  1  0.76248931  0.42926792  0.69712291  1.0
  Br  Br13  1  0.76248931  0.57073208  0.19712291  1.0
  Br  Br14  1  0.23751069  0.42926792  0.80287709  1.0
  Br  Br15  1  0.23751069  0.57073208  0.30287709  1.0
  Br  Br16  1  0.64216797  0.76144319  0.92001884  1.0
  Br  Br17  1  0.64216797  0.23855681  0.42001884  1.0
  Br  Br18  1  0.35783203  0.76144319  0.57998116  1.0
  Br  Br19  1  0.35783203  0.23855681  0.07998116  1.0
