# generated using pymatgen
data_CoBiAsO5
_symmetry_space_group_name_H-M   'P 1'
_cell_length_a   5.31972710
_cell_length_b   6.92763254
_cell_length_c   6.96781110
_cell_angle_alpha   110.86283626
_cell_angle_beta   107.25569472
_cell_angle_gamma   96.24929721
_symmetry_Int_Tables_number   1
_chemical_formula_structural   CoBiAsO5
_chemical_formula_sum   'Co2 Bi2 As2 O10'
_cell_volume   222.43146412
_cell_formula_units_Z   2
loop_
 _symmetry_equiv_pos_site_id
 _symmetry_equiv_pos_as_xyz
  1  'x, y, z'
loop_
 _atom_site_type_symbol
 _atom_site_label
 _atom_site_symmetry_multiplicity
 _atom_site_fract_x
 _atom_site_fract_y
 _atom_site_fract_z
 _atom_site_occupancy
  Bi  Bi0  1  0.40349430  0.73664771  0.96512702  1.0
  Bi  Bi1  1  0.59650570  0.26335229  0.03487298  1.0
  As  As2  1  0.84427914  0.31225890  0.60881788  1.0
  As  As3  1  0.15572086  0.68774110  0.39118212  1.0
  Co  Co4  1  0.83615606  0.87167689  0.73629040  1.0
  Co  Co5  1  0.16384394  0.12832311  0.26370960  1.0
  O  O6  1  0.92624335  0.58259704  0.79393172  1.0
  O  O7  1  0.07375665  0.41740296  0.20606828  1.0
  O  O8  1  0.86413122  0.74653245  0.43582682  1.0
  O  O9  1  0.13586878  0.25346755  0.56417318  1.0
  O  O10  1  0.73308133  0.15112746  0.72802871  1.0
  O  O11  1  0.26691867  0.84887254  0.27197129  1.0
  O  O12  1  0.42473760  0.72536636  0.62970048  1.0
  O  O13  1  0.57526240  0.27463364  0.37029952  1.0
  O  O14  1  0.77294290  0.00230383  0.04716375  1.0
  O  O15  1  0.22705710  0.99769617  0.95283625  1.0
