# generated using pymatgen
data_Rb2LiGaF6
_symmetry_space_group_name_H-M   'P 1'
_cell_length_a   10.27044428
_cell_length_b   10.27044428
_cell_length_c   10.27044428
_cell_angle_alpha   33.77106710
_cell_angle_beta   33.77106710
_cell_angle_gamma   33.77106710
_symmetry_Int_Tables_number   1
_chemical_formula_structural   Rb2LiGaF6
_chemical_formula_sum   'Rb4 Li2 Ga2 F12'
_cell_volume   298.27678390
_cell_formula_units_Z   2
loop_
 _symmetry_equiv_pos_site_id
 _symmetry_equiv_pos_as_xyz
  1  'x, y, z'
loop_
 _atom_site_type_symbol
 _atom_site_label
 _atom_site_symmetry_multiplicity
 _atom_site_fract_x
 _atom_site_fract_y
 _atom_site_fract_z
 _atom_site_occupancy
  Rb  Rb0  1  0.78272436  0.78272436  0.78272436  1.0
  Rb  Rb1  1  1.21727564  1.21727564  0.21727564  1.0
  Rb  Rb2  1  1.62760061  0.62760061  0.62760061  1.0
  Rb  Rb3  1  1.37239939  0.37239939  0.37239939  1.0
  Li  Li4  1  0.90379759  0.90379759  0.90379759  1.0
  Li  Li5  1  1.09620241  1.09620241  0.09620241  1.0
  Ga  Ga6  1  1.50000000  0.50000000  0.50000000  1.0
  Ga  Ga7  1  0.00000000  0.00000000  -0.00000000  1.0
  F  F8  1  1.30667640  0.30667640  0.77273962  1.0
  F  F9  1  1.30667640  0.77273962  0.30667640  1.0
  F  F10  1  1.22726038  0.69332360  0.69332360  1.0
  F  F11  1  1.69332360  0.22726038  0.69332360  1.0
  F  F12  1  1.69332360  0.69332360  0.22726038  1.0
  F  F13  1  1.77273962  0.30667640  0.30667640  1.0
  F  F14  1  1.10663707  1.10663707  0.66492340  1.0
  F  F15  1  1.10663707  1.66492340  0.10663707  1.0
  F  F16  1  1.33507660  0.89336293  -0.10663707  1.0
  F  F17  1  0.89336293  1.33507660  -0.10663707  1.0
  F  F18  1  0.89336293  0.89336293  0.33507660  1.0
  F  F19  1  1.66492340  1.10663707  0.10663707  1.0
