# generated using pymatgen
data_Rb2ZnBr4
_symmetry_space_group_name_H-M   'P 1'
_cell_length_a   7.80108502
_cell_length_b   9.82988512
_cell_length_c   15.67704309
_cell_angle_alpha   90.00000000
_cell_angle_beta   117.81313484
_cell_angle_gamma   90.00000000
_symmetry_Int_Tables_number   1
_chemical_formula_structural   Rb2ZnBr4
_chemical_formula_sum   'Rb8 Zn4 Br16'
_cell_volume   1063.29235867
_cell_formula_units_Z   4
loop_
 _symmetry_equiv_pos_site_id
 _symmetry_equiv_pos_as_xyz
  1  'x, y, z'
loop_
 _atom_site_type_symbol
 _atom_site_label
 _atom_site_symmetry_multiplicity
 _atom_site_fract_x
 _atom_site_fract_y
 _atom_site_fract_z
 _atom_site_occupancy
  Rb  Rb0  1  0.54261747  0.99494343  0.32543335  1.0
  Rb  Rb1  1  0.54261747  0.50505657  0.82543335  1.0
  Rb  Rb2  1  0.45738253  0.49494343  0.17456665  1.0
  Rb  Rb3  1  0.45738253  0.00505657  0.67456665  1.0
  Rb  Rb4  1  0.13652100  0.37824241  0.40235185  1.0
  Rb  Rb5  1  0.13652100  0.12175759  0.90235185  1.0
  Rb  Rb6  1  0.86347900  0.87824241  0.09764815  1.0
  Rb  Rb7  1  0.86347900  0.62175759  0.59764815  1.0
  Zn  Zn8  1  0.82901082  0.27532892  0.08257680  1.0
  Zn  Zn9  1  0.82901082  0.22467108  0.58257680  1.0
  Zn  Zn10  1  0.17098918  0.77532892  0.41742320  1.0
  Zn  Zn11  1  0.17098918  0.72467108  0.91742320  1.0
  Br  Br12  1  0.15645574  0.18959276  0.13134424  1.0
  Br  Br13  1  0.15645574  0.31040724  0.63134424  1.0
  Br  Br14  1  0.84354426  0.68959276  0.36865576  1.0
  Br  Br15  1  0.84354426  0.81040724  0.86865576  1.0
  Br  Br16  1  0.61626161  0.33275794  0.42794613  1.0
  Br  Br17  1  0.61626161  0.16724206  0.92794613  1.0
  Br  Br18  1  0.38373839  0.83275794  0.07205387  1.0
  Br  Br19  1  0.38373839  0.66724206  0.57205387  1.0
  Br  Br20  1  0.80865487  0.52018314  0.07524384  1.0
  Br  Br21  1  0.80865487  0.97981686  0.57524384  1.0
  Br  Br22  1  0.19134513  0.02018314  0.42475616  1.0
  Br  Br23  1  0.19134513  0.47981686  0.92475616  1.0
  Br  Br24  1  0.73879544  0.19991553  0.20477367  1.0
  Br  Br25  1  0.73879544  0.30008447  0.70477367  1.0
  Br  Br26  1  0.26120456  0.69991553  0.29522633  1.0
  Br  Br27  1  0.26120456  0.80008447  0.79522633  1.0
