# generated using pymatgen
data_Li3Sc(BO3)2
_symmetry_space_group_name_H-M   'P 1'
_cell_length_a   4.80576913
_cell_length_b   5.99442381
_cell_length_c   9.47507603
_cell_angle_alpha   90.00000000
_cell_angle_beta   119.78831681
_cell_angle_gamma   90.00000000
_symmetry_Int_Tables_number   1
_chemical_formula_structural   Li3Sc(BO3)2
_chemical_formula_sum   'Li6 Sc2 B4 O12'
_cell_volume   236.88966441
_cell_formula_units_Z   2
loop_
 _symmetry_equiv_pos_site_id
 _symmetry_equiv_pos_as_xyz
  1  'x, y, z'
loop_
 _atom_site_type_symbol
 _atom_site_label
 _atom_site_symmetry_multiplicity
 _atom_site_fract_x
 _atom_site_fract_y
 _atom_site_fract_z
 _atom_site_occupancy
  Li  Li0  1  0.31296898  0.24841695  0.29715843  1.0
  Li  Li1  1  0.31296898  0.25158305  0.79715843  1.0
  Li  Li2  1  0.68703102  0.74841695  0.20284157  1.0
  Li  Li3  1  0.68703102  0.75158305  0.70284157  1.0
  Li  Li4  1  0.00000000  0.50000000  0.00000000  1.0
  Li  Li5  1  -0.00000000  0.00000000  0.50000000  1.0
  Sc  Sc6  1  -0.00000000  0.50000000  0.50000000  1.0
  Sc  Sc7  1  0.00000000  0.00000000  0.00000000  1.0
  B  B8  1  0.61151653  0.30510840  0.12502830  1.0
  B  B9  1  0.61151653  0.19489160  0.62502830  1.0
  B  B10  1  0.38848347  0.80510840  0.37497170  1.0
  B  B11  1  0.38848347  0.69489160  0.87497170  1.0
  O  O12  1  0.87860493  0.26408186  0.11005189  1.0
  O  O13  1  0.87860493  0.23591814  0.61005189  1.0
  O  O14  1  0.12139507  0.76408186  0.38994811  1.0
  O  O15  1  0.12139507  0.73591814  0.88994811  1.0
  O  O16  1  0.63322314  0.41274785  0.26000595  1.0
  O  O17  1  0.63322314  0.08725215  0.76000595  1.0
  O  O18  1  0.36677686  0.91274785  0.23999405  1.0
  O  O19  1  0.36677686  0.58725215  0.73999405  1.0
  O  O20  1  0.31002907  0.25373745  0.49820234  1.0
  O  O21  1  0.31002907  0.24626255  0.99820234  1.0
  O  O22  1  0.68997093  0.75373745  0.00179766  1.0
  O  O23  1  0.68997093  0.74626255  0.50179766  1.0
