# generated using pymatgen
data_Nb6Co16Si7
_symmetry_space_group_name_H-M   'P 1'
_cell_length_a   7.89884596
_cell_length_b   7.89884596
_cell_length_c   7.89884596
_cell_angle_alpha   60.00000000
_cell_angle_beta   60.00000000
_cell_angle_gamma   60.00000000
_symmetry_Int_Tables_number   1
_chemical_formula_structural   Nb6Co16Si7
_chemical_formula_sum   'Nb6 Co16 Si7'
_cell_volume   348.47845769
_cell_formula_units_Z   1
loop_
 _symmetry_equiv_pos_site_id
 _symmetry_equiv_pos_as_xyz
  1  'x, y, z'
loop_
 _atom_site_type_symbol
 _atom_site_label
 _atom_site_symmetry_multiplicity
 _atom_site_fract_x
 _atom_site_fract_y
 _atom_site_fract_z
 _atom_site_occupancy
  Nb  Nb0  1  -0.70349747  0.70349747  0.70349747  1.0
  Nb  Nb1  1  -0.29650253  0.29650253  0.70349747  1.0
  Nb  Nb2  1  0.70349747  0.70349747  -0.70349747  1.0
  Nb  Nb3  1  0.29650253  1.29650253  -0.29650253  1.0
  Nb  Nb4  1  0.29650253  -0.29650253  1.29650253  1.0
  Nb  Nb5  1  -0.29650253  0.29650253  0.29650253  1.0
  Co  Co6  1  0.88127878  0.88127878  -0.11872122  1.0
  Co  Co7  1  1.11872122  0.11872122  0.64383635  1.0
  Co  Co8  1  1.11872122  0.64383635  0.11872122  1.0
  Co  Co9  1  0.35616365  0.88127878  -0.11872122  1.0
  Co  Co10  1  1.64383635  0.11872122  0.11872122  1.0
  Co  Co11  1  0.88127878  0.35616365  -0.11872122  1.0
  Co  Co12  1  0.88127878  0.88127878  -0.64383635  1.0
  Co  Co13  1  1.11872122  0.11872122  0.11872122  1.0
  Co  Co14  1  0.66639667  0.66639667  -0.33360333  1.0
  Co  Co15  1  1.33360333  0.33360333  -0.00080998  1.0
  Co  Co16  1  1.33360333  -0.00080998  0.33360333  1.0
  Co  Co17  1  1.00080998  0.66639667  -0.33360333  1.0
  Co  Co18  1  0.99919002  0.33360333  0.33360333  1.0
  Co  Co19  1  0.66639667  1.00080998  -0.33360333  1.0
  Co  Co20  1  0.66639667  0.66639667  0.00080998  1.0
  Co  Co21  1  1.33360333  0.33360333  0.33360333  1.0
  Si  Si22  1  1.50000000  -0.00000000  0.00000000  1.0
  Si  Si23  1  1.00000000  0.50000000  -0.50000000  1.0
  Si  Si24  1  -0.00000000  1.50000000  0.00000000  1.0
  Si  Si25  1  0.50000000  1.00000000  -0.50000000  1.0
  Si  Si26  1  0.00000000  -0.00000000  0.50000000  1.0
  Si  Si27  1  0.50000000  -0.50000000  1.00000000  1.0
  Si  Si28  1  0.00000000  0.00000000  0.00000000  1.0
