# generated using pymatgen
data_Ta(TeCl3)2
_symmetry_space_group_name_H-M   'P 1'
_cell_length_a   7.36161060
_cell_length_b   7.36045745
_cell_length_c   12.00970869
_cell_angle_alpha   103.34943823
_cell_angle_beta   99.56950669
_cell_angle_gamma   81.17068008
_symmetry_Int_Tables_number   1
_chemical_formula_structural   Ta(TeCl3)2
_chemical_formula_sum   'Ta2 Te4 Cl12'
_cell_volume   619.84054586
_cell_formula_units_Z   2
loop_
 _symmetry_equiv_pos_site_id
 _symmetry_equiv_pos_as_xyz
  1  'x, y, z'
loop_
 _atom_site_type_symbol
 _atom_site_label
 _atom_site_symmetry_multiplicity
 _atom_site_fract_x
 _atom_site_fract_y
 _atom_site_fract_z
 _atom_site_occupancy
  Ta  Ta0  1  0.82960172  0.30350867  -0.79201798  1.0
  Ta  Ta1  1  0.17039828  0.69649133  -0.20798202  1.0
  Te  Te2  1  0.40716198  0.89792272  -0.65763872  1.0
  Te  Te3  1  0.59283802  0.10207728  -0.34236128  1.0
  Te  Te4  1  0.65252272  0.76292797  -0.49064421  1.0
  Te  Te5  1  0.34747728  0.23707203  -0.50935579  1.0
  Cl  Cl6  1  0.69616491  1.02466982  -0.86292381  1.0
  Cl  Cl7  1  0.30383509  -0.02466982  -0.13707619  1.0
  Cl  Cl8  1  0.86472855  0.85181217  -0.18723113  1.0
  Cl  Cl9  1  0.13527145  0.14818783  -0.81276887  1.0
  Cl  Cl10  1  0.20889289  0.63187522  -1.02529213  1.0
  Cl  Cl11  1  0.79110711  0.36812478  0.02529213  1.0
  Cl  Cl12  1  0.95336110  0.59207978  -0.71117721  1.0
  Cl  Cl13  1  0.04663890  0.40792022  -0.28882279  1.0
  Cl  Cl14  1  0.52598441  0.46586840  -0.75462611  1.0
  Cl  Cl15  1  0.47401559  0.53413160  -0.24537389  1.0
  Cl  Cl16  1  0.87008148  0.24203027  -0.60038978  1.0
  Cl  Cl17  1  0.12991852  0.75796973  -0.39961022  1.0
