# generated using pymatgen
data_Re8NiMo6
_symmetry_space_group_name_H-M   'P 1'
_cell_length_a   9.51398765
_cell_length_b   9.51398765
_cell_length_c   5.01869038
_cell_angle_alpha   90.00000000
_cell_angle_beta   90.00000000
_cell_angle_gamma   90.00000000
_symmetry_Int_Tables_number   1
_chemical_formula_structural   Re8NiMo6
_chemical_formula_sum   'Re16 Ni2 Mo12'
_cell_volume   454.27158231
_cell_formula_units_Z   2
loop_
 _symmetry_equiv_pos_site_id
 _symmetry_equiv_pos_as_xyz
  1  'x, y, z'
loop_
 _atom_site_type_symbol
 _atom_site_label
 _atom_site_symmetry_multiplicity
 _atom_site_fract_x
 _atom_site_fract_y
 _atom_site_fract_z
 _atom_site_occupancy
  Re  Re0  1  0.43440644  0.24336919  0.50000000  1.0
  Re  Re1  1  0.56559356  0.75663081  0.50000000  1.0
  Re  Re2  1  0.06559356  0.74336919  0.00000000  1.0
  Re  Re3  1  0.93440644  0.25663081  0.00000000  1.0
  Re  Re4  1  0.24336919  0.43440644  0.50000000  1.0
  Re  Re5  1  0.75663081  0.56559356  0.50000000  1.0
  Re  Re6  1  0.74336919  0.06559356  0.00000000  1.0
  Re  Re7  1  0.25663081  0.93440644  0.00000000  1.0
  Re  Re8  1  0.32127557  0.67872443  0.25014770  1.0
  Re  Re9  1  0.67872443  0.32127557  0.25014770  1.0
  Re  Re10  1  0.17872443  0.17872443  0.75014770  1.0
  Re  Re11  1  0.82127557  0.82127557  0.75014770  1.0
  Re  Re12  1  0.67872443  0.32127557  0.74985230  1.0
  Re  Re13  1  0.32127557  0.67872443  0.74985230  1.0
  Re  Re14  1  0.82127557  0.82127557  0.24985230  1.0
  Re  Re15  1  0.17872443  0.17872443  0.24985230  1.0
  Ni  Ni16  1  0.50000000  0.50000000  0.50000000  1.0
  Ni  Ni17  1  0.00000000  0.00000000  0.00000000  1.0
  Mo  Mo18  1  0.09907367  0.90092633  0.50000000  1.0
  Mo  Mo19  1  0.90092633  0.09907367  0.50000000  1.0
  Mo  Mo20  1  0.40092633  0.40092633  0.00000000  1.0
  Mo  Mo21  1  0.59907367  0.59907367  0.00000000  1.0
  Mo  Mo22  1  0.36912846  0.96245971  0.50000000  1.0
  Mo  Mo23  1  0.63087154  0.03754029  0.50000000  1.0
  Mo  Mo24  1  0.13087154  0.46245971  0.00000000  1.0
  Mo  Mo25  1  0.86912846  0.53754029  0.00000000  1.0
  Mo  Mo26  1  0.96245971  0.36912846  0.50000000  1.0
  Mo  Mo27  1  0.03754029  0.63087154  0.50000000  1.0
  Mo  Mo28  1  0.46245971  0.13087154  0.00000000  1.0
  Mo  Mo29  1  0.53754029  0.86912846  0.00000000  1.0
