# generated using pymatgen
data_Hf12Zn5C
_symmetry_space_group_name_H-M   'P 1'
_cell_length_a   10.66929927
_cell_length_b   10.66929927
_cell_length_c   10.66929927
_cell_angle_alpha   60.00000000
_cell_angle_beta   60.00000000
_cell_angle_gamma   60.00000000
_symmetry_Int_Tables_number   1
_chemical_formula_structural   Hf12Zn5C
_chemical_formula_sum   'Hf24 Zn10 C2'
_cell_volume   858.80129954
_cell_formula_units_Z   2
loop_
 _symmetry_equiv_pos_site_id
 _symmetry_equiv_pos_as_xyz
  1  'x, y, z'
loop_
 _atom_site_type_symbol
 _atom_site_label
 _atom_site_symmetry_multiplicity
 _atom_site_fract_x
 _atom_site_fract_y
 _atom_site_fract_z
 _atom_site_occupancy
  Hf  Hf0  1  0.95591940  -0.60038434  0.68854554  1.0
  Hf  Hf1  1  -0.04408060  0.68854554  0.39961566  1.0
  Hf  Hf2  1  -0.14961566  0.29408060  0.29408060  1.0
  Hf  Hf3  1  0.56145446  0.29408060  0.29408060  1.0
  Hf  Hf4  1  -0.60038434  0.95591940  0.68854554  1.0
  Hf  Hf5  1  0.95591940  -0.04408060  0.68854554  1.0
  Hf  Hf6  1  0.95591940  -0.31145446  0.95591940  1.0
  Hf  Hf7  1  -0.60038434  0.68854554  0.95591940  1.0
  Hf  Hf8  1  0.29408060  -0.14961566  0.29408060  1.0
  Hf  Hf9  1  0.29408060  0.29408060  -0.14961566  1.0
  Hf  Hf10  1  0.56145446  0.29408060  -0.14961566  1.0
  Hf  Hf11  1  0.56145446  -0.14961566  0.29408060  1.0
  Hf  Hf12  1  0.68854554  -0.04408060  0.95591940  1.0
  Hf  Hf13  1  -0.60038434  0.95591940  0.95591940  1.0
  Hf  Hf14  1  0.29408060  0.56145446  -0.14961566  1.0
  Hf  Hf15  1  0.29408060  -0.14961566  0.56145446  1.0
  Hf  Hf16  1  -0.31145446  0.95591940  0.39961566  1.0
  Hf  Hf17  1  0.68854554  -0.60038434  0.95591940  1.0
  Hf  Hf18  1  0.95591940  -0.60038434  0.95591940  1.0
  Hf  Hf19  1  -0.04408060  0.95591940  0.39961566  1.0
  Hf  Hf20  1  0.29408060  0.56145446  0.29408060  1.0
  Hf  Hf21  1  -0.14961566  0.56145446  0.29408060  1.0
  Hf  Hf22  1  -0.14961566  0.29408060  0.56145446  1.0
  Hf  Hf23  1  0.29408060  0.29408060  0.56145446  1.0
  Zn  Zn24  1  0.66615085  -0.33384915  1.00154744  1.0
  Zn  Zn25  1  0.66615085  0.00154744  0.66615085  1.0
  Zn  Zn26  1  0.58384915  -0.41615085  0.58384915  1.0
  Zn  Zn27  1  1.24845256  -0.41615085  0.58384915  1.0
  Zn  Zn28  1  1.00154744  -0.33384915  0.66615085  1.0
  Zn  Zn29  1  0.66615085  -0.33384915  0.66615085  1.0
  Zn  Zn30  1  0.58384915  0.24845256  0.58384915  1.0
  Zn  Zn31  1  0.58384915  -0.41615085  1.24845256  1.0
  Zn  Zn32  1  0.50000000  0.50000000  -0.50000000  1.0
  Zn  Zn33  1  0.75000000  -0.25000000  0.75000000  1.0
  C  C34  1  0.00000000  1.00000000  0.00000000  1.0
  C  C35  1  0.25000000  0.25000000  0.25000000  1.0
