# generated using pymatgen
data_SiO2
_symmetry_space_group_name_H-M   'P 1'
_cell_length_a   12.38763121
_cell_length_b   12.38763121
_cell_length_c   5.14687830
_cell_angle_alpha   90.00000000
_cell_angle_beta   90.00000000
_cell_angle_gamma   120.00000000
_symmetry_Int_Tables_number   1
_chemical_formula_structural   SiO2
_chemical_formula_sum   'Si12 O24'
_cell_volume   683.99206870
_cell_formula_units_Z   12
loop_
 _symmetry_equiv_pos_site_id
 _symmetry_equiv_pos_as_xyz
  1  'x, y, z'
loop_
 _atom_site_type_symbol
 _atom_site_label
 _atom_site_symmetry_multiplicity
 _atom_site_fract_x
 _atom_site_fract_y
 _atom_site_fract_z
 _atom_site_occupancy
  O  O0  1  0.80267044  0.40133522  0.75000000  1.0
  O  O1  1  0.59866478  0.19732956  0.75000000  1.0
  O  O2  1  0.59866478  0.40133522  0.75000000  1.0
  O  O3  1  0.19732956  0.59866478  0.25000000  1.0
  O  O4  1  0.40133522  0.80267044  0.25000000  1.0
  O  O5  1  0.40133522  0.59866478  0.25000000  1.0
  O  O6  1  0.50000000  0.00000000  0.00000000  1.0
  O  O7  1  0.50000000  0.50000000  0.00000000  1.0
  O  O8  1  -0.00000000  0.50000000  0.00000000  1.0
  O  O9  1  0.50000000  0.50000000  0.50000000  1.0
  O  O10  1  -0.00000000  0.50000000  0.50000000  1.0
  O  O11  1  0.50000000  0.00000000  0.50000000  1.0
  O  O12  1  0.79961789  0.59923578  0.25000000  1.0
  O  O13  1  0.79961789  0.20038211  0.25000000  1.0
  O  O14  1  0.40076422  0.20038211  0.25000000  1.0
  O  O15  1  0.20038211  0.79961789  0.75000000  1.0
  O  O16  1  0.59923578  0.79961789  0.75000000  1.0
  O  O17  1  0.20038211  0.40076422  0.75000000  1.0
  O  O18  1  0.79148341  0.39574170  0.25000000  1.0
  O  O19  1  0.60425830  0.20851659  0.25000000  1.0
  O  O20  1  0.60425830  0.39574170  0.25000000  1.0
  O  O21  1  0.20851659  0.60425830  0.75000000  1.0
  O  O22  1  0.39574170  0.79148341  0.75000000  1.0
  O  O23  1  0.39574170  0.60425830  0.75000000  1.0
  Si  Si24  1  0.51249183  0.14008411  0.01849999  1.0
  Si  Si25  1  0.62759228  0.48750817  0.01849999  1.0
  Si  Si26  1  0.85991589  0.37240772  0.01849999  1.0
  Si  Si27  1  0.48750817  0.62759228  0.51849999  1.0
  Si  Si28  1  0.14008411  0.51249183  0.51849999  1.0
  Si  Si29  1  0.37240772  0.85991589  0.51849999  1.0
  Si  Si30  1  0.48750817  0.85991589  0.98150001  1.0
  Si  Si31  1  0.37240772  0.51249183  0.98150001  1.0
  Si  Si32  1  0.14008411  0.62759228  0.98150001  1.0
  Si  Si33  1  0.51249183  0.37240772  0.48150001  1.0
  Si  Si34  1  0.85991589  0.48750817  0.48150001  1.0
  Si  Si35  1  0.62759228  0.14008411  0.48150001  1.0
