# generated using pymatgen
data_Y(BIr)2
_symmetry_space_group_name_H-M   'P 1'
_cell_length_a   7.10394876
_cell_length_b   6.13061733
_cell_length_c   5.49941065
_cell_angle_alpha   75.07929551
_cell_angle_beta   56.50043473
_cell_angle_gamma   48.42026976
_symmetry_Int_Tables_number   1
_chemical_formula_structural   Y(BIr)2
_chemical_formula_sum   'Y2 B4 Ir4'
_cell_volume   147.10898929
_cell_formula_units_Z   2
loop_
 _symmetry_equiv_pos_site_id
 _symmetry_equiv_pos_as_xyz
  1  'x, y, z'
loop_
 _atom_site_type_symbol
 _atom_site_label
 _atom_site_symmetry_multiplicity
 _atom_site_fract_x
 _atom_site_fract_y
 _atom_site_fract_z
 _atom_site_occupancy
  Y  Y0  1  0.75000000  0.75000000  0.75000000  1.0
  Y  Y1  1  0.50000000  0.50000000  -0.50000000  1.0
  B  B2  1  0.06819374  1.43180626  0.06819374  1.0
  B  B3  1  0.43180626  1.06819374  0.43180626  1.0
  B  B4  1  1.18180626  -0.18180626  0.18180626  1.0
  B  B5  1  0.81819374  0.18180626  -0.18180626  1.0
  Ir  Ir6  1  0.12154056  1.12154056  0.37845944  1.0
  Ir  Ir7  1  0.37845944  0.37845944  0.12154056  1.0
  Ir  Ir8  1  1.12845944  0.12845944  -0.12845944  1.0
  Ir  Ir9  1  0.87154056  0.87154056  0.12845944  1.0
