# generated using pymatgen
data_Na2SnO3
_symmetry_space_group_name_H-M   'P 1'
_cell_length_a   5.62461817
_cell_length_b   5.62461817
_cell_length_c   11.24623683
_cell_angle_alpha   85.10552654
_cell_angle_beta   94.89447346
_cell_angle_gamma   59.96655224
_symmetry_Int_Tables_number   1
_chemical_formula_structural   Na2SnO3
_chemical_formula_sum   'Na8 Sn4 O12'
_cell_volume   303.49670460
_cell_formula_units_Z   4
loop_
 _symmetry_equiv_pos_site_id
 _symmetry_equiv_pos_as_xyz
  1  'x, y, z'
loop_
 _atom_site_type_symbol
 _atom_site_label
 _atom_site_symmetry_multiplicity
 _atom_site_fract_x
 _atom_site_fract_y
 _atom_site_fract_z
 _atom_site_occupancy
  Na  Na0  1  0.65871748  0.18287887  0.99995694  1.0
  Na  Na1  1  0.81712113  -0.65871748  0.49995694  1.0
  Na  Na2  1  1.18287887  -0.34128252  0.50004306  1.0
  Na  Na3  1  0.34128252  -0.18287887  0.00004306  1.0
  Na  Na4  1  0.58547392  -0.41452608  0.75000000  1.0
  Na  Na5  1  0.41452608  0.41452608  0.25000000  1.0
  Na  Na6  1  0.50000000  0.00000000  0.50000000  1.0
  Na  Na7  1  1.00000000  -0.50000000  0.00000000  1.0
  Sn  Sn8  1  0.91891317  -0.08108683  0.75000000  1.0
  Sn  Sn9  1  0.08108683  0.08108683  0.25000000  1.0
  Sn  Sn10  1  0.25176771  0.25176771  0.75000000  1.0
  Sn  Sn11  1  0.74823229  -0.25176771  0.25000000  1.0
  O  O12  1  0.82061089  0.00901264  0.35578237  1.0
  O  O13  1  0.99098736  -0.82061089  0.85578237  1.0
  O  O14  1  1.00901264  -0.17938911  0.14421763  1.0
  O  O15  1  0.17938911  -0.00901264  0.64421763  1.0
  O  O16  1  0.62140797  -0.08009610  0.85531593  1.0
  O  O17  1  1.08009610  -0.62140797  0.35531593  1.0
  O  O18  1  0.91990390  -0.37859203  0.64468407  1.0
  O  O19  1  0.37859203  0.08009610  0.14468407  1.0
  O  O20  1  0.54833597  0.25296771  0.64292176  1.0
  O  O21  1  0.74703229  -0.54833597  0.14292176  1.0
  O  O22  1  1.25296771  -0.45166403  0.85707824  1.0
  O  O23  1  0.45166403  -0.25296771  0.35707824  1.0
