# generated using pymatgen
data_Zn3Te2P2(PbO7)2
_symmetry_space_group_name_H-M   'P 1'
_cell_length_a   5.35003056
_cell_length_b   8.02144848
_cell_length_c   15.46504737
_cell_angle_alpha   90.00000000
_cell_angle_beta   89.88948510
_cell_angle_gamma   90.00000000
_symmetry_Int_Tables_number   1
_chemical_formula_structural   Zn3Te2P2(PbO7)2
_chemical_formula_sum   'Zn6 Te4 P4 Pb4 O28'
_cell_volume   663.68118807
_cell_formula_units_Z   2
loop_
 _symmetry_equiv_pos_site_id
 _symmetry_equiv_pos_as_xyz
  1  'x, y, z'
loop_
 _atom_site_type_symbol
 _atom_site_label
 _atom_site_symmetry_multiplicity
 _atom_site_fract_x
 _atom_site_fract_y
 _atom_site_fract_z
 _atom_site_occupancy
  Zn  Zn0  1  0.98917270  0.39096555  0.38415541  1.0
  Zn  Zn1  1  0.01082730  0.89096555  0.11584459  1.0
  Zn  Zn2  1  0.01082730  0.60903445  0.61584459  1.0
  Zn  Zn3  1  0.98917270  0.10903445  0.88415541  1.0
  Zn  Zn4  1  0.00000000  0.50000000  0.00000000  1.0
  Zn  Zn5  1  0.00000000  0.00000000  0.50000000  1.0
  Te  Te6  1  0.51072383  0.28053390  0.51291928  1.0
  Te  Te7  1  0.48927617  0.78053390  0.98708072  1.0
  Te  Te8  1  0.48927617  0.71946610  0.48708072  1.0
  Te  Te9  1  0.51072383  0.21946610  0.01291928  1.0
  P  P10  1  0.95676918  0.26294517  0.19108735  1.0
  P  P11  1  0.04323082  0.76294517  0.30891265  1.0
  P  P12  1  0.04323082  0.73705483  0.80891265  1.0
  P  P13  1  0.95676918  0.23705483  0.69108735  1.0
  Pb  Pb14  1  0.49574339  0.06371717  0.30331517  1.0
  Pb  Pb15  1  0.50425661  0.56371717  0.19668483  1.0
  Pb  Pb16  1  0.50425661  0.93628283  0.69668483  1.0
  Pb  Pb17  1  0.49574339  0.43628283  0.80331517  1.0
  O  O18  1  0.81334710  0.30649090  0.27790981  1.0
  O  O19  1  0.18665290  0.80649090  0.22209019  1.0
  O  O20  1  0.18665290  0.69350910  0.72209019  1.0
  O  O21  1  0.81334710  0.19350910  0.77790981  1.0
  O  O22  1  0.24262192  0.25836321  0.20562457  1.0
  O  O23  1  0.75737808  0.75836321  0.29437543  1.0
  O  O24  1  0.75737808  0.74163679  0.79437543  1.0
  O  O25  1  0.24262192  0.24163679  0.70562457  1.0
  O  O26  1  0.88409422  0.39875560  0.12351576  1.0
  O  O27  1  0.11590578  0.89875560  0.37648424  1.0
  O  O28  1  0.11590578  0.60124440  0.87648424  1.0
  O  O29  1  0.88409422  0.10124440  0.62351576  1.0
  O  O30  1  0.15589344  0.59204115  0.33848699  1.0
  O  O31  1  0.84410656  0.09204115  0.16151301  1.0
  O  O32  1  0.84410656  0.40795885  0.66151301  1.0
  O  O33  1  0.15589344  0.90795885  0.83848699  1.0
  O  O34  1  0.71005180  0.11030228  0.44774308  1.0
  O  O35  1  0.28994820  0.61030228  0.05225692  1.0
  O  O36  1  0.28994820  0.88969772  0.55225692  1.0
  O  O37  1  0.71005180  0.38969772  0.94774308  1.0
  O  O38  1  0.70681289  0.46202562  0.45817947  1.0
  O  O39  1  0.29318711  0.96202562  0.04182053  1.0
  O  O40  1  0.29318711  0.53797438  0.54182053  1.0
  O  O41  1  0.70681289  0.03797438  0.95817947  1.0
  O  O42  1  0.24252101  0.23592378  0.42840785  1.0
  O  O43  1  0.75747899  0.73592378  0.07159215  1.0
  O  O44  1  0.75747899  0.76407622  0.57159215  1.0
  O  O45  1  0.24252101  0.26407622  0.92840785  1.0
