# generated using pymatgen
data_Re3(TeI)7
_symmetry_space_group_name_H-M   'P 1'
_cell_length_a   12.07401404
_cell_length_b   11.85863907
_cell_length_c   11.39562288
_cell_angle_alpha   115.83167275
_cell_angle_beta   106.54006275
_cell_angle_gamma   87.06174449
_symmetry_Int_Tables_number   1
_chemical_formula_structural   Re3(TeI)7
_chemical_formula_sum   'Re6 Te14 I14'
_cell_volume   1402.81659998
_cell_formula_units_Z   2
loop_
 _symmetry_equiv_pos_site_id
 _symmetry_equiv_pos_as_xyz
  1  'x, y, z'
loop_
 _atom_site_type_symbol
 _atom_site_label
 _atom_site_symmetry_multiplicity
 _atom_site_fract_x
 _atom_site_fract_y
 _atom_site_fract_z
 _atom_site_occupancy
  Re  Re0  1  0.09790083  0.98576567  -0.10978352  1.0
  Re  Re1  1  0.90209917  0.01423433  -0.89021648  1.0
  Re  Re2  1  0.09483514  0.14217819  -0.85616069  1.0
  Re  Re3  1  0.90516486  0.85782181  -0.14383931  1.0
  Re  Re4  1  0.09312012  0.89334604  -0.93096182  1.0
  Re  Re5  1  0.90687988  0.10665396  -0.06903818  1.0
  Te  Te6  1  0.28940978  0.02319814  -0.89483334  1.0
  Te  Te7  1  0.71059022  0.97680186  -0.10516666  1.0
  Te  Te8  1  0.10150190  0.23923957  -0.03488800  1.0
  Te  Te9  1  0.89849810  0.76076043  -0.96511200  1.0
  Te  Te10  1  0.09507561  0.05559528  -0.67265880  1.0
  Te  Te11  1  0.90492439  0.94440472  -0.32734120  1.0
  Te  Te12  1  0.10180221  0.73369995  -0.18683996  1.0
  Te  Te13  1  0.89819779  0.26630005  -0.81316004  1.0
  Te  Te14  1  0.22127705  0.97212088  -0.28301188  1.0
  Te  Te15  1  0.77872295  0.02787912  -0.71698812  1.0
  Te  Te16  1  0.18969010  0.37569635  -0.67973544  1.0
  Te  Te17  1  0.81030990  0.62430365  -0.32026456  1.0
  Te  Te18  1  0.20791618  0.73425541  -0.82927428  1.0
  Te  Te19  1  0.79208382  0.26574459  -0.17072572  1.0
  I  I20  1  0.37873338  0.78944363  -0.28611996  1.0
  I  I21  1  0.62126662  0.21055637  -0.71388004  1.0
  I  I22  1  0.39764819  0.17202567  -0.13829943  1.0
  I  I23  1  0.60235181  0.82797433  -0.86170057  1.0
  I  I24  1  0.40651812  0.41983221  -0.71082179  1.0
  I  I25  1  0.59348188  0.58016779  -0.28917821  1.0
  I  I26  1  0.25863956  0.40256409  -0.40961031  1.0
  I  I27  1  0.74136044  0.59743591  -0.59038969  1.0
  I  I28  1  0.39281043  0.88174015  -0.59863974  1.0
  I  I29  1  0.60718957  0.11825985  -0.40136026  1.0
  I  I30  1  0.36887686  0.61936770  -0.00095258  1.0
  I  I31  1  0.63112314  0.38063230  -0.99904742  1.0
  I  I32  1  0.05800399  0.73984540  -0.64688752  1.0
  I  I33  1  0.94199601  0.26015460  -0.35311248  1.0
