# generated using pymatgen
data_RbSnS4
_symmetry_space_group_name_H-M   'P 1'
_cell_length_a   10.05715484
_cell_length_b   10.12910581
_cell_length_c   15.44221438
_cell_angle_alpha   90.00000000
_cell_angle_beta   112.46096150
_cell_angle_gamma   90.00000000
_symmetry_Int_Tables_number   1
_chemical_formula_structural   RbSnS4
_chemical_formula_sum   'Rb8 Sn8 S32'
_cell_volume   1453.76302326
_cell_formula_units_Z   8
loop_
 _symmetry_equiv_pos_site_id
 _symmetry_equiv_pos_as_xyz
  1  'x, y, z'
loop_
 _atom_site_type_symbol
 _atom_site_label
 _atom_site_symmetry_multiplicity
 _atom_site_fract_x
 _atom_site_fract_y
 _atom_site_fract_z
 _atom_site_occupancy
  Rb  Rb0  1  0.87791019  0.77340728  0.40215807  1.0
  Rb  Rb1  1  0.87791019  0.72659272  0.90215807  1.0
  Rb  Rb2  1  0.12208981  0.27340728  0.09784193  1.0
  Rb  Rb3  1  0.12208981  0.22659272  0.59784193  1.0
  Rb  Rb4  1  0.63900321  0.36225424  0.29667118  1.0
  Rb  Rb5  1  0.63900321  0.13774576  0.79667118  1.0
  Rb  Rb6  1  0.36099679  0.86225424  0.20332882  1.0
  Rb  Rb7  1  0.36099679  0.63774576  0.70332882  1.0
  Sn  Sn8  1  0.68802784  1.00000743  0.09279159  1.0
  Sn  Sn9  1  0.68802784  0.49999257  0.59279159  1.0
  Sn  Sn10  1  0.31197216  0.50000743  0.40720841  1.0
  Sn  Sn11  1  0.31197216  -0.00000743  0.90720841  1.0
  Sn  Sn12  1  0.51002699  0.17503430  0.48654983  1.0
  Sn  Sn13  1  0.51002699  0.32496570  0.98654983  1.0
  Sn  Sn14  1  0.48997301  0.67503430  0.01345017  1.0
  Sn  Sn15  1  0.48997301  0.82496570  0.51345017  1.0
  S  S16  1  0.98915419  0.14236576  0.30076628  1.0
  S  S17  1  0.98915419  0.35763424  0.80076628  1.0
  S  S18  1  0.01084581  0.64236576  0.19923372  1.0
  S  S19  1  0.01084581  0.85763424  0.69923372  1.0
  S  S20  1  0.96292910  0.34630052  0.27578210  1.0
  S  S21  1  0.96292910  0.15369948  0.77578210  1.0
  S  S22  1  0.03707090  0.84630052  0.22421790  1.0
  S  S23  1  0.03707090  0.65369948  0.72421790  1.0
  S  S24  1  0.94606009  0.94008989  0.09691906  1.0
  S  S25  1  0.94606009  0.55991011  0.59691906  1.0
  S  S26  1  0.05393991  0.44008989  0.40308094  1.0
  S  S27  1  0.05393991  0.05991011  0.90308094  1.0
  S  S28  1  0.78774602  0.06570186  0.27223884  1.0
  S  S29  1  0.78774602  0.43429814  0.77223884  1.0
  S  S30  1  0.21225398  0.56570186  0.22776116  1.0
  S  S31  1  0.21225398  0.93429814  0.72776116  1.0
  S  S32  1  0.74906992  0.22543508  0.03793936  1.0
  S  S33  1  0.74906992  0.27456492  0.53793936  1.0
  S  S34  1  0.25093008  0.72543508  0.46206064  1.0
  S  S35  1  0.25093008  0.77456492  0.96206064  1.0
  S  S36  1  0.57951859  0.96365917  0.41866648  1.0
  S  S37  1  0.57951859  0.53634083  0.91866648  1.0
  S  S38  1  0.42048141  0.46365917  0.08133352  1.0
  S  S39  1  0.42048141  0.03634083  0.58133352  1.0
  S  S40  1  0.43845822  0.10231547  0.07287021  1.0
  S  S41  1  0.43845822  0.39768453  0.57287021  1.0
  S  S42  1  0.56154178  0.60231547  0.42712979  1.0
  S  S43  1  0.56154178  0.89768453  0.92712979  1.0
  S  S44  1  0.34514115  0.27113511  0.33999670  1.0
  S  S45  1  0.34514115  0.22886489  0.83999670  1.0
  S  S46  1  0.65485885  0.77113511  0.16000330  1.0
  S  S47  1  0.65485885  0.72886489  0.66000330  1.0
