# generated using pymatgen
data_Al2Si2H4O9
_symmetry_space_group_name_H-M   'P 1'
_cell_length_a   5.19510357
_cell_length_b   5.19510357
_cell_length_c   14.87728372
_cell_angle_alpha   80.67837825
_cell_angle_beta   99.32162175
_cell_angle_gamma   119.87816527
_symmetry_Int_Tables_number   1
_chemical_formula_structural   Al2Si2H4O9
_chemical_formula_sum   'Al4 Si4 H8 O18'
_cell_volume   342.00515622
_cell_formula_units_Z   2
loop_
 _symmetry_equiv_pos_site_id
 _symmetry_equiv_pos_as_xyz
  1  'x, y, z'
loop_
 _atom_site_type_symbol
 _atom_site_label
 _atom_site_symmetry_multiplicity
 _atom_site_fract_x
 _atom_site_fract_y
 _atom_site_fract_z
 _atom_site_occupancy
  Al  Al0  1  0.75386965  0.41692220  0.56625453  1.0
  Al  Al1  1  0.58307780  0.24613035  0.06625453  1.0
  Al  Al2  1  1.09658303  0.08698675  0.56670436  1.0
  Al  Al3  1  0.91301325  -0.09658303  0.06670436  1.0
  Si  Si4  1  0.82754346  0.66830029  0.75586701  1.0
  Si  Si5  1  0.33169971  0.17245654  0.25586701  1.0
  Si  Si6  1  1.14146311  0.32563649  0.75518071  1.0
  Si  Si7  1  0.67436351  -0.14146311  0.25518071  1.0
  H  H8  1  1.07902903  0.54808186  0.14664513  1.0
  H  H9  1  0.45191814  -0.07902903  0.64664513  1.0
  H  H10  1  0.86273059  0.27002491  0.93677597  1.0
  H  H11  1  0.72997509  0.13726941  0.43677597  1.0
  H  H12  1  1.39330070  0.58221438  0.48047316  1.0
  H  H13  1  0.41778562  -0.39330070  0.98047316  1.0
  H  H14  1  0.19753514  -0.02301059  0.93551830  1.0
  H  H15  1  1.02301059  0.80246486  0.43551830  1.0
  O  O16  1  0.40405021  0.40049508  0.50050035  1.0
  O  O17  1  0.59950492  0.59594979  0.00050035  1.0
  O  O18  1  1.04203733  0.98468879  0.80239187  1.0
  O  O19  1  0.01531121  -0.04203733  0.30239187  1.0
  O  O20  1  0.83742048  0.72189188  0.64538198  1.0
  O  O21  1  0.27810812  0.16257952  0.14538198  1.0
  O  O22  1  1.02650097  0.77160944  0.50193884  1.0
  O  O23  1  0.22839056  -0.02650097  0.00193884  1.0
  O  O24  1  0.95776591  0.44204541  0.80312979  1.0
  O  O25  1  0.55795459  0.04223409  0.30312979  1.0
  O  O26  1  0.78587122  0.15158987  0.50212998  1.0
  O  O27  1  0.84841013  0.21412878  0.00212998  1.0
  O  O28  1  1.06249627  0.33541065  0.64484134  1.0
  O  O29  1  0.66458935  -0.06249627  0.14484134  1.0
  O  O30  1  1.49333340  0.53724229  0.78549010  1.0
  O  O31  1  0.46275771  -0.49333340  0.28549010  1.0
  O  O32  1  0.44827229  0.10827310  0.63907659  1.0
  O  O33  1  0.89172690  0.55172771  0.13907659  1.0
