# generated using pymatgen
data_Cs2CdI4
_symmetry_space_group_name_H-M   'P 1'
_cell_length_a   8.41144664
_cell_length_b   8.58984739
_cell_length_c   10.98379656
_cell_angle_alpha   90.00000000
_cell_angle_beta   109.10177104
_cell_angle_gamma   90.00000000
_symmetry_Int_Tables_number   1
_chemical_formula_structural   Cs2CdI4
_chemical_formula_sum   'Cs4 Cd2 I8'
_cell_volume   749.91545397
_cell_formula_units_Z   2
loop_
 _symmetry_equiv_pos_site_id
 _symmetry_equiv_pos_as_xyz
  1  'x, y, z'
loop_
 _atom_site_type_symbol
 _atom_site_label
 _atom_site_symmetry_multiplicity
 _atom_site_fract_x
 _atom_site_fract_y
 _atom_site_fract_z
 _atom_site_occupancy
  Cs  Cs0  1  0.78932745  0.75000000  0.45370016  1.0
  Cs  Cs1  1  0.21067255  0.25000000  0.54629984  1.0
  Cs  Cs2  1  0.72205754  0.75000000  0.92450842  1.0
  Cs  Cs3  1  0.27794246  0.25000000  0.07549158  1.0
  Cd  Cd4  1  0.20897314  0.75000000  0.29118410  1.0
  Cd  Cd5  1  0.79102686  0.25000000  0.70881590  1.0
  I  I6  1  0.38058770  0.75000000  0.55955219  1.0
  I  I7  1  0.61941230  0.25000000  0.44044781  1.0
  I  I8  1  1.01269343  0.99234486  0.77054187  1.0
  I  I9  1  1.01269343  0.50765514  0.77054187  1.0
  I  I10  1  -0.01269343  0.49234486  0.22945813  1.0
  I  I11  1  -0.01269343  0.00765514  0.22945813  1.0
  I  I12  1  0.41610045  0.75000000  0.13490948  1.0
  I  I13  1  0.58389955  0.25000000  0.86509052  1.0
