# generated using pymatgen
data_CsBr2F7
_symmetry_space_group_name_H-M   'P 1'
_cell_length_a   8.08988405
_cell_length_b   8.67031962
_cell_length_c   15.14935459
_cell_angle_alpha   90.00000000
_cell_angle_beta   126.36113106
_cell_angle_gamma   90.00000000
_symmetry_Int_Tables_number   1
_chemical_formula_structural   CsBr2F7
_chemical_formula_sum   'Cs4 Br8 F28'
_cell_volume   855.71111996
_cell_formula_units_Z   4
loop_
 _symmetry_equiv_pos_site_id
 _symmetry_equiv_pos_as_xyz
  1  'x, y, z'
loop_
 _atom_site_type_symbol
 _atom_site_label
 _atom_site_symmetry_multiplicity
 _atom_site_fract_x
 _atom_site_fract_y
 _atom_site_fract_z
 _atom_site_occupancy
  Cs  Cs0  1  0.77025703  0.90974986  0.18857871  1.0
  Cs  Cs1  1  0.77025703  0.59025014  0.68857871  1.0
  Cs  Cs2  1  0.22974297  0.40974986  0.31142129  1.0
  Cs  Cs3  1  0.22974297  0.09025014  0.81142129  1.0
  Br  Br4  1  0.95656941  0.27653468  0.48540243  1.0
  Br  Br5  1  0.95656941  0.22346532  0.98540243  1.0
  Br  Br6  1  0.04343059  0.77653468  0.01459757  1.0
  Br  Br7  1  0.04343059  0.72346532  0.51459757  1.0
  Br  Br8  1  0.49456919  0.39773821  0.11469544  1.0
  Br  Br9  1  0.49456919  0.10226179  0.61469544  1.0
  Br  Br10  1  0.50543081  0.89773821  0.38530456  1.0
  Br  Br11  1  0.50543081  0.60226179  0.88530456  1.0
  F  F12  1  0.95787801  0.15747396  0.10626444  1.0
  F  F13  1  0.95787801  0.34252604  0.60626444  1.0
  F  F14  1  0.04212199  0.65747396  0.39373556  1.0
  F  F15  1  0.04212199  0.84252604  0.89373556  1.0
  F  F16  1  0.95500555  0.21323982  0.36321385  1.0
  F  F17  1  0.95500555  0.28676018  0.86321385  1.0
  F  F18  1  0.04499445  0.71323982  0.13678615  1.0
  F  F19  1  0.04499445  0.78676018  0.63678615  1.0
  F  F20  1  0.78498056  0.87038695  0.40220221  1.0
  F  F21  1  0.78498056  0.62961305  0.90220221  1.0
  F  F22  1  0.21501944  0.37038695  0.09779779  1.0
  F  F23  1  0.21501944  0.12961305  0.59779779  1.0
  F  F24  1  0.73934482  0.42866981  0.13290056  1.0
  F  F25  1  0.73934482  0.07133019  0.63290056  1.0
  F  F26  1  0.26065518  0.92866981  0.36709944  1.0
  F  F27  1  0.26065518  0.57133019  0.86709944  1.0
  F  F28  1  0.73185417  0.39966599  0.39435967  1.0
  F  F29  1  0.73185417  0.10033401  0.89435967  1.0
  F  F30  1  0.26814583  0.89966599  0.10564033  1.0
  F  F31  1  0.26814583  0.60033401  0.60564033  1.0
  F  F32  1  0.47819568  0.19127658  0.06132588  1.0
  F  F33  1  0.47819568  0.30872342  0.56132588  1.0
  F  F34  1  0.52180432  0.69127658  0.43867412  1.0
  F  F35  1  0.52180432  0.80872342  0.93867412  1.0
  F  F36  1  0.48618762  0.10092830  0.33425851  1.0
  F  F37  1  0.48618762  0.39907170  0.83425851  1.0
  F  F38  1  0.51381238  0.60092830  0.16574149  1.0
  F  F39  1  0.51381238  0.89907170  0.66574149  1.0
