# generated using pymatgen
data_Gd2GeO5
_symmetry_space_group_name_H-M   'P 1'
_cell_length_a   9.54976638
_cell_length_b   7.07111513
_cell_length_c   6.93821805
_cell_angle_alpha   90.00000000
_cell_angle_beta   100.57215696
_cell_angle_gamma   90.00000000
_symmetry_Int_Tables_number   1
_chemical_formula_structural   Gd2GeO5
_chemical_formula_sum   'Gd8 Ge4 O20'
_cell_volume   460.56719099
_cell_formula_units_Z   4
loop_
 _symmetry_equiv_pos_site_id
 _symmetry_equiv_pos_as_xyz
  1  'x, y, z'
loop_
 _atom_site_type_symbol
 _atom_site_label
 _atom_site_symmetry_multiplicity
 _atom_site_fract_x
 _atom_site_fract_y
 _atom_site_fract_z
 _atom_site_occupancy
  Gd  Gd0  1  0.97026065  0.38058417  0.26920168  1.0
  Gd  Gd1  1  0.97026065  0.11941583  0.76920168  1.0
  Gd  Gd2  1  0.02973935  0.88058417  0.23079832  1.0
  Gd  Gd3  1  0.02973935  0.61941583  0.73079832  1.0
  Gd  Gd4  1  0.64968371  0.35905145  0.50099544  1.0
  Gd  Gd5  1  0.64968371  0.14094855  1.00099544  1.0
  Gd  Gd6  1  0.35031629  0.85905145  -0.00099544  1.0
  Gd  Gd7  1  0.35031629  0.64094855  0.49900456  1.0
  Ge  Ge8  1  0.70185386  0.89995348  0.50397435  1.0
  Ge  Ge9  1  0.70185386  0.60004652  1.00397435  1.0
  Ge  Ge10  1  0.29814614  0.39995348  -0.00397435  1.0
  Ge  Ge11  1  0.29814614  0.10004652  0.49602565  1.0
  O  O12  1  0.89469861  0.12103312  0.07747595  1.0
  O  O13  1  0.89469861  0.37896688  0.57747595  1.0
  O  O14  1  0.10530139  0.62103312  0.42252405  1.0
  O  O15  1  0.10530139  0.87896688  0.92252405  1.0
  O  O16  1  0.71792806  0.43193261  0.20489950  1.0
  O  O17  1  0.71792806  0.06806739  0.70489950  1.0
  O  O18  1  0.28207194  0.93193261  0.29510050  1.0
  O  O19  1  0.28207194  0.56806739  0.79510050  1.0
  O  O20  1  0.64112505  0.07012242  0.32142648  1.0
  O  O21  1  0.64112505  0.42987758  0.82142648  1.0
  O  O22  1  0.35887495  0.57012242  0.17857352  1.0
  O  O23  1  0.35887495  0.92987758  0.67857352  1.0
  O  O24  1  0.40081810  0.19537358  0.99577473  1.0
  O  O25  1  0.40081810  0.30462642  0.49577473  1.0
  O  O26  1  0.59918190  0.69537358  0.50422527  1.0
  O  O27  1  0.59918190  0.80462642  0.00422527  1.0
  O  O28  1  0.10967653  0.14569176  0.47398699  1.0
  O  O29  1  0.10967653  0.35430824  0.97398699  1.0
  O  O30  1  0.89032347  0.64569176  0.02601301  1.0
  O  O31  1  0.89032347  0.85430824  0.52601301  1.0
