# generated using pymatgen
data_Cd3Pb2Se4(IO6)2
_symmetry_space_group_name_H-M   'P 1'
_cell_length_a   11.28858980
_cell_length_b   5.49334445
_cell_length_c   17.08416446
_cell_angle_alpha   90.00000000
_cell_angle_beta   117.66582181
_cell_angle_gamma   90.00000000
_symmetry_Int_Tables_number   1
_chemical_formula_structural   Cd3Pb2Se4(IO6)2
_chemical_formula_sum   'Cd6 Pb4 Se8 I4 O24'
_cell_volume   938.30184954
_cell_formula_units_Z   2
loop_
 _symmetry_equiv_pos_site_id
 _symmetry_equiv_pos_as_xyz
  1  'x, y, z'
loop_
 _atom_site_type_symbol
 _atom_site_label
 _atom_site_symmetry_multiplicity
 _atom_site_fract_x
 _atom_site_fract_y
 _atom_site_fract_z
 _atom_site_occupancy
  Cd  Cd0  1  0.99192935  0.79148111  0.90590264  1.0
  Cd  Cd1  1  0.99192935  0.20851889  0.40590264  1.0
  Cd  Cd2  1  0.00807065  0.79148111  0.59409736  1.0
  Cd  Cd3  1  0.00807065  0.20851889  0.09409736  1.0
  Cd  Cd4  1  -0.00000000  0.68599764  0.25000000  1.0
  Cd  Cd5  1  0.00000000  0.31400236  0.75000000  1.0
  Pb  Pb6  1  0.70523771  0.75315018  0.99720254  1.0
  Pb  Pb7  1  0.70523771  0.24684982  0.49720254  1.0
  Pb  Pb8  1  0.29476229  0.75315018  0.50279746  1.0
  Pb  Pb9  1  0.29476229  0.24684982  0.00279746  1.0
  Se  Se10  1  0.79639992  0.73669974  0.37259787  1.0
  Se  Se11  1  0.79639992  0.26330026  0.87259787  1.0
  Se  Se12  1  0.20360008  0.73669974  0.12740213  1.0
  Se  Se13  1  0.20360008  0.26330026  0.62740213  1.0
  Se  Se14  1  0.76937607  0.25546838  0.15487942  1.0
  Se  Se15  1  0.76937607  0.74453162  0.65487942  1.0
  Se  Se16  1  0.23062393  0.25546838  0.34512058  1.0
  Se  Se17  1  0.23062393  0.74453162  0.84512058  1.0
  I  I18  1  0.49497021  0.74062723  0.40052273  1.0
  I  I19  1  0.49497021  0.25937277  0.90052273  1.0
  I  I20  1  0.50502979  0.74062723  0.09947727  1.0
  I  I21  1  0.50502979  0.25937277  0.59947727  1.0
  O  O22  1  0.92185387  0.82072532  0.34713669  1.0
  O  O23  1  0.92185387  0.17927468  0.84713669  1.0
  O  O24  1  0.07814613  0.82072532  0.15286331  1.0
  O  O25  1  0.07814613  0.17927468  0.65286331  1.0
  O  O26  1  0.84970867  0.46573802  0.42957628  1.0
  O  O27  1  0.84970867  0.53426198  0.92957628  1.0
  O  O28  1  0.15029133  0.46573802  0.07042372  1.0
  O  O29  1  0.15029133  0.53426198  0.57042372  1.0
  O  O30  1  0.86137068  0.34749500  0.26160374  1.0
  O  O31  1  0.86137068  0.65250500  0.76160374  1.0
  O  O32  1  0.13862932  0.34749500  0.23839626  1.0
  O  O33  1  0.13862932  0.65250500  0.73839626  1.0
  O  O34  1  0.84407680  0.45664690  0.10959220  1.0
  O  O35  1  0.84407680  0.54335310  0.60959220  1.0
  O  O36  1  0.15592320  0.45664690  0.39040780  1.0
  O  O37  1  0.15592320  0.54335310  0.89040780  1.0
  O  O38  1  0.84286781  0.98995391  0.14303893  1.0
  O  O39  1  0.84286781  0.01004609  0.64303893  1.0
  O  O40  1  0.15713219  0.98995391  0.35696107  1.0
  O  O41  1  0.15713219  0.01004609  0.85696107  1.0
  O  O42  1  0.84461984  0.94089069  0.46116224  1.0
  O  O43  1  0.84461984  0.05910931  0.96116224  1.0
  O  O44  1  0.15538016  0.94089069  0.03883776  1.0
  O  O45  1  0.15538016  0.05910931  0.53883776  1.0
