# generated using pymatgen
data_Ba3NiIr2O9
_symmetry_space_group_name_H-M   'P 1'
_cell_length_a   5.79852674
_cell_length_b   5.79852674
_cell_length_c   14.32976011
_cell_angle_alpha   90.00000000
_cell_angle_beta   90.00000000
_cell_angle_gamma   120.00000000
_symmetry_Int_Tables_number   1
_chemical_formula_structural   Ba3NiIr2O9
_chemical_formula_sum   'Ba6 Ni2 Ir4 O18'
_cell_volume   417.25819980
_cell_formula_units_Z   2
loop_
 _symmetry_equiv_pos_site_id
 _symmetry_equiv_pos_as_xyz
  1  'x, y, z'
loop_
 _atom_site_type_symbol
 _atom_site_label
 _atom_site_symmetry_multiplicity
 _atom_site_fract_x
 _atom_site_fract_y
 _atom_site_fract_z
 _atom_site_occupancy
  Ba  Ba0  1  0.33333333  0.66666667  0.41530961  1.0
  Ba  Ba1  1  0.33333333  0.66666667  0.08469039  1.0
  Ba  Ba2  1  0.66666667  0.33333333  0.91530961  1.0
  Ba  Ba3  1  0.66666667  0.33333333  0.58469039  1.0
  Ba  Ba4  1  0.00000000  0.00000000  0.25000000  1.0
  Ba  Ba5  1  0.00000000  0.00000000  0.75000000  1.0
  Ni  Ni6  1  0.00000000  0.00000000  0.50000000  1.0
  Ni  Ni7  1  0.00000000  0.00000000  0.00000000  1.0
  Ir  Ir8  1  0.33333333  0.66666667  0.84370922  1.0
  Ir  Ir9  1  0.33333333  0.66666667  0.65629078  1.0
  Ir  Ir10  1  0.66666667  0.33333333  0.34370922  1.0
  Ir  Ir11  1  0.66666667  0.33333333  0.15629078  1.0
  O  O12  1  0.16844155  0.83155845  0.91782094  1.0
  O  O13  1  0.16844155  0.83155845  0.58217906  1.0
  O  O14  1  0.16844155  0.33688311  0.91782094  1.0
  O  O15  1  0.16844155  0.33688311  0.58217906  1.0
  O  O16  1  0.83155845  0.16844155  0.41782094  1.0
  O  O17  1  0.83155845  0.16844155  0.08217906  1.0
  O  O18  1  0.83155845  0.66311689  0.41782094  1.0
  O  O19  1  0.83155845  0.66311689  0.08217906  1.0
  O  O20  1  0.66311689  0.83155845  0.91782094  1.0
  O  O21  1  0.66311689  0.83155845  0.58217906  1.0
  O  O22  1  0.33688311  0.16844155  0.41782094  1.0
  O  O23  1  0.33688311  0.16844155  0.08217906  1.0
  O  O24  1  0.51318223  0.48681777  0.25000000  1.0
  O  O25  1  0.51318223  0.02636446  0.25000000  1.0
  O  O26  1  0.48681777  0.51318223  0.75000000  1.0
  O  O27  1  0.48681777  -0.02636446  0.75000000  1.0
  O  O28  1  -0.02636446  0.48681777  0.25000000  1.0
  O  O29  1  0.02636446  0.51318223  0.75000000  1.0
