# generated using pymatgen
data_BaCrO4
_symmetry_space_group_name_H-M   'P 1'
_cell_length_a   9.15600472
_cell_length_b   5.68065003
_cell_length_c   7.42939059
_cell_angle_alpha   90.00000000
_cell_angle_beta   90.00000000
_cell_angle_gamma   90.00000000
_symmetry_Int_Tables_number   1
_chemical_formula_structural   BaCrO4
_chemical_formula_sum   'Ba4 Cr4 O16'
_cell_volume   386.41789800
_cell_formula_units_Z   4
loop_
 _symmetry_equiv_pos_site_id
 _symmetry_equiv_pos_as_xyz
  1  'x, y, z'
loop_
 _atom_site_type_symbol
 _atom_site_label
 _atom_site_symmetry_multiplicity
 _atom_site_fract_x
 _atom_site_fract_y
 _atom_site_fract_z
 _atom_site_occupancy
  Ba  Ba0  1  0.31695533  0.75000000  0.15492463  1.0
  Ba  Ba1  1  0.81695533  0.75000000  0.34507537  1.0
  Ba  Ba2  1  0.68304467  0.25000000  0.84507537  1.0
  Ba  Ba3  1  0.18304467  0.25000000  0.65492463  1.0
  Cr  Cr4  1  0.44296331  0.75000000  0.69128877  1.0
  Cr  Cr5  1  0.94296331  0.75000000  0.80871123  1.0
  Cr  Cr6  1  0.55703669  0.25000000  0.30871123  1.0
  Cr  Cr7  1  0.05703669  0.25000000  0.19128877  1.0
  O  O8  1  0.41981158  0.98773893  0.81875658  1.0
  O  O9  1  0.41981158  0.51226107  0.81875658  1.0
  O  O10  1  0.91981158  0.98773893  0.68124342  1.0
  O  O11  1  0.91981158  0.51226107  0.68124342  1.0
  O  O12  1  0.58018842  0.48773893  0.18124342  1.0
  O  O13  1  0.58018842  0.01226107  0.18124342  1.0
  O  O14  1  0.08018842  0.48773893  0.31875658  1.0
  O  O15  1  0.08018842  0.01226107  0.31875658  1.0
  O  O16  1  0.31942208  0.75000000  0.53043242  1.0
  O  O17  1  0.81942208  0.75000000  0.96956758  1.0
  O  O18  1  0.68057792  0.25000000  0.46956758  1.0
  O  O19  1  0.18057792  0.25000000  0.03043242  1.0
  O  O20  1  0.11000258  0.75000000  0.88880004  1.0
  O  O21  1  0.61000258  0.75000000  0.61119996  1.0
  O  O22  1  0.88999742  0.25000000  0.11119996  1.0
  O  O23  1  0.38999742  0.25000000  0.38880004  1.0
