# generated using pymatgen
data_Li(CuO)2
_symmetry_space_group_name_H-M   'P 1'
_cell_length_a   5.75639933
_cell_length_b   5.75639933
_cell_length_c   12.60322955
_cell_angle_alpha   90.00000000
_cell_angle_beta   90.00000000
_cell_angle_gamma   90.00000000
_symmetry_Int_Tables_number   1
_chemical_formula_structural   Li(CuO)2
_chemical_formula_sum   'Li8 Cu16 O16'
_cell_volume   417.62229352
_cell_formula_units_Z   8
loop_
 _symmetry_equiv_pos_site_id
 _symmetry_equiv_pos_as_xyz
  1  'x, y, z'
loop_
 _atom_site_type_symbol
 _atom_site_label
 _atom_site_symmetry_multiplicity
 _atom_site_fract_x
 _atom_site_fract_y
 _atom_site_fract_z
 _atom_site_occupancy
  O  O0  1  0.50000000  0.74084589  0.61012950  1.0
  O  O1  1  0.50000000  0.25915411  0.61012950  1.0
  O  O2  1  -0.00000000  0.24084589  0.88987050  1.0
  O  O3  1  0.00000000  0.75915411  0.88987050  1.0
  O  O4  1  0.24084589  -0.00000000  0.11012950  1.0
  O  O5  1  0.74084589  0.50000000  0.38987050  1.0
  O  O6  1  0.25915411  0.50000000  0.38987050  1.0
  O  O7  1  0.75915411  0.00000000  0.11012950  1.0
  O  O8  1  0.50000000  0.24063909  0.90721267  1.0
  O  O9  1  0.50000000  0.75936091  0.90721267  1.0
  O  O10  1  -0.00000000  0.74063909  0.59278733  1.0
  O  O11  1  -0.00000000  0.25936091  0.59278733  1.0
  O  O12  1  0.74063909  0.00000000  0.40721267  1.0
  O  O13  1  0.24063909  0.50000000  0.09278733  1.0
  O  O14  1  0.75936091  0.50000000  0.09278733  1.0
  O  O15  1  0.25936091  -0.00000000  0.40721267  1.0
  Li  Li16  1  0.50000000  0.24288523  0.07214160  1.0
  Li  Li17  1  0.50000000  0.75711477  0.07214160  1.0
  Li  Li18  1  0.00000000  0.74288523  0.42785840  1.0
  Li  Li19  1  -0.00000000  0.25711477  0.42785840  1.0
  Li  Li20  1  0.74288523  0.00000000  0.57214160  1.0
  Li  Li21  1  0.24288523  0.50000000  0.92785840  1.0
  Li  Li22  1  0.75711477  0.50000000  0.92785840  1.0
  Li  Li23  1  0.25711477  0.00000000  0.57214160  1.0
  Cu  Cu24  1  0.50000000  0.74801215  0.75783857  1.0
  Cu  Cu25  1  0.50000000  0.25198785  0.75783857  1.0
  Cu  Cu26  1  0.00000000  0.24801215  0.74216143  1.0
  Cu  Cu27  1  -0.00000000  0.75198785  0.74216143  1.0
  Cu  Cu28  1  0.24801215  0.00000000  0.25783857  1.0
  Cu  Cu29  1  0.74801215  0.50000000  0.24216143  1.0
  Cu  Cu30  1  0.25198785  0.50000000  0.24216143  1.0
  Cu  Cu31  1  0.75198785  -0.00000000  0.25783857  1.0
  Cu  Cu32  1  0.50000000  0.74776373  0.39973772  1.0
  Cu  Cu33  1  0.50000000  0.25223627  0.39973772  1.0
  Cu  Cu34  1  -0.00000000  0.24776373  0.10026228  1.0
  Cu  Cu35  1  -0.00000000  0.75223627  0.10026228  1.0
  Cu  Cu36  1  0.24776373  -0.00000000  0.89973772  1.0
  Cu  Cu37  1  0.74776373  0.50000000  0.60026228  1.0
  Cu  Cu38  1  0.25223627  0.50000000  0.60026228  1.0
  Cu  Cu39  1  0.75223627  -0.00000000  0.89973772  1.0
