# generated using pymatgen
data_Pb(IO3)2
_symmetry_space_group_name_H-M   'P 1'
_cell_length_a   7.00735442
_cell_length_b   13.45380498
_cell_length_c   7.30272353
_cell_angle_alpha   89.94293748
_cell_angle_beta   63.83706267
_cell_angle_gamma   89.95638750
_symmetry_Int_Tables_number   1
_chemical_formula_structural   Pb(IO3)2
_chemical_formula_sum   'Pb4 I8 O24'
_cell_volume   617.93026721
_cell_formula_units_Z   4
loop_
 _symmetry_equiv_pos_site_id
 _symmetry_equiv_pos_as_xyz
  1  'x, y, z'
loop_
 _atom_site_type_symbol
 _atom_site_label
 _atom_site_symmetry_multiplicity
 _atom_site_fract_x
 _atom_site_fract_y
 _atom_site_fract_z
 _atom_site_occupancy
  Pb  Pb0  1  -0.97092447  -0.86933233  -0.84495212  1.0
  Pb  Pb1  1  -0.02907553  -0.13066767  -0.15504788  1.0
  Pb  Pb2  1  -0.97078538  -0.63066128  -0.34490877  1.0
  Pb  Pb3  1  -0.02921462  -0.36933872  -0.65509123  1.0
  I  I4  1  -0.65093796  -0.88637985  -0.47415053  1.0
  I  I5  1  -0.34906204  -0.11362015  -0.52584947  1.0
  I  I6  1  -0.65687646  -0.11251185  -0.87473188  1.0
  I  I7  1  -0.34312354  -0.88748815  -0.12526812  1.0
  I  I8  1  -0.65060835  -0.61359297  -0.97379378  1.0
  I  I9  1  -0.34939165  -0.38640703  -0.02620622  1.0
  I  I10  1  -0.34299928  -0.61244495  -0.62496988  1.0
  I  I11  1  -0.65700072  -0.38755505  -0.37503012  1.0
  O  O12  1  -0.90487124  -0.82672407  -0.45111077  1.0
  O  O13  1  -0.09512876  -0.17327593  -0.54888923  1.0
  O  O14  1  -0.90436610  -0.67339008  -0.95036710  1.0
  O  O15  1  -0.09563390  -0.32660992  -0.04963290  1.0
  O  O16  1  -0.86105409  -0.44075921  -0.45395786  1.0
  O  O17  1  -0.13894591  -0.55924079  -0.54604214  1.0
  O  O18  1  -0.86088901  -0.05922655  -0.95380314  1.0
  O  O19  1  -0.13911099  -0.94077345  -0.04619686  1.0
  O  O20  1  -0.68661933  -0.24935753  -0.90264847  1.0
  O  O21  1  -0.31338067  -0.75064247  -0.09735153  1.0
  O  O22  1  -0.66903524  -0.85796911  -0.21149119  1.0
  O  O23  1  -0.33096476  -0.14203089  -0.78850881  1.0
  O  O24  1  -0.72925411  -0.47693545  -0.94822778  1.0
  O  O25  1  -0.27074589  -0.52306455  -0.05177222  1.0
  O  O26  1  -0.66844095  -0.64188369  -0.71103122  1.0
  O  O27  1  -0.33155905  -0.35811631  -0.28896878  1.0
  O  O28  1  -0.58938570  -0.91107485  -0.87148592  1.0
  O  O29  1  -0.41061430  -0.08892515  -0.12851408  1.0
  O  O30  1  -0.58922558  -0.58891012  -0.37118255  1.0
  O  O31  1  -0.41077442  -0.41108988  -0.62881745  1.0
  O  O32  1  -0.31307293  -0.74931962  -0.59705241  1.0
  O  O33  1  -0.68692707  -0.25068038  -0.40294759  1.0
  O  O34  1  -0.27094929  -0.97692835  -0.55160787  1.0
  O  O35  1  -0.72905071  -0.02307165  -0.44839213  1.0
