# generated using pymatgen
data_Ba2Ti(SiO4)2
_symmetry_space_group_name_H-M   'P 1'
_cell_length_a   8.62081139
_cell_length_b   8.62081139
_cell_length_c   5.31180870
_cell_angle_alpha   90.00000000
_cell_angle_beta   90.00000000
_cell_angle_gamma   90.00000000
_symmetry_Int_Tables_number   1
_chemical_formula_structural   Ba2Ti(SiO4)2
_chemical_formula_sum   'Ba4 Ti2 Si4 O16'
_cell_volume   394.76506531
_cell_formula_units_Z   2
loop_
 _symmetry_equiv_pos_site_id
 _symmetry_equiv_pos_as_xyz
  1  'x, y, z'
loop_
 _atom_site_type_symbol
 _atom_site_label
 _atom_site_symmetry_multiplicity
 _atom_site_fract_x
 _atom_site_fract_y
 _atom_site_fract_z
 _atom_site_occupancy
  Ba  Ba0  1  0.82703850  0.67296150  0.45617294  1.0
  Ba  Ba1  1  0.32703850  0.82703850  0.45617294  1.0
  Ba  Ba2  1  0.17296150  0.32703850  0.45617294  1.0
  Ba  Ba3  1  0.67296150  0.17296150  0.45617294  1.0
  Ti  Ti4  1  0.50000000  0.50000000  0.00089289  1.0
  Ti  Ti5  1  0.00000000  0.00000000  0.00089289  1.0
  Si  Si6  1  0.37141191  0.12858809  0.97587789  1.0
  Si  Si7  1  0.87141191  0.37141191  0.97587789  1.0
  Si  Si8  1  0.62858809  0.87141191  0.97587789  1.0
  Si  Si9  1  0.12858809  0.62858809  0.97587789  1.0
  O  O10  1  0.29290757  0.57736299  0.10873520  1.0
  O  O11  1  0.79290757  0.92263701  0.10873520  1.0
  O  O12  1  0.42263701  0.29290757  0.10873520  1.0
  O  O13  1  0.92263701  0.20709243  0.10873520  1.0
  O  O14  1  0.70709243  0.42263701  0.10873520  1.0
  O  O15  1  0.20709243  0.07736299  0.10873520  1.0
  O  O16  1  0.57736299  0.70709243  0.10873520  1.0
  O  O17  1  0.07736299  0.79290757  0.10873520  1.0
  O  O18  1  0.37244759  0.12755241  0.67307478  1.0
  O  O19  1  0.87244759  0.37244759  0.67307478  1.0
  O  O20  1  0.62755241  0.87244759  0.67307478  1.0
  O  O21  1  0.12755241  0.62755241  0.67307478  1.0
  O  O22  1  0.00000000  0.50000000  0.09136329  1.0
  O  O23  1  0.50000000  0.00000000  0.09136329  1.0
  O  O24  1  0.50000000  0.50000000  0.68235180  1.0
  O  O25  1  0.00000000  0.00000000  0.68235180  1.0
