# generated using pymatgen
data_TlF
_symmetry_space_group_name_H-M   'P 1'
_cell_length_a   3.84347846
_cell_length_b   3.84347846
_cell_length_c   6.70244976
_cell_angle_alpha   90.00000000
_cell_angle_beta   90.00000000
_cell_angle_gamma   90.00000000
_symmetry_Int_Tables_number   1
_chemical_formula_structural   TlF
_chemical_formula_sum   'Tl2 F2'
_cell_volume   99.01077738
_cell_formula_units_Z   2
loop_
 _symmetry_equiv_pos_site_id
 _symmetry_equiv_pos_as_xyz
  1  'x, y, z'
loop_
 _atom_site_type_symbol
 _atom_site_label
 _atom_site_symmetry_multiplicity
 _atom_site_fract_x
 _atom_site_fract_y
 _atom_site_fract_z
 _atom_site_occupancy
  Tl  Tl0  1  0.50000000  0.00000000  0.26846921  1.0
  Tl  Tl1  1  0.00000000  0.50000000  0.73153079  1.0
  F  F2  1  0.50000000  0.00000000  0.63836878  1.0
  F  F3  1  0.00000000  0.50000000  0.36163122  1.0
