# generated using pymatgen
data_BiPPbO5
_symmetry_space_group_name_H-M   'P 1'
_cell_length_a   6.01063648
_cell_length_b   7.07718633
_cell_length_c   7.09925371
_cell_angle_alpha   106.73032754
_cell_angle_beta   108.27903596
_cell_angle_gamma   102.69320878
_symmetry_Int_Tables_number   1
_chemical_formula_structural   BiPPbO5
_chemical_formula_sum   'Bi2 P2 Pb2 O10'
_cell_volume   258.16233899
_cell_formula_units_Z   2
loop_
 _symmetry_equiv_pos_site_id
 _symmetry_equiv_pos_as_xyz
  1  'x, y, z'
loop_
 _atom_site_type_symbol
 _atom_site_label
 _atom_site_symmetry_multiplicity
 _atom_site_fract_x
 _atom_site_fract_y
 _atom_site_fract_z
 _atom_site_occupancy
  Bi  Bi0  1  0.37726373  0.73151103  0.94169879  1.0
  Bi  Bi1  1  0.62273627  0.26848897  0.05830121  1.0
  P  P2  1  0.80774327  0.34122523  0.63252258  1.0
  P  P3  1  0.19225673  0.65877477  0.36747742  1.0
  Pb  Pb4  1  0.83819876  0.88683296  0.67583972  1.0
  Pb  Pb5  1  0.16180124  0.11316704  0.32416028  1.0
  O  O6  1  0.93478097  0.58013620  0.78460510  1.0
  O  O7  1  0.06521903  0.41986380  0.21539490  1.0
  O  O8  1  0.98857253  0.76130328  0.37018257  1.0
  O  O9  1  0.01142747  0.23869672  0.62981743  1.0
  O  O10  1  0.73959551  1.00301721  1.03683207  1.0
  O  O11  1  0.26040449  -0.00301721  -0.03683207  1.0
  O  O12  1  0.62692895  0.22396820  0.71257231  1.0
  O  O13  1  0.37307105  0.77603180  0.28742769  1.0
  O  O14  1  0.35620643  0.67642577  0.59577759  1.0
  O  O15  1  0.64379357  0.32357423  0.40422241  1.0
