# generated using pymatgen
data_Al(HO)3
_symmetry_space_group_name_H-M   'P 1'
_cell_length_a   5.11823887
_cell_length_b   5.15919918
_cell_length_c   7.29709107
_cell_angle_alpha   90.00000000
_cell_angle_beta   90.00000000
_cell_angle_gamma   90.00000000
_symmetry_Int_Tables_number   1
_chemical_formula_structural   Al(HO)3
_chemical_formula_sum   'Al4 H12 O12'
_cell_volume   192.68708723
_cell_formula_units_Z   4
loop_
 _symmetry_equiv_pos_site_id
 _symmetry_equiv_pos_as_xyz
  1  'x, y, z'
loop_
 _atom_site_type_symbol
 _atom_site_label
 _atom_site_symmetry_multiplicity
 _atom_site_fract_x
 _atom_site_fract_y
 _atom_site_fract_z
 _atom_site_occupancy
  Al  Al0  1  0.24773232  0.99960099  0.49960360  1.0
  Al  Al1  1  0.74773232  0.50039901  0.50039640  1.0
  Al  Al2  1  0.75226768  0.49960099  1.00039640  1.0
  Al  Al3  1  0.25226768  0.00039901  -0.00039640  1.0
  H  H4  1  0.28778044  0.54242634  0.52062948  1.0
  H  H5  1  0.78778044  0.95757366  0.47937052  1.0
  H  H6  1  0.71221956  0.04242634  0.97937052  1.0
  H  H7  1  0.21221956  0.45757366  0.02062948  1.0
  H  H8  1  0.42107115  0.66970457  0.80055814  1.0
  H  H9  1  0.92107115  0.83029543  0.19944186  1.0
  H  H10  1  0.57892885  0.16970457  0.69944186  1.0
  H  H11  1  0.07892885  0.33029543  0.30055814  1.0
  H  H12  1  0.96394020  0.69915045  0.74661650  1.0
  H  H13  1  0.46394020  0.80084955  0.25338350  1.0
  H  H14  1  0.03605980  0.19915045  0.75338350  1.0
  H  H15  1  0.53605980  0.30084955  0.24661650  1.0
  O  O16  1  0.42816978  0.68180957  0.93696127  1.0
  O  O17  1  0.92816978  0.81819043  0.06303873  1.0
  O  O18  1  0.57183022  0.18180957  0.56303873  1.0
  O  O19  1  0.07183022  0.31819043  0.43696127  1.0
  O  O20  1  0.41601512  0.67894437  0.55758757  1.0
  O  O21  1  0.91601512  0.82105563  0.44241243  1.0
  O  O22  1  0.58398488  0.17894437  0.94241243  1.0
  O  O23  1  0.08398488  0.32105563  0.05758757  1.0
  O  O24  1  0.36459220  0.96418320  0.25009749  1.0
  O  O25  1  0.86459220  0.53581680  0.74990251  1.0
  O  O26  1  0.63540780  0.46418320  0.24990251  1.0
  O  O27  1  0.13540780  0.03581680  0.75009749  1.0
