# generated using pymatgen
data_NaSr3IrO6
_symmetry_space_group_name_H-M   'P 1'
_cell_length_a   6.81609785
_cell_length_b   6.81609785
_cell_length_c   6.81609785
_cell_angle_alpha   90.73665814
_cell_angle_beta   90.73665814
_cell_angle_gamma   90.73665814
_symmetry_Int_Tables_number   1
_chemical_formula_structural   NaSr3IrO6
_chemical_formula_sum   'Na2 Sr6 Ir2 O12'
_cell_volume   316.59118506
_cell_formula_units_Z   2
loop_
 _symmetry_equiv_pos_site_id
 _symmetry_equiv_pos_as_xyz
  1  'x, y, z'
loop_
 _atom_site_type_symbol
 _atom_site_label
 _atom_site_symmetry_multiplicity
 _atom_site_fract_x
 _atom_site_fract_y
 _atom_site_fract_z
 _atom_site_occupancy
  Na  Na0  1  0.25000000  0.25000000  0.25000000  1.0
  Na  Na1  1  0.75000000  0.75000000  0.75000000  1.0
  Sr  Sr2  1  0.89229079  1.25000000  -0.39229079  1.0
  Sr  Sr3  1  1.39229079  0.10770921  -0.25000000  1.0
  Sr  Sr4  1  0.75000000  0.39229079  0.10770921  1.0
  Sr  Sr5  1  1.25000000  0.60770921  -0.10770921  1.0
  Sr  Sr6  1  1.10770921  -0.25000000  0.39229079  1.0
  Sr  Sr7  1  0.60770921  0.89229079  0.25000000  1.0
  Ir  Ir8  1  0.50000000  0.50000000  0.50000000  1.0
  Ir  Ir9  1  -0.00000000  -0.00000000  -0.00000000  1.0
  O  O10  1  1.22082700  0.42368471  -0.44414054  1.0
  O  O11  1  0.72082700  1.05585946  -0.07631529  1.0
  O  O12  1  0.94414054  0.07631529  0.27917300  1.0
  O  O13  1  1.44414054  -0.22082700  0.57631529  1.0
  O  O14  1  1.57631529  0.44414054  -0.22082700  1.0
  O  O15  1  1.07631529  0.27917300  -0.05585946  1.0
  O  O16  1  0.77917300  0.57631529  0.44414054  1.0
  O  O17  1  1.27917300  -0.05585946  0.07631529  1.0
  O  O18  1  0.55585946  1.22082700  -0.57631529  1.0
  O  O19  1  1.05585946  0.92368471  -0.27917300  1.0
  O  O20  1  0.92368471  0.72082700  0.05585946  1.0
  O  O21  1  0.42368471  0.55585946  0.22082700  1.0
