# generated using pymatgen
data_BaBAsO5
_symmetry_space_group_name_H-M   'P 1'
_cell_length_a   7.44794528
_cell_length_b   7.44794528
_cell_length_c   7.19350338
_cell_angle_alpha   90.00000000
_cell_angle_beta   90.00000000
_cell_angle_gamma   120.00000000
_symmetry_Int_Tables_number   1
_chemical_formula_structural   BaBAsO5
_chemical_formula_sum   'Ba3 B3 As3 O15'
_cell_volume   345.57636964
_cell_formula_units_Z   3
loop_
 _symmetry_equiv_pos_site_id
 _symmetry_equiv_pos_as_xyz
  1  'x, y, z'
loop_
 _atom_site_type_symbol
 _atom_site_label
 _atom_site_symmetry_multiplicity
 _atom_site_fract_x
 _atom_site_fract_y
 _atom_site_fract_z
 _atom_site_occupancy
  Ba  Ba0  1  0.38858727  -0.00004451  0.35724187  1.0
  Ba  Ba1  1  0.61136822  0.61141273  0.02390853  1.0
  Ba  Ba2  1  1.00004451  0.38863178  0.69057520  1.0
  B  B3  1  0.00036250  0.90401717  0.69008450  1.0
  B  B4  1  0.90365466  0.99963750  0.35675117  1.0
  B  B5  1  0.09598283  0.09634534  0.02341783  1.0
  As  As6  1  0.39483370  1.00022673  0.85729294  1.0
  As  As7  1  0.60539303  0.60516630  0.52395961  1.0
  As  As8  1  -0.00022673  0.39460697  0.19062627  1.0
  O  O9  1  0.97504081  0.00117478  0.85615116  1.0
  O  O10  1  0.02613397  0.02495919  0.52281783  1.0
  O  O11  1  0.99882522  0.97386603  0.18948450  1.0
  O  O12  1  0.17698499  0.85554650  0.70947098  1.0
  O  O13  1  0.67856151  0.82301501  0.37613765  1.0
  O  O14  1  0.14445350  0.32143849  0.04280431  1.0
  O  O15  1  0.43518471  0.84935879  0.00925826  1.0
  O  O16  1  0.41417408  0.56481529  0.67592492  1.0
  O  O17  1  0.15064121  0.58582592  0.34259159  1.0
  O  O18  1  0.82325829  0.67895399  0.67189740  1.0
  O  O19  1  0.85569570  0.17674171  0.33856407  1.0
  O  O20  1  0.32104601  0.14430430  0.00523074  1.0
  O  O21  1  0.84865278  0.43443414  0.03853622  1.0
  O  O22  1  0.58578137  0.15134722  0.70520289  1.0
  O  O23  1  0.56556586  0.41421863  0.37186956  1.0
