# generated using pymatgen
data_SrMgH4
_symmetry_space_group_name_H-M   'P 1'
_cell_length_a   7.05955670
_cell_length_b   7.05955670
_cell_length_c   5.61315207
_cell_angle_alpha   90.00000000
_cell_angle_beta   90.00000000
_cell_angle_gamma   147.45453828
_symmetry_Int_Tables_number   1
_chemical_formula_structural   SrMgH4
_chemical_formula_sum   'Sr2 Mg2 H8'
_cell_volume   150.49380544
_cell_formula_units_Z   2
loop_
 _symmetry_equiv_pos_site_id
 _symmetry_equiv_pos_as_xyz
  1  'x, y, z'
loop_
 _atom_site_type_symbol
 _atom_site_label
 _atom_site_symmetry_multiplicity
 _atom_site_fract_x
 _atom_site_fract_y
 _atom_site_fract_z
 _atom_site_occupancy
  Sr  Sr0  1  -0.65193109  0.65193109  0.12419639  1.0
  Sr  Sr1  1  -0.34806891  1.34806891  0.62419639  1.0
  Mg  Mg2  1  -0.91589497  0.91589497  0.17118582  1.0
  Mg  Mg3  1  -0.08410503  1.08410503  0.67118582  1.0
  H  H4  1  -0.42574479  1.42574479  0.20654102  1.0
  H  H5  1  -0.57425521  0.57425521  0.70654102  1.0
  H  H6  1  -0.79972246  0.79972246  0.37162432  1.0
  H  H7  1  -0.20027754  1.20027754  0.87162432  1.0
  H  H8  1  -0.83453300  0.83453300  0.89448842  1.0
  H  H9  1  -0.16546700  1.16546700  0.39448842  1.0
  H  H10  1  -0.96016984  0.96016984  0.51586403  1.0
  H  H11  1  -0.03983016  1.03983016  0.01586403  1.0
