# generated using pymatgen
data_La2InPt2
_symmetry_space_group_name_H-M   'P 1'
_cell_length_a   7.98519808
_cell_length_b   7.98519808
_cell_length_c   3.94155894
_cell_angle_alpha   90.00000000
_cell_angle_beta   90.00000000
_cell_angle_gamma   90.00000000
_symmetry_Int_Tables_number   1
_chemical_formula_structural   La2InPt2
_chemical_formula_sum   'La4 In2 Pt4'
_cell_volume   251.32715393
_cell_formula_units_Z   2
loop_
 _symmetry_equiv_pos_site_id
 _symmetry_equiv_pos_as_xyz
  1  'x, y, z'
loop_
 _atom_site_type_symbol
 _atom_site_label
 _atom_site_symmetry_multiplicity
 _atom_site_fract_x
 _atom_site_fract_y
 _atom_site_fract_z
 _atom_site_occupancy
  La  La0  1  0.32666114  0.17333886  0.50000000  1.0
  La  La1  1  0.82666114  0.32666114  0.50000000  1.0
  La  La2  1  0.67333886  0.82666114  0.50000000  1.0
  La  La3  1  0.17333886  0.67333886  0.50000000  1.0
  In  In4  1  0.50000000  0.50000000  0.00000000  1.0
  In  In5  1  0.00000000  0.00000000  0.00000000  1.0
  Pt  Pt6  1  0.87032336  0.62967664  0.00000000  1.0
  Pt  Pt7  1  0.37032336  0.87032336  0.00000000  1.0
  Pt  Pt8  1  0.12967664  0.37032336  0.00000000  1.0
  Pt  Pt9  1  0.62967664  0.12967664  0.00000000  1.0
