# generated using pymatgen
data_SiP2O7
_symmetry_space_group_name_H-M   'P 1'
_cell_length_a   4.79245162
_cell_length_b   4.79245162
_cell_length_c   12.15043556
_cell_angle_alpha   90.00000000
_cell_angle_beta   90.00000000
_cell_angle_gamma   120.00000000
_symmetry_Int_Tables_number   1
_chemical_formula_structural   SiP2O7
_chemical_formula_sum   'Si2 P4 O14'
_cell_volume   241.67846456
_cell_formula_units_Z   2
loop_
 _symmetry_equiv_pos_site_id
 _symmetry_equiv_pos_as_xyz
  1  'x, y, z'
loop_
 _atom_site_type_symbol
 _atom_site_label
 _atom_site_symmetry_multiplicity
 _atom_site_fract_x
 _atom_site_fract_y
 _atom_site_fract_z
 _atom_site_occupancy
  Si  Si0  1  0.00000000  0.00000000  -0.01039880  1.0
  Si  Si1  1  0.00000000  0.00000000  0.48960120  1.0
  P  P2  1  0.33333333  0.66666667  0.10941727  1.0
  P  P3  1  0.66666667  0.33333333  0.60941727  1.0
  P  P4  1  0.33333333  0.66666667  0.36978216  1.0
  P  P5  1  0.66666667  0.33333333  0.86978216  1.0
  O  O6  1  0.26126243  0.93204517  0.07582839  1.0
  O  O7  1  0.93204517  0.67078273  0.57582839  1.0
  O  O8  1  0.67078273  0.73873757  0.07582839  1.0
  O  O9  1  0.06795483  0.32921727  0.07582839  1.0
  O  O10  1  0.73873757  0.06795483  0.57582839  1.0
  O  O11  1  0.32921727  0.26126243  0.57582839  1.0
  O  O12  1  0.26126080  0.93204460  0.40337144  1.0
  O  O13  1  0.93204460  0.67078380  0.90337144  1.0
  O  O14  1  0.67078380  0.73873920  0.40337144  1.0
  O  O15  1  0.06795540  0.32921620  0.40337144  1.0
  O  O16  1  0.73873920  0.06795540  0.90337144  1.0
  O  O17  1  0.32921620  0.26126080  0.90337144  1.0
  O  O18  1  0.33333333  0.66666667  0.23959989  1.0
  O  O19  1  0.66666667  0.33333333  0.73959989  1.0
