# generated using pymatgen
data_ZnP2
_symmetry_space_group_name_H-M   'P 1'
_cell_length_a   8.88835479
_cell_length_b   7.32753894
_cell_length_c   7.60940582
_cell_angle_alpha   90.00000000
_cell_angle_beta   102.38024993
_cell_angle_gamma   90.00000000
_symmetry_Int_Tables_number   1
_chemical_formula_structural   ZnP2
_chemical_formula_sum   'Zn8 P16'
_cell_volume   484.07428346
_cell_formula_units_Z   8
loop_
 _symmetry_equiv_pos_site_id
 _symmetry_equiv_pos_as_xyz
  1  'x, y, z'
loop_
 _atom_site_type_symbol
 _atom_site_label
 _atom_site_symmetry_multiplicity
 _atom_site_fract_x
 _atom_site_fract_y
 _atom_site_fract_z
 _atom_site_occupancy
  Zn  Zn0  1  0.89252051  0.59617308  0.72451647  1.0
  Zn  Zn1  1  0.89252051  0.90382692  0.22451647  1.0
  Zn  Zn2  1  0.10747949  0.09617308  0.77548353  1.0
  Zn  Zn3  1  0.10747949  0.40382692  0.27548353  1.0
  Zn  Zn4  1  0.41902264  0.74662497  0.60545775  1.0
  Zn  Zn5  1  0.41902264  0.75337503  0.10545775  1.0
  Zn  Zn6  1  0.58097736  0.24662497  0.89454225  1.0
  Zn  Zn7  1  0.58097736  0.25337503  0.39454225  1.0
  P  P8  1  0.87505140  0.92655507  0.71666325  1.0
  P  P9  1  0.87505140  0.57344493  0.21666325  1.0
  P  P10  1  0.12494860  0.42655507  0.78333675  1.0
  P  P11  1  0.12494860  0.07344493  0.28333675  1.0
  P  P12  1  0.74190041  0.98367381  0.92797808  1.0
  P  P13  1  0.74190041  0.51632619  0.42797808  1.0
  P  P14  1  0.25809959  0.48367381  0.57202192  1.0
  P  P15  1  0.25809959  0.01632619  0.07202192  1.0
  P  P16  1  0.73540748  0.51893189  0.94059655  1.0
  P  P17  1  0.73540748  0.98106811  0.44059655  1.0
  P  P18  1  0.26459252  0.01893189  0.55940345  1.0
  P  P19  1  0.26459252  0.48106811  0.05940345  1.0
  P  P20  1  0.57737307  0.75539239  0.89485143  1.0
  P  P21  1  0.57737307  0.74460761  0.39485143  1.0
  P  P22  1  0.42262693  0.25539239  0.60514857  1.0
  P  P23  1  0.42262693  0.24460761  0.10514857  1.0
