# generated using pymatgen
data_GdBN2
_symmetry_space_group_name_H-M   'P 1'
_cell_length_a   7.25399082
_cell_length_b   7.25399082
_cell_length_c   7.25399082
_cell_angle_alpha   110.72655286
_cell_angle_beta   110.72655286
_cell_angle_gamma   110.72655286
_symmetry_Int_Tables_number   1
_chemical_formula_structural   GdBN2
_chemical_formula_sum   'Gd6 B6 N12'
_cell_volume   279.34956369
_cell_formula_units_Z   6
loop_
 _symmetry_equiv_pos_site_id
 _symmetry_equiv_pos_as_xyz
  1  'x, y, z'
loop_
 _atom_site_type_symbol
 _atom_site_label
 _atom_site_symmetry_multiplicity
 _atom_site_fract_x
 _atom_site_fract_y
 _atom_site_fract_z
 _atom_site_occupancy
  Gd  Gd0  1  0.49900142  0.04617936  -0.04707970  1.0
  Gd  Gd1  1  0.54617936  0.99900142  -0.54707970  1.0
  Gd  Gd2  1  0.99900142  0.45292030  0.54617936  1.0
  Gd  Gd3  1  0.95292030  0.49900142  0.04617936  1.0
  Gd  Gd4  1  0.45292030  0.54617936  -1.00099858  1.0
  Gd  Gd5  1  1.04617936  0.95292030  0.49900142  1.0
  B  B6  1  0.87697445  -0.00168684  0.11951511  1.0
  B  B7  1  0.49831316  0.37697445  -0.38048489  1.0
  B  B8  1  1.37697445  0.61951511  0.49831316  1.0
  B  B9  1  1.11951511  1.87697445  -0.00168684  1.0
  B  B10  1  0.61951511  0.49831316  0.37697445  1.0
  B  B11  1  0.99831316  1.11951511  -0.12302555  1.0
  N  N12  1  0.87362489  0.12244856  -0.00206240  1.0
  N  N13  1  0.62244856  1.37362489  -0.50206240  1.0
  N  N14  1  1.37362489  0.49793760  0.62244856  1.0
  N  N15  1  0.99793760  0.87362489  0.12244856  1.0
  N  N16  1  0.49793760  0.62244856  -0.62637511  1.0
  N  N17  1  1.12244856  0.99793760  0.87362489  1.0
  N  N18  1  0.75431923  -0.00124501  0.24311093  1.0
  N  N19  1  0.49875499  0.25431923  -0.25688907  1.0
  N  N20  1  1.25431923  0.74311093  0.49875499  1.0
  N  N21  1  0.24311093  0.75431923  -1.00124501  1.0
  N  N22  1  0.74311093  0.49875499  0.25431923  1.0
  N  N23  1  0.99875499  1.24311093  -0.24568077  1.0
