# generated using pymatgen
data_CdI2
_symmetry_space_group_name_H-M   'P 1'
_cell_length_a   4.32803683
_cell_length_b   4.32803683
_cell_length_c   75.88444386
_cell_angle_alpha   90.00000000
_cell_angle_beta   90.00000000
_cell_angle_gamma   120.00000000
_symmetry_Int_Tables_number   1
_chemical_formula_structural   CdI2
_chemical_formula_sum   'Cd10 I20'
_cell_volume   1231.02049467
_cell_formula_units_Z   10
loop_
 _symmetry_equiv_pos_site_id
 _symmetry_equiv_pos_as_xyz
  1  'x, y, z'
loop_
 _atom_site_type_symbol
 _atom_site_label
 _atom_site_symmetry_multiplicity
 _atom_site_fract_x
 _atom_site_fract_y
 _atom_site_fract_z
 _atom_site_occupancy
  Cd  Cd0  1  -0.00000000  -0.00000000  0.02499752  1.0
  Cd  Cd1  1  -0.00000000  -0.00000000  0.22499736  1.0
  Cd  Cd2  1  0.00000000  0.00000000  0.42499846  1.0
  Cd  Cd3  1  0.00000000  0.00000000  0.72499657  1.0
  Cd  Cd4  1  0.66666667  0.33333333  0.12499752  1.0
  Cd  Cd5  1  0.66666667  0.33333333  0.32499893  1.0
  Cd  Cd6  1  0.66666667  0.33333333  0.52501112  1.0
  Cd  Cd7  1  0.66666667  0.33333333  0.62498263  1.0
  Cd  Cd8  1  0.33333333  0.66666667  0.82501360  1.0
  Cd  Cd9  1  0.33333333  0.66666667  0.92498399  1.0
  I  I10  1  0.00000000  0.00000000  0.14765706  1.0
  I  I11  1  0.00000000  0.00000000  0.34765954  1.0
  I  I12  1  0.00000000  0.00000000  0.54766932  1.0
  I  I13  1  0.00000000  0.00000000  0.64764356  1.0
  I  I14  1  0.00000000  0.00000000  0.80235795  1.0
  I  I15  1  0.00000000  0.00000000  0.90233145  1.0
  I  I16  1  0.66666667  0.33333333  0.04765984  1.0
  I  I17  1  0.66666667  0.33333333  0.24765699  1.0
  I  I18  1  0.66666667  0.33333333  0.44765777  1.0
  I  I19  1  0.66666667  0.33333333  0.74765139  1.0
  I  I20  1  0.66666667  0.33333333  0.84767349  1.0
  I  I21  1  0.66666667  0.33333333  0.94764033  1.0
  I  I22  1  0.33333333  0.66666667  0.00234156  1.0
  I  I23  1  0.33333333  0.66666667  0.10234597  1.0
  I  I24  1  0.33333333  0.66666667  0.20234643  1.0
  I  I25  1  0.33333333  0.66666667  0.30234889  1.0
  I  I26  1  0.33333333  0.66666667  0.40234717  1.0
  I  I27  1  0.33333333  0.66666667  0.50236056  1.0
  I  I28  1  0.33333333  0.66666667  0.60232807  1.0
  I  I29  1  0.33333333  0.66666667  0.70234496  1.0
