# generated using pymatgen
data_Cr21(WC3)2
_symmetry_space_group_name_H-M   'P 1'
_cell_length_a   7.51778108
_cell_length_b   7.51778108
_cell_length_c   7.51778108
_cell_angle_alpha   60.00000000
_cell_angle_beta   60.00000000
_cell_angle_gamma   60.00000000
_symmetry_Int_Tables_number   1
_chemical_formula_structural   Cr21(WC3)2
_chemical_formula_sum   'Cr21 W2 C6'
_cell_volume   300.43742138
_cell_formula_units_Z   1
loop_
 _symmetry_equiv_pos_site_id
 _symmetry_equiv_pos_as_xyz
  1  'x, y, z'
loop_
 _atom_site_type_symbol
 _atom_site_label
 _atom_site_symmetry_multiplicity
 _atom_site_fract_x
 _atom_site_fract_y
 _atom_site_fract_z
 _atom_site_occupancy
  C  C0  1  -0.72535171  0.72535171  0.72535171  1.0
  C  C1  1  -0.27464829  0.27464829  0.72535171  1.0
  C  C2  1  0.72535171  0.72535171  -0.72535171  1.0
  C  C3  1  0.27464829  1.27464829  -0.27464829  1.0
  C  C4  1  0.27464829  -0.27464829  1.27464829  1.0
  C  C5  1  -0.27464829  0.27464829  0.27464829  1.0
  W  W6  1  0.75000000  0.75000000  -0.25000000  1.0
  W  W7  1  1.25000000  0.25000000  0.25000000  1.0
  Cr  Cr8  1  1.66173818  -0.00000000  0.00000000  1.0
  Cr  Cr9  1  1.00000000  0.33826182  -0.33826182  1.0
  Cr  Cr10  1  1.00000000  0.66173818  -0.66173818  1.0
  Cr  Cr11  1  1.33826182  0.00000000  -0.00000000  1.0
  Cr  Cr12  1  -0.00000000  1.66173818  0.00000000  1.0
  Cr  Cr13  1  0.33826182  1.00000000  -0.33826182  1.0
  Cr  Cr14  1  0.00000000  0.00000000  0.66173818  1.0
  Cr  Cr15  1  0.33826182  -0.33826182  1.00000000  1.0
  Cr  Cr16  1  0.66173818  1.00000000  -0.66173818  1.0
  Cr  Cr17  1  0.00000000  1.33826182  -0.00000000  1.0
  Cr  Cr18  1  0.66173818  -0.66173818  1.00000000  1.0
  Cr  Cr19  1  0.00000000  0.00000000  0.33826182  1.0
  Cr  Cr20  1  0.61520690  0.61520690  -0.38479310  1.0
  Cr  Cr21  1  0.38479310  1.38479310  -0.15437930  1.0
  Cr  Cr22  1  1.38479310  -0.15437930  0.38479310  1.0
  Cr  Cr23  1  1.15437930  0.61520690  0.61520690  1.0
  Cr  Cr24  1  -0.15437930  1.38479310  0.38479310  1.0
  Cr  Cr25  1  0.61520690  1.15437930  -0.38479310  1.0
  Cr  Cr26  1  0.61520690  0.61520690  1.15437930  1.0
  Cr  Cr27  1  1.38479310  0.38479310  0.38479310  1.0
  Cr  Cr28  1  0.00000000  0.00000000  0.00000000  1.0
