# generated using pymatgen
data_Cs2Pt3Se4
_symmetry_space_group_name_H-M   'P 1'
_cell_length_a   9.19713720
_cell_length_b   7.91794938
_cell_length_c   6.69318858
_cell_angle_alpha   77.51973635
_cell_angle_beta   57.20052736
_cell_angle_gamma   45.27973628
_symmetry_Int_Tables_number   1
_chemical_formula_structural   Cs2Pt3Se4
_chemical_formula_sum   'Cs2 Pt3 Se4'
_cell_volume   279.77949294
_cell_formula_units_Z   1
loop_
 _symmetry_equiv_pos_site_id
 _symmetry_equiv_pos_as_xyz
  1  'x, y, z'
loop_
 _atom_site_type_symbol
 _atom_site_label
 _atom_site_symmetry_multiplicity
 _atom_site_fract_x
 _atom_site_fract_y
 _atom_site_fract_z
 _atom_site_occupancy
  Cs  Cs0  1  -0.35469375  0.64530625  0.35469375  1.0
  Cs  Cs1  1  0.35469375  0.35469375  -0.35469375  1.0
  Pt  Pt2  1  -0.00000000  0.00000000  1.50000000  1.0
  Pt  Pt3  1  -0.50000000  0.50000000  1.00000000  1.0
  Pt  Pt4  1  0.00000000  0.00000000  0.00000000  1.0
  Se  Se5  1  0.72320193  0.05869302  -0.05869302  1.0
  Se  Se6  1  -0.05869302  0.27679807  0.72320193  1.0
  Se  Se7  1  1.05869302  -0.27679807  0.27679807  1.0
  Se  Se8  1  0.27679807  -0.05869302  1.05869302  1.0
