# generated using pymatgen
data_LaSO
_symmetry_space_group_name_H-M   'P 1'
_cell_length_a   7.31035312
_cell_length_b   7.31035312
_cell_length_c   5.95580262
_cell_angle_alpha   90.00000000
_cell_angle_beta   90.00000000
_cell_angle_gamma   48.12096145
_symmetry_Int_Tables_number   1
_chemical_formula_structural   LaSO
_chemical_formula_sum   'La4 S4 O4'
_cell_volume   236.98140553
_cell_formula_units_Z   4
loop_
 _symmetry_equiv_pos_site_id
 _symmetry_equiv_pos_as_xyz
  1  'x, y, z'
loop_
 _atom_site_type_symbol
 _atom_site_label
 _atom_site_symmetry_multiplicity
 _atom_site_fract_x
 _atom_site_fract_y
 _atom_site_fract_z
 _atom_site_occupancy
  La  La0  1  -0.33894222  0.66105778  0.00000000  1.0
  La  La1  1  0.16105778  0.16105778  0.50000000  1.0
  La  La2  1  0.33894222  0.33894222  0.00000000  1.0
  La  La3  1  -0.16105778  0.83894222  0.50000000  1.0
  S  S4  1  -0.87443466  0.87443466  0.87411025  1.0
  S  S5  1  -0.37443466  0.37443466  0.62588975  1.0
  S  S6  1  -0.12556534  0.12556534  0.12588975  1.0
  S  S7  1  -0.62556534  0.62556534  0.37411025  1.0
  O  O8  1  0.00536329  0.49463671  0.75000000  1.0
  O  O9  1  -0.49463671  0.99463671  0.75000000  1.0
  O  O10  1  -0.50536329  1.00536329  0.25000000  1.0
  O  O11  1  -0.00536329  0.50536329  0.25000000  1.0
