# generated using pymatgen
data_KCrF3
_symmetry_space_group_name_H-M   'P 1'
_cell_length_a   5.93444818
_cell_length_b   5.93444818
_cell_length_c   5.90169038
_cell_angle_alpha   62.88231356
_cell_angle_beta   117.11768644
_cell_angle_gamma   84.63916400
_symmetry_Int_Tables_number   1
_chemical_formula_structural   KCrF3
_chemical_formula_sum   'K2 Cr2 F6'
_cell_volume   152.29503688
_cell_formula_units_Z   2
loop_
 _symmetry_equiv_pos_site_id
 _symmetry_equiv_pos_as_xyz
  1  'x, y, z'
loop_
 _atom_site_type_symbol
 _atom_site_label
 _atom_site_symmetry_multiplicity
 _atom_site_fract_x
 _atom_site_fract_y
 _atom_site_fract_z
 _atom_site_occupancy
  K  K0  1  0.74773645  0.74773645  0.50000000  1.0
  K  K1  1  1.25226355  0.25226355  0.50000000  1.0
  Cr  Cr2  1  0.50000000  -0.50000000  0.00000000  1.0
  Cr  Cr3  1  0.00000000  0.00000000  0.00000000  1.0
  F  F4  1  0.80986252  -0.80986252  0.54864604  1.0
  F  F5  1  0.19013748  -0.19013748  0.45135396  1.0
  F  F6  1  0.71147512  -0.71147512  0.92263738  1.0
  F  F7  1  0.28852488  -0.28852488  0.07736262  1.0
  F  F8  1  0.72616853  0.72616853  0.00000000  1.0
  F  F9  1  1.27383147  0.27383147  0.00000000  1.0
