# generated using pymatgen
data_ZnS
_symmetry_space_group_name_H-M   'P 1'
_cell_length_a   3.84901640
_cell_length_b   3.84901640
_cell_length_c   88.13218470
_cell_angle_alpha   90.00000000
_cell_angle_beta   90.00000000
_cell_angle_gamma   120.00000000
_symmetry_Int_Tables_number   1
_chemical_formula_structural   ZnS
_chemical_formula_sum   'Zn28 S28'
_cell_volume   1130.74503902
_cell_formula_units_Z   28
loop_
 _symmetry_equiv_pos_site_id
 _symmetry_equiv_pos_as_xyz
  1  'x, y, z'
loop_
 _atom_site_type_symbol
 _atom_site_label
 _atom_site_symmetry_multiplicity
 _atom_site_fract_x
 _atom_site_fract_y
 _atom_site_fract_z
 _atom_site_occupancy
  Zn  Zn0  1  0.00000000  0.00000000  0.03569418  1.0
  Zn  Zn1  1  0.00000000  0.00000000  0.17858217  1.0
  Zn  Zn2  1  0.00000000  0.00000000  0.28570487  1.0
  Zn  Zn3  1  0.00000000  0.00000000  0.39285539  1.0
  Zn  Zn4  1  0.00000000  0.00000000  0.49999241  1.0
  Zn  Zn5  1  0.00000000  0.00000000  0.60713706  1.0
  Zn  Zn6  1  0.00000000  0.00000000  0.71428233  1.0
  Zn  Zn7  1  0.00000000  0.00000000  0.82142219  1.0
  Zn  Zn8  1  0.00000000  0.00000000  0.92856923  1.0
  Zn  Zn9  1  0.66666667  0.33333333  0.10713868  1.0
  Zn  Zn10  1  0.66666667  0.33333333  0.24997144  1.0
  Zn  Zn11  1  0.66666667  0.33333333  0.32144071  1.0
  Zn  Zn12  1  0.66666667  0.33333333  0.46426101  1.0
  Zn  Zn13  1  0.66666667  0.33333333  0.53572324  1.0
  Zn  Zn14  1  0.66666667  0.33333333  0.67854740  1.0
  Zn  Zn15  1  0.66666667  0.33333333  0.75001029  1.0
  Zn  Zn16  1  0.66666667  0.33333333  0.89283335  1.0
  Zn  Zn17  1  0.66666667  0.33333333  0.96430080  1.0
  Zn  Zn18  1  0.33333333  0.66666667  -0.00003150  1.0
  Zn  Zn19  1  0.33333333  0.66666667  0.07141464  1.0
  Zn  Zn20  1  0.33333333  0.66666667  0.14285298  1.0
  Zn  Zn21  1  0.33333333  0.66666667  0.21430488  1.0
  Zn  Zn22  1  0.33333333  0.66666667  0.35711584  1.0
  Zn  Zn23  1  0.33333333  0.66666667  0.42858817  1.0
  Zn  Zn24  1  0.33333333  0.66666667  0.57140037  1.0
  Zn  Zn25  1  0.33333333  0.66666667  0.64287324  1.0
  Zn  Zn26  1  0.33333333  0.66666667  0.78568307  1.0
  Zn  Zn27  1  0.33333333  0.66666667  0.85715554  1.0
  S  S28  1  0.00000000  0.00000000  0.00889243  1.0
  S  S29  1  0.00000000  0.00000000  0.15177874  1.0
  S  S30  1  0.00000000  0.00000000  0.25889952  1.0
  S  S31  1  0.00000000  0.00000000  0.36604709  1.0
  S  S32  1  0.00000000  0.00000000  0.47318780  1.0
  S  S33  1  0.00000000  0.00000000  0.58033117  1.0
  S  S34  1  0.00000000  0.00000000  0.68747683  1.0
  S  S35  1  0.00000000  0.00000000  0.79461385  1.0
  S  S36  1  0.00000000  0.00000000  0.90176313  1.0
  S  S37  1  0.66666667  0.33333333  0.08033853  1.0
  S  S38  1  0.66666667  0.33333333  0.22322037  1.0
  S  S39  1  0.66666667  0.33333333  0.29467907  1.0
  S  S40  1  0.66666667  0.33333333  0.43750831  1.0
  S  S41  1  0.66666667  0.33333333  0.50896448  1.0
  S  S42  1  0.66666667  0.33333333  0.65179392  1.0
  S  S43  1  0.66666667  0.33333333  0.72325251  1.0
  S  S44  1  0.66666667  0.33333333  0.86607778  1.0
  S  S45  1  0.66666667  0.33333333  0.93754212  1.0
  S  S46  1  0.33333333  0.66666667  0.04466332  1.0
  S  S47  1  0.33333333  0.66666667  0.11610380  1.0
  S  S48  1  0.33333333  0.66666667  0.18754945  1.0
  S  S49  1  0.33333333  0.66666667  0.33036248  1.0
  S  S50  1  0.33333333  0.66666667  0.40182871  1.0
  S  S51  1  0.33333333  0.66666667  0.54464476  1.0
  S  S52  1  0.33333333  0.66666667  0.61611170  1.0
  S  S53  1  0.33333333  0.66666667  0.75892997  1.0
  S  S54  1  0.33333333  0.66666667  0.83039635  1.0
  S  S55  1  0.33333333  0.66666667  0.97321781  1.0
