# generated using pymatgen
data_CaP
_symmetry_space_group_name_H-M   'P 1'
_cell_length_a   7.65530377
_cell_length_b   7.65530377
_cell_length_c   5.71461063
_cell_angle_alpha   90.00000000
_cell_angle_beta   90.00000000
_cell_angle_gamma   120.00000000
_symmetry_Int_Tables_number   1
_chemical_formula_structural   CaP
_chemical_formula_sum   'Ca6 P6'
_cell_volume   290.02947312
_cell_formula_units_Z   6
loop_
 _symmetry_equiv_pos_site_id
 _symmetry_equiv_pos_as_xyz
  1  'x, y, z'
loop_
 _atom_site_type_symbol
 _atom_site_label
 _atom_site_symmetry_multiplicity
 _atom_site_fract_x
 _atom_site_fract_y
 _atom_site_fract_z
 _atom_site_occupancy
  Ca  Ca0  1  0.35641131  0.35641131  0.50000000  1.0
  Ca  Ca1  1  0.00000000  0.64358869  0.50000000  1.0
  Ca  Ca2  1  0.64358869  0.00000000  0.50000000  1.0
  Ca  Ca3  1  0.69083940  0.69083940  0.00000000  1.0
  Ca  Ca4  1  -0.00000000  0.30916060  0.00000000  1.0
  Ca  Ca5  1  0.30916060  0.00000000  0.00000000  1.0
  P  P6  1  0.33333333  0.66666667  0.79753158  1.0
  P  P7  1  0.33333333  0.66666667  0.20246842  1.0
  P  P8  1  0.66666667  0.33333333  0.79753158  1.0
  P  P9  1  0.66666667  0.33333333  0.20246842  1.0
  P  P10  1  0.00000000  0.00000000  0.69750455  1.0
  P  P11  1  0.00000000  0.00000000  0.30249545  1.0
