# generated using pymatgen
data_K2LiAlP2
_symmetry_space_group_name_H-M   'P 1'
_cell_length_a   8.62204234
_cell_length_b   8.62204234
_cell_length_c   8.62204234
_cell_angle_alpha   138.16824601
_cell_angle_beta   60.45269506
_cell_angle_gamma   138.42049186
_symmetry_Int_Tables_number   1
_chemical_formula_structural   K2LiAlP2
_chemical_formula_sum   'K4 Li2 Al2 P4'
_cell_volume   280.70172378
_cell_formula_units_Z   2
loop_
 _symmetry_equiv_pos_site_id
 _symmetry_equiv_pos_as_xyz
  1  'x, y, z'
loop_
 _atom_site_type_symbol
 _atom_site_label
 _atom_site_symmetry_multiplicity
 _atom_site_fract_x
 _atom_site_fract_y
 _atom_site_fract_z
 _atom_site_occupancy
  K  K0  1  0.17314937  0.27258909  0.44573846  1.0
  K  K1  1  0.32685063  0.77258909  1.09943971  1.0
  K  K2  1  0.67314937  1.22741091  0.90056029  1.0
  K  K3  1  0.82685063  0.72741091  0.55426154  1.0
  Li  Li4  1  0.25000000  0.75000000  0.50000000  1.0
  Li  Li5  1  0.75000000  1.25000000  0.50000000  1.0
  Al  Al6  1  0.25000000  0.25000000  0.00000000  1.0
  Al  Al7  1  0.75000000  0.75000000  -0.00000000  1.0
  P  P8  1  0.41156659  0.27837343  0.68994002  1.0
  P  P9  1  0.08843341  0.77837343  0.86680684  1.0
  P  P10  1  0.91156659  1.22162657  1.13319316  1.0
  P  P11  1  0.58843341  0.72162657  0.31005998  1.0
