# generated using pymatgen
data_MnBePO5
_symmetry_space_group_name_H-M   'P 1'
_cell_length_a   5.33689423
_cell_length_b   14.56871126
_cell_length_c   5.64943741
_cell_angle_alpha   90.00000000
_cell_angle_beta   116.25574198
_cell_angle_gamma   90.00000000
_symmetry_Int_Tables_number   1
_chemical_formula_structural   MnBePO5
_chemical_formula_sum   'Mn4 Be4 P4 O20'
_cell_volume   393.93474939
_cell_formula_units_Z   4
loop_
 _symmetry_equiv_pos_site_id
 _symmetry_equiv_pos_as_xyz
  1  'x, y, z'
loop_
 _atom_site_type_symbol
 _atom_site_label
 _atom_site_symmetry_multiplicity
 _atom_site_fract_x
 _atom_site_fract_y
 _atom_site_fract_z
 _atom_site_occupancy
  Mn  Mn0  1  0.19438233  0.58626669  0.67630477  1.0
  Mn  Mn1  1  0.19438233  0.91373331  0.17630477  1.0
  Mn  Mn2  1  0.80561767  0.08626669  0.82369523  1.0
  Mn  Mn3  1  0.80561767  0.41373331  0.32369523  1.0
  O  O4  1  0.23174958  0.45496131  0.58627574  1.0
  O  O5  1  0.23174958  0.04503869  0.08627574  1.0
  O  O6  1  0.76825042  0.95496131  0.91372426  1.0
  O  O7  1  0.76825042  0.54503869  0.41372426  1.0
  O  O8  1  0.27809038  0.94795197  0.53117879  1.0
  O  O9  1  0.27809038  0.55204803  0.03117879  1.0
  O  O10  1  0.72190962  0.44795197  0.96882121  1.0
  O  O11  1  0.72190962  0.05204803  0.46882121  1.0
  O  O12  1  0.37880280  0.63190632  0.46286859  1.0
  O  O13  1  0.37880280  0.86809368  -0.03713141  1.0
  O  O14  1  0.62119720  0.13190632  1.03713141  1.0
  O  O15  1  0.62119720  0.36809368  0.53713141  1.0
  O  O16  1  0.57762029  0.80293405  0.67433430  1.0
  O  O17  1  0.57762029  0.69706595  0.17433430  1.0
  O  O18  1  0.42237971  0.30293405  0.82566570  1.0
  O  O19  1  0.42237971  0.19706595  0.32566570  1.0
  O  O20  1  0.15879961  0.70984306  0.70390652  1.0
  O  O21  1  0.15879961  0.79015694  0.20390652  1.0
  O  O22  1  0.84120039  0.20984306  0.79609348  1.0
  O  O23  1  0.84120039  0.29015694  0.29609348  1.0
  P  P24  1  0.50335799  0.89314697  0.76397988  1.0
  P  P25  1  0.50335799  0.60685303  0.26397988  1.0
  P  P26  1  0.49664201  0.39314697  0.73602012  1.0
  P  P27  1  0.49664201  0.10685303  0.23602012  1.0
  Be  Be28  1  0.30167711  0.74080796  0.49871479  1.0
  Be  Be29  1  0.30167711  0.75919204  -0.00128521  1.0
  Be  Be30  1  0.69832289  0.24080796  1.00128521  1.0
  Be  Be31  1  0.69832289  0.25919204  0.50128521  1.0
