# generated using pymatgen
data_Cs2P(SO)3
_symmetry_space_group_name_H-M   'P 1'
_cell_length_a   10.01600555
_cell_length_b   8.87650992
_cell_length_c   7.22874130
_cell_angle_alpha   85.61862138
_cell_angle_beta   70.09418441
_cell_angle_gamma   74.59037286
_symmetry_Int_Tables_number   1
_chemical_formula_structural   Cs2P(SO)3
_chemical_formula_sum   'Cs4 P2 S6 O6'
_cell_volume   582.49475082
_cell_formula_units_Z   2
loop_
 _symmetry_equiv_pos_site_id
 _symmetry_equiv_pos_as_xyz
  1  'x, y, z'
loop_
 _atom_site_type_symbol
 _atom_site_label
 _atom_site_symmetry_multiplicity
 _atom_site_fract_x
 _atom_site_fract_y
 _atom_site_fract_z
 _atom_site_occupancy
  Cs  Cs0  1  0.60904153  -0.31245734  0.24846664  1.0
  Cs  Cs1  1  0.39095847  -0.68754266  -0.24846664  1.0
  Cs  Cs2  1  1.06645538  -0.26434840  -0.49900745  1.0
  Cs  Cs3  1  -0.06645538  -0.73565160  0.49900745  1.0
  P  P4  1  0.77039971  -0.88499637  0.09316378  1.0
  P  P5  1  0.22960029  -0.11500363  -0.09316378  1.0
  S  S6  1  0.86720016  -0.71266402  0.02569467  1.0
  S  S7  1  0.13279984  -0.28733598  -0.02569467  1.0
  S  S8  1  0.72797974  -0.98039081  -0.10995901  1.0
  S  S9  1  0.27202026  -0.01960919  0.10995901  1.0
  S  S10  1  0.71962687  -0.96537973  -0.63796105  1.0
  S  S11  1  0.28037313  -0.03462027  0.63796105  1.0
  O  O12  1  0.38430416  -0.49880778  0.36382398  1.0
  O  O13  1  0.61569584  -0.50119222  -0.36382398  1.0
  O  O14  1  0.32020717  -0.59582112  0.30699053  1.0
  O  O15  1  0.67979283  -0.40417888  -0.30699053  1.0
  O  O16  1  0.20074298  -0.62315505  0.45375456  1.0
  O  O17  1  0.79925702  -0.37684495  -0.45375456  1.0
