# generated using pymatgen
data_LaScO3
_symmetry_space_group_name_H-M   'P 1'
_cell_length_a   5.84410012
_cell_length_b   8.15401444
_cell_length_c   5.70502632
_cell_angle_alpha   90.00000000
_cell_angle_beta   90.00000000
_cell_angle_gamma   90.00000000
_symmetry_Int_Tables_number   1
_chemical_formula_structural   LaScO3
_chemical_formula_sum   'La4 Sc4 O12'
_cell_volume   271.86091638
_cell_formula_units_Z   4
loop_
 _symmetry_equiv_pos_site_id
 _symmetry_equiv_pos_as_xyz
  1  'x, y, z'
loop_
 _atom_site_type_symbol
 _atom_site_label
 _atom_site_symmetry_multiplicity
 _atom_site_fract_x
 _atom_site_fract_y
 _atom_site_fract_z
 _atom_site_occupancy
  La  La0  1  0.04604255  0.75000000  0.51195284  1.0
  La  La1  1  0.54604255  0.75000000  0.98804716  1.0
  La  La2  1  0.95395745  0.25000000  0.48804716  1.0
  La  La3  1  0.45395745  0.25000000  0.01195284  1.0
  Sc  Sc4  1  0.50000000  0.00000000  0.50000000  1.0
  Sc  Sc5  1  0.50000000  0.50000000  0.50000000  1.0
  Sc  Sc6  1  0.00000000  0.00000000  0.00000000  1.0
  Sc  Sc7  1  0.00000000  0.50000000  0.00000000  1.0
  O  O8  1  0.29659516  0.94620899  0.79649933  1.0
  O  O9  1  0.29659516  0.55379101  0.79649933  1.0
  O  O10  1  0.79659516  0.94620899  0.70350067  1.0
  O  O11  1  0.79659516  0.55379101  0.70350067  1.0
  O  O12  1  0.70340484  0.44620899  0.20350067  1.0
  O  O13  1  0.70340484  0.05379101  0.20350067  1.0
  O  O14  1  0.20340484  0.44620899  0.29649933  1.0
  O  O15  1  0.20340484  0.05379101  0.29649933  1.0
  O  O16  1  0.96501479  0.75000000  0.10093070  1.0
  O  O17  1  0.46501479  0.75000000  0.39906930  1.0
  O  O18  1  0.03498521  0.25000000  0.89906930  1.0
  O  O19  1  0.53498521  0.25000000  0.60093070  1.0
