# generated using pymatgen
data_Ba(NiGe)2
_symmetry_space_group_name_H-M   'P 1'
_cell_length_a   8.41432274
_cell_length_b   11.47624168
_cell_length_c   4.32110350
_cell_angle_alpha   90.00000000
_cell_angle_beta   90.00000000
_cell_angle_gamma   90.00000000
_symmetry_Int_Tables_number   1
_chemical_formula_structural   Ba(NiGe)2
_chemical_formula_sum   'Ba4 Ni8 Ge8'
_cell_volume   417.26650120
_cell_formula_units_Z   4
loop_
 _symmetry_equiv_pos_site_id
 _symmetry_equiv_pos_as_xyz
  1  'x, y, z'
loop_
 _atom_site_type_symbol
 _atom_site_label
 _atom_site_symmetry_multiplicity
 _atom_site_fract_x
 _atom_site_fract_y
 _atom_site_fract_z
 _atom_site_occupancy
  Ba  Ba0  1  0.64074574  0.25000000  0.24621145  1.0
  Ba  Ba1  1  0.14074574  0.25000000  0.25378855  1.0
  Ba  Ba2  1  0.35925426  0.75000000  0.75378855  1.0
  Ba  Ba3  1  0.85925426  0.75000000  0.74621145  1.0
  Ni  Ni4  1  0.85525697  0.00180221  0.34475678  1.0
  Ni  Ni5  1  0.35525697  0.49819779  0.15524322  1.0
  Ni  Ni6  1  0.14474303  0.50180221  0.65524322  1.0
  Ni  Ni7  1  0.64474303  0.99819779  0.84475678  1.0
  Ni  Ni8  1  0.14474303  0.99819779  0.65524322  1.0
  Ni  Ni9  1  0.64474303  0.50180221  0.84475678  1.0
  Ni  Ni10  1  0.85525697  0.49819779  0.34475678  1.0
  Ni  Ni11  1  0.35525697  0.00180221  0.15524322  1.0
  Ge  Ge12  1  0.59962509  0.57950484  0.33561133  1.0
  Ge  Ge13  1  0.09962509  0.92049516  0.16438867  1.0
  Ge  Ge14  1  0.40037491  0.07950484  0.66438867  1.0
  Ge  Ge15  1  0.90037491  0.42049516  0.83561133  1.0
  Ge  Ge16  1  0.40037491  0.42049516  0.66438867  1.0
  Ge  Ge17  1  0.90037491  0.07950484  0.83561133  1.0
  Ge  Ge18  1  0.59962509  0.92049516  0.33561133  1.0
  Ge  Ge19  1  0.09962509  0.57950484  0.16438867  1.0
