# generated using pymatgen
data_Zr4Os2N
_symmetry_space_group_name_H-M   'P 1'
_cell_length_a   8.77899434
_cell_length_b   8.77899434
_cell_length_c   8.77899434
_cell_angle_alpha   60.00000000
_cell_angle_beta   60.00000000
_cell_angle_gamma   60.00000000
_symmetry_Int_Tables_number   1
_chemical_formula_structural   Zr4Os2N
_chemical_formula_sum   'Zr16 Os8 N4'
_cell_volume   478.43099623
_cell_formula_units_Z   4
loop_
 _symmetry_equiv_pos_site_id
 _symmetry_equiv_pos_as_xyz
  1  'x, y, z'
loop_
 _atom_site_type_symbol
 _atom_site_label
 _atom_site_symmetry_multiplicity
 _atom_site_fract_x
 _atom_site_fract_y
 _atom_site_fract_z
 _atom_site_occupancy
  Zr  Zr0  1  1.12500000  0.62500000  0.62500000  1.0
  Zr  Zr1  1  0.62500000  1.12500000  -0.37500000  1.0
  Zr  Zr2  1  -0.37500000  0.62500000  1.12500000  1.0
  Zr  Zr3  1  -0.37500000  0.62500000  0.62500000  1.0
  Zr  Zr4  1  0.81495441  0.81495441  -0.81495441  1.0
  Zr  Zr5  1  0.18504559  1.18504559  -0.18504559  1.0
  Zr  Zr6  1  0.81495441  -0.81495441  0.81495441  1.0
  Zr  Zr7  1  0.18504559  -0.18504559  0.18504559  1.0
  Zr  Zr8  1  -0.81495441  0.81495441  0.81495441  1.0
  Zr  Zr9  1  -0.18504559  0.18504559  0.18504559  1.0
  Zr  Zr10  1  0.43504559  1.43504559  0.06495441  1.0
  Zr  Zr11  1  0.06495441  0.06495441  0.43504559  1.0
  Zr  Zr12  1  0.43504559  1.06495441  0.43504559  1.0
  Zr  Zr13  1  0.06495441  1.43504559  0.06495441  1.0
  Zr  Zr14  1  0.06495441  1.43504559  0.43504559  1.0
  Zr  Zr15  1  0.43504559  1.06495441  0.06495441  1.0
  Os  Os16  1  -0.24076133  0.41358711  0.41358711  1.0
  Os  Os17  1  0.41358711  -0.24076133  0.41358711  1.0
  Os  Os18  1  0.41358711  1.41358711  -0.24076133  1.0
  Os  Os19  1  0.41358711  1.41358711  0.41358711  1.0
  Os  Os20  1  0.49076133  0.83641289  -0.16358711  1.0
  Os  Os21  1  0.83641289  0.49076133  0.83641289  1.0
  Os  Os22  1  0.83641289  0.83641289  -0.50923867  1.0
  Os  Os23  1  0.83641289  0.83641289  0.83641289  1.0
  N  N24  1  0.62500000  1.12500000  0.12500000  1.0
  N  N25  1  0.12500000  1.62500000  0.12500000  1.0
  N  N26  1  0.12500000  0.12500000  1.62500000  1.0
  N  N27  1  0.12500000  0.12500000  0.12500000  1.0
