# generated using pymatgen
data_Mn2Ga2S5
_symmetry_space_group_name_H-M   'P 1'
_cell_length_a   3.69633916
_cell_length_b   3.69633916
_cell_length_c   16.06305813
_cell_angle_alpha   90.00000000
_cell_angle_beta   90.00000000
_cell_angle_gamma   120.00000000
_symmetry_Int_Tables_number   1
_chemical_formula_structural   Mn2Ga2S5
_chemical_formula_sum   'Mn2 Ga2 S5'
_cell_volume   190.06514808
_cell_formula_units_Z   1
loop_
 _symmetry_equiv_pos_site_id
 _symmetry_equiv_pos_as_xyz
  1  'x, y, z'
loop_
 _atom_site_type_symbol
 _atom_site_label
 _atom_site_symmetry_multiplicity
 _atom_site_fract_x
 _atom_site_fract_y
 _atom_site_fract_z
 _atom_site_occupancy
  Mn  Mn0  1  0.33333333  0.66666667  0.09223761  1.0
  Mn  Mn1  1  0.66666667  0.33333333  0.90776239  1.0
  Ga  Ga2  1  0.33333333  0.66666667  0.68672373  1.0
  Ga  Ga3  1  0.66666667  0.33333333  0.31327627  1.0
  S  S4  1  0.33333333  0.66666667  0.37713264  1.0
  S  S5  1  0.66666667  0.33333333  0.62286736  1.0
  S  S6  1  0.33333333  0.66666667  0.82580358  1.0
  S  S7  1  0.66666667  0.33333333  0.17419642  1.0
  S  S8  1  0.00000000  -0.00000000  -0.00000000  1.0
