# generated using pymatgen
data_Mg16Si8HO32
_symmetry_space_group_name_H-M   'P 1'
_cell_length_a   5.76568777
_cell_length_b   11.66932651
_cell_length_c   8.39789103
_cell_angle_alpha   90.00000000
_cell_angle_beta   90.15739310
_cell_angle_gamma   90.00000000
_symmetry_Int_Tables_number   1
_chemical_formula_structural   Mg16Si8HO32
_chemical_formula_sum   'Mg16 Si8 H1 O32'
_cell_volume   565.02219479
_cell_formula_units_Z   1
loop_
 _symmetry_equiv_pos_site_id
 _symmetry_equiv_pos_as_xyz
  1  'x, y, z'
loop_
 _atom_site_type_symbol
 _atom_site_label
 _atom_site_symmetry_multiplicity
 _atom_site_fract_x
 _atom_site_fract_y
 _atom_site_fract_z
 _atom_site_occupancy
  Mg  Mg0  1  0.25013494  0.00000000  0.78032851  1.0
  Mg  Mg1  1  0.74990385  0.00000000  0.21914381  1.0
  Mg  Mg2  1  0.75031039  0.24746762  0.24882502  1.0
  Mg  Mg3  1  0.75031039  0.75253238  0.24882502  1.0
  Mg  Mg4  1  0.99933019  0.62335448  0.99961641  1.0
  Mg  Mg5  1  0.50092221  0.37701191  0.99923385  1.0
  Mg  Mg6  1  0.99933019  0.37664552  0.99961641  1.0
  Mg  Mg7  1  0.50092221  0.62298809  0.99923385  1.0
  Mg  Mg8  1  0.75645967  0.50000000  0.27463260  1.0
  Mg  Mg9  1  0.24165635  0.50000000  0.73149724  1.0
  Mg  Mg10  1  0.24986325  0.75187917  0.75088668  1.0
  Mg  Mg11  1  0.24986325  0.24812083  0.75088668  1.0
  Mg  Mg12  1  0.50067030  0.12008807  0.50086956  1.0
  Mg  Mg13  1  0.99942776  0.87981983  0.50090272  1.0
  Mg  Mg14  1  0.50067030  0.87991193  0.50086956  1.0
  Mg  Mg15  1  0.99942776  0.12018017  0.50090272  1.0
  Si  Si16  1  0.24991321  0.87050166  0.13217971  1.0
  Si  Si17  1  0.24991321  0.12949834  0.13217971  1.0
  Si  Si18  1  0.75025850  0.12980366  0.86716955  1.0
  Si  Si19  1  0.75025850  0.87019634  0.86716955  1.0
  Si  Si20  1  0.74851346  0.36633177  0.63367528  1.0
  Si  Si21  1  0.74851346  0.63366823  0.63367528  1.0
  Si  Si22  1  0.25195172  0.64233617  0.36140001  1.0
  Si  Si23  1  0.25195172  0.35766383  0.36140001  1.0
  H  H24  1  0.45482705  0.50000000  0.49286938  1.0
  O  O25  1  0.24959016  0.00000000  0.03288813  1.0
  O  O26  1  0.75038109  0.00000000  0.96642625  1.0
  O  O27  1  0.24997251  0.00000000  0.53513864  1.0
  O  O28  1  0.75015420  0.00000000  0.46510730  1.0
  O  O29  1  0.24957191  0.76004300  0.00624246  1.0
  O  O30  1  0.24957191  0.23995700  0.00624246  1.0
  O  O31  1  0.75043628  0.23989358  0.99363998  1.0
  O  O32  1  0.75043628  0.76010642  0.99363998  1.0
  O  O33  1  0.01100433  0.62753162  0.25886846  1.0
  O  O34  1  0.49187713  0.37062485  0.25620336  1.0
  O  O35  1  0.50829668  0.37229782  0.74217321  1.0
  O  O36  1  0.98883079  0.62728791  0.74160193  1.0
  O  O37  1  0.98883079  0.37271209  0.74160193  1.0
  O  O38  1  0.50829668  0.62770218  0.74217321  1.0
  O  O39  1  0.49187713  0.62937515  0.25620336  1.0
  O  O40  1  0.01100433  0.37246838  0.25886846  1.0
  O  O41  1  0.73677422  0.50000000  0.53144007  1.0
  O  O42  1  0.27815206  0.50000000  0.47006758  1.0
  O  O43  1  0.75081671  0.50000000  0.03309530  1.0
  O  O44  1  0.24933391  0.50000000  0.96992694  1.0
  O  O45  1  0.74960775  0.25758823  0.50604781  1.0
  O  O46  1  0.74960775  0.74241177  0.50604781  1.0
  O  O47  1  0.25039083  0.74669129  0.49373705  1.0
  O  O48  1  0.25039083  0.25330871  0.49373705  1.0
  O  O49  1  0.51087480  0.12689663  0.75797794  1.0
  O  O50  1  0.98891621  0.87302645  0.75795518  1.0
  O  O51  1  0.01132188  0.87306369  0.24176244  1.0
  O  O52  1  0.48911206  0.12663822  0.24177550  1.0
  O  O53  1  0.48911206  0.87336178  0.24177550  1.0
  O  O54  1  0.01132188  0.12693631  0.24176244  1.0
  O  O55  1  0.98891621  0.12697355  0.75795518  1.0
  O  O56  1  0.51087480  0.87310337  0.75797794  1.0
