# generated using pymatgen
data_Ba2ZnSi2O7
_symmetry_space_group_name_H-M   'P 1'
_cell_length_a   6.90173832
_cell_length_b   6.90173832
_cell_length_c   8.54645770
_cell_angle_alpha   77.20325526
_cell_angle_beta   102.79674474
_cell_angle_gamma   76.38886051
_symmetry_Int_Tables_number   1
_chemical_formula_structural   Ba2ZnSi2O7
_chemical_formula_sum   'Ba4 Zn2 Si4 O14'
_cell_volume   369.41230009
_cell_formula_units_Z   2
loop_
 _symmetry_equiv_pos_site_id
 _symmetry_equiv_pos_as_xyz
  1  'x, y, z'
loop_
 _atom_site_type_symbol
 _atom_site_label
 _atom_site_symmetry_multiplicity
 _atom_site_fract_x
 _atom_site_fract_y
 _atom_site_fract_z
 _atom_site_occupancy
  Ba  Ba0  1  1.73188060  0.18612104  0.02522153  1.0
  Ba  Ba1  1  0.81387896  -0.73188060  0.52522153  1.0
  Ba  Ba2  1  1.18612104  0.73188060  0.47477847  1.0
  Ba  Ba3  1  0.26811940  -0.18612104  0.97477847  1.0
  Zn  Zn4  1  1.25805150  0.25805150  0.25000000  1.0
  Zn  Zn5  1  0.74194850  -0.25805150  0.75000000  1.0
  Si  Si6  1  0.60577229  -0.16756627  0.36282651  1.0
  Si  Si7  1  1.16756627  0.39422771  0.86282651  1.0
  Si  Si8  1  0.83243373  -0.39422771  0.13717349  1.0
  Si  Si9  1  1.39422771  0.16756627  0.63717349  1.0
  O  O10  1  0.76034461  -0.02339825  0.36699052  1.0
  O  O11  1  1.02339825  0.23965539  0.86699052  1.0
  O  O12  1  0.97660175  -0.23965539  0.13300948  1.0
  O  O13  1  1.23965539  0.02339825  0.63300948  1.0
  O  O14  1  0.35741321  -0.04319917  0.26595327  1.0
  O  O15  1  1.04319917  0.64258679  0.76595327  1.0
  O  O16  1  0.95680083  -0.64258679  0.23404673  1.0
  O  O17  1  1.64258679  0.04319917  0.73404673  1.0
  O  O18  1  1.37944830  0.32450279  0.45589064  1.0
  O  O19  1  0.67549721  -0.37944830  0.95589064  1.0
  O  O20  1  1.32450279  0.37944830  0.04410936  1.0
  O  O21  1  0.62055170  -0.32450279  0.54410936  1.0
  O  O22  1  0.66571452  -0.33428548  0.25000000  1.0
  O  O23  1  1.33428548  0.33428548  0.75000000  1.0
