# generated using pymatgen
data_SbCl2(OF3)2
_symmetry_space_group_name_H-M   'P 1'
_cell_length_a   5.96854879
_cell_length_b   11.92252616
_cell_length_c   6.38793432
_cell_angle_alpha   79.25268525
_cell_angle_beta   84.16265060
_cell_angle_gamma   83.78042835
_symmetry_Int_Tables_number   1
_chemical_formula_structural   SbCl2(OF3)2
_chemical_formula_sum   'Sb2 Cl4 O4 F12'
_cell_volume   442.41592096
_cell_formula_units_Z   2
loop_
 _symmetry_equiv_pos_site_id
 _symmetry_equiv_pos_as_xyz
  1  'x, y, z'
loop_
 _atom_site_type_symbol
 _atom_site_label
 _atom_site_symmetry_multiplicity
 _atom_site_fract_x
 _atom_site_fract_y
 _atom_site_fract_z
 _atom_site_occupancy
  Sb  Sb0  1  0.00000000  0.00000000  0.00000000  1.0
  Sb  Sb1  1  0.00000000  -0.50000000  -0.50000000  1.0
  Cl  Cl2  1  -0.61778430  -0.82273130  -0.68867650  1.0
  Cl  Cl3  1  -0.38221570  -0.17726870  -0.31132350  1.0
  Cl  Cl4  1  -0.38111932  -0.75869962  -0.56802236  1.0
  Cl  Cl5  1  -0.61888068  -0.24130038  -0.43197764  1.0
  O  O6  1  -0.35563107  -0.64672845  -0.93722668  1.0
  O  O7  1  -0.64436893  -0.35327155  -0.06277332  1.0
  O  O8  1  -0.50011017  -0.68730642  -1.00498254  1.0
  O  O9  1  -0.49988983  -0.31269358  0.00498254  1.0
  F  F10  1  -0.25252713  -0.90641587  -0.12465077  1.0
  F  F11  1  -0.74747287  -0.09358413  -0.87534923  1.0
  F  F12  1  -0.18621834  -0.03899283  -0.73839067  1.0
  F  F13  1  -0.81378166  -0.96100717  -0.26160933  1.0
  F  F14  1  -0.08400013  -0.13252298  -0.10278407  1.0
  F  F15  1  -0.91599987  -0.86747702  -0.89721593  1.0
  F  F16  1  -0.76471091  -0.54239180  -0.30859606  1.0
  F  F17  1  -0.23528909  -0.45760820  -0.69140394  1.0
  F  F18  1  -0.07782118  -0.65780261  -0.44472873  1.0
  F  F19  1  -0.92217882  -0.34219739  -0.55527127  1.0
  F  F20  1  -0.21121951  -0.46725002  -0.26553599  1.0
  F  F21  1  -0.78878049  -0.53274998  -0.73446401  1.0
