# generated using pymatgen
data_Lu4In(Ge2Ru)2
_symmetry_space_group_name_H-M   'P 1'
_cell_length_a   8.06212936
_cell_length_b   8.06212936
_cell_length_c   6.91916917
_cell_angle_alpha   73.54414136
_cell_angle_beta   106.45585864
_cell_angle_gamma   149.54829629
_symmetry_Int_Tables_number   1
_chemical_formula_structural   Lu4In(Ge2Ru)2
_chemical_formula_sum   'Lu4 In1 Ge4 Ru2'
_cell_volume   217.88540949
_cell_formula_units_Z   1
loop_
 _symmetry_equiv_pos_site_id
 _symmetry_equiv_pos_as_xyz
  1  'x, y, z'
loop_
 _atom_site_type_symbol
 _atom_site_label
 _atom_site_symmetry_multiplicity
 _atom_site_fract_x
 _atom_site_fract_y
 _atom_site_fract_z
 _atom_site_occupancy
  Lu  Lu0  1  0.65336494  -0.65336494  0.93150340  1.0
  Lu  Lu1  1  1.34663506  -0.34663506  0.06849660  1.0
  Lu  Lu2  1  1.41114240  -0.41114240  0.61009999  1.0
  Lu  Lu3  1  0.58885760  -0.58885760  0.38990001  1.0
  In  In4  1  0.00000000  0.00000000  0.00000000  1.0
  Ge  Ge5  1  0.93493509  -0.93493509  0.33965948  1.0
  Ge  Ge6  1  1.06506491  -0.06506491  0.66034052  1.0
  Ge  Ge7  1  0.80071185  -0.80071185  0.74369578  1.0
  Ge  Ge8  1  1.19928815  -0.19928815  0.25630422  1.0
  Ru  Ru9  1  0.77907046  -0.77907046  0.36709433  1.0
  Ru  Ru10  1  1.22092954  -0.22092954  0.63290567  1.0
