# generated using pymatgen
data_Cs2ZnBi2Se5
_symmetry_space_group_name_H-M   'P 1'
_cell_length_a   16.65410085
_cell_length_b   4.30541925
_cell_length_c   19.01998978
_cell_angle_alpha   90.00000000
_cell_angle_beta   90.00000000
_cell_angle_gamma   90.00000000
_symmetry_Int_Tables_number   1
_chemical_formula_structural   Cs2ZnBi2Se5
_chemical_formula_sum   'Cs8 Zn4 Bi8 Se20'
_cell_volume   1363.78816647
_cell_formula_units_Z   4
loop_
 _symmetry_equiv_pos_site_id
 _symmetry_equiv_pos_as_xyz
  1  'x, y, z'
loop_
 _atom_site_type_symbol
 _atom_site_label
 _atom_site_symmetry_multiplicity
 _atom_site_fract_x
 _atom_site_fract_y
 _atom_site_fract_z
 _atom_site_occupancy
  Cs  Cs0  1  0.99530752  0.75000000  0.62289357  1.0
  Cs  Cs1  1  0.49530752  0.75000000  0.87710643  1.0
  Cs  Cs2  1  0.00469248  0.25000000  0.37710643  1.0
  Cs  Cs3  1  0.50469248  0.25000000  0.12289357  1.0
  Cs  Cs4  1  0.53814591  0.75000000  0.38206144  1.0
  Cs  Cs5  1  0.03814591  0.75000000  0.11793856  1.0
  Cs  Cs6  1  0.46185409  0.25000000  0.61793856  1.0
  Cs  Cs7  1  0.96185409  0.25000000  0.88206144  1.0
  Zn  Zn8  1  0.79449435  0.75000000  0.35613340  1.0
  Zn  Zn9  1  0.29449435  0.75000000  0.14386660  1.0
  Zn  Zn10  1  0.20550565  0.25000000  0.64386660  1.0
  Zn  Zn11  1  0.70550565  0.25000000  0.85613340  1.0
  Bi  Bi12  1  0.74773302  0.75000000  0.01728795  1.0
  Bi  Bi13  1  0.24773302  0.75000000  0.48271205  1.0
  Bi  Bi14  1  0.25226698  0.25000000  0.98271205  1.0
  Bi  Bi15  1  0.75226698  0.25000000  0.51728795  1.0
  Bi  Bi16  1  0.70916402  0.75000000  0.69855419  1.0
  Bi  Bi17  1  0.20916402  0.75000000  0.80144581  1.0
  Bi  Bi18  1  0.29083598  0.25000000  0.30144581  1.0
  Bi  Bi19  1  0.79083598  0.25000000  0.19855419  1.0
  Se  Se20  1  0.89346178  0.75000000  0.25639465  1.0
  Se  Se21  1  0.39346178  0.75000000  0.24360535  1.0
  Se  Se22  1  0.10653822  0.25000000  0.74360535  1.0
  Se  Se23  1  0.60653822  0.25000000  0.75639465  1.0
  Se  Se24  1  0.86170475  0.75000000  0.47271698  1.0
  Se  Se25  1  0.36170475  0.75000000  0.02728302  1.0
  Se  Se26  1  0.13829525  0.25000000  0.52728302  1.0
  Se  Se27  1  0.63829525  0.25000000  0.97271698  1.0
  Se  Se28  1  0.78844469  0.75000000  0.84502355  1.0
  Se  Se29  1  0.28844469  0.75000000  0.65497645  1.0
  Se  Se30  1  0.21155531  0.25000000  0.15497645  1.0
  Se  Se31  1  0.71155531  0.25000000  0.34502355  1.0
  Se  Se32  1  0.67919345  0.75000000  0.15118995  1.0
  Se  Se33  1  0.17919345  0.75000000  0.34881005  1.0
  Se  Se34  1  0.32080655  0.25000000  0.84881005  1.0
  Se  Se35  1  0.82080655  0.25000000  0.65118995  1.0
  Se  Se36  1  0.63399428  0.75000000  0.56077728  1.0
  Se  Se37  1  0.13399428  0.75000000  0.93922272  1.0
  Se  Se38  1  0.36600572  0.25000000  0.43922272  1.0
  Se  Se39  1  0.86600572  0.25000000  0.06077728  1.0
