# generated using pymatgen
data_TaCl3O
_symmetry_space_group_name_H-M   'P 1'
_cell_length_a   12.00012051
_cell_length_b   12.00012051
_cell_length_c   3.84177187
_cell_angle_alpha   90.00000000
_cell_angle_beta   90.00000000
_cell_angle_gamma   90.00000000
_symmetry_Int_Tables_number   1
_chemical_formula_structural   TaCl3O
_chemical_formula_sum   'Ta4 Cl12 O4'
_cell_volume   553.22626074
_cell_formula_units_Z   4
loop_
 _symmetry_equiv_pos_site_id
 _symmetry_equiv_pos_as_xyz
  1  'x, y, z'
loop_
 _atom_site_type_symbol
 _atom_site_label
 _atom_site_symmetry_multiplicity
 _atom_site_fract_x
 _atom_site_fract_y
 _atom_site_fract_z
 _atom_site_occupancy
  Ta  Ta0  1  0.11662027  0.11662027  0.50000000  1.0
  Ta  Ta1  1  0.61662027  0.38337973  0.00000000  1.0
  Ta  Ta2  1  0.88337973  0.88337973  0.50000000  1.0
  Ta  Ta3  1  0.38337973  0.61662027  0.00000000  1.0
  Cl  Cl4  1  0.30641628  0.09773984  0.50000000  1.0
  Cl  Cl5  1  0.80641628  0.40226016  0.00000000  1.0
  Cl  Cl6  1  0.90226016  0.69358372  0.50000000  1.0
  Cl  Cl7  1  0.40226016  0.80641628  0.00000000  1.0
  Cl  Cl8  1  0.69358372  0.90226016  0.50000000  1.0
  Cl  Cl9  1  0.19358372  0.59773984  0.00000000  1.0
  Cl  Cl10  1  0.09773984  0.30641628  0.50000000  1.0
  Cl  Cl11  1  0.59773984  0.19358372  0.00000000  1.0
  Cl  Cl12  1  0.09628492  0.90371508  0.50000000  1.0
  Cl  Cl13  1  0.59628492  0.59628492  0.00000000  1.0
  Cl  Cl14  1  0.90371508  0.09628492  0.50000000  1.0
  Cl  Cl15  1  0.40371508  0.40371508  0.00000000  1.0
  O  O16  1  0.39493119  0.60506881  0.50000000  1.0
  O  O17  1  0.89493119  0.89493119  0.00000000  1.0
  O  O18  1  0.60506881  0.39493119  0.50000000  1.0
  O  O19  1  0.10506881  0.10506881  0.00000000  1.0
