# generated using pymatgen
data_LaCrSe2O
_symmetry_space_group_name_H-M   'P 1'
_cell_length_a   6.22485943
_cell_length_b   6.22485943
_cell_length_c   8.35076426
_cell_angle_alpha   89.89932342
_cell_angle_beta   90.10067658
_cell_angle_gamma   143.41174856
_symmetry_Int_Tables_number   1
_chemical_formula_structural   LaCrSe2O
_chemical_formula_sum   'La2 Cr2 Se4 O2'
_cell_volume   192.87446466
_cell_formula_units_Z   2
loop_
 _symmetry_equiv_pos_site_id
 _symmetry_equiv_pos_as_xyz
  1  'x, y, z'
loop_
 _atom_site_type_symbol
 _atom_site_label
 _atom_site_symmetry_multiplicity
 _atom_site_fract_x
 _atom_site_fract_y
 _atom_site_fract_z
 _atom_site_occupancy
  La  La0  1  0.72680994  0.27319006  0.30476059  1.0
  La  La1  1  0.27319006  -0.27319006  0.69523941  1.0
  Cr  Cr2  1  0.00000000  -0.00000000  0.50000000  1.0
  Cr  Cr3  1  0.50000000  0.50000000  0.00000000  1.0
  Se  Se4  1  0.54532751  0.45467249  0.69840398  1.0
  Se  Se5  1  0.45467249  -0.45467249  0.30159602  1.0
  Se  Se6  1  0.86196222  0.13803778  0.97397204  1.0
  Se  Se7  1  0.13803778  -0.13803778  0.02602796  1.0
  O  O8  1  0.83584764  0.16415236  0.55686886  1.0
  O  O9  1  0.16415236  -0.16415236  0.44313114  1.0
