# generated using pymatgen
data_ZrI2
_symmetry_space_group_name_H-M   'P 1'
_cell_length_a   6.90674280
_cell_length_b   3.76948146
_cell_length_c   16.56324555
_cell_angle_alpha   90.00000000
_cell_angle_beta   94.86971201
_cell_angle_gamma   90.00000000
_symmetry_Int_Tables_number   1
_chemical_formula_structural   ZrI2
_chemical_formula_sum   'Zr4 I8'
_cell_volume   429.66485418
_cell_formula_units_Z   4
loop_
 _symmetry_equiv_pos_site_id
 _symmetry_equiv_pos_as_xyz
  1  'x, y, z'
loop_
 _atom_site_type_symbol
 _atom_site_label
 _atom_site_symmetry_multiplicity
 _atom_site_fract_x
 _atom_site_fract_y
 _atom_site_fract_z
 _atom_site_occupancy
  Zr  Zr0  1  0.81171895  0.25000000  0.99687595  1.0
  Zr  Zr1  1  0.18828105  0.75000000  0.00312405  1.0
  Zr  Zr2  1  0.31294661  0.25000000  0.50310413  1.0
  Zr  Zr3  1  0.68705339  0.75000000  0.49689587  1.0
  I  I4  1  0.94085899  0.25000000  0.59906422  1.0
  I  I5  1  0.05914101  0.75000000  0.40093578  1.0
  I  I6  1  0.55392194  0.25000000  0.36663387  1.0
  I  I7  1  0.44607806  0.75000000  0.63336613  1.0
  I  I8  1  0.40043428  0.25000000  0.90094631  1.0
  I  I9  1  0.59956572  0.75000000  0.09905369  1.0
  I  I10  1  0.10820466  0.25000000  0.13334575  1.0
  I  I11  1  0.89179534  0.75000000  0.86665425  1.0
