# generated using pymatgen
data_HgC2(NO)2
_symmetry_space_group_name_H-M   'P 1'
_cell_length_a   6.00279307
_cell_length_b   6.00279307
_cell_length_c   8.28811115
_cell_angle_alpha   90.00000000
_cell_angle_beta   90.00000000
_cell_angle_gamma   120.74971922
_symmetry_Int_Tables_number   1
_chemical_formula_structural   HgC2(NO)2
_chemical_formula_sum   'Hg2 C4 N4 O4'
_cell_volume   256.66235083
_cell_formula_units_Z   2
loop_
 _symmetry_equiv_pos_site_id
 _symmetry_equiv_pos_as_xyz
  1  'x, y, z'
loop_
 _atom_site_type_symbol
 _atom_site_label
 _atom_site_symmetry_multiplicity
 _atom_site_fract_x
 _atom_site_fract_y
 _atom_site_fract_z
 _atom_site_occupancy
  Hg  Hg0  1  0.00000000  0.00000000  0.00000000  1.0
  Hg  Hg1  1  0.50000000  0.50000000  0.50000000  1.0
  C  C2  1  0.18009980  0.81990020  0.91732795  1.0
  C  C3  1  -0.31990020  0.31990020  0.58267205  1.0
  C  C4  1  -0.18009980  0.18009980  0.08267205  1.0
  C  C5  1  0.31990020  0.68009980  0.41732795  1.0
  N  N6  1  0.28883613  0.71116387  0.88135448  1.0
  N  N7  1  -0.21116387  0.21116387  0.61864552  1.0
  N  N8  1  -0.28883613  0.28883613  0.11864552  1.0
  N  N9  1  0.21116387  0.78883613  0.38135448  1.0
  O  O10  1  0.40215882  0.59784118  0.84433927  1.0
  O  O11  1  -0.09784118  0.09784118  0.65566073  1.0
  O  O12  1  -0.40215882  0.40215882  0.15566073  1.0
  O  O13  1  0.09784118  0.90215882  0.34433927  1.0
