# generated using pymatgen
data_Rb3Cr(HO)6
_symmetry_space_group_name_H-M   'P 1'
_cell_length_a   7.58478528
_cell_length_b   7.58478528
_cell_length_c   7.58478528
_cell_angle_alpha   96.03131656
_cell_angle_beta   96.03131656
_cell_angle_gamma   96.03131656
_symmetry_Int_Tables_number   1
_chemical_formula_structural   Rb3Cr(HO)6
_chemical_formula_sum   'Rb6 Cr2 H12 O12'
_cell_volume   428.54299831
_cell_formula_units_Z   2
loop_
 _symmetry_equiv_pos_site_id
 _symmetry_equiv_pos_as_xyz
  1  'x, y, z'
loop_
 _atom_site_type_symbol
 _atom_site_label
 _atom_site_symmetry_multiplicity
 _atom_site_fract_x
 _atom_site_fract_y
 _atom_site_fract_z
 _atom_site_occupancy
  Rb  Rb0  1  0.87650356  1.25000000  -0.37650356  1.0
  Rb  Rb1  1  1.37650356  0.12349644  -0.25000000  1.0
  Rb  Rb2  1  0.75000000  0.37650356  0.12349644  1.0
  Rb  Rb3  1  1.25000000  0.62349644  -0.12349644  1.0
  Rb  Rb4  1  1.12349644  -0.25000000  0.37650356  1.0
  Rb  Rb5  1  0.62349644  0.87650356  0.25000000  1.0
  Cr  Cr6  1  0.50000000  0.50000000  0.50000000  1.0
  Cr  Cr7  1  0.00000000  0.00000000  0.00000000  1.0
  H  H8  1  1.18743419  0.38230496  -0.58189550  1.0
  H  H9  1  1.68743419  0.91810450  -0.11769504  1.0
  H  H10  1  1.08189550  0.11769504  -0.68743419  1.0
  H  H11  1  1.58189550  -0.18743419  0.61769504  1.0
  H  H12  1  1.61769504  0.58189550  -0.18743419  1.0
  H  H13  1  1.11769504  -0.68743419  0.08189550  1.0
  H  H14  1  0.81256581  0.61769504  0.58189550  1.0
  H  H15  1  0.31256581  0.08189550  0.11769504  1.0
  H  H16  1  0.41810450  1.18743419  -0.61769504  1.0
  H  H17  1  0.91810450  0.88230496  0.68743419  1.0
  H  H18  1  0.88230496  1.68743419  -0.08189550  1.0
  H  H19  1  0.38230496  0.41810450  0.18743419  1.0
  O  O20  1  1.24894984  0.40150901  -0.46111646  1.0
  O  O21  1  0.74894984  1.03888354  -0.09849099  1.0
  O  O22  1  0.96111646  0.09849099  0.25105016  1.0
  O  O23  1  1.46111646  -0.24894984  0.59849099  1.0
  O  O24  1  1.59849099  0.46111646  -0.24894984  1.0
  O  O25  1  1.09849099  0.25105016  -0.03888354  1.0
  O  O26  1  0.75105016  0.59849099  0.46111646  1.0
  O  O27  1  1.25105016  -0.03888354  0.09849099  1.0
  O  O28  1  0.53888354  1.24894984  -0.59849099  1.0
  O  O29  1  1.03888354  0.90150901  -0.25105016  1.0
  O  O30  1  0.90150901  0.74894984  0.03888354  1.0
  O  O31  1  0.40150901  0.53888354  0.24894984  1.0
