# generated using pymatgen
data_KPb2
_symmetry_space_group_name_H-M   'P 1'
_cell_length_a   6.79010262
_cell_length_b   6.79010262
_cell_length_c   10.96585385
_cell_angle_alpha   90.00000000
_cell_angle_beta   90.00000000
_cell_angle_gamma   120.00000000
_symmetry_Int_Tables_number   1
_chemical_formula_structural   KPb2
_chemical_formula_sum   'K4 Pb8'
_cell_volume   437.85041060
_cell_formula_units_Z   4
loop_
 _symmetry_equiv_pos_site_id
 _symmetry_equiv_pos_as_xyz
  1  'x, y, z'
loop_
 _atom_site_type_symbol
 _atom_site_label
 _atom_site_symmetry_multiplicity
 _atom_site_fract_x
 _atom_site_fract_y
 _atom_site_fract_z
 _atom_site_occupancy
  K  K0  1  0.33333333  0.66666667  0.93509898  1.0
  K  K1  1  0.33333333  0.66666667  0.56490102  1.0
  K  K2  1  0.66666667  0.33333333  0.43509898  1.0
  K  K3  1  0.66666667  0.33333333  0.06490102  1.0
  Pb  Pb4  1  0.16636600  0.83363400  0.25000000  1.0
  Pb  Pb5  1  0.16636600  0.33273199  0.25000000  1.0
  Pb  Pb6  1  0.83363400  0.16636600  0.75000000  1.0
  Pb  Pb7  1  0.83363400  0.66726801  0.75000000  1.0
  Pb  Pb8  1  0.66726801  0.83363400  0.25000000  1.0
  Pb  Pb9  1  0.33273199  0.16636600  0.75000000  1.0
  Pb  Pb10  1  0.00000000  0.00000000  0.50000000  1.0
  Pb  Pb11  1  0.00000000  0.00000000  0.00000000  1.0
