# generated using pymatgen
data_NiGePt2
_symmetry_space_group_name_H-M   'P 1'
_cell_length_a   5.53201368
_cell_length_b   5.42420259
_cell_length_c   5.36627510
_cell_angle_alpha   61.68165288
_cell_angle_beta   59.67430525
_cell_angle_gamma   58.64404187
_symmetry_Int_Tables_number   1
_chemical_formula_structural   NiGePt2
_chemical_formula_sum   'Ni2 Ge2 Pt4'
_cell_volume   113.69437209
_cell_formula_units_Z   2
loop_
 _symmetry_equiv_pos_site_id
 _symmetry_equiv_pos_as_xyz
  1  'x, y, z'
loop_
 _atom_site_type_symbol
 _atom_site_label
 _atom_site_symmetry_multiplicity
 _atom_site_fract_x
 _atom_site_fract_y
 _atom_site_fract_z
 _atom_site_occupancy
  Ni  Ni0  1  -0.20026524  0.20026524  0.79973476  1.0
  Ni  Ni1  1  0.20026524  -0.20026524  1.20026524  1.0
  Ge  Ge2  1  -0.23393904  0.76606096  0.23393904  1.0
  Ge  Ge3  1  0.23393904  0.23393904  -0.23393904  1.0
  Pt  Pt4  1  -0.69794964  0.69794964  0.69794964  1.0
  Pt  Pt5  1  -0.30205036  0.30205036  0.30205036  1.0
  Pt  Pt6  1  -0.25000000  0.75000000  0.75000000  1.0
  Pt  Pt7  1  0.25000000  0.25000000  1.25000000  1.0
