# generated using pymatgen
data_Li3CrO4
_symmetry_space_group_name_H-M   'P 1'
_cell_length_a   10.86254319
_cell_length_b   6.33380870
_cell_length_c   5.12291292
_cell_angle_alpha   90.00000000
_cell_angle_beta   90.00000000
_cell_angle_gamma   90.00000000
_symmetry_Int_Tables_number   1
_chemical_formula_structural   Li3CrO4
_chemical_formula_sum   'Li12 Cr4 O16'
_cell_volume   352.46291807
_cell_formula_units_Z   4
loop_
 _symmetry_equiv_pos_site_id
 _symmetry_equiv_pos_as_xyz
  1  'x, y, z'
loop_
 _atom_site_type_symbol
 _atom_site_label
 _atom_site_symmetry_multiplicity
 _atom_site_fract_x
 _atom_site_fract_y
 _atom_site_fract_z
 _atom_site_occupancy
  Li  Li0  1  0.66549926  0.99590821  0.30928173  1.0
  Li  Li1  1  0.66549926  0.50409179  0.30928173  1.0
  Li  Li2  1  0.16549926  0.99590821  0.19071827  1.0
  Li  Li3  1  0.16549926  0.50409179  0.19071827  1.0
  Li  Li4  1  0.33450074  0.49590821  0.69071827  1.0
  Li  Li5  1  0.33450074  0.00409179  0.69071827  1.0
  Li  Li6  1  0.83450074  0.49590821  0.80928173  1.0
  Li  Li7  1  0.83450074  0.00409179  0.80928173  1.0
  Li  Li8  1  0.57706860  0.25000000  0.69490697  1.0
  Li  Li9  1  0.07706860  0.25000000  0.80509303  1.0
  Li  Li10  1  0.42293140  0.75000000  0.30509303  1.0
  Li  Li11  1  0.92293140  0.75000000  0.19490697  1.0
  Cr  Cr12  1  0.91299787  0.25000000  0.31384958  1.0
  Cr  Cr13  1  0.41299787  0.25000000  0.18615042  1.0
  Cr  Cr14  1  0.08700213  0.75000000  0.68615042  1.0
  Cr  Cr15  1  0.58700213  0.75000000  0.81384958  1.0
  O  O16  1  0.83833373  0.47081326  0.20347017  1.0
  O  O17  1  0.83833373  0.02918674  0.20347017  1.0
  O  O18  1  0.33833373  0.47081326  0.29652983  1.0
  O  O19  1  0.33833373  0.02918674  0.29652983  1.0
  O  O20  1  0.16166627  0.97081326  0.79652983  1.0
  O  O21  1  0.16166627  0.52918674  0.79652983  1.0
  O  O22  1  0.66166627  0.97081326  0.70347017  1.0
  O  O23  1  0.66166627  0.52918674  0.70347017  1.0
  O  O24  1  0.91286192  0.25000000  0.64894276  1.0
  O  O25  1  0.41286192  0.25000000  0.85105724  1.0
  O  O26  1  0.08713808  0.75000000  0.35105724  1.0
  O  O27  1  0.58713808  0.75000000  0.14894276  1.0
  O  O28  1  0.56102645  0.25000000  0.29813845  1.0
  O  O29  1  0.06102645  0.25000000  0.20186155  1.0
  O  O30  1  0.43897355  0.75000000  0.70186155  1.0
  O  O31  1  0.93897355  0.75000000  0.79813845  1.0
