# generated using pymatgen
data_C12SeF10
_symmetry_space_group_name_H-M   'P 1'
_cell_length_a   9.81129751
_cell_length_b   7.88946762
_cell_length_c   10.14663084
_cell_angle_alpha   90.00000000
_cell_angle_beta   107.31027837
_cell_angle_gamma   90.00000000
_symmetry_Int_Tables_number   1
_chemical_formula_structural   C12SeF10
_chemical_formula_sum   'C24 Se2 F20'
_cell_volume   749.83603699
_cell_formula_units_Z   2
loop_
 _symmetry_equiv_pos_site_id
 _symmetry_equiv_pos_as_xyz
  1  'x, y, z'
loop_
 _atom_site_type_symbol
 _atom_site_label
 _atom_site_symmetry_multiplicity
 _atom_site_fract_x
 _atom_site_fract_y
 _atom_site_fract_z
 _atom_site_occupancy
  C  C0  1  0.87533102  0.59972125  0.66177698  1.0
  C  C1  1  0.12466898  0.09972125  0.33822302  1.0
  C  C2  1  0.96013890  0.65475883  0.79118979  1.0
  C  C3  1  0.03986110  0.15475883  0.20881021  1.0
  C  C4  1  0.06383831  0.55079016  0.87720030  1.0
  C  C5  1  0.93616169  0.05079016  0.12279970  1.0
  C  C6  1  0.08656130  0.38887072  0.83241569  1.0
  C  C7  1  0.91343870  0.88887072  0.16758431  1.0
  C  C8  1  0.00498788  0.33215511  0.70271912  1.0
  C  C9  1  0.99501212  0.83215511  0.29728088  1.0
  C  C10  1  0.90002333  0.43710805  0.61928155  1.0
  C  C11  1  0.09997667  0.93710805  0.38071845  1.0
  C  C12  1  0.62045299  0.79084027  0.66118613  1.0
  C  C13  1  0.37954701  0.29084027  0.33881387  1.0
  C  C14  1  0.54522263  0.66221759  0.70397565  1.0
  C  C15  1  0.45477737  0.16221759  0.29602435  1.0
  C  C16  1  0.45827022  0.69632012  0.78705056  1.0
  C  C17  1  0.54172978  0.19632012  0.21294944  1.0
  C  C18  1  0.44368212  0.86284699  0.82731662  1.0
  C  C19  1  0.55631788  0.36284699  0.17268338  1.0
  C  C20  1  0.51669028  -0.00638974  0.78497807  1.0
  C  C21  1  0.48330972  0.49361026  0.21502193  1.0
  C  C22  1  0.60427671  0.95657828  0.70281621  1.0
  C  C23  1  0.39572329  0.45657828  0.29718379  1.0
  Se  Se24  1  0.73478531  0.74475824  0.54021421  1.0
  Se  Se25  1  0.26521469  0.24475824  0.45978579  1.0
  F  F26  1  0.94357584  0.81210031  0.83632400  1.0
  F  F27  1  0.05642416  0.31210031  0.16367600  1.0
  F  F28  1  0.14362818  0.60660729  0.00171094  1.0
  F  F29  1  0.85637182  0.10660729  0.99828906  1.0
  F  F30  1  0.18783491  0.28827668  0.91335709  1.0
  F  F31  1  0.81216509  0.78827668  0.08664291  1.0
  F  F32  1  0.02836933  0.17635837  0.65904840  1.0
  F  F33  1  0.97163067  0.67635837  0.34095160  1.0
  F  F34  1  0.82244999  0.37700316  0.49491704  1.0
  F  F35  1  0.17755001  0.87700316  0.50508296  1.0
  F  F36  1  0.55474974  0.50002558  0.66482551  1.0
  F  F37  1  0.44525026  1.00002558  0.33517449  1.0
  F  F38  1  0.38617713  0.57035869  0.82678905  1.0
  F  F39  1  0.61382287  0.07035869  0.17321095  1.0
  F  F40  1  0.35813982  0.89728954  0.90553233  1.0
  F  F41  1  0.64186018  0.39728954  0.09446767  1.0
  F  F42  1  0.50196364  0.15407666  0.82372181  1.0
  F  F43  1  0.49803636  0.65407666  0.17627819  1.0
  F  F44  1  0.67327154  0.08627784  0.66390805  1.0
  F  F45  1  0.32672846  0.58627784  0.33609195  1.0
