# generated using pymatgen
data_Tl3BiI6
_symmetry_space_group_name_H-M   'P 1'
_cell_length_a   14.05856407
_cell_length_b   9.60194108
_cell_length_c   13.76357575
_cell_angle_alpha   90.00000000
_cell_angle_beta   103.53218596
_cell_angle_gamma   90.00000000
_symmetry_Int_Tables_number   1
_chemical_formula_structural   Tl3BiI6
_chemical_formula_sum   'Tl12 Bi4 I24'
_cell_volume   1806.35934828
_cell_formula_units_Z   4
loop_
 _symmetry_equiv_pos_site_id
 _symmetry_equiv_pos_as_xyz
  1  'x, y, z'
loop_
 _atom_site_type_symbol
 _atom_site_label
 _atom_site_symmetry_multiplicity
 _atom_site_fract_x
 _atom_site_fract_y
 _atom_site_fract_z
 _atom_site_occupancy
  Tl  Tl0  1  0.88650370  0.86179126  0.13464964  1.0
  Tl  Tl1  1  0.88650370  0.63820874  0.63464964  1.0
  Tl  Tl2  1  0.11349630  0.36179126  0.36535036  1.0
  Tl  Tl3  1  0.11349630  0.13820874  0.86535036  1.0
  Tl  Tl4  1  0.71235480  0.13585869  0.48360640  1.0
  Tl  Tl5  1  0.71235480  0.36414131  0.98360640  1.0
  Tl  Tl6  1  0.28764520  0.63585869  0.01639360  1.0
  Tl  Tl7  1  0.28764520  0.86414131  0.51639360  1.0
  Tl  Tl8  1  0.45785269  0.31879649  0.18786977  1.0
  Tl  Tl9  1  0.45785269  0.18120351  0.68786977  1.0
  Tl  Tl10  1  0.54214731  0.81879649  0.31213023  1.0
  Tl  Tl11  1  0.54214731  0.68120351  0.81213023  1.0
  Bi  Bi12  1  0.75824995  0.49280046  0.29410669  1.0
  Bi  Bi13  1  0.75824995  0.00719954  0.79410669  1.0
  Bi  Bi14  1  0.24175005  0.99280046  0.20589331  1.0
  Bi  Bi15  1  0.24175005  0.50719954  0.70589331  1.0
  I  I16  1  0.39940255  0.12554907  0.38361268  1.0
  I  I17  1  0.39940255  0.37445093  0.88361268  1.0
  I  I18  1  0.60059745  0.62554907  0.11638732  1.0
  I  I19  1  0.60059745  0.87445093  0.61638732  1.0
  I  I20  1  0.91752748  0.99679302  0.67023744  1.0
  I  I21  1  0.91752748  0.50320698  0.17023744  1.0
  I  I22  1  0.08247252  0.49679302  0.82976256  1.0
  I  I23  1  0.08247252  0.00320698  0.32976256  1.0
  I  I24  1  0.90099744  0.34467341  0.46710373  1.0
  I  I25  1  0.90099744  0.15532659  0.96710373  1.0
  I  I26  1  0.09900256  0.84467341  0.03289627  1.0
  I  I27  1  0.09900256  0.65532659  0.53289627  1.0
  I  I28  1  0.81091319  0.78861251  0.37940006  1.0
  I  I29  1  0.81091319  0.71138749  0.87940006  1.0
  I  I30  1  0.18908681  0.28861251  0.12059994  1.0
  I  I31  1  0.18908681  0.21138749  0.62059994  1.0
  I  I32  1  0.69346137  0.19614570  0.20544631  1.0
  I  I33  1  0.69346137  0.30385430  0.70544631  1.0
  I  I34  1  0.30653863  0.69614570  0.29455369  1.0
  I  I35  1  0.30653863  0.80385430  0.79455369  1.0
  I  I36  1  0.59625225  0.47525035  0.41102584  1.0
  I  I37  1  0.59625225  0.02474965  0.91102584  1.0
  I  I38  1  0.40374775  0.97525035  0.08897416  1.0
  I  I39  1  0.40374775  0.52474965  0.58897416  1.0
