# generated using pymatgen
data_KCBr(NO2)2
_symmetry_space_group_name_H-M   'P 1'
_cell_length_a   7.75359478
_cell_length_b   6.30826607
_cell_length_c   7.39927302
_cell_angle_alpha   102.44636965
_cell_angle_beta   116.68440316
_cell_angle_gamma   95.83742331
_symmetry_Int_Tables_number   1
_chemical_formula_structural   KCBr(NO2)2
_chemical_formula_sum   'K2 C2 Br2 N4 O8'
_cell_volume   307.48572620
_cell_formula_units_Z   2
loop_
 _symmetry_equiv_pos_site_id
 _symmetry_equiv_pos_as_xyz
  1  'x, y, z'
loop_
 _atom_site_type_symbol
 _atom_site_label
 _atom_site_symmetry_multiplicity
 _atom_site_fract_x
 _atom_site_fract_y
 _atom_site_fract_z
 _atom_site_occupancy
  K  K0  1  -0.71718834  -0.15424566  -0.87438990  1.0
  K  K1  1  -0.28281166  -0.84575434  -0.12561010  1.0
  C  C2  1  -0.75484219  -0.53542710  -0.46808082  1.0
  C  C3  1  -0.24515781  -0.46457290  -0.53191918  1.0
  Br  Br4  1  -0.80530059  -0.68599517  -0.29843266  1.0
  Br  Br5  1  -0.19469941  -0.31400483  -0.70156734  1.0
  N  N6  1  -0.36238360  -0.68064296  -0.62713926  1.0
  N  N7  1  -0.63761640  -0.31935704  -0.37286074  1.0
  N  N8  1  -0.83211229  -0.64832268  -0.68151175  1.0
  N  N9  1  -0.16788771  -0.35167732  -0.31848825  1.0
  O  O10  1  -0.92945303  -0.84761595  -0.74573511  1.0
  O  O11  1  -0.07054697  -0.15238405  -0.25426489  1.0
  O  O12  1  -0.41549940  -0.77028416  -0.81920827  1.0
  O  O13  1  -0.58450060  -0.22971584  -0.18079173  1.0
  O  O14  1  -0.41738059  -0.78313901  -0.52691163  1.0
  O  O15  1  -0.58261941  -0.21686099  -0.47308837  1.0
  O  O16  1  -0.81067807  -0.55709294  -0.80739397  1.0
  O  O17  1  -0.18932193  -0.44290706  -0.19260603  1.0
