# generated using pymatgen
data_NaNb3O8
_symmetry_space_group_name_H-M   'P 1'
_cell_length_a   7.30030024
_cell_length_b   7.30030024
_cell_length_c   7.30030024
_cell_angle_alpha   118.89657192
_cell_angle_beta   89.74097562
_cell_angle_gamma   121.41887641
_symmetry_Int_Tables_number   1
_chemical_formula_structural   NaNb3O8
_chemical_formula_sum   'Na2 Nb6 O16'
_cell_volume   274.28443307
_cell_formula_units_Z   2
loop_
 _symmetry_equiv_pos_site_id
 _symmetry_equiv_pos_as_xyz
  1  'x, y, z'
loop_
 _atom_site_type_symbol
 _atom_site_label
 _atom_site_symmetry_multiplicity
 _atom_site_fract_x
 _atom_site_fract_y
 _atom_site_fract_z
 _atom_site_occupancy
  Na  Na0  1  0.75000000  0.75000000  -0.00000000  1.0
  Na  Na1  1  0.25000000  0.25000000  -0.00000000  1.0
  Nb  Nb2  1  0.76284660  0.75432190  1.51716850  1.0
  Nb  Nb3  1  0.73715340  1.25432190  0.99147530  1.0
  Nb  Nb4  1  1.26284660  0.74567810  1.00852470  1.0
  Nb  Nb5  1  0.23715340  0.24567810  0.48283150  1.0
  Nb  Nb6  1  0.75000000  1.25000000  0.50000000  1.0
  Nb  Nb7  1  0.25000000  0.75000000  0.50000000  1.0
  O  O8  1  1.56064180  1.39723416  1.55995927  1.0
  O  O9  1  1.16272511  0.99931747  1.55995927  1.0
  O  O10  1  0.33727489  0.89723416  0.83659236  1.0
  O  O11  1  0.93935820  1.49931747  0.83659236  1.0
  O  O12  1  1.06064180  0.50068253  1.16340764  1.0
  O  O13  1  1.66272511  1.10276584  1.16340764  1.0
  O  O14  1  0.83727489  1.00068253  0.44004073  1.0
  O  O15  1  0.43935820  0.60276584  0.44004073  1.0
  O  O16  1  0.83462307  0.98120040  0.81582347  1.0
  O  O17  1  0.66537693  0.48120040  1.14657733  1.0
  O  O18  1  0.33462307  0.51879960  0.85342267  1.0
  O  O19  1  1.16537693  1.01879960  1.18417653  1.0
  O  O20  1  0.92117350  0.60449335  1.52566685  1.0
  O  O21  1  0.57882650  1.10449335  0.68331984  1.0
  O  O22  1  1.42117350  0.89550665  1.31668016  1.0
  O  O23  1  0.07882650  0.39550665  0.47433315  1.0
