# generated using pymatgen
data_K2CaV2O7
_symmetry_space_group_name_H-M   'P 1'
_cell_length_a   5.89831799
_cell_length_b   10.62031706
_cell_length_c   7.25363914
_cell_angle_alpha   71.03490199
_cell_angle_beta   74.83388972
_cell_angle_gamma   73.41096735
_symmetry_Int_Tables_number   1
_chemical_formula_structural   K2CaV2O7
_chemical_formula_sum   'K4 Ca2 V4 O14'
_cell_volume   404.62307217
_cell_formula_units_Z   2
loop_
 _symmetry_equiv_pos_site_id
 _symmetry_equiv_pos_as_xyz
  1  'x, y, z'
loop_
 _atom_site_type_symbol
 _atom_site_label
 _atom_site_symmetry_multiplicity
 _atom_site_fract_x
 _atom_site_fract_y
 _atom_site_fract_z
 _atom_site_occupancy
  K  K0  1  0.15781009  0.21156790  -0.60252049  1.0
  K  K1  1  -0.15781009  0.78843210  -0.39747951  1.0
  K  K2  1  -0.36232289  0.45806701  -0.73183614  1.0
  K  K3  1  0.36232289  0.54193299  -0.26816386  1.0
  Ca  Ca4  1  -0.58535010  0.86304953  -0.77172456  1.0
  Ca  Ca5  1  0.58535010  0.13695047  -0.22827544  1.0
  V  V6  1  0.06651864  0.64356281  -0.80546014  1.0
  V  V7  1  -0.06651864  0.35643719  -0.19453986  1.0
  V  V8  1  -0.76481076  0.89190845  -0.22185788  1.0
  V  V9  1  0.76481076  0.10809155  -0.77814212  1.0
  O  O10  1  -0.00711708  0.01957710  -0.26072784  1.0
  O  O11  1  0.00711708  0.98042290  -0.73927216  1.0
  O  O12  1  0.14002764  0.73934605  -0.06432552  1.0
  O  O13  1  -0.14002764  0.26065395  -0.93567448  1.0
  O  O14  1  0.14555779  0.47876117  -0.80475407  1.0
  O  O15  1  -0.14555779  0.52123883  -0.19524593  1.0
  O  O16  1  0.23492215  0.67144519  -0.66888204  1.0
  O  O17  1  -0.23492215  0.32855481  -0.33111796  1.0
  O  O18  1  -0.62420404  0.85303618  -0.43848636  1.0
  O  O19  1  0.62420404  0.14696382  -0.56151364  1.0
  O  O20  1  -0.56342683  0.93091029  -0.12579076  1.0
  O  O21  1  0.56342683  0.06908971  -0.87420924  1.0
  O  O22  1  -0.23363186  0.69123966  -0.72054105  1.0
  O  O23  1  0.23363186  0.30876034  -0.27945895  1.0
