# generated using pymatgen
data_HC
_symmetry_space_group_name_H-M   'P 1'
_cell_length_a   5.85705762
_cell_length_b   5.85705762
_cell_length_c   5.85705762
_cell_angle_alpha   72.47233211
_cell_angle_beta   72.47233211
_cell_angle_gamma   72.47233211
_symmetry_Int_Tables_number   1
_chemical_formula_structural   HC
_chemical_formula_sum   'H14 C14'
_cell_volume   177.74142611
_cell_formula_units_Z   14
loop_
 _symmetry_equiv_pos_site_id
 _symmetry_equiv_pos_as_xyz
  1  'x, y, z'
loop_
 _atom_site_type_symbol
 _atom_site_label
 _atom_site_symmetry_multiplicity
 _atom_site_fract_x
 _atom_site_fract_y
 _atom_site_fract_z
 _atom_site_occupancy
  H  H0  1  1.23454919  1.23454919  0.23454919  1.0
  H  H1  1  0.76545081  0.76545081  -0.23454919  1.0
  H  H2  1  0.92382115  0.32236482  -0.25612809  1.0
  H  H3  1  0.74387191  -0.07617885  0.32236482  1.0
  H  H4  1  1.32236482  -0.25612809  -0.07617885  1.0
  H  H5  1  0.07617885  0.67763518  -0.74387191  1.0
  H  H6  1  0.25612809  0.07617885  -0.32236482  1.0
  H  H7  1  0.67763518  0.25612809  -0.92382115  1.0
  H  H8  1  0.20111574  0.38096869  -0.10846206  1.0
  H  H9  1  0.89153794  0.20111574  -0.61903131  1.0
  H  H10  1  0.38096869  0.89153794  -0.79888426  1.0
  H  H11  1  0.79888426  -0.38096869  0.10846206  1.0
  H  H12  1  1.10846206  -0.20111574  -0.38096869  1.0
  H  H13  1  0.61903131  0.10846206  -0.20111574  1.0
  C  C14  1  1.31990415  1.31990415  0.31990415  1.0
  C  C15  1  0.68009585  0.68009585  -0.31990415  1.0
  C  C16  1  0.54348124  0.24533988  -0.35179498  1.0
  C  C17  1  0.64820502  0.54348124  -0.75466012  1.0
  C  C18  1  0.24533988  0.64820502  -0.45651876  1.0
  C  C19  1  0.45651876  0.75466012  -0.64820502  1.0
  C  C20  1  0.35179498  0.45651876  -0.24533988  1.0
  C  C21  1  0.75466012  0.35179498  -0.54348124  1.0
  C  C22  1  0.41847580  0.12218930  -0.46495975  1.0
  C  C23  1  0.53504025  0.41847580  -0.87781070  1.0
  C  C24  1  0.12218930  0.53504025  -0.58152420  1.0
  C  C25  1  0.58152420  0.87781070  -0.53504025  1.0
  C  C26  1  0.46495975  0.58152420  -0.12218930  1.0
  C  C27  1  0.87781070  0.46495975  -0.41847580  1.0
