# generated using pymatgen
data_Mg2Sn
_symmetry_space_group_name_H-M   'P 1'
_cell_length_a   5.86332556
_cell_length_b   5.86332556
_cell_length_c   19.49964551
_cell_angle_alpha   90.00000000
_cell_angle_beta   90.00000000
_cell_angle_gamma   120.00000000
_symmetry_Int_Tables_number   1
_chemical_formula_structural   Mg2Sn
_chemical_formula_sum   'Mg16 Sn8'
_cell_volume   580.55766897
_cell_formula_units_Z   8
loop_
 _symmetry_equiv_pos_site_id
 _symmetry_equiv_pos_as_xyz
  1  'x, y, z'
loop_
 _atom_site_type_symbol
 _atom_site_label
 _atom_site_symmetry_multiplicity
 _atom_site_fract_x
 _atom_site_fract_y
 _atom_site_fract_z
 _atom_site_occupancy
  Mg  Mg0  1  0.16390662  0.83609338  0.25000000  1.0
  Mg  Mg1  1  0.16390662  0.32781325  0.25000000  1.0
  Mg  Mg2  1  0.83609338  0.16390662  0.75000000  1.0
  Mg  Mg3  1  0.83609338  0.67218675  0.75000000  1.0
  Mg  Mg4  1  0.67218675  0.83609338  0.25000000  1.0
  Mg  Mg5  1  0.32781325  0.16390662  0.75000000  1.0
  Mg  Mg6  1  0.50000000  0.50000000  0.50000000  1.0
  Mg  Mg7  1  0.50000000  0.50000000  -0.00000000  1.0
  Mg  Mg8  1  0.50000000  0.00000000  0.50000000  1.0
  Mg  Mg9  1  0.50000000  -0.00000000  0.00000000  1.0
  Mg  Mg10  1  -0.00000000  0.50000000  0.50000000  1.0
  Mg  Mg11  1  -0.00000000  0.50000000  0.00000000  1.0
  Mg  Mg12  1  0.33333333  0.66666667  0.37533880  1.0
  Mg  Mg13  1  0.33333333  0.66666667  0.12466120  1.0
  Mg  Mg14  1  0.66666667  0.33333333  0.87533880  1.0
  Mg  Mg15  1  0.66666667  0.33333333  0.62466120  1.0
  Sn  Sn16  1  -0.00000000  -0.00000000  0.41258327  1.0
  Sn  Sn17  1  -0.00000000  0.00000000  0.08741673  1.0
  Sn  Sn18  1  -0.00000000  -0.00000000  0.91258327  1.0
  Sn  Sn19  1  -0.00000000  0.00000000  0.58741673  1.0
  Sn  Sn20  1  0.33333333  0.66666667  0.84421253  1.0
  Sn  Sn21  1  0.33333333  0.66666667  0.65578747  1.0
  Sn  Sn22  1  0.66666667  0.33333333  0.34421253  1.0
  Sn  Sn23  1  0.66666667  0.33333333  0.15578747  1.0
