# generated using pymatgen
data_Sr5Sn3
_symmetry_space_group_name_H-M   'P 1'
_cell_length_a   10.24887435
_cell_length_b   10.24887435
_cell_length_c   10.24887435
_cell_angle_alpha   130.27136228
_cell_angle_beta   130.27136228
_cell_angle_gamma   72.97331881
_symmetry_Int_Tables_number   1
_chemical_formula_structural   Sr5Sn3
_chemical_formula_sum   'Sr10 Sn6'
_cell_volume   612.08797610
_cell_formula_units_Z   2
loop_
 _symmetry_equiv_pos_site_id
 _symmetry_equiv_pos_as_xyz
  1  'x, y, z'
loop_
 _atom_site_type_symbol
 _atom_site_label
 _atom_site_symmetry_multiplicity
 _atom_site_fract_x
 _atom_site_fract_y
 _atom_site_fract_z
 _atom_site_occupancy
  Sr  Sr0  1  1.18140028  0.68140028  1.14611657  1.0
  Sr  Sr1  1  0.46471629  0.96471629  1.14611657  1.0
  Sr  Sr2  1  1.03528371  1.18140028  1.50000000  1.0
  Sr  Sr3  1  0.31859972  0.46471629  0.50000000  1.0
  Sr  Sr4  1  0.68140028  0.53528371  0.50000000  1.0
  Sr  Sr5  1  0.96471629  0.81859972  1.50000000  1.0
  Sr  Sr6  1  0.53528371  1.03528371  0.85388343  1.0
  Sr  Sr7  1  0.81859972  0.31859972  0.85388343  1.0
  Sr  Sr8  1  0.00000000  0.00000000  0.00000000  1.0
  Sr  Sr9  1  0.50000000  0.50000000  1.00000000  1.0
  Sn  Sn10  1  0.87916049  0.37916049  1.25832099  1.0
  Sn  Sn11  1  0.62083951  0.87916049  1.50000000  1.0
  Sn  Sn12  1  0.37916049  0.12083951  0.50000000  1.0
  Sn  Sn13  1  0.12083951  0.62083951  0.74167901  1.0
  Sn  Sn14  1  0.75000000  0.75000000  1.00000000  1.0
  Sn  Sn15  1  0.25000000  0.25000000  0.00000000  1.0
