# generated using pymatgen
data_K2CuP2O7
_symmetry_space_group_name_H-M   'P 1'
_cell_length_a   14.61230237
_cell_length_b   5.28799736
_cell_length_c   9.85026881
_cell_angle_alpha   90.00000000
_cell_angle_beta   90.00000000
_cell_angle_gamma   90.00000000
_symmetry_Int_Tables_number   1
_chemical_formula_structural   K2CuP2O7
_chemical_formula_sum   'K8 Cu4 P8 O28'
_cell_volume   761.12846153
_cell_formula_units_Z   4
loop_
 _symmetry_equiv_pos_site_id
 _symmetry_equiv_pos_as_xyz
  1  'x, y, z'
loop_
 _atom_site_type_symbol
 _atom_site_label
 _atom_site_symmetry_multiplicity
 _atom_site_fract_x
 _atom_site_fract_y
 _atom_site_fract_z
 _atom_site_occupancy
  K  K0  1  0.40114089  0.75000000  0.12815726  1.0
  K  K1  1  0.90114089  0.75000000  0.37184274  1.0
  K  K2  1  0.59885911  0.25000000  0.87184274  1.0
  K  K3  1  0.09885911  0.25000000  0.62815726  1.0
  K  K4  1  0.21271072  0.75000000  0.85551614  1.0
  K  K5  1  0.71271072  0.75000000  0.64448386  1.0
  K  K6  1  0.78728928  0.25000000  0.14448386  1.0
  K  K7  1  0.28728928  0.25000000  0.35551614  1.0
  Cu  Cu8  1  0.15040310  0.75000000  0.22304581  1.0
  Cu  Cu9  1  0.65040310  0.75000000  0.27695419  1.0
  Cu  Cu10  1  0.84959690  0.25000000  0.77695419  1.0
  Cu  Cu11  1  0.34959690  0.25000000  0.72304581  1.0
  P  P12  1  0.45683469  0.75000000  0.77083212  1.0
  P  P13  1  0.95683469  0.75000000  0.72916788  1.0
  P  P14  1  0.54316531  0.25000000  0.22916788  1.0
  P  P15  1  0.04316531  0.25000000  0.27083212  1.0
  P  P16  1  0.32859794  0.75000000  0.55331772  1.0
  P  P17  1  0.82859794  0.75000000  0.94668228  1.0
  P  P18  1  0.67140206  0.25000000  0.44668228  1.0
  P  P19  1  0.17140206  0.25000000  0.05331772  1.0
  O  O20  1  0.40881661  0.98820126  0.83189640  1.0
  O  O21  1  0.40881661  0.51179874  0.83189640  1.0
  O  O22  1  0.90881661  0.98820126  0.66810360  1.0
  O  O23  1  0.90881661  0.51179874  0.66810360  1.0
  O  O24  1  0.59118339  0.48820126  0.16810360  1.0
  O  O25  1  0.59118339  0.01179874  0.16810360  1.0
  O  O26  1  0.09118339  0.48820126  0.33189640  1.0
  O  O27  1  0.09118339  0.01179874  0.33189640  1.0
  O  O28  1  0.28352859  0.99135426  0.61621596  1.0
  O  O29  1  0.28352859  0.50864574  0.61621596  1.0
  O  O30  1  0.78352859  0.99135426  0.88378404  1.0
  O  O31  1  0.78352859  0.50864574  0.88378404  1.0
  O  O32  1  0.71647141  0.49135426  0.38378404  1.0
  O  O33  1  0.71647141  0.00864574  0.38378404  1.0
  O  O34  1  0.21647141  0.49135426  0.11621596  1.0
  O  O35  1  0.21647141  0.00864574  0.11621596  1.0
  O  O36  1  0.43507517  0.75000000  0.60685470  1.0
  O  O37  1  0.93507517  0.75000000  0.89314530  1.0
  O  O38  1  0.56492483  0.25000000  0.39314530  1.0
  O  O39  1  0.06492483  0.25000000  0.10685470  1.0
  O  O40  1  0.05943779  0.75000000  0.71275824  1.0
  O  O41  1  0.55943779  0.75000000  0.78724176  1.0
  O  O42  1  0.94056221  0.25000000  0.28724176  1.0
  O  O43  1  0.44056221  0.25000000  0.21275824  1.0
  O  O44  1  0.83025257  0.75000000  0.10005809  1.0
  O  O45  1  0.33025257  0.75000000  0.39994191  1.0
  O  O46  1  0.16974743  0.25000000  0.89994191  1.0
  O  O47  1  0.66974743  0.25000000  0.60005809  1.0
