# generated using pymatgen
data_Na3Sb3(AsO7)2
_symmetry_space_group_name_H-M   'P 1'
_cell_length_a   6.59788867
_cell_length_b   7.40066413
_cell_length_c   12.75529428
_cell_angle_alpha   90.00000000
_cell_angle_beta   106.98576159
_cell_angle_gamma   90.00000000
_symmetry_Int_Tables_number   1
_chemical_formula_structural   Na3Sb3(AsO7)2
_chemical_formula_sum   'Na6 Sb6 As4 O28'
_cell_volume   595.65591365
_cell_formula_units_Z   2
loop_
 _symmetry_equiv_pos_site_id
 _symmetry_equiv_pos_as_xyz
  1  'x, y, z'
loop_
 _atom_site_type_symbol
 _atom_site_label
 _atom_site_symmetry_multiplicity
 _atom_site_fract_x
 _atom_site_fract_y
 _atom_site_fract_z
 _atom_site_occupancy
  Na  Na0  1  0.53653609  0.21230468  0.43083462  1.0
  Na  Na1  1  0.53653609  0.28769532  0.93083462  1.0
  Na  Na2  1  0.46346391  0.71230468  0.06916538  1.0
  Na  Na3  1  0.46346391  0.78769532  0.56916538  1.0
  Na  Na4  1  0.00000000  0.50000000  0.00000000  1.0
  Na  Na5  1  0.00000000  0.00000000  0.50000000  1.0
  Sb  Sb6  1  0.97648733  0.24152745  0.24630968  1.0
  Sb  Sb7  1  0.97648733  0.25847255  0.74630968  1.0
  Sb  Sb8  1  0.02351267  0.74152745  0.25369032  1.0
  Sb  Sb9  1  0.02351267  0.75847255  0.75369032  1.0
  Sb  Sb10  1  0.00000000  0.50000000  0.50000000  1.0
  Sb  Sb11  1  0.00000000  0.00000000  0.00000000  1.0
  As  As12  1  0.41512637  0.23459993  0.15934260  1.0
  As  As13  1  0.41512637  0.26540007  0.65934260  1.0
  As  As14  1  0.58487363  0.73459993  0.34065740  1.0
  As  As15  1  0.58487363  0.76540007  0.84065740  1.0
  O  O16  1  0.96769235  0.79626440  0.09514914  1.0
  O  O17  1  0.96769235  0.70373560  0.59514914  1.0
  O  O18  1  0.03230765  0.29626440  0.40485086  1.0
  O  O19  1  0.03230765  0.20373560  0.90485086  1.0
  O  O20  1  0.93321785  0.49503157  0.19622724  1.0
  O  O21  1  0.93321785  0.00496843  0.69622724  1.0
  O  O22  1  0.06678215  0.99503157  0.30377276  1.0
  O  O23  1  0.06678215  0.50496843  0.80377276  1.0
  O  O24  1  0.90005384  0.19105689  0.08386099  1.0
  O  O25  1  0.90005384  0.30894311  0.58386099  1.0
  O  O26  1  0.09994616  0.69105689  0.41613901  1.0
  O  O27  1  0.09994616  0.80894311  0.91613901  1.0
  O  O28  1  0.68278498  0.97078130  0.90866133  1.0
  O  O29  1  0.68278498  0.52921870  0.40866133  1.0
  O  O30  1  0.31721502  0.47078130  0.59133867  1.0
  O  O31  1  0.31721502  0.02921870  0.09133867  1.0
  O  O32  1  0.66989503  0.18817795  0.24468262  1.0
  O  O33  1  0.66989503  0.31182205  0.74468262  1.0
  O  O34  1  0.33010497  0.68817795  0.25531738  1.0
  O  O35  1  0.33010497  0.81182205  0.75531738  1.0
  O  O36  1  0.61175731  0.90426647  0.43198577  1.0
  O  O37  1  0.61175731  0.59573353  0.93198577  1.0
  O  O38  1  0.38824269  0.40426647  0.06801423  1.0
  O  O39  1  0.38824269  0.09573353  0.56801423  1.0
  O  O40  1  0.29411134  0.27433194  0.26257783  1.0
  O  O41  1  0.29411134  0.22566806  0.76257783  1.0
  O  O42  1  0.70588866  0.77433194  0.23742217  1.0
  O  O43  1  0.70588866  0.72566806  0.73742217  1.0
