# generated using pymatgen
data_S3N3ClO2
_symmetry_space_group_name_H-M   'P 1'
_cell_length_a   9.91157759
_cell_length_b   9.91157759
_cell_length_c   12.69541721
_cell_angle_alpha   66.01273290
_cell_angle_beta   113.98726710
_cell_angle_gamma   138.52772364
_symmetry_Int_Tables_number   1
_chemical_formula_structural   S3N3ClO2
_chemical_formula_sum   'S12 N12 Cl4 O8'
_cell_volume   743.84293697
_cell_formula_units_Z   4
loop_
 _symmetry_equiv_pos_site_id
 _symmetry_equiv_pos_as_xyz
  1  'x, y, z'
loop_
 _atom_site_type_symbol
 _atom_site_label
 _atom_site_symmetry_multiplicity
 _atom_site_fract_x
 _atom_site_fract_y
 _atom_site_fract_z
 _atom_site_occupancy
  S  S0  1  0.59581031  -0.20997827  0.30972454  1.0
  S  S1  1  1.20997827  0.40418969  0.80972454  1.0
  S  S2  1  0.79002173  0.59581031  0.19027546  1.0
  S  S3  1  0.40418969  0.20997827  0.69027546  1.0
  S  S4  1  0.66629842  0.00431595  0.45045198  1.0
  S  S5  1  0.99568405  0.33370158  0.95045198  1.0
  S  S6  1  1.00431595  0.66629842  0.04954802  1.0
  S  S7  1  0.33370158  -0.00431595  0.54954802  1.0
  S  S8  1  0.59516899  0.27737247  0.07617438  1.0
  S  S9  1  0.72262753  0.40483101  0.57617438  1.0
  S  S10  1  1.27737247  0.59516899  0.42382562  1.0
  S  S11  1  0.40483101  -0.27737247  0.92382562  1.0
  N  N12  1  0.74915673  -0.02639911  0.37847541  1.0
  N  N13  1  1.02639911  0.25084327  0.87847541  1.0
  N  N14  1  0.97360089  0.74915673  0.12152459  1.0
  N  N15  1  0.25084327  0.02639911  0.62152459  1.0
  N  N16  1  0.42346068  -0.16369476  0.43139726  1.0
  N  N17  1  1.16369476  0.57653932  0.93139726  1.0
  N  N18  1  0.83630524  0.42346068  0.06860274  1.0
  N  N19  1  0.57653932  0.16369476  0.56860274  1.0
  N  N20  1  0.60707909  0.36693652  0.17008489  1.0
  N  N21  1  0.63306348  0.39292091  0.67008489  1.0
  N  N22  1  1.36693652  0.60707909  0.32991511  1.0
  N  N23  1  0.39292091  -0.36693652  0.82991511  1.0
  Cl  Cl24  1  0.20438906  0.05865189  0.37680055  1.0
  Cl  Cl25  1  0.94134811  0.79561094  0.87680055  1.0
  Cl  Cl26  1  1.05865189  0.20438906  0.12319945  1.0
  Cl  Cl27  1  0.79561094  -0.05865189  0.62319945  1.0
  O  O28  1  0.51165510  -0.30461750  0.03539656  1.0
  O  O29  1  1.30461750  0.48834490  0.53539656  1.0
  O  O30  1  0.69538250  0.51165510  0.46460344  1.0
  O  O31  1  0.48834490  0.30461750  0.96460344  1.0
  O  O32  1  0.51111161  0.07317918  0.13164824  1.0
  O  O33  1  0.92682082  0.48888839  0.63164824  1.0
  O  O34  1  1.07317918  0.51111161  0.36835176  1.0
  O  O35  1  0.48888839  -0.07317918  0.86835176  1.0
