# generated using pymatgen
data_EuLu2O4
_symmetry_space_group_name_H-M   'P 1'
_cell_length_a   9.97480176
_cell_length_b   3.34590501
_cell_length_c   11.82395951
_cell_angle_alpha   90.00000000
_cell_angle_beta   90.00000000
_cell_angle_gamma   90.00000000
_symmetry_Int_Tables_number   1
_chemical_formula_structural   EuLu2O4
_chemical_formula_sum   'Eu4 Lu8 O16'
_cell_volume   394.62156453
_cell_formula_units_Z   4
loop_
 _symmetry_equiv_pos_site_id
 _symmetry_equiv_pos_as_xyz
  1  'x, y, z'
loop_
 _atom_site_type_symbol
 _atom_site_label
 _atom_site_symmetry_multiplicity
 _atom_site_fract_x
 _atom_site_fract_y
 _atom_site_fract_z
 _atom_site_occupancy
  Eu  Eu0  1  0.75354363  0.75000000  0.65054742  1.0
  Eu  Eu1  1  0.25354363  0.75000000  0.84945258  1.0
  Eu  Eu2  1  0.24645637  0.25000000  0.34945258  1.0
  Eu  Eu3  1  0.74645637  0.25000000  0.15054742  1.0
  Lu  Lu4  1  0.92115225  0.75000000  0.39077655  1.0
  Lu  Lu5  1  0.42115225  0.75000000  0.10922345  1.0
  Lu  Lu6  1  0.07884775  0.25000000  0.60922345  1.0
  Lu  Lu7  1  0.57884775  0.25000000  0.89077655  1.0
  Lu  Lu8  1  0.42549903  0.75000000  0.61202136  1.0
  Lu  Lu9  1  0.92549903  0.75000000  0.88797864  1.0
  Lu  Lu10  1  0.57450097  0.25000000  0.38797864  1.0
  Lu  Lu11  1  0.07450097  0.25000000  0.11202136  1.0
  O  O12  1  0.92184165  0.75000000  0.07684184  1.0
  O  O13  1  0.42184165  0.75000000  0.42315816  1.0
  O  O14  1  0.07815835  0.25000000  0.92315816  1.0
  O  O15  1  0.57815835  0.25000000  0.57684184  1.0
  O  O16  1  0.70981401  0.75000000  0.32723728  1.0
  O  O17  1  0.20981401  0.75000000  0.17276272  1.0
  O  O18  1  0.29018599  0.25000000  0.67276272  1.0
  O  O19  1  0.79018599  0.25000000  0.82723728  1.0
  O  O20  1  0.62493179  0.75000000  0.02149245  1.0
  O  O21  1  0.12493179  0.75000000  0.47850755  1.0
  O  O22  1  0.37506821  0.25000000  0.97850755  1.0
  O  O23  1  0.87506821  0.25000000  0.52149245  1.0
  O  O24  1  0.51794577  0.75000000  0.78322351  1.0
  O  O25  1  0.01794577  0.75000000  0.71677649  1.0
  O  O26  1  0.48205423  0.25000000  0.21677649  1.0
  O  O27  1  0.98205423  0.25000000  0.28322351  1.0
