# generated using pymatgen
data_K8Zr6BeBr20
_symmetry_space_group_name_H-M   'P 1'
_cell_length_a   11.75123755
_cell_length_b   11.75123755
_cell_length_c   11.75123755
_cell_angle_alpha   60.00000000
_cell_angle_beta   60.00000000
_cell_angle_gamma   60.00000000
_symmetry_Int_Tables_number   1
_chemical_formula_structural   K8Zr6BeBr20
_chemical_formula_sum   'K8 Zr6 Be1 Br20'
_cell_volume   1147.45541334
_cell_formula_units_Z   1
loop_
 _symmetry_equiv_pos_site_id
 _symmetry_equiv_pos_as_xyz
  1  'x, y, z'
loop_
 _atom_site_type_symbol
 _atom_site_label
 _atom_site_symmetry_multiplicity
 _atom_site_fract_x
 _atom_site_fract_y
 _atom_site_fract_z
 _atom_site_occupancy
  K  K0  1  0.63952891  0.63952891  -0.36047109  1.0
  K  K1  1  0.36047109  1.36047109  -0.08141327  1.0
  K  K2  1  1.36047109  -0.08141327  0.36047109  1.0
  K  K3  1  1.08141327  0.63952891  0.63952891  1.0
  K  K4  1  -0.08141327  1.36047109  0.36047109  1.0
  K  K5  1  0.63952891  1.08141327  -0.36047109  1.0
  K  K6  1  0.63952891  0.63952891  1.08141327  1.0
  K  K7  1  1.36047109  0.36047109  0.36047109  1.0
  Zr  Zr8  1  -0.85625732  0.85625732  0.85625732  1.0
  Zr  Zr9  1  -0.14374268  0.14374268  0.85625732  1.0
  Zr  Zr10  1  0.85625732  0.85625732  -0.85625732  1.0
  Zr  Zr11  1  0.14374268  1.14374268  -0.14374268  1.0
  Zr  Zr12  1  0.14374268  -0.14374268  1.14374268  1.0
  Zr  Zr13  1  -0.14374268  0.14374268  0.14374268  1.0
  Be  Be14  1  0.00000000  0.00000000  0.00000000  1.0
  Br  Br15  1  0.75000000  0.75000000  -0.25000000  1.0
  Br  Br16  1  1.25000000  0.25000000  0.25000000  1.0
  Br  Br17  1  1.67238934  0.00000000  -0.00000000  1.0
  Br  Br18  1  1.00000000  0.32761066  -0.32761066  1.0
  Br  Br19  1  1.00000000  0.67238934  -0.67238934  1.0
  Br  Br20  1  1.32761066  0.00000000  -0.00000000  1.0
  Br  Br21  1  0.00000000  1.67238934  -0.00000000  1.0
  Br  Br22  1  0.32761066  1.00000000  -0.32761066  1.0
  Br  Br23  1  -0.00000000  -0.00000000  0.67238934  1.0
  Br  Br24  1  0.32761066  -0.32761066  1.00000000  1.0
  Br  Br25  1  0.67238934  1.00000000  -0.67238934  1.0
  Br  Br26  1  0.00000000  1.32761066  -0.00000000  1.0
  Br  Br27  1  0.67238934  -0.67238934  1.00000000  1.0
  Br  Br28  1  -0.00000000  -0.00000000  0.32761066  1.0
  Br  Br29  1  -0.68223023  0.68223023  0.68223023  1.0
  Br  Br30  1  -0.31776977  0.31776977  0.68223023  1.0
  Br  Br31  1  0.68223023  0.68223023  -0.68223023  1.0
  Br  Br32  1  0.31776977  1.31776977  -0.31776977  1.0
  Br  Br33  1  0.31776977  -0.31776977  1.31776977  1.0
  Br  Br34  1  -0.31776977  0.31776977  0.31776977  1.0
