# generated using pymatgen
data_K2Ti(SiO3)3
_symmetry_space_group_name_H-M   'P 1'
_cell_length_a   7.71072489
_cell_length_b   7.71072489
_cell_length_c   7.71072489
_cell_angle_alpha   82.46564311
_cell_angle_beta   82.46564311
_cell_angle_gamma   82.46564311
_symmetry_Int_Tables_number   1
_chemical_formula_structural   K2Ti(SiO3)3
_chemical_formula_sum   'K4 Ti2 Si6 O18'
_cell_volume   447.52395628
_cell_formula_units_Z   2
loop_
 _symmetry_equiv_pos_site_id
 _symmetry_equiv_pos_as_xyz
  1  'x, y, z'
loop_
 _atom_site_type_symbol
 _atom_site_label
 _atom_site_symmetry_multiplicity
 _atom_site_fract_x
 _atom_site_fract_y
 _atom_site_fract_z
 _atom_site_occupancy
  K  K0  1  1.00924938  -0.23215184  -0.45593577  1.0
  K  K1  1  0.76784816  -0.45593577  0.00924938  1.0
  K  K2  1  0.54406423  0.00924938  -0.23215184  1.0
  K  K3  1  1.27531716  1.27531716  0.27531716  1.0
  Ti  Ti4  1  -0.00032422  -0.00032422  -0.00032422  1.0
  Ti  Ti5  1  0.51715639  0.51715639  -0.48284361  1.0
  Si  Si6  1  0.67018246  0.87288131  -0.71228907  1.0
  Si  Si7  1  0.87288131  0.28771093  -0.32981754  1.0
  Si  Si8  1  0.28771093  0.67018246  -0.12711869  1.0
  Si  Si9  1  0.32903685  0.79348240  -0.78937812  1.0
  Si  Si10  1  0.79348240  0.21062188  -0.67096315  1.0
  Si  Si11  1  0.21062188  0.32903685  -0.20651760  1.0
  O  O12  1  0.46392681  0.93493653  -0.75616392  1.0
  O  O13  1  0.93493653  0.24383608  -0.53607319  1.0
  O  O14  1  0.24383608  0.46392681  -0.06506347  1.0
  O  O15  1  0.68431399  0.40767700  -0.31793962  1.0
  O  O16  1  0.40767700  0.68206038  -0.31568601  1.0
  O  O17  1  0.68206038  0.68431399  -0.59232300  1.0
  O  O18  1  0.13393945  0.89846696  -0.79818273  1.0
  O  O19  1  0.89846696  0.20181727  -0.86606055  1.0
  O  O20  1  0.20181727  0.13393945  -0.10153304  1.0
  O  O21  1  0.35980960  0.33680972  -0.37594436  1.0
  O  O22  1  0.33680972  0.62405564  -0.64019040  1.0
  O  O23  1  0.62405564  0.35980960  -0.66319028  1.0
  O  O24  1  0.72332815  0.01646897  -0.59110019  1.0
  O  O25  1  1.01646897  -0.59110019  -0.27667185  1.0
  O  O26  1  0.40889981  -0.27667185  0.01646897  1.0
  O  O27  1  0.87409214  0.10231584  -0.20178126  1.0
  O  O28  1  1.10231584  -0.20178126  -0.12590786  1.0
  O  O29  1  0.79821874  -0.12590786  0.10231584  1.0
