# generated using pymatgen
data_BaNd2PdO5
_symmetry_space_group_name_H-M   'P 1'
_cell_length_a   6.76768784
_cell_length_b   6.76768784
_cell_length_c   5.97263495
_cell_angle_alpha   90.00000000
_cell_angle_beta   90.00000000
_cell_angle_gamma   90.00000000
_symmetry_Int_Tables_number   1
_chemical_formula_structural   BaNd2PdO5
_chemical_formula_sum   'Ba2 Nd4 Pd2 O10'
_cell_volume   273.55622964
_cell_formula_units_Z   2
loop_
 _symmetry_equiv_pos_site_id
 _symmetry_equiv_pos_as_xyz
  1  'x, y, z'
loop_
 _atom_site_type_symbol
 _atom_site_label
 _atom_site_symmetry_multiplicity
 _atom_site_fract_x
 _atom_site_fract_y
 _atom_site_fract_z
 _atom_site_occupancy
  Ba  Ba0  1  0.50000000  0.50000000  0.00000000  1.0
  Ba  Ba1  1  0.00000000  0.00000000  0.00000000  1.0
  Nd  Nd2  1  0.32234723  0.17765277  0.50000000  1.0
  Nd  Nd3  1  0.82234723  0.32234723  0.50000000  1.0
  Nd  Nd4  1  0.67765277  0.82234723  0.50000000  1.0
  Nd  Nd5  1  0.17765277  0.67765277  0.50000000  1.0
  Pd  Pd6  1  0.50000000  0.00000000  0.00000000  1.0
  Pd  Pd7  1  0.00000000  0.50000000  0.00000000  1.0
  O  O8  1  0.85738051  0.64261949  0.75041262  1.0
  O  O9  1  0.85738051  0.64261949  0.24958738  1.0
  O  O10  1  0.35738051  0.85738051  0.75041262  1.0
  O  O11  1  0.35738051  0.85738051  0.24958738  1.0
  O  O12  1  0.14261949  0.35738051  0.75041262  1.0
  O  O13  1  0.14261949  0.35738051  0.24958738  1.0
  O  O14  1  0.64261949  0.14261949  0.75041262  1.0
  O  O15  1  0.64261949  0.14261949  0.24958738  1.0
  O  O16  1  0.50000000  0.50000000  0.50000000  1.0
  O  O17  1  0.00000000  0.00000000  0.50000000  1.0
