# generated using pymatgen
data_MnSb2HClO4
_symmetry_space_group_name_H-M   'P 1'
_cell_length_a   7.18196744
_cell_length_b   8.42098372
_cell_length_c   10.61249130
_cell_angle_alpha   90.00000000
_cell_angle_beta   90.89469498
_cell_angle_gamma   90.00000000
_symmetry_Int_Tables_number   1
_chemical_formula_structural   MnSb2HClO4
_chemical_formula_sum   'Mn4 Sb8 H4 Cl4 O16'
_cell_volume   641.75706079
_cell_formula_units_Z   4
loop_
 _symmetry_equiv_pos_site_id
 _symmetry_equiv_pos_as_xyz
  1  'x, y, z'
loop_
 _atom_site_type_symbol
 _atom_site_label
 _atom_site_symmetry_multiplicity
 _atom_site_fract_x
 _atom_site_fract_y
 _atom_site_fract_z
 _atom_site_occupancy
  Mn  Mn0  1  0.00112024  0.29071722  0.50943879  1.0
  Mn  Mn1  1  0.99887976  0.79071722  0.99056121  1.0
  Mn  Mn2  1  0.99887976  0.70928278  0.49056121  1.0
  Mn  Mn3  1  0.00112024  0.20928278  0.00943879  1.0
  Sb  Sb4  1  0.21623098  0.49045191  0.76438677  1.0
  Sb  Sb5  1  0.78376902  0.99045191  0.73561323  1.0
  Sb  Sb6  1  0.78376902  0.50954809  0.23561323  1.0
  Sb  Sb7  1  0.21623098  0.00954809  0.26438677  1.0
  Sb  Sb8  1  0.22478564  0.08490451  0.74740151  1.0
  Sb  Sb9  1  0.77521436  0.58490451  0.75259849  1.0
  Sb  Sb10  1  0.77521436  0.91509549  0.25259849  1.0
  Sb  Sb11  1  0.22478564  0.41509549  0.24740151  1.0
  H  H12  1  0.41417878  0.28559344  0.57798229  1.0
  H  H13  1  0.58582122  0.78559344  0.92201771  1.0
  H  H14  1  0.58582122  0.71440656  0.42201771  1.0
  H  H15  1  0.41417878  0.21440656  0.07798229  1.0
  Cl  Cl16  1  0.33359073  0.74586845  0.54177898  1.0
  Cl  Cl17  1  0.66640927  0.24586845  0.95822102  1.0
  Cl  Cl18  1  0.66640927  0.25413155  0.45822102  1.0
  Cl  Cl19  1  0.33359073  0.75413155  0.04177898  1.0
  O  O20  1  -0.00260818  0.48548795  0.63739719  1.0
  O  O21  1  1.00260818  0.98548795  0.86260281  1.0
  O  O22  1  1.00260818  0.51451205  0.36260281  1.0
  O  O23  1  -0.00260818  0.01451205  0.13739719  1.0
  O  O24  1  1.00010311  0.09465649  0.63232236  1.0
  O  O25  1  -0.00010311  0.59465649  0.86767764  1.0
  O  O26  1  -0.00010311  0.90534351  0.36767764  1.0
  O  O27  1  1.00010311  0.40534351  0.13232236  1.0
  O  O28  1  0.15211896  0.27959089  0.85011367  1.0
  O  O29  1  0.84788104  0.77959089  0.64988633  1.0
  O  O30  1  0.84788104  0.72040911  0.14988633  1.0
  O  O31  1  0.15211896  0.22040911  0.35011367  1.0
  O  O32  1  0.29437404  0.28862207  0.62239681  1.0
  O  O33  1  0.70562596  0.78862207  0.87760319  1.0
  O  O34  1  0.70562596  0.71137793  0.37760319  1.0
  O  O35  1  0.29437404  0.21137793  0.12239681  1.0
