# generated using pymatgen
data_Sn(CO2)2
_symmetry_space_group_name_H-M   'P 1'
_cell_length_a   6.04720855
_cell_length_b   6.04720855
_cell_length_c   8.56347763
_cell_angle_alpha   60.71241850
_cell_angle_beta   119.28758150
_cell_angle_gamma   119.24504560
_symmetry_Int_Tables_number   1
_chemical_formula_structural   Sn(CO2)2
_chemical_formula_sum   'Sn2 C4 O8'
_cell_volume   225.06506141
_cell_formula_units_Z   2
loop_
 _symmetry_equiv_pos_site_id
 _symmetry_equiv_pos_as_xyz
  1  'x, y, z'
loop_
 _atom_site_type_symbol
 _atom_site_label
 _atom_site_symmetry_multiplicity
 _atom_site_fract_x
 _atom_site_fract_y
 _atom_site_fract_z
 _atom_site_occupancy
  Sn  Sn0  1  0.57862457  0.57862457  0.75000000  1.0
  Sn  Sn1  1  0.42137543  0.42137543  0.25000000  1.0
  C  C2  1  0.58694399  -0.01289913  0.96372367  1.0
  C  C3  1  1.01289913  -0.58694399  0.46372367  1.0
  C  C4  1  0.98710087  0.58694399  0.53627633  1.0
  C  C5  1  1.41305601  0.01289913  0.03627633  1.0
  O  O6  1  0.68395215  0.18872931  0.84206788  1.0
  O  O7  1  0.81127069  -0.68395215  0.34206788  1.0
  O  O8  1  1.18872931  0.68395215  0.65793212  1.0
  O  O9  1  1.31604785  -0.18872931  0.15793212  1.0
  O  O10  1  0.38017712  0.23979154  0.96653787  1.0
  O  O11  1  0.76020846  0.61982288  0.46653787  1.0
  O  O12  1  1.23979154  -0.61982288  0.53346213  1.0
  O  O13  1  1.61982288  -0.23979154  0.03346213  1.0
