# generated using pymatgen
data_Rb4GeO4
_symmetry_space_group_name_H-M   'P 1'
_cell_length_a   11.12578281
_cell_length_b   6.93840283
_cell_length_c   11.07916547
_cell_angle_alpha   90.00000000
_cell_angle_beta   111.72945616
_cell_angle_gamma   90.00000000
_symmetry_Int_Tables_number   1
_chemical_formula_structural   Rb4GeO4
_chemical_formula_sum   'Rb16 Ge4 O16'
_cell_volume   794.48536862
_cell_formula_units_Z   4
loop_
 _symmetry_equiv_pos_site_id
 _symmetry_equiv_pos_as_xyz
  1  'x, y, z'
loop_
 _atom_site_type_symbol
 _atom_site_label
 _atom_site_symmetry_multiplicity
 _atom_site_fract_x
 _atom_site_fract_y
 _atom_site_fract_z
 _atom_site_occupancy
  Rb  Rb0  1  0.92367657  0.81693527  0.79453578  1.0
  Rb  Rb1  1  0.92367657  0.68306473  0.29453578  1.0
  Rb  Rb2  1  0.07632343  0.31693527  0.70546422  1.0
  Rb  Rb3  1  0.07632343  0.18306473  0.20546422  1.0
  Rb  Rb4  1  0.86752714  0.33664377  0.89074632  1.0
  Rb  Rb5  1  0.86752714  0.16335623  0.39074632  1.0
  Rb  Rb6  1  0.13247286  0.83664377  0.60925368  1.0
  Rb  Rb7  1  0.13247286  0.66335623  0.10925368  1.0
  Rb  Rb8  1  0.56020741  0.59093624  0.69574346  1.0
  Rb  Rb9  1  0.56020741  0.90906376  0.19574346  1.0
  Rb  Rb10  1  0.43979259  0.09093624  0.80425654  1.0
  Rb  Rb11  1  0.43979259  0.40906376  0.30425654  1.0
  Rb  Rb12  1  0.34298637  0.61115900  0.91374546  1.0
  Rb  Rb13  1  0.34298637  0.88884100  0.41374546  1.0
  Rb  Rb14  1  0.65701363  0.11115900  0.58625454  1.0
  Rb  Rb15  1  0.65701363  0.38884100  0.08625454  1.0
  Ge  Ge16  1  0.74167006  0.86922997  0.99113317  1.0
  Ge  Ge17  1  0.74167006  0.63077003  0.49113317  1.0
  Ge  Ge18  1  0.25832994  0.36922997  0.50886683  1.0
  Ge  Ge19  1  0.25832994  0.13077003  0.00886683  1.0
  O  O20  1  0.85934562  0.82107849  0.51387508  1.0
  O  O21  1  0.85934562  0.67892151  1.01387508  1.0
  O  O22  1  0.14065438  0.32107849  -0.01387508  1.0
  O  O23  1  0.14065438  0.17892151  0.48612492  1.0
  O  O24  1  0.79832206  0.47706849  0.63348298  1.0
  O  O25  1  0.79832206  0.02293151  0.13348298  1.0
  O  O26  1  0.20167794  0.97706849  0.86651702  1.0
  O  O27  1  0.20167794  0.52293151  0.36651702  1.0
  O  O28  1  0.72100644  0.49520854  0.34590443  1.0
  O  O29  1  0.72100644  0.00479146  0.84590443  1.0
  O  O30  1  0.27899356  0.99520854  0.15409557  1.0
  O  O31  1  0.27899356  0.50479146  0.65409557  1.0
  O  O32  1  0.58799405  0.76085316  0.96975587  1.0
  O  O33  1  0.58799405  0.73914684  0.46975587  1.0
  O  O34  1  0.41200595  0.26085316  0.53024413  1.0
  O  O35  1  0.41200595  0.23914684  0.03024413  1.0
