# generated using pymatgen
data_Rb2Hg3(GeS4)2
_symmetry_space_group_name_H-M   'P 1'
_cell_length_a   10.11583298
_cell_length_b   6.58572266
_cell_length_c   13.61237747
_cell_angle_alpha   90.00000000
_cell_angle_beta   95.57456440
_cell_angle_gamma   90.00000000
_symmetry_Int_Tables_number   1
_chemical_formula_structural   Rb2Hg3(GeS4)2
_chemical_formula_sum   'Rb4 Hg6 Ge4 S16'
_cell_volume   902.56867425
_cell_formula_units_Z   2
loop_
 _symmetry_equiv_pos_site_id
 _symmetry_equiv_pos_as_xyz
  1  'x, y, z'
loop_
 _atom_site_type_symbol
 _atom_site_label
 _atom_site_symmetry_multiplicity
 _atom_site_fract_x
 _atom_site_fract_y
 _atom_site_fract_z
 _atom_site_occupancy
  Rb  Rb0  1  0.23086996  0.15362271  0.32088314  1.0
  Rb  Rb1  1  0.23086996  0.34637729  0.82088314  1.0
  Rb  Rb2  1  0.76913004  0.65362271  0.17911686  1.0
  Rb  Rb3  1  0.76913004  0.84637729  0.67911686  1.0
  Hg  Hg4  1  0.49099958  0.22096326  0.10894990  1.0
  Hg  Hg5  1  0.49099958  0.27903674  0.60894990  1.0
  Hg  Hg6  1  0.50900042  0.72096326  0.39105010  1.0
  Hg  Hg7  1  0.50900042  0.77903674  0.89105010  1.0
  Hg  Hg8  1  0.00000000  0.50000000  0.50000000  1.0
  Hg  Hg9  1  0.00000000  0.00000000  0.00000000  1.0
  Ge  Ge10  1  0.71535935  0.20410946  0.41593339  1.0
  Ge  Ge11  1  0.71535935  0.29589054  0.91593339  1.0
  Ge  Ge12  1  0.28464065  0.70410946  0.08406661  1.0
  Ge  Ge13  1  0.28464065  0.79589054  0.58406661  1.0
  S  S14  1  0.91253535  0.30771962  0.36234766  1.0
  S  S15  1  0.91253535  0.19228038  0.86234766  1.0
  S  S16  1  0.08746465  0.80771962  0.13765234  1.0
  S  S17  1  0.08746465  0.69228038  0.63765234  1.0
  S  S18  1  0.72314920  0.18686539  0.07330073  1.0
  S  S19  1  0.72314920  0.31313461  0.57330073  1.0
  S  S20  1  0.27685080  0.68686539  0.42669927  1.0
  S  S21  1  0.27685080  0.81313461  0.92669927  1.0
  S  S22  1  0.73273675  0.86308348  0.41024536  1.0
  S  S23  1  0.73273675  0.63691652  0.91024536  1.0
  S  S24  1  0.26726325  0.36308348  0.08975464  1.0
  S  S25  1  0.26726325  0.13691652  0.58975464  1.0
  S  S26  1  0.54713660  0.33312251  0.32209096  1.0
  S  S27  1  0.54713660  0.16687749  0.82209096  1.0
  S  S28  1  0.45286340  0.83312251  0.17790904  1.0
  S  S29  1  0.45286340  0.66687749  0.67790904  1.0
