# generated using pymatgen
data_Hg7(PO5)2
_symmetry_space_group_name_H-M   'P 1'
_cell_length_a   6.34106467
_cell_length_b   10.22537264
_cell_length_c   10.05216976
_cell_angle_alpha   90.00000000
_cell_angle_beta   95.64904118
_cell_angle_gamma   90.00000000
_symmetry_Int_Tables_number   1
_chemical_formula_structural   Hg7(PO5)2
_chemical_formula_sum   'Hg14 P4 O20'
_cell_volume   648.61480317
_cell_formula_units_Z   2
loop_
 _symmetry_equiv_pos_site_id
 _symmetry_equiv_pos_as_xyz
  1  'x, y, z'
loop_
 _atom_site_type_symbol
 _atom_site_label
 _atom_site_symmetry_multiplicity
 _atom_site_fract_x
 _atom_site_fract_y
 _atom_site_fract_z
 _atom_site_occupancy
  Hg  Hg0  1  0.73545631  0.86029430  0.35764473  1.0
  Hg  Hg1  1  0.73545631  0.63970570  0.85764473  1.0
  Hg  Hg2  1  0.26454369  0.36029430  0.14235527  1.0
  Hg  Hg3  1  0.26454369  0.13970570  0.64235527  1.0
  Hg  Hg4  1  0.69235620  0.37652147  0.19413743  1.0
  Hg  Hg5  1  0.69235620  0.12347853  0.69413743  1.0
  Hg  Hg6  1  0.30764380  0.87652147  0.30586257  1.0
  Hg  Hg7  1  0.30764380  0.62347853  0.80586257  1.0
  Hg  Hg8  1  0.51378277  0.14725932  0.09132438  1.0
  Hg  Hg9  1  0.51378277  0.35274068  0.59132438  1.0
  Hg  Hg10  1  0.48621723  0.64725932  0.40867562  1.0
  Hg  Hg11  1  0.48621723  0.85274068  0.90867562  1.0
  Hg  Hg12  1  0.00000000  0.50000000  0.50000000  1.0
  Hg  Hg13  1  0.00000000  0.00000000  -0.00000000  1.0
  P  P14  1  1.00194224  0.14413498  0.34976442  1.0
  P  P15  1  1.00194224  0.35586502  0.84976442  1.0
  P  P16  1  -0.00194224  0.64413498  0.15023558  1.0
  P  P17  1  -0.00194224  0.85586502  0.65023558  1.0
  O  O18  1  1.00065218  0.28564658  0.28680698  1.0
  O  O19  1  1.00065218  0.21435342  0.78680698  1.0
  O  O20  1  -0.00065218  0.78564658  0.21319302  1.0
  O  O21  1  -0.00065218  0.71435342  0.71319302  1.0
  O  O22  1  0.96628788  0.34362966  0.00087550  1.0
  O  O23  1  0.96628788  0.15637034  0.50087550  1.0
  O  O24  1  0.03371212  0.84362966  0.49912450  1.0
  O  O25  1  0.03371212  0.65637034  0.99912450  1.0
  O  O26  1  0.81750138  0.06200038  0.27453836  1.0
  O  O27  1  0.81750138  0.43799962  0.77453836  1.0
  O  O28  1  0.18249862  0.56200038  0.22546164  1.0
  O  O29  1  0.18249862  0.93799962  0.72546164  1.0
  O  O30  1  0.68919496  0.46574648  0.43977339  1.0
  O  O31  1  0.68919496  0.03425352  0.93977339  1.0
  O  O32  1  0.31080504  0.96574648  0.06022661  1.0
  O  O33  1  0.31080504  0.53425352  0.56022661  1.0
  O  O34  1  0.22549574  0.08658062  0.33330900  1.0
  O  O35  1  0.22549574  0.41341938  0.83330900  1.0
  O  O36  1  0.77450426  0.58658062  0.16669100  1.0
  O  O37  1  0.77450426  0.91341938  0.66669100  1.0
