# generated using pymatgen
data_K3SnTe3
_symmetry_space_group_name_H-M   'P 1'
_cell_length_a   9.76104036
_cell_length_b   13.92682598
_cell_length_c   9.77012242
_cell_angle_alpha   90.00000000
_cell_angle_beta   117.04883303
_cell_angle_gamma   90.00000000
_symmetry_Int_Tables_number   1
_chemical_formula_structural   K3SnTe3
_chemical_formula_sum   'K12 Sn4 Te12'
_cell_volume   1182.87907311
_cell_formula_units_Z   4
loop_
 _symmetry_equiv_pos_site_id
 _symmetry_equiv_pos_as_xyz
  1  'x, y, z'
loop_
 _atom_site_type_symbol
 _atom_site_label
 _atom_site_symmetry_multiplicity
 _atom_site_fract_x
 _atom_site_fract_y
 _atom_site_fract_z
 _atom_site_occupancy
  K  K0  1  0.95515369  0.72250646  0.27721925  1.0
  K  K1  1  0.95515369  0.77749354  0.77721925  1.0
  K  K2  1  0.04484631  0.22250646  0.22278075  1.0
  K  K3  1  0.04484631  0.27749354  0.72278075  1.0
  K  K4  1  0.72262351  0.43766338  0.20123196  1.0
  K  K5  1  0.72262351  0.06233662  0.70123196  1.0
  K  K6  1  0.27737649  0.93766338  0.29876804  1.0
  K  K7  1  0.27737649  0.56233662  0.79876804  1.0
  K  K8  1  0.49957298  0.34304050  0.48999844  1.0
  K  K9  1  0.49957298  0.15695950  0.98999844  1.0
  K  K10  1  0.50042702  0.84304050  0.01000156  1.0
  K  K11  1  0.50042702  0.65695950  0.51000156  1.0
  Sn  Sn12  1  0.84634286  0.00916796  0.37541199  1.0
  Sn  Sn13  1  0.84634286  0.49083204  0.87541199  1.0
  Sn  Sn14  1  0.15365714  0.50916796  0.12458801  1.0
  Sn  Sn15  1  0.15365714  0.99083204  0.62458801  1.0
  Te  Te16  1  0.85810771  0.97638339  0.10023165  1.0
  Te  Te17  1  0.85810771  0.52361661  0.60023165  1.0
  Te  Te18  1  0.14189229  0.47638339  0.39976835  1.0
  Te  Te19  1  0.14189229  0.02361661  0.89976835  1.0
  Te  Te20  1  0.74340077  0.19490070  0.38170092  1.0
  Te  Te21  1  0.74340077  0.30509930  0.88170092  1.0
  Te  Te22  1  0.25659923  0.69490070  0.11829908  1.0
  Te  Te23  1  0.25659923  0.80509930  0.61829908  1.0
  Te  Te24  1  0.66685016  0.86865345  0.41941241  1.0
  Te  Te25  1  0.66685016  0.63134655  0.91941241  1.0
  Te  Te26  1  0.33314984  0.36865345  0.08058759  1.0
  Te  Te27  1  0.33314984  0.13134655  0.58058759  1.0
