# generated using pymatgen
data_KIO3
_symmetry_space_group_name_H-M   'P 1'
_cell_length_a   9.06382604
_cell_length_b   9.06382604
_cell_length_c   9.06382604
_cell_angle_alpha   88.95040247
_cell_angle_beta   88.95040247
_cell_angle_gamma   88.95040247
_symmetry_Int_Tables_number   1
_chemical_formula_structural   KIO3
_chemical_formula_sum   'K8 I8 O24'
_cell_volume   744.24968348
_cell_formula_units_Z   8
loop_
 _symmetry_equiv_pos_site_id
 _symmetry_equiv_pos_as_xyz
  1  'x, y, z'
loop_
 _atom_site_type_symbol
 _atom_site_label
 _atom_site_symmetry_multiplicity
 _atom_site_fract_x
 _atom_site_fract_y
 _atom_site_fract_z
 _atom_site_occupancy
  K  K0  1  0.27028475  0.73888106  -0.76406938  1.0
  K  K1  1  0.73888106  0.23593062  -0.72971525  1.0
  K  K2  1  0.23593062  0.27028475  -0.26111894  1.0
  K  K3  1  0.77034264  0.23887252  -0.26417353  1.0
  K  K4  1  1.23887252  -0.26417353  -0.22965736  1.0
  K  K5  1  0.73582647  -0.22965736  0.23887252  1.0
  K  K6  1  1.24997117  1.24997117  0.24997117  1.0
  K  K7  1  0.74992563  0.74992563  -0.25007437  1.0
  I  I8  1  0.48777429  1.00018192  -0.48940116  1.0
  I  I9  1  1.00018192  1.51059884  0.48777429  1.0
  I  I10  1  1.51059884  1.48777429  0.00018192  1.0
  I  I11  1  1.01053932  -0.01218343  -0.49994249  1.0
  I  I12  1  0.98781657  -0.49994249  0.01053932  1.0
  I  I13  1  0.50005751  0.01053932  -0.01218343  1.0
  I  I14  1  0.00135145  0.00135145  0.00135145  1.0
  I  I15  1  0.50146216  0.50146216  -0.49853784  1.0
  O  O16  1  0.43759790  0.20352466  -0.49549484  1.0
  O  O17  1  0.20352466  0.50450516  -0.56240210  1.0
  O  O18  1  0.50450516  0.43759790  -0.79647534  1.0
  O  O19  1  0.44763953  0.51314396  -0.29677570  1.0
  O  O20  1  0.51314396  0.70322430  -0.55236047  1.0
  O  O21  1  0.70322430  0.44763953  -0.48685604  1.0
  O  O22  1  0.94736747  0.01316177  -0.79693898  1.0
  O  O23  1  1.01316177  -0.79693898  -0.05263253  1.0
  O  O24  1  0.20306102  -0.05263253  0.01316177  1.0
  O  O25  1  1.21008922  -0.05156256  -0.55134868  1.0
  O  O26  1  0.94843744  -0.55134868  0.21008922  1.0
  O  O27  1  0.44865132  0.21008922  -0.05156256  1.0
  O  O28  1  1.01050281  1.19608605  0.51050302  1.0
  O  O29  1  1.19608605  1.51050302  0.01050281  1.0
  O  O30  1  1.51050302  1.01050281  0.19608605  1.0
  O  O31  1  0.94905579  0.71012998  -0.55207383  1.0
  O  O32  1  0.71012998  0.44792617  -0.05094421  1.0
  O  O33  1  0.44792617  0.94905579  -0.28987002  1.0
  O  O34  1  0.69606239  0.01028812  -0.48921666  1.0
  O  O35  1  1.01028812  -0.48921666  -0.30393761  1.0
  O  O36  1  0.51078334  -0.30393761  0.01028812  1.0
  O  O37  1  1.00461471  -0.06268967  -0.29668335  1.0
  O  O38  1  0.93731033  -0.29668335  0.00461471  1.0
  O  O39  1  0.70331665  0.00461471  -0.06268967  1.0
