# generated using pymatgen
data_Zr6Co16Ge7
_symmetry_space_group_name_H-M   'P 1'
_cell_length_a   8.17176792
_cell_length_b   8.17176792
_cell_length_c   8.17176792
_cell_angle_alpha   60.00000000
_cell_angle_beta   60.00000000
_cell_angle_gamma   60.00000000
_symmetry_Int_Tables_number   1
_chemical_formula_structural   Zr6Co16Ge7
_chemical_formula_sum   'Zr6 Co16 Ge7'
_cell_volume   385.86294457
_cell_formula_units_Z   1
loop_
 _symmetry_equiv_pos_site_id
 _symmetry_equiv_pos_as_xyz
  1  'x, y, z'
loop_
 _atom_site_type_symbol
 _atom_site_label
 _atom_site_symmetry_multiplicity
 _atom_site_fract_x
 _atom_site_fract_y
 _atom_site_fract_z
 _atom_site_occupancy
  Zr  Zr0  1  -0.70565872  0.70565872  0.70565872  1.0
  Zr  Zr1  1  -0.29434128  0.29434128  0.70565872  1.0
  Zr  Zr2  1  0.70565872  0.70565872  -0.70565872  1.0
  Zr  Zr3  1  0.29434128  1.29434128  -0.29434128  1.0
  Zr  Zr4  1  0.29434128  -0.29434128  1.29434128  1.0
  Zr  Zr5  1  -0.29434128  0.29434128  0.29434128  1.0
  Co  Co6  1  0.87908903  0.87908903  -0.12091097  1.0
  Co  Co7  1  1.12091097  0.12091097  0.63726708  1.0
  Co  Co8  1  1.12091097  0.63726708  0.12091097  1.0
  Co  Co9  1  0.36273292  0.87908903  -0.12091097  1.0
  Co  Co10  1  1.63726708  0.12091097  0.12091097  1.0
  Co  Co11  1  0.87908903  0.36273292  -0.12091097  1.0
  Co  Co12  1  0.87908903  0.87908903  -0.63726708  1.0
  Co  Co13  1  1.12091097  0.12091097  0.12091097  1.0
  Co  Co14  1  0.67028677  0.67028677  -0.32971323  1.0
  Co  Co15  1  1.32971323  0.32971323  0.01086030  1.0
  Co  Co16  1  1.32971323  0.01086030  0.32971323  1.0
  Co  Co17  1  0.98913970  0.67028677  -0.32971323  1.0
  Co  Co18  1  1.01086030  0.32971323  0.32971323  1.0
  Co  Co19  1  0.67028677  0.98913970  -0.32971323  1.0
  Co  Co20  1  0.67028677  0.67028677  -0.01086030  1.0
  Co  Co21  1  1.32971323  0.32971323  0.32971323  1.0
  Ge  Ge22  1  1.50000000  -0.00000000  0.00000000  1.0
  Ge  Ge23  1  1.00000000  0.50000000  -0.50000000  1.0
  Ge  Ge24  1  -0.00000000  1.50000000  0.00000000  1.0
  Ge  Ge25  1  0.50000000  1.00000000  -0.50000000  1.0
  Ge  Ge26  1  -0.00000000  -0.00000000  0.50000000  1.0
  Ge  Ge27  1  0.50000000  -0.50000000  1.00000000  1.0
  Ge  Ge28  1  0.00000000  0.00000000  0.00000000  1.0
