# generated using pymatgen
data_Ca2S2O9
_symmetry_space_group_name_H-M   'P 1'
_cell_length_a   7.07463928
_cell_length_b   7.07463928
_cell_length_c   12.77123618
_cell_angle_alpha   90.00000000
_cell_angle_beta   90.00000000
_cell_angle_gamma   120.00000000
_symmetry_Int_Tables_number   1
_chemical_formula_structural   Ca2S2O9
_chemical_formula_sum   'Ca6 S6 O27'
_cell_volume   553.56952092
_cell_formula_units_Z   3
loop_
 _symmetry_equiv_pos_site_id
 _symmetry_equiv_pos_as_xyz
  1  'x, y, z'
loop_
 _atom_site_type_symbol
 _atom_site_label
 _atom_site_symmetry_multiplicity
 _atom_site_fract_x
 _atom_site_fract_y
 _atom_site_fract_z
 _atom_site_occupancy
  Ca  Ca0  1  0.14332979  0.80976137  0.99511434  1.0
  Ca  Ca1  1  0.66643158  0.85667021  0.66178100  1.0
  Ca  Ca2  1  0.19023863  0.33356842  0.32844767  1.0
  Ca  Ca3  1  0.13683260  0.80048541  0.49426163  1.0
  Ca  Ca4  1  0.66365280  0.86316740  0.16092830  1.0
  Ca  Ca5  1  0.19951459  0.33634720  0.82759496  1.0
  O  O6  1  0.53077717  0.92268839  0.97885370  1.0
  O  O7  1  0.39191122  0.46922283  0.64552037  1.0
  O  O8  1  0.07731161  0.60808878  0.31218704  1.0
  O  O9  1  0.19021930  0.98888949  0.31539425  1.0
  O  O10  1  0.79867019  0.80978070  0.98206091  1.0
  O  O11  1  0.01111051  0.20132981  0.64872758  1.0
  O  O12  1  0.18526401  0.97909969  0.81627651  1.0
  O  O13  1  0.79383568  0.81473599  0.48294318  1.0
  O  O14  1  0.02090031  0.20616432  0.14960984  1.0
  O  O15  1  0.31055097  0.84466362  0.17020628  1.0
  O  O16  1  0.53411265  0.68944903  0.83687295  1.0
  O  O17  1  0.15533638  0.46588735  0.50353962  1.0
  O  O18  1  0.31426743  0.84078001  0.67180096  1.0
  O  O19  1  0.52651258  0.68573257  0.33846762  1.0
  O  O20  1  0.15921999  0.47348742  0.00513429  1.0
  O  O21  1  0.93952389  0.74629159  0.67525652  1.0
  O  O22  1  0.80676770  0.06047611  0.34192318  1.0
  O  O23  1  0.25370841  0.19323230  0.00858985  1.0
  O  O24  1  0.93787744  0.75493913  0.17610985  1.0
  O  O25  1  0.81706169  0.06212256  0.84277651  1.0
  O  O26  1  0.24506087  0.18293831  0.50944318  1.0
  O  O27  1  0.07551324  0.60163229  0.81398172  1.0
  O  O28  1  0.52611904  0.92448676  0.48064839  1.0
  O  O29  1  0.39836771  0.47388096  0.14731506  1.0
  O  O30  1  0.51366125  0.29010408  0.78148489  1.0
  O  O31  1  0.77644284  0.48633875  0.44815155  1.0
  O  O32  1  0.70989592  0.22355716  0.11481822  1.0
  S  S33  1  0.12806314  0.78942384  0.74349455  1.0
  S  S34  1  0.66136070  0.87193686  0.41016121  1.0
  S  S35  1  0.21057616  0.33863930  0.07682788  1.0
  S  S36  1  0.12767414  0.79987541  0.24343148  1.0
  S  S37  1  0.67220127  0.87232586  0.91009815  1.0
  S  S38  1  0.20012459  0.32779873  0.57676481  1.0
