# generated using pymatgen
data_Zn3Cr2(CN)12
_symmetry_space_group_name_H-M   'P 1'
_cell_length_a   13.48677688
_cell_length_b   13.48677688
_cell_length_c   13.48677688
_cell_angle_alpha   57.46861218
_cell_angle_beta   57.46861218
_cell_angle_gamma   57.46861218
_symmetry_Int_Tables_number   1
_chemical_formula_structural   Zn3Cr2(CN)12
_chemical_formula_sum   'Zn6 Cr4 C24 N24'
_cell_volume   1633.63251453
_cell_formula_units_Z   2
loop_
 _symmetry_equiv_pos_site_id
 _symmetry_equiv_pos_as_xyz
  1  'x, y, z'
loop_
 _atom_site_type_symbol
 _atom_site_label
 _atom_site_symmetry_multiplicity
 _atom_site_fract_x
 _atom_site_fract_y
 _atom_site_fract_z
 _atom_site_occupancy
  Zn  Zn0  1  0.46341818  0.75000000  0.03658182  1.0
  Zn  Zn1  1  0.96341818  -0.46341818  0.25000000  1.0
  Zn  Zn2  1  0.25000000  0.96341818  -0.46341818  1.0
  Zn  Zn3  1  0.75000000  1.03658182  -0.53658182  1.0
  Zn  Zn4  1  0.53658182  0.25000000  -0.03658182  1.0
  Zn  Zn5  1  1.03658182  0.46341818  -0.25000000  1.0
  Cr  Cr6  1  0.85455809  -0.14544191  -0.14544191  1.0
  Cr  Cr7  1  0.35455809  0.35455809  0.35455809  1.0
  Cr  Cr8  1  0.64544191  0.64544191  -0.35455809  1.0
  Cr  Cr9  1  1.14544191  0.14544191  0.14544191  1.0
  C  C10  1  0.80216232  0.95063052  -0.29869004  1.0
  C  C11  1  1.30216232  0.20130996  -0.54936948  1.0
  C  C12  1  0.79869004  0.54936948  -0.30216232  1.0
  C  C13  1  0.29869004  0.19783768  0.04936948  1.0
  C  C14  1  1.04936948  0.29869004  -0.80216232  1.0
  C  C15  1  0.54936948  0.69783768  -0.20130996  1.0
  C  C16  1  0.19783768  1.04936948  -0.70130996  1.0
  C  C17  1  0.69783768  0.79869004  -0.45063052  1.0
  C  C18  1  0.70130996  0.80216232  -0.04936948  1.0
  C  C19  1  1.20130996  -0.54936948  0.30216232  1.0
  C  C20  1  0.45063052  0.30216232  0.20130996  1.0
  C  C21  1  0.95063052  0.70130996  -0.19783768  1.0
  C  C22  1  0.74700010  0.00954060  -0.09478455  1.0
  C  C23  1  1.24700010  0.40521545  -0.49045940  1.0
  C  C24  1  0.59478455  0.49045940  -0.24700010  1.0
  C  C25  1  1.09478455  0.25299990  -0.00954060  1.0
  C  C26  1  0.99045940  0.09478455  0.25299990  1.0
  C  C27  1  0.49045940  0.75299990  -0.40521545  1.0
  C  C28  1  1.25299990  -0.00954060  0.09478455  1.0
  C  C29  1  0.75299990  0.59478455  -0.50954060  1.0
  C  C30  1  0.90521545  -0.25299990  0.00954060  1.0
  C  C31  1  0.40521545  0.50954060  0.24700010  1.0
  C  C32  1  0.50954060  1.24700010  -0.59478455  1.0
  C  C33  1  1.00954060  -0.09478455  -0.25299990  1.0
  N  N34  1  0.77337709  0.99929273  -0.38624048  1.0
  N  N35  1  1.27337709  0.11375952  -0.50070727  1.0
  N  N36  1  0.88624048  0.50070727  -0.27337709  1.0
  N  N37  1  0.38624048  0.22662291  0.00070727  1.0
  N  N38  1  1.00070727  0.38624048  -0.77337709  1.0
  N  N39  1  0.50070727  0.72662291  -0.11375952  1.0
  N  N40  1  0.22662291  1.00070727  -0.61375952  1.0
  N  N41  1  0.72662291  0.88624048  -0.49929273  1.0
  N  N42  1  0.61375952  0.77337709  -0.00070727  1.0
  N  N43  1  1.11375952  -0.50070727  0.27337709  1.0
  N  N44  1  0.49929273  0.27337709  0.11375952  1.0
  N  N45  1  0.99929273  0.61375952  -0.22662291  1.0
  N  N46  1  0.67845066  0.09935933  -0.06788971  1.0
  N  N47  1  1.17845066  0.43211029  -0.40064067  1.0
  N  N48  1  0.56788971  0.40064067  -0.17845066  1.0
  N  N49  1  1.06788971  0.32154934  -0.09935933  1.0
  N  N50  1  0.90064067  0.06788971  0.32154934  1.0
  N  N51  1  0.40064067  0.82154934  -0.43211029  1.0
  N  N52  1  1.32154934  -0.09935933  0.06788971  1.0
  N  N53  1  0.82154934  0.56788971  -0.59935933  1.0
  N  N54  1  0.93211029  -0.32154934  0.09935933  1.0
  N  N55  1  0.43211029  0.59935933  0.17845066  1.0
  N  N56  1  0.59935933  1.17845066  -0.56788971  1.0
  N  N57  1  1.09935933  -0.06788971  -0.32154934  1.0
