# generated using pymatgen
data_Ba2EuB2ClO6
_symmetry_space_group_name_H-M   'P 1'
_cell_length_a   6.54668807
_cell_length_b   5.38723078
_cell_length_c   11.60971460
_cell_angle_alpha   90.00000000
_cell_angle_beta   95.33262850
_cell_angle_gamma   90.00000000
_symmetry_Int_Tables_number   1
_chemical_formula_structural   Ba2EuB2ClO6
_chemical_formula_sum   'Ba4 Eu2 B4 Cl2 O12'
_cell_volume   407.68528672
_cell_formula_units_Z   2
loop_
 _symmetry_equiv_pos_site_id
 _symmetry_equiv_pos_as_xyz
  1  'x, y, z'
loop_
 _atom_site_type_symbol
 _atom_site_label
 _atom_site_symmetry_multiplicity
 _atom_site_fract_x
 _atom_site_fract_y
 _atom_site_fract_z
 _atom_site_occupancy
  Ba  Ba0  1  0.33932734  0.25000000  0.57399808  1.0
  Ba  Ba1  1  0.66067266  0.75000000  0.42600192  1.0
  Ba  Ba2  1  0.09754253  0.25000000  0.21178323  1.0
  Ba  Ba3  1  0.90245747  0.75000000  0.78821677  1.0
  Eu  Eu4  1  0.34398655  0.25000000  0.91000560  1.0
  Eu  Eu5  1  0.65601345  0.75000000  0.08999440  1.0
  B  B6  1  0.78796333  0.25000000  0.92323342  1.0
  B  B7  1  0.21203667  0.75000000  0.07676658  1.0
  B  B8  1  0.62440431  0.25000000  0.27977921  1.0
  B  B9  1  0.37559569  0.75000000  0.72022079  1.0
  Cl  Cl10  1  0.84867889  0.25000000  0.58141984  1.0
  Cl  Cl11  1  0.15132111  0.75000000  0.41858016  1.0
  O  O12  1  0.71141821  0.46971505  0.24421287  1.0
  O  O13  1  0.71141821  0.03028495  0.24421287  1.0
  O  O14  1  0.28858179  0.96971505  0.75578713  1.0
  O  O15  1  0.28858179  0.53028495  0.75578713  1.0
  O  O16  1  0.67838578  0.46974529  0.93162115  1.0
  O  O17  1  0.67838578  0.03025471  0.93162115  1.0
  O  O18  1  0.32161422  0.96974529  0.06837885  1.0
  O  O19  1  0.32161422  0.53025471  0.06837885  1.0
  O  O20  1  0.98702381  0.25000000  0.89859815  1.0
  O  O21  1  0.01297619  0.75000000  0.10140185  1.0
  O  O22  1  0.47282847  0.25000000  0.35503502  1.0
  O  O23  1  0.52717153  0.75000000  0.64496498  1.0
