# generated using pymatgen
data_Li7Sn2
_symmetry_space_group_name_H-M   'P 1'
_cell_length_a   8.47985837
_cell_length_b   8.47985837
_cell_length_c   4.70658308
_cell_angle_alpha   90.00000000
_cell_angle_beta   90.00000000
_cell_angle_gamma   109.36800243
_symmetry_Int_Tables_number   1
_chemical_formula_structural   Li7Sn2
_chemical_formula_sum   'Li14 Sn4'
_cell_volume   319.28791955
_cell_formula_units_Z   2
loop_
 _symmetry_equiv_pos_site_id
 _symmetry_equiv_pos_as_xyz
  1  'x, y, z'
loop_
 _atom_site_type_symbol
 _atom_site_label
 _atom_site_symmetry_multiplicity
 _atom_site_fract_x
 _atom_site_fract_y
 _atom_site_fract_z
 _atom_site_occupancy
  Li  Li0  1  0.65511626  0.65511626  0.00000000  1.0
  Li  Li1  1  0.34488374  0.34488374  0.00000000  1.0
  Li  Li2  1  0.17309194  0.82690806  0.50000000  1.0
  Li  Li3  1  -0.17309194  1.17309194  0.50000000  1.0
  Li  Li4  1  -0.02691036  1.65652099  0.00000000  1.0
  Li  Li5  1  0.65652099  0.97308964  0.00000000  1.0
  Li  Li6  1  -0.65652099  1.02691036  0.00000000  1.0
  Li  Li7  1  0.02691036  0.34347901  0.00000000  1.0
  Li  Li8  1  -0.18022689  1.49779874  0.50000000  1.0
  Li  Li9  1  0.49779874  0.81977311  0.50000000  1.0
  Li  Li10  1  -0.49779874  1.18022689  0.50000000  1.0
  Li  Li11  1  0.18022689  0.50220126  0.50000000  1.0
  Li  Li12  1  0.00000000  0.00000000  0.00000000  1.0
  Li  Li13  1  0.50000000  0.50000000  0.50000000  1.0
  Sn  Sn14  1  0.83630196  0.83630196  0.50000000  1.0
  Sn  Sn15  1  0.16369804  0.16369804  0.50000000  1.0
  Sn  Sn16  1  0.31880855  0.68119145  0.00000000  1.0
  Sn  Sn17  1  -0.31880855  1.31880855  0.00000000  1.0
