# generated using pymatgen
data_Lu4Fe
_symmetry_space_group_name_H-M   'P 1'
_cell_length_a   7.26612919
_cell_length_b   7.26612919
_cell_length_c   7.26612919
_cell_angle_alpha   60.00000000
_cell_angle_beta   60.00000000
_cell_angle_gamma   60.00000000
_symmetry_Int_Tables_number   1
_chemical_formula_structural   Lu4Fe
_chemical_formula_sum   'Lu8 Fe2'
_cell_volume   271.26536553
_cell_formula_units_Z   2
loop_
 _symmetry_equiv_pos_site_id
 _symmetry_equiv_pos_as_xyz
  1  'x, y, z'
loop_
 _atom_site_type_symbol
 _atom_site_label
 _atom_site_symmetry_multiplicity
 _atom_site_fract_x
 _atom_site_fract_y
 _atom_site_fract_z
 _atom_site_occupancy
  Lu  Lu0  1  -0.11350556  0.88649444  0.34051668  1.0
  Lu  Lu1  1  0.88649444  -0.65948332  0.88649444  1.0
  Lu  Lu2  1  0.36350556  0.36350556  0.36350556  1.0
  Lu  Lu3  1  -0.09051668  0.36350556  0.36350556  1.0
  Lu  Lu4  1  -0.65948332  0.88649444  0.88649444  1.0
  Lu  Lu5  1  0.88649444  -0.11350556  0.88649444  1.0
  Lu  Lu6  1  0.36350556  -0.09051668  0.36350556  1.0
  Lu  Lu7  1  0.36350556  0.36350556  -0.09051668  1.0
  Fe  Fe8  1  0.50000000  0.50000000  -0.50000000  1.0
  Fe  Fe9  1  0.75000000  -0.25000000  0.75000000  1.0
