# generated using pymatgen
data_BaWO2
_symmetry_space_group_name_H-M   'P 1'
_cell_length_a   7.85347945
_cell_length_b   7.85347945
_cell_length_c   7.85347945
_cell_angle_alpha   130.98648026
_cell_angle_beta   130.98648026
_cell_angle_gamma   71.83455996
_symmetry_Int_Tables_number   1
_chemical_formula_structural   BaWO2
_chemical_formula_sum   'Ba4 W4 O8'
_cell_volume   269.98371980
_cell_formula_units_Z   4
loop_
 _symmetry_equiv_pos_site_id
 _symmetry_equiv_pos_as_xyz
  1  'x, y, z'
loop_
 _atom_site_type_symbol
 _atom_site_label
 _atom_site_symmetry_multiplicity
 _atom_site_fract_x
 _atom_site_fract_y
 _atom_site_fract_z
 _atom_site_occupancy
  Ba  Ba0  1  0.37500000  0.62500000  0.75000000  1.0
  Ba  Ba1  1  0.87500000  0.62500000  1.25000000  1.0
  Ba  Ba2  1  0.37500000  1.12500000  0.75000000  1.0
  Ba  Ba3  1  0.37500000  0.62500000  0.25000000  1.0
  W  W4  1  0.87500000  0.12500000  0.75000000  1.0
  W  W5  1  0.37500000  0.12500000  0.25000000  1.0
  W  W6  1  0.87500000  0.62500000  0.75000000  1.0
  W  W7  1  0.87500000  1.12500000  1.25000000  1.0
  O  O8  1  1.16590454  0.98177764  1.81587421  1.0
  O  O9  1  0.58409657  0.89996968  1.31587421  1.0
  O  O10  1  1.01822236  0.83409657  1.18412689  1.0
  O  O11  1  1.10003032  1.41590454  1.68412689  1.0
  O  O12  1  0.16590343  0.35003032  0.18412579  1.0
  O  O13  1  0.58409546  0.26822236  0.68412579  1.0
  O  O14  1  0.64996968  0.83409546  0.81587311  1.0
  O  O15  1  0.73177764  0.41590343  0.31587311  1.0
