# generated using pymatgen
data_Gd12Ni6Sn
_symmetry_space_group_name_H-M   'P 1'
_cell_length_a   8.51864528
_cell_length_b   8.51864528
_cell_length_c   8.51864528
_cell_angle_alpha   109.47122063
_cell_angle_beta   109.47122063
_cell_angle_gamma   109.47122063
_symmetry_Int_Tables_number   1
_chemical_formula_structural   Gd12Ni6Sn
_chemical_formula_sum   'Gd12 Ni6 Sn1'
_cell_volume   475.87151878
_cell_formula_units_Z   1
loop_
 _symmetry_equiv_pos_site_id
 _symmetry_equiv_pos_as_xyz
  1  'x, y, z'
loop_
 _atom_site_type_symbol
 _atom_site_label
 _atom_site_symmetry_multiplicity
 _atom_site_fract_x
 _atom_site_fract_y
 _atom_site_fract_z
 _atom_site_occupancy
  Gd  Gd0  1  0.81399748  1.30521562  1.11921309  1.0
  Gd  Gd1  1  0.81399748  0.69478438  0.50878186  1.0
  Gd  Gd2  1  0.18600252  0.30521562  0.49121814  1.0
  Gd  Gd3  1  0.18600252  0.69478438  0.88078691  1.0
  Gd  Gd4  1  0.50878186  0.81399748  0.69478438  1.0
  Gd  Gd5  1  1.11921309  0.81399748  1.30521562  1.0
  Gd  Gd6  1  0.69478438  0.88078691  0.18600252  1.0
  Gd  Gd7  1  0.69478438  0.50878186  0.81399748  1.0
  Gd  Gd8  1  0.88078691  0.18600252  0.69478438  1.0
  Gd  Gd9  1  0.49121814  0.18600252  0.30521562  1.0
  Gd  Gd10  1  0.30521562  0.49121814  0.18600252  1.0
  Gd  Gd11  1  1.30521562  1.11921309  0.81399748  1.0
  Ni  Ni12  1  0.87638654  0.37638654  0.50000000  1.0
  Ni  Ni13  1  0.50000000  0.12361346  0.62361346  1.0
  Ni  Ni14  1  0.50000000  0.87638654  0.37638654  1.0
  Ni  Ni15  1  0.37638654  0.50000000  0.87638654  1.0
  Ni  Ni16  1  0.62361346  0.50000000  0.12361346  1.0
  Ni  Ni17  1  0.12361346  0.62361346  0.50000000  1.0
  Sn  Sn18  1  0.00000000  0.00000000  0.00000000  1.0
