# generated using pymatgen
data_YNiPb
_symmetry_space_group_name_H-M   'P 1'
_cell_length_a   7.21152095
_cell_length_b   4.56840178
_cell_length_c   7.84811906
_cell_angle_alpha   90.00000000
_cell_angle_beta   90.00000000
_cell_angle_gamma   90.00000000
_symmetry_Int_Tables_number   1
_chemical_formula_structural   YNiPb
_chemical_formula_sum   'Y4 Ni4 Pb4'
_cell_volume   258.55726460
_cell_formula_units_Z   4
loop_
 _symmetry_equiv_pos_site_id
 _symmetry_equiv_pos_as_xyz
  1  'x, y, z'
loop_
 _atom_site_type_symbol
 _atom_site_label
 _atom_site_symmetry_multiplicity
 _atom_site_fract_x
 _atom_site_fract_y
 _atom_site_fract_z
 _atom_site_occupancy
  Y  Y0  1  0.98816433  0.75000000  0.70318556  1.0
  Y  Y1  1  0.48816433  0.75000000  0.79681444  1.0
  Y  Y2  1  0.01183567  0.25000000  0.29681444  1.0
  Y  Y3  1  0.51183567  0.25000000  0.20318556  1.0
  Ni  Ni4  1  0.70934607  0.75000000  0.41677744  1.0
  Ni  Ni5  1  0.20934607  0.75000000  0.08322256  1.0
  Ni  Ni6  1  0.29065393  0.25000000  0.58322256  1.0
  Ni  Ni7  1  0.79065393  0.25000000  0.91677744  1.0
  Pb  Pb8  1  0.80903533  0.75000000  0.08732208  1.0
  Pb  Pb9  1  0.30903533  0.75000000  0.41267792  1.0
  Pb  Pb10  1  0.19096467  0.25000000  0.91267792  1.0
  Pb  Pb11  1  0.69096467  0.25000000  0.58732208  1.0
