# generated using pymatgen
data_BaBPO5
_symmetry_space_group_name_H-M   'P 1'
_cell_length_a   7.22412551
_cell_length_b   7.22412551
_cell_length_c   7.05225010
_cell_angle_alpha   90.00000000
_cell_angle_beta   90.00000000
_cell_angle_gamma   120.00000000
_symmetry_Int_Tables_number   1
_chemical_formula_structural   BaBPO5
_chemical_formula_sum   'Ba3 B3 P3 O15'
_cell_volume   318.73437442
_cell_formula_units_Z   3
loop_
 _symmetry_equiv_pos_site_id
 _symmetry_equiv_pos_as_xyz
  1  'x, y, z'
loop_
 _atom_site_type_symbol
 _atom_site_label
 _atom_site_symmetry_multiplicity
 _atom_site_fract_x
 _atom_site_fract_y
 _atom_site_fract_z
 _atom_site_occupancy
  Ba  Ba0  1  0.39280328  0.39280328  0.00000000  1.0
  Ba  Ba1  1  -0.00000000  0.60719672  0.66666667  1.0
  Ba  Ba2  1  0.60719672  0.00000000  0.33333333  1.0
  B  B3  1  0.90691617  0.90691617  0.00000000  1.0
  B  B4  1  -0.00000000  0.09308383  0.66666667  1.0
  B  B5  1  0.09308383  0.00000000  0.33333333  1.0
  P  P6  1  0.38822990  0.38822990  0.50000000  1.0
  P  P7  1  0.00000000  0.61177010  0.16666667  1.0
  P  P8  1  0.61177010  0.00000000  0.83333333  1.0
  O  O9  1  0.43066755  0.85710066  0.70006129  1.0
  O  O10  1  0.85710066  0.43066755  0.29993871  1.0
  O  O11  1  0.42643311  0.56933245  0.36672796  1.0
  O  O12  1  0.14289934  0.57356689  0.03339463  1.0
  O  O13  1  0.56933245  0.42643311  0.63327204  1.0
  O  O14  1  0.57356689  0.14289934  0.96660537  1.0
  O  O15  1  0.86104182  0.67918210  0.03542959  1.0
  O  O16  1  0.67918210  0.86104182  0.96457041  1.0
  O  O17  1  0.81814028  0.13895818  0.70209626  1.0
  O  O18  1  0.32081790  0.18185972  0.36876293  1.0
  O  O19  1  0.13895818  0.81814028  0.29790374  1.0
  O  O20  1  0.18185972  0.32081790  0.63123707  1.0
  O  O21  1  0.96080841  0.96080841  0.50000000  1.0
  O  O22  1  0.00000000  0.03919159  0.16666667  1.0
  O  O23  1  0.03919159  0.00000000  0.83333333  1.0
