# generated using pymatgen
data_La3Ni12P7
_symmetry_space_group_name_H-M   'P 1'
_cell_length_a   15.28670434
_cell_length_b   15.28670434
_cell_length_c   11.15167269
_cell_angle_alpha   90.00000000
_cell_angle_beta   90.00000000
_cell_angle_gamma   166.02408864
_symmetry_Int_Tables_number   1
_chemical_formula_structural   La3Ni12P7
_chemical_formula_sum   'La6 Ni24 P14'
_cell_volume   629.37565943
_cell_formula_units_Z   2
loop_
 _symmetry_equiv_pos_site_id
 _symmetry_equiv_pos_as_xyz
  1  'x, y, z'
loop_
 _atom_site_type_symbol
 _atom_site_label
 _atom_site_symmetry_multiplicity
 _atom_site_fract_x
 _atom_site_fract_y
 _atom_site_fract_z
 _atom_site_occupancy
  La  La0  1  -0.87812924  0.87812924  0.17819505  1.0
  La  La1  1  -0.12187076  1.12187076  0.67819505  1.0
  La  La2  1  -0.77187201  0.77187201  0.98150143  1.0
  La  La3  1  -0.22812799  1.22812799  0.48150143  1.0
  La  La4  1  -0.56556342  0.56556342  0.18319597  1.0
  La  La5  1  -0.43443658  1.43443658  0.68319597  1.0
  Ni  Ni6  1  -0.98238134  0.98238134  0.28774992  1.0
  Ni  Ni7  1  -0.01761866  1.01761866  0.78774992  1.0
  Ni  Ni8  1  -0.98185841  0.98185841  0.07474894  1.0
  Ni  Ni9  1  -0.01814159  1.01814159  0.57474894  1.0
  Ni  Ni10  1  -0.88147129  0.88147129  0.49185048  1.0
  Ni  Ni11  1  -0.11852871  1.11852871  0.99185048  1.0
  Ni  Ni12  1  -0.87655581  0.87655581  0.87116055  1.0
  Ni  Ni13  1  -0.12344419  1.12344419  0.37116055  1.0
  Ni  Ni14  1  -0.80542084  0.80542084  0.40580434  1.0
  Ni  Ni15  1  -0.19457916  1.19457916  0.90580434  1.0
  Ni  Ni16  1  -0.67725564  0.67725564  0.28883480  1.0
  Ni  Ni17  1  -0.32274436  1.32274436  0.78883480  1.0
  Ni  Ni18  1  -0.67133211  0.67133211  0.06937668  1.0
  Ni  Ni19  1  -0.32866789  1.32866789  0.56937668  1.0
  Ni  Ni20  1  -0.57646080  0.57646080  0.49155948  1.0
  Ni  Ni21  1  -0.42353920  1.42353920  0.99155948  1.0
  Ni  Ni22  1  -0.49957305  1.49957305  0.43240671  1.0
  Ni  Ni23  1  -0.50042695  0.50042695  0.93240671  1.0
  Ni  Ni24  1  -0.42287504  1.42287504  0.36533785  1.0
  Ni  Ni25  1  -0.57712496  0.57712496  0.86533785  1.0
  Ni  Ni26  1  -0.29512142  1.29512142  0.25253686  1.0
  Ni  Ni27  1  -0.70487858  0.70487858  0.75253686  1.0
  Ni  Ni28  1  -0.22061701  1.22061701  0.16817150  1.0
  Ni  Ni29  1  -0.77938299  0.77938299  0.66817150  1.0
  P  P30  1  -0.95324137  0.95324137  0.47015187  1.0
  P  P31  1  -0.04675863  1.04675863  0.97015187  1.0
  P  P32  1  -0.95126595  0.95126595  0.89145666  1.0
  P  P33  1  -0.04873405  1.04873405  0.39145666  1.0
  P  P34  1  -0.85167786  0.85167786  0.67901173  1.0
  P  P35  1  -0.14832214  1.14832214  0.17901173  1.0
  P  P36  1  -0.75254306  0.75254306  0.26109058  1.0
  P  P37  1  -0.24745694  1.24745694  0.76109058  1.0
  P  P38  1  -0.64920176  0.64920176  0.47290005  1.0
  P  P39  1  -0.35079824  1.35079824  -0.02709995  1.0
  P  P40  1  -0.45847006  1.45847006  0.17983371  1.0
  P  P41  1  -0.54152994  0.54152994  0.67983371  1.0
  P  P42  1  -0.35022426  1.35022426  0.38372483  1.0
  P  P43  1  -0.64977574  0.64977574  0.88372483  1.0
