# generated using pymatgen
data_TaSe2
_symmetry_space_group_name_H-M   'P 1'
_cell_length_a   13.48791049
_cell_length_b   13.48791049
_cell_length_c   13.48791049
_cell_angle_alpha   14.82075847
_cell_angle_beta   14.82075847
_cell_angle_gamma   14.82075847
_symmetry_Int_Tables_number   1
_chemical_formula_structural   TaSe2
_chemical_formula_sum   'Ta2 Se4'
_cell_volume   139.81922602
_cell_formula_units_Z   2
loop_
 _symmetry_equiv_pos_site_id
 _symmetry_equiv_pos_as_xyz
  1  'x, y, z'
loop_
 _atom_site_type_symbol
 _atom_site_label
 _atom_site_symmetry_multiplicity
 _atom_site_fract_x
 _atom_site_fract_y
 _atom_site_fract_z
 _atom_site_occupancy
  Ta  Ta0  1  0.62480606  0.62480606  -0.37519394  1.0
  Ta  Ta1  1  0.45851589  0.45851589  -0.54148411  1.0
  Se  Se2  1  -0.00008985  -0.00008985  -0.00008985  1.0
  Se  Se3  1  0.91646328  -0.08353672  -0.08353672  1.0
  Se  Se4  1  0.75030293  -0.24969707  -0.24969707  1.0
  Se  Se5  1  0.16670169  0.16670169  0.16670169  1.0
