# generated using pymatgen
data_SiO2
_symmetry_space_group_name_H-M   'P 1'
_cell_length_a   12.94854950
_cell_length_b   10.69019553
_cell_length_c   8.10280573
_cell_angle_alpha   85.93829387
_cell_angle_beta   55.43838421
_cell_angle_gamma   38.62332192
_symmetry_Int_Tables_number   1
_chemical_formula_structural   SiO2
_chemical_formula_sum   'Si8 O16'
_cell_volume   397.45338988
_cell_formula_units_Z   8
loop_
 _symmetry_equiv_pos_site_id
 _symmetry_equiv_pos_as_xyz
  1  'x, y, z'
loop_
 _atom_site_type_symbol
 _atom_site_label
 _atom_site_symmetry_multiplicity
 _atom_site_fract_x
 _atom_site_fract_y
 _atom_site_fract_z
 _atom_site_occupancy
  Si  Si0  1  1.23690535  0.62788673  0.39090214  1.0
  Si  Si1  1  0.39090214  0.74430579  1.23690535  1.0
  Si  Si2  1  1.01309465  0.62211327  0.85909786  1.0
  Si  Si3  1  0.85909786  0.50569421  1.01309465  1.0
  Si  Si4  1  0.74430579  0.39090214  0.62788673  1.0
  Si  Si5  1  0.62788673  1.23690535  0.74430579  1.0
  Si  Si6  1  0.50569421  0.85909786  0.62211327  1.0
  Si  Si7  1  0.62211327  1.01309465  0.50569421  1.0
  O  O8  1  0.62871266  -0.62871266  0.62871266  1.0
  O  O9  1  0.62128734  0.87871266  0.62128734  1.0
  O  O10  1  0.37128734  -0.37128734  1.37128734  1.0
  O  O11  1  0.87871266  0.62128734  0.87871266  1.0
  O  O12  1  0.95038330  0.95038330  0.54961670  1.0
  O  O13  1  0.54961670  0.54961670  0.95038330  1.0
  O  O14  1  0.29961670  1.29961670  -0.29961670  1.0
  O  O15  1  0.70038330  0.70038330  -0.70038330  1.0
  O  O16  1  1.41248774  0.41248774  0.08751226  1.0
  O  O17  1  1.08751226  0.08751226  0.41248774  1.0
  O  O18  1  0.83751226  0.83751226  -0.83751226  1.0
  O  O19  1  0.16248774  1.16248774  -0.16248774  1.0
  O  O20  1  1.12500000  0.62500000  0.62500000  1.0
  O  O21  1  0.62500000  0.62500000  1.12500000  1.0
  O  O22  1  0.62500000  0.62500000  0.62500000  1.0
  O  O23  1  0.62500000  1.12500000  0.62500000  1.0
