# generated using pymatgen
data_Cs2TlCl5O
_symmetry_space_group_name_H-M   'P 1'
_cell_length_a   14.85622198
_cell_length_b   11.23333978
_cell_length_c   7.55345752
_cell_angle_alpha   90.00000000
_cell_angle_beta   90.00000000
_cell_angle_gamma   90.00000000
_symmetry_Int_Tables_number   1
_chemical_formula_structural   Cs2TlCl5O
_chemical_formula_sum   'Cs8 Tl4 Cl20 O4'
_cell_volume   1260.55867735
_cell_formula_units_Z   4
loop_
 _symmetry_equiv_pos_site_id
 _symmetry_equiv_pos_as_xyz
  1  'x, y, z'
loop_
 _atom_site_type_symbol
 _atom_site_label
 _atom_site_symmetry_multiplicity
 _atom_site_fract_x
 _atom_site_fract_y
 _atom_site_fract_z
 _atom_site_occupancy
  Cl  Cl0  1  1.00543471  0.25000000  0.03618587  1.0
  Cl  Cl1  1  0.50543471  0.25000000  0.46381413  1.0
  Cl  Cl2  1  -0.00543471  0.75000000  0.96381413  1.0
  Cl  Cl3  1  0.49456529  0.75000000  0.53618587  1.0
  Cl  Cl4  1  0.89469073  0.47859047  0.30400021  1.0
  Cl  Cl5  1  0.89469073  0.02140953  0.30400021  1.0
  Cl  Cl6  1  0.39469073  0.47859047  0.19599979  1.0
  Cl  Cl7  1  0.39469073  0.02140953  0.19599979  1.0
  Cl  Cl8  1  0.10530927  0.97859047  0.69599979  1.0
  Cl  Cl9  1  0.10530927  0.52140953  0.69599979  1.0
  Cl  Cl10  1  0.60530927  0.97859047  0.80400021  1.0
  Cl  Cl11  1  0.60530927  0.52140953  0.80400021  1.0
  Cl  Cl12  1  0.72420013  0.25000000  0.57302467  1.0
  Cl  Cl13  1  0.22420013  0.25000000  0.92697533  1.0
  Cl  Cl14  1  0.27579987  0.75000000  0.42697533  1.0
  Cl  Cl15  1  0.77579987  0.75000000  0.07302467  1.0
  Cl  Cl16  1  0.73996316  0.25000000  0.07881469  1.0
  Cl  Cl17  1  0.23996316  0.25000000  0.42118531  1.0
  Cl  Cl18  1  0.26003684  0.75000000  0.92118531  1.0
  Cl  Cl19  1  0.76003684  0.75000000  0.57881469  1.0
  O  O20  1  0.83824258  0.25000000  0.56153007  1.0
  O  O21  1  0.33824258  0.25000000  -0.06153007  1.0
  O  O22  1  0.16175742  0.75000000  0.43846993  1.0
  O  O23  1  0.66175742  0.75000000  0.06153007  1.0
  Cs  Cs24  1  0.63425368  0.51564062  0.29147836  1.0
  Cs  Cs25  1  0.63425368  -0.01564062  0.29147836  1.0
  Cs  Cs26  1  0.13425368  0.51564062  0.20852164  1.0
  Cs  Cs27  1  0.13425368  -0.01564062  0.20852164  1.0
  Cs  Cs28  1  0.36574632  0.01564062  0.70852164  1.0
  Cs  Cs29  1  0.36574632  0.48435938  0.70852164  1.0
  Cs  Cs30  1  0.86574632  0.01564062  0.79147836  1.0
  Cs  Cs31  1  0.86574632  0.48435938  0.79147836  1.0
  Tl  Tl32  1  0.88045253  0.25000000  0.27215997  1.0
  Tl  Tl33  1  0.38045253  0.25000000  0.22784003  1.0
  Tl  Tl34  1  0.11954747  0.75000000  0.72784003  1.0
  Tl  Tl35  1  0.61954747  0.75000000  0.77215997  1.0
