# generated using pymatgen
data_LiIn(CN2)2
_symmetry_space_group_name_H-M   'P 1'
_cell_length_a   9.60832502
_cell_length_b   6.88284607
_cell_length_c   5.94520489
_cell_angle_alpha   90.00000000
_cell_angle_beta   90.00000000
_cell_angle_gamma   90.00000000
_symmetry_Int_Tables_number   1
_chemical_formula_structural   LiIn(CN2)2
_chemical_formula_sum   'Li4 In4 C8 N16'
_cell_volume   393.17198791
_cell_formula_units_Z   4
loop_
 _symmetry_equiv_pos_site_id
 _symmetry_equiv_pos_as_xyz
  1  'x, y, z'
loop_
 _atom_site_type_symbol
 _atom_site_label
 _atom_site_symmetry_multiplicity
 _atom_site_fract_x
 _atom_site_fract_y
 _atom_site_fract_z
 _atom_site_occupancy
  Li  Li0  1  0.00000000  0.60671489  0.75000000  1.0
  Li  Li1  1  0.00000000  0.39328511  0.25000000  1.0
  Li  Li2  1  0.50000000  0.10671489  0.75000000  1.0
  Li  Li3  1  0.50000000  0.89328511  0.25000000  1.0
  In  In4  1  0.00000000  0.13116263  0.75000000  1.0
  In  In5  1  0.00000000  0.86883737  0.25000000  1.0
  In  In6  1  0.50000000  0.63116263  0.75000000  1.0
  In  In7  1  0.50000000  0.36883737  0.25000000  1.0
  C  C8  1  0.74950797  0.87871958  0.58235598  1.0
  C  C9  1  0.74950797  0.12128042  0.08235598  1.0
  C  C10  1  0.24950797  0.37871958  0.91764402  1.0
  C  C11  1  0.24950797  0.62128042  0.41764402  1.0
  C  C12  1  0.25049203  0.87871958  0.91764402  1.0
  C  C13  1  0.25049203  0.12128042  0.41764402  1.0
  C  C14  1  0.75049203  0.37871958  0.58235598  1.0
  C  C15  1  0.75049203  0.62128042  0.08235598  1.0
  N  N16  1  0.87866973  0.89017273  0.57300376  1.0
  N  N17  1  0.87866973  0.10982727  0.07300376  1.0
  N  N18  1  0.37866973  0.39017273  0.92699624  1.0
  N  N19  1  0.37866973  0.60982727  0.42699624  1.0
  N  N20  1  0.12133027  0.89017273  0.92699624  1.0
  N  N21  1  0.12133027  0.10982727  0.42699624  1.0
  N  N22  1  0.62133027  0.39017273  0.57300376  1.0
  N  N23  1  0.62133027  0.60982727  0.07300376  1.0
  N  N24  1  0.62276613  0.87061136  0.59059956  1.0
  N  N25  1  0.62276613  0.12938864  0.09059956  1.0
  N  N26  1  0.12276613  0.37061136  0.90940044  1.0
  N  N27  1  0.12276613  0.62938864  0.40940044  1.0
  N  N28  1  0.37723387  0.87061136  0.90940044  1.0
  N  N29  1  0.37723387  0.12938864  0.40940044  1.0
  N  N30  1  0.87723387  0.37061136  0.59059956  1.0
  N  N31  1  0.87723387  0.62938864  0.09059956  1.0
