# generated using pymatgen
data_CeC2
_symmetry_space_group_name_H-M   'P 1'
_cell_length_a   4.13967961
_cell_length_b   4.13967961
_cell_length_c   4.13967961
_cell_angle_alpha   125.68908366
_cell_angle_beta   125.68908366
_cell_angle_gamma   80.39975544
_symmetry_Int_Tables_number   1
_chemical_formula_structural   CeC2
_chemical_formula_sum   'Ce1 C2'
_cell_volume   45.14833380
_cell_formula_units_Z   1
loop_
 _symmetry_equiv_pos_site_id
 _symmetry_equiv_pos_as_xyz
  1  'x, y, z'
loop_
 _atom_site_type_symbol
 _atom_site_label
 _atom_site_symmetry_multiplicity
 _atom_site_fract_x
 _atom_site_fract_y
 _atom_site_fract_z
 _atom_site_occupancy
  Ce  Ce0  1  0.00000000  0.00000000  0.00000000  1.0
  C  C1  1  0.60363956  0.60363956  1.00000000  1.0
  C  C2  1  0.39636044  0.39636044  0.00000000  1.0
