# generated using pymatgen
data_Na3CrO4
_symmetry_space_group_name_H-M   'P 1'
_cell_length_a   7.71564704
_cell_length_b   7.71564704
_cell_length_c   7.71564704
_cell_angle_alpha   90.00000000
_cell_angle_beta   90.00000000
_cell_angle_gamma   90.00000000
_symmetry_Int_Tables_number   1
_chemical_formula_structural   Na3CrO4
_chemical_formula_sum   'Na12 Cr4 O16'
_cell_volume   459.32179779
_cell_formula_units_Z   4
loop_
 _symmetry_equiv_pos_site_id
 _symmetry_equiv_pos_as_xyz
  1  'x, y, z'
loop_
 _atom_site_type_symbol
 _atom_site_label
 _atom_site_symmetry_multiplicity
 _atom_site_fract_x
 _atom_site_fract_y
 _atom_site_fract_z
 _atom_site_occupancy
  Na  Na0  1  0.51921795  0.01921795  0.48078205  1.0
  Na  Na1  1  0.01921795  0.48078205  0.51921795  1.0
  Na  Na2  1  0.48078205  0.51921795  0.01921795  1.0
  Na  Na3  1  -0.01921795  -0.01921795  -0.01921795  1.0
  Na  Na4  1  0.28931899  0.78931899  0.71068101  1.0
  Na  Na5  1  0.78931899  0.71068101  0.28931899  1.0
  Na  Na6  1  0.71068101  0.28931899  0.78931899  1.0
  Na  Na7  1  0.21068101  0.21068101  0.21068101  1.0
  Na  Na8  1  0.76596821  0.26596821  0.23403179  1.0
  Na  Na9  1  0.26596821  0.23403179  0.76596821  1.0
  Na  Na10  1  0.23403179  0.76596821  0.26596821  1.0
  Na  Na11  1  0.73403179  0.73403179  0.73403179  1.0
  Cr  Cr12  1  0.99506463  0.49506463  0.00493537  1.0
  Cr  Cr13  1  0.49506463  0.00493537  0.99506463  1.0
  Cr  Cr14  1  0.00493537  0.99506463  0.49506463  1.0
  Cr  Cr15  1  0.50493537  0.50493537  0.50493537  1.0
  O  O16  1  0.54178234  0.97325515  0.77928406  1.0
  O  O17  1  1.04178234  0.52674485  0.22071594  1.0
  O  O18  1  0.47325515  0.72071594  0.45821766  1.0
  O  O19  1  0.97325515  0.77928406  0.54178234  1.0
  O  O20  1  0.22071594  1.04178234  0.52674485  1.0
  O  O21  1  0.72071594  0.45821766  0.47325515  1.0
  O  O22  1  0.45821766  0.47325515  0.72071594  1.0
  O  O23  1  -0.04178234  0.02674485  0.27928406  1.0
  O  O24  1  0.52674485  0.22071594  1.04178234  1.0
  O  O25  1  0.02674485  0.27928406  -0.04178234  1.0
  O  O26  1  0.77928406  0.54178234  0.97325515  1.0
  O  O27  1  0.27928406  -0.04178234  0.02674485  1.0
  O  O28  1  0.12060045  0.62060045  0.87939955  1.0
  O  O29  1  0.62060045  0.87939955  0.12060045  1.0
  O  O30  1  0.87939955  0.12060045  0.62060045  1.0
  O  O31  1  0.37939955  0.37939955  0.37939955  1.0
