# generated using pymatgen
data_In2Ni3S2
_symmetry_space_group_name_H-M   'P 1'
_cell_length_a   5.43685993
_cell_length_b   5.43685993
_cell_length_c   5.52679796
_cell_angle_alpha   60.55414188
_cell_angle_beta   119.44585812
_cell_angle_gamma   119.97319438
_symmetry_Int_Tables_number   1
_chemical_formula_structural   In2Ni3S2
_chemical_formula_sum   'In2 Ni3 S2'
_cell_volume   116.50148994
_cell_formula_units_Z   1
loop_
 _symmetry_equiv_pos_site_id
 _symmetry_equiv_pos_as_xyz
  1  'x, y, z'
loop_
 _atom_site_type_symbol
 _atom_site_label
 _atom_site_symmetry_multiplicity
 _atom_site_fract_x
 _atom_site_fract_y
 _atom_site_fract_z
 _atom_site_occupancy
  In  In0  1  -0.00000000  0.00000000  0.50000000  1.0
  In  In1  1  0.50000000  0.50000000  -0.00000000  1.0
  Ni  Ni2  1  1.50000000  0.00000000  0.00000000  1.0
  Ni  Ni3  1  1.00000000  0.50000000  -0.00000000  1.0
  Ni  Ni4  1  0.00000000  0.00000000  0.00000000  1.0
  S  S5  1  0.72365920  0.27634080  0.67109526  1.0
  S  S6  1  1.27634080  -0.27634080  0.32890474  1.0
