# generated using pymatgen
data_BaYCo4O7
_symmetry_space_group_name_H-M   'P 1'
_cell_length_a   6.30644342
_cell_length_b   6.30644342
_cell_length_c   10.26417373
_cell_angle_alpha   90.00000000
_cell_angle_beta   90.00000000
_cell_angle_gamma   120.00000000
_symmetry_Int_Tables_number   1
_chemical_formula_structural   BaYCo4O7
_chemical_formula_sum   'Ba2 Y2 Co8 O14'
_cell_volume   353.52785081
_cell_formula_units_Z   2
loop_
 _symmetry_equiv_pos_site_id
 _symmetry_equiv_pos_as_xyz
  1  'x, y, z'
loop_
 _atom_site_type_symbol
 _atom_site_label
 _atom_site_symmetry_multiplicity
 _atom_site_fract_x
 _atom_site_fract_y
 _atom_site_fract_z
 _atom_site_occupancy
  Ba  Ba0  1  0.33333333  0.66666667  0.45017353  1.0
  Ba  Ba1  1  0.66666667  0.33333333  0.95017353  1.0
  Y  Y2  1  0.33333333  0.66666667  0.06407856  1.0
  Y  Y3  1  0.66666667  0.33333333  0.56407856  1.0
  Co  Co4  1  0.32143164  0.16071582  0.24372923  1.0
  Co  Co5  1  0.16071582  0.32143164  0.74372923  1.0
  Co  Co6  1  0.16071582  0.83928418  0.74372923  1.0
  Co  Co7  1  0.83928418  0.16071582  0.24372923  1.0
  Co  Co8  1  0.83928418  0.67856836  0.24372923  1.0
  Co  Co9  1  0.67856836  0.83928418  0.74372923  1.0
  Co  Co10  1  0.00000000  0.00000000  -0.05207155  1.0
  Co  Co11  1  0.00000000  0.00000000  0.44792845  1.0
  O  O12  1  -0.01403228  0.49298386  0.18107141  1.0
  O  O13  1  0.49298386  -0.01403228  0.68107141  1.0
  O  O14  1  0.49298386  0.50701614  0.68107141  1.0
  O  O15  1  0.50701614  0.49298386  0.18107141  1.0
  O  O16  1  0.50701614  1.01403228  0.18107141  1.0
  O  O17  1  1.01403228  0.50701614  0.68107141  1.0
  O  O18  1  0.34082031  0.17041016  0.42979586  1.0
  O  O19  1  0.17041016  0.34082031  0.92979586  1.0
  O  O20  1  0.17041016  0.82958984  0.92979586  1.0
  O  O21  1  0.82958984  0.17041016  0.42979586  1.0
  O  O22  1  0.82958984  0.65917969  0.42979586  1.0
  O  O23  1  0.65917969  0.82958984  0.92979586  1.0
  O  O24  1  0.00000000  0.00000000  0.15792995  1.0
  O  O25  1  0.00000000  0.00000000  0.65792995  1.0
