# generated using pymatgen
data_Gd3InS6
_symmetry_space_group_name_H-M   'P 1'
_cell_length_a   13.63744202
_cell_length_b   16.61645391
_cell_length_c   3.89979060
_cell_angle_alpha   90.00000000
_cell_angle_beta   90.00000000
_cell_angle_gamma   90.00000000
_symmetry_Int_Tables_number   1
_chemical_formula_structural   Gd3InS6
_chemical_formula_sum   'Gd12 In4 S24'
_cell_volume   883.71566234
_cell_formula_units_Z   4
loop_
 _symmetry_equiv_pos_site_id
 _symmetry_equiv_pos_as_xyz
  1  'x, y, z'
loop_
 _atom_site_type_symbol
 _atom_site_label
 _atom_site_symmetry_multiplicity
 _atom_site_fract_x
 _atom_site_fract_y
 _atom_site_fract_z
 _atom_site_occupancy
  Gd  Gd0  1  0.18917641  0.64505409  0.50000000  1.0
  Gd  Gd1  1  0.68917641  0.85494591  0.00000000  1.0
  Gd  Gd2  1  0.81082359  0.35494591  0.50000000  1.0
  Gd  Gd3  1  0.31082359  0.14505409  0.00000000  1.0
  Gd  Gd4  1  0.96113682  0.77588149  0.50000000  1.0
  Gd  Gd5  1  0.46113682  0.72411851  0.00000000  1.0
  Gd  Gd6  1  0.03886318  0.22411851  0.50000000  1.0
  Gd  Gd7  1  0.53886318  0.27588149  0.00000000  1.0
  Gd  Gd8  1  0.74830459  0.60782158  0.50000000  1.0
  Gd  Gd9  1  0.24830459  0.89217842  0.00000000  1.0
  Gd  Gd10  1  0.25169541  0.39217842  0.50000000  1.0
  Gd  Gd11  1  0.75169541  0.10782158  0.00000000  1.0
  In  In12  1  0.50000000  0.00000000  0.50000000  1.0
  In  In13  1  0.00000000  0.50000000  0.00000000  1.0
  In  In14  1  0.50000000  0.50000000  0.50000000  1.0
  In  In15  1  0.00000000  0.00000000  0.00000000  1.0
  S  S16  1  0.38767375  0.24571025  0.50000000  1.0
  S  S17  1  0.88767375  0.25428975  -0.00000000  1.0
  S  S18  1  0.61232625  0.75428975  0.50000000  1.0
  S  S19  1  0.11232625  0.74571025  -0.00000000  1.0
  S  S20  1  0.38867756  0.61763565  0.50000000  1.0
  S  S21  1  0.88867756  0.88236435  -0.00000000  1.0
  S  S22  1  0.61132244  0.38236435  0.50000000  1.0
  S  S23  1  0.11132244  0.11763565  -0.00000000  1.0
  S  S24  1  0.30783741  0.01991962  0.50000000  1.0
  S  S25  1  0.80783741  0.48008038  -0.00000000  1.0
  S  S26  1  0.69216259  0.98008038  0.50000000  1.0
  S  S27  1  0.19216259  0.51991962  -0.00000000  1.0
  S  S28  1  0.31841797  0.78631322  0.50000000  1.0
  S  S29  1  0.81841797  0.71368678  0.00000000  1.0
  S  S30  1  0.68158203  0.21368678  0.50000000  1.0
  S  S31  1  0.18158203  0.28631322  0.00000000  1.0
  S  S32  1  0.09602397  0.91336665  0.50000000  1.0
  S  S33  1  0.59602397  0.58663335  0.00000000  1.0
  S  S34  1  0.90397603  0.08663335  0.50000000  1.0
  S  S35  1  0.40397603  0.41336665  0.00000000  1.0
  S  S36  1  0.97966375  0.60460711  0.50000000  1.0
  S  S37  1  0.47966375  0.89539289  -0.00000000  1.0
  S  S38  1  0.02033625  0.39539289  0.50000000  1.0
  S  S39  1  0.52033625  0.10460711  -0.00000000  1.0
