# generated using pymatgen
data_Sr(Mo3S4)2
_symmetry_space_group_name_H-M   'P 1'
_cell_length_a   6.60887220
_cell_length_b   6.60887220
_cell_length_c   6.60887220
_cell_angle_alpha   89.13097856
_cell_angle_beta   89.13097856
_cell_angle_gamma   89.13097856
_symmetry_Int_Tables_number   1
_chemical_formula_structural   Sr(Mo3S4)2
_chemical_formula_sum   'Sr1 Mo6 S8'
_cell_volume   288.55836943
_cell_formula_units_Z   1
loop_
 _symmetry_equiv_pos_site_id
 _symmetry_equiv_pos_as_xyz
  1  'x, y, z'
loop_
 _atom_site_type_symbol
 _atom_site_label
 _atom_site_symmetry_multiplicity
 _atom_site_fract_x
 _atom_site_fract_y
 _atom_site_fract_z
 _atom_site_occupancy
  Sr  Sr0  1  0.00000000  0.00000000  0.00000000  1.0
  Mo  Mo1  1  0.43774034  0.58255372  -0.22982794  1.0
  Mo  Mo2  1  0.41744628  0.22982794  -0.43774034  1.0
  Mo  Mo3  1  0.22982794  0.56225966  -0.58255372  1.0
  Mo  Mo4  1  0.56225966  0.41744628  -0.77017206  1.0
  Mo  Mo5  1  0.58255372  0.77017206  -0.56225966  1.0
  Mo  Mo6  1  0.77017206  0.43774034  -0.41744628  1.0
  S  S7  1  0.87385223  0.61557410  -0.73930357  1.0
  S  S8  1  0.38442590  0.73930357  -0.87385223  1.0
  S  S9  1  0.73930357  0.12614777  -0.61557410  1.0
  S  S10  1  0.12614777  0.38442590  -0.26069643  1.0
  S  S11  1  0.61557410  0.26069643  -0.12614777  1.0
  S  S12  1  0.26069643  0.87385223  -0.38442590  1.0
  S  S13  1  0.75446580  0.75446580  -0.24553420  1.0
  S  S14  1  1.24553420  1.24553420  0.24553420  1.0
