# generated using pymatgen
data_Mg3(SiO3)4
_symmetry_space_group_name_H-M   'P 1'
_cell_length_a   5.36088082
_cell_length_b   5.36088082
_cell_length_c   20.27687153
_cell_angle_alpha   87.85984114
_cell_angle_beta   92.14015886
_cell_angle_gamma   60.34260191
_symmetry_Int_Tables_number   1
_chemical_formula_structural   Mg3(SiO3)4
_chemical_formula_sum   'Mg6 Si8 O24'
_cell_volume   504.99916683
_cell_formula_units_Z   2
loop_
 _symmetry_equiv_pos_site_id
 _symmetry_equiv_pos_as_xyz
  1  'x, y, z'
loop_
 _atom_site_type_symbol
 _atom_site_label
 _atom_site_symmetry_multiplicity
 _atom_site_fract_x
 _atom_site_fract_y
 _atom_site_fract_z
 _atom_site_occupancy
  Mg  Mg0  1  1.67699491  0.14653443  -0.00007763  1.0
  Mg  Mg1  1  0.85346557  -0.67699491  0.49992237  1.0
  Mg  Mg2  1  1.14653443  0.67699491  0.50007763  1.0
  Mg  Mg3  1  0.32300509  -0.14653443  0.00007763  1.0
  Mg  Mg4  1  1.50000000  -0.00000000  0.50000000  1.0
  Mg  Mg5  1  1.00000000  -0.50000000  -0.00000000  1.0
  O  O6  1  0.70623285  -0.03967485  0.16421573  1.0
  O  O7  1  1.03967485  0.29376715  0.66421573  1.0
  O  O8  1  0.96032515  -0.29376715  0.33578427  1.0
  O  O9  1  1.29376715  0.03967485  0.83578427  1.0
  O  O10  1  1.81930288  0.00715139  0.44412305  1.0
  O  O11  1  0.99284861  -0.81930288  0.94412305  1.0
  O  O12  1  1.00715139  0.81930288  0.05587695  1.0
  O  O13  1  0.18069712  -0.00715139  0.55587695  1.0
  O  O14  1  0.65780942  -0.15054188  0.94412263  1.0
  O  O15  1  1.15054188  0.34219058  0.44412263  1.0
  O  O16  1  0.84945812  -0.34219058  0.55587737  1.0
  O  O17  1  1.34219058  0.15054188  0.05587737  1.0
  O  O18  1  0.21150616  -0.05052643  0.16440766  1.0
  O  O19  1  1.05052643  0.78849384  0.66440766  1.0
  O  O20  1  0.94947357  -0.78849384  0.33559234  1.0
  O  O21  1  1.78849384  0.05052643  0.83559234  1.0
  O  O22  1  1.45485972  0.20072282  0.33620081  1.0
  O  O23  1  0.79927718  -0.45485972  0.83620081  1.0
  O  O24  1  1.20072282  0.45485972  0.16379919  1.0
  O  O25  1  0.54514028  -0.20072282  0.66379919  1.0
  O  O26  1  0.48930691  -0.33895046  0.45842908  1.0
  O  O27  1  1.33895046  0.51069309  0.95842908  1.0
  O  O28  1  0.66104954  -0.51069309  0.04157092  1.0
  O  O29  1  1.51069309  0.33895046  0.54157092  1.0
  Si  Si30  1  1.79556885  0.03163612  0.36260221  1.0
  Si  Si31  1  0.96836388  -0.79556885  0.86260221  1.0
  Si  Si32  1  1.03163612  0.79556885  0.13739779  1.0
  Si  Si33  1  0.20443115  -0.03163612  0.63739779  1.0
  Si  Si34  1  1.36591589  0.12898979  0.13740028  1.0
  Si  Si35  1  0.87101021  -0.36591589  0.63740028  1.0
  Si  Si36  1  1.12898979  0.36591589  0.36259972  1.0
  Si  Si37  1  0.63408411  -0.12898979  0.86259972  1.0
