# generated using pymatgen
data_Na2TiSi4H4O13
_symmetry_space_group_name_H-M   'P 1'
_cell_length_a   7.43090940
_cell_length_b   7.43090940
_cell_length_c   10.89500705
_cell_angle_alpha   90.00000000
_cell_angle_beta   90.00000000
_cell_angle_gamma   90.00000000
_symmetry_Int_Tables_number   1
_chemical_formula_structural   Na2TiSi4H4O13
_chemical_formula_sum   'Na4 Ti2 Si8 H8 O26'
_cell_volume   601.60501597
_cell_formula_units_Z   2
loop_
 _symmetry_equiv_pos_site_id
 _symmetry_equiv_pos_as_xyz
  1  'x, y, z'
loop_
 _atom_site_type_symbol
 _atom_site_label
 _atom_site_symmetry_multiplicity
 _atom_site_fract_x
 _atom_site_fract_y
 _atom_site_fract_z
 _atom_site_occupancy
  Na  Na0  1  0.50000000  0.50000000  0.83162710  1.0
  Na  Na1  1  0.00000000  0.00000000  0.16837290  1.0
  Na  Na2  1  0.50000000  0.50000000  0.16837290  1.0
  Na  Na3  1  0.00000000  0.00000000  0.83162710  1.0
  Ti  Ti4  1  0.50000000  0.00000000  0.77915157  1.0
  Ti  Ti5  1  0.00000000  0.50000000  0.22084843  1.0
  Si  Si6  1  0.18063945  0.74080096  0.64411886  1.0
  Si  Si7  1  0.68063945  0.75919904  0.35588114  1.0
  Si  Si8  1  0.25919904  0.81936055  0.35588114  1.0
  Si  Si9  1  0.75919904  0.68063945  0.64411886  1.0
  Si  Si10  1  0.81936055  0.25919904  0.64411886  1.0
  Si  Si11  1  0.31936055  0.24080096  0.35588114  1.0
  Si  Si12  1  0.74080096  0.18063945  0.35588114  1.0
  Si  Si13  1  0.24080096  0.31936055  0.64411886  1.0
  H  H14  1  0.37196710  0.77821942  0.98583661  1.0
  H  H15  1  0.87196710  0.72178058  0.01416339  1.0
  H  H16  1  0.22178058  0.62803290  0.01416339  1.0
  H  H17  1  0.72178058  0.87196710  0.98583661  1.0
  H  H18  1  0.62803290  0.22178058  0.98583661  1.0
  H  H19  1  0.12803290  0.27821942  0.01416339  1.0
  H  H20  1  0.77821942  0.37196710  0.01416339  1.0
  H  H21  1  0.27821942  0.12803290  0.98583661  1.0
  O  O22  1  0.27137016  0.88367070  0.73604395  1.0
  O  O23  1  0.77137016  0.61632930  0.26395605  1.0
  O  O24  1  0.11632930  0.72862984  0.26395605  1.0
  O  O25  1  0.61632930  0.77137016  0.73604395  1.0
  O  O26  1  0.72862984  0.11632930  0.73604395  1.0
  O  O27  1  0.22862984  0.38367070  0.26395605  1.0
  O  O28  1  0.88367070  0.27137016  0.26395605  1.0
  O  O29  1  0.38367070  0.22862984  0.73604395  1.0
  O  O30  1  0.25219742  0.53643768  0.67333179  1.0
  O  O31  1  0.75219742  0.96356232  0.32666821  1.0
  O  O32  1  0.46356232  0.74780258  0.32666821  1.0
  O  O33  1  0.96356232  0.75219742  0.67333179  1.0
  O  O34  1  0.74780258  0.46356232  0.67333179  1.0
  O  O35  1  0.24780258  0.03643768  0.32666821  1.0
  O  O36  1  0.53643768  0.25219742  0.32666821  1.0
  O  O37  1  0.03643768  0.24780258  0.67333179  1.0
  O  O38  1  0.21486765  0.78513235  0.50000000  1.0
  O  O39  1  0.71486765  0.71486765  0.50000000  1.0
  O  O40  1  0.78513235  0.21486765  0.50000000  1.0
  O  O41  1  0.28513235  0.28513235  0.50000000  1.0
  O  O42  1  0.35134379  0.64865621  0.00000000  1.0
  O  O43  1  0.85134379  0.85134379  0.00000000  1.0
  O  O44  1  0.64865621  0.35134379  0.00000000  1.0
  O  O45  1  0.14865621  0.14865621  0.00000000  1.0
  O  O46  1  0.50000000  0.00000000  0.93785223  1.0
  O  O47  1  0.00000000  0.50000000  0.06214777  1.0
