# generated using pymatgen
data_H8Pd(NCl3)2
_symmetry_space_group_name_H-M   'P 1'
_cell_length_a   7.07626318
_cell_length_b   7.07626318
_cell_length_c   7.07626318
_cell_angle_alpha   60.00000000
_cell_angle_beta   60.00000000
_cell_angle_gamma   60.00000000
_symmetry_Int_Tables_number   1
_chemical_formula_structural   H8Pd(NCl3)2
_chemical_formula_sum   'H8 Pd1 N2 Cl6'
_cell_volume   250.55145663
_cell_formula_units_Z   1
loop_
 _symmetry_equiv_pos_site_id
 _symmetry_equiv_pos_as_xyz
  1  'x, y, z'
loop_
 _atom_site_type_symbol
 _atom_site_label
 _atom_site_symmetry_multiplicity
 _atom_site_fract_x
 _atom_site_fract_y
 _atom_site_fract_z
 _atom_site_occupancy
  H  H0  1  0.69051506  0.69051506  -0.30948494  1.0
  H  H1  1  1.30948494  0.30948494  0.07154517  1.0
  H  H2  1  1.30948494  0.07154517  0.30948494  1.0
  H  H3  1  0.92845483  0.69051506  -0.30948494  1.0
  H  H4  1  1.07154517  0.30948494  0.30948494  1.0
  H  H5  1  0.69051506  0.92845483  -0.30948494  1.0
  H  H6  1  0.69051506  0.69051506  -0.07154517  1.0
  H  H7  1  1.30948494  0.30948494  0.30948494  1.0
  Pd  Pd8  1  0.00000000  0.00000000  0.00000000  1.0
  N  N9  1  0.75000000  0.75000000  -0.25000000  1.0
  N  N10  1  1.25000000  0.25000000  0.25000000  1.0
  Cl  Cl11  1  -0.76512192  0.76512192  0.76512192  1.0
  Cl  Cl12  1  -0.23487808  0.23487808  0.76512192  1.0
  Cl  Cl13  1  0.76512192  0.76512192  -0.76512192  1.0
  Cl  Cl14  1  0.23487808  1.23487808  -0.23487808  1.0
  Cl  Cl15  1  0.23487808  -0.23487808  1.23487808  1.0
  Cl  Cl16  1  -0.23487808  0.23487808  0.23487808  1.0
