# generated using pymatgen
data_Sr2Be2B2O7
_symmetry_space_group_name_H-M   'P 1'
_cell_length_a   4.72393960
_cell_length_b   4.72393960
_cell_length_c   15.59573783
_cell_angle_alpha   90.00000000
_cell_angle_beta   90.00000000
_cell_angle_gamma   120.00000000
_symmetry_Int_Tables_number   1
_chemical_formula_structural   Sr2Be2B2O7
_chemical_formula_sum   'Sr4 Be4 B4 O14'
_cell_volume   301.40137593
_cell_formula_units_Z   2
loop_
 _symmetry_equiv_pos_site_id
 _symmetry_equiv_pos_as_xyz
  1  'x, y, z'
loop_
 _atom_site_type_symbol
 _atom_site_label
 _atom_site_symmetry_multiplicity
 _atom_site_fract_x
 _atom_site_fract_y
 _atom_site_fract_z
 _atom_site_occupancy
  Sr  Sr0  1  0.33333333  0.66666667  0.25000000  1.0
  Sr  Sr1  1  0.33333333  0.66666667  0.75000000  1.0
  Sr  Sr2  1  0.33333333  0.66666667  0.50000000  1.0
  Sr  Sr3  1  0.33333333  0.66666667  -0.00000000  1.0
  Be  Be4  1  -0.00000000  -0.00000000  0.39863801  1.0
  Be  Be5  1  -0.00000000  -0.00000000  0.10136199  1.0
  Be  Be6  1  0.00000000  0.00000000  0.89863801  1.0
  Be  Be7  1  0.00000000  0.00000000  0.60136199  1.0
  B  B8  1  0.66666667  0.33333333  0.36458043  1.0
  B  B9  1  0.66666667  0.33333333  0.13541957  1.0
  B  B10  1  0.66666667  0.33333333  0.86458043  1.0
  B  B11  1  0.66666667  0.33333333  0.63541957  1.0
  O  O12  1  0.70058185  0.64156984  0.36349820  1.0
  O  O13  1  0.70058185  0.64156984  0.13650180  1.0
  O  O14  1  0.70058185  0.05901201  0.86349820  1.0
  O  O15  1  0.70058185  0.05901201  0.63650180  1.0
  O  O16  1  0.94098799  0.64156984  0.86349820  1.0
  O  O17  1  0.94098799  0.64156984  0.63650180  1.0
  O  O18  1  0.94098799  0.29941815  0.36349820  1.0
  O  O19  1  0.94098799  0.29941815  0.13650180  1.0
  O  O20  1  0.35843016  0.29941815  0.86349820  1.0
  O  O21  1  0.35843016  0.29941815  0.63650180  1.0
  O  O22  1  0.35843016  0.05901201  0.36349820  1.0
  O  O23  1  0.35843016  0.05901201  0.13650180  1.0
  O  O24  1  0.00000000  0.00000000  0.50000000  1.0
  O  O25  1  0.00000000  0.00000000  0.00000000  1.0
