# generated using pymatgen
data_Ba(PRu)2
_symmetry_space_group_name_H-M   'P 1'
_cell_length_a   6.74770247
_cell_length_b   6.74770247
_cell_length_c   6.74770247
_cell_angle_alpha   145.00657607
_cell_angle_beta   145.00657607
_cell_angle_gamma   50.32472469
_symmetry_Int_Tables_number   1
_chemical_formula_structural   Ba(PRu)2
_chemical_formula_sum   'Ba1 P2 Ru2'
_cell_volume   100.54326307
_cell_formula_units_Z   1
loop_
 _symmetry_equiv_pos_site_id
 _symmetry_equiv_pos_as_xyz
  1  'x, y, z'
loop_
 _atom_site_type_symbol
 _atom_site_label
 _atom_site_symmetry_multiplicity
 _atom_site_fract_x
 _atom_site_fract_y
 _atom_site_fract_z
 _atom_site_occupancy
  Ba  Ba0  1  0.00000000  0.00000000  0.00000000  1.0
  P  P1  1  0.65654085  0.65654085  1.00000000  1.0
  P  P2  1  0.34345915  0.34345915  -0.00000000  1.0
  Ru  Ru3  1  0.25000000  0.75000000  0.50000000  1.0
  Ru  Ru4  1  0.75000000  0.25000000  0.50000000  1.0
