# generated using pymatgen
data_Ba3Bi2I2O5
_symmetry_space_group_name_H-M   'P 1'
_cell_length_a   14.51362791
_cell_length_b   14.51362791
_cell_length_c   14.51362791
_cell_angle_alpha   161.58639103
_cell_angle_beta   161.58639103
_cell_angle_gamma   26.15536756
_symmetry_Int_Tables_number   1
_chemical_formula_structural   Ba3Bi2I2O5
_chemical_formula_sum   'Ba3 Bi2 I2 O5'
_cell_volume   304.93473740
_cell_formula_units_Z   1
loop_
 _symmetry_equiv_pos_site_id
 _symmetry_equiv_pos_as_xyz
  1  'x, y, z'
loop_
 _atom_site_type_symbol
 _atom_site_label
 _atom_site_symmetry_multiplicity
 _atom_site_fract_x
 _atom_site_fract_y
 _atom_site_fract_z
 _atom_site_occupancy
  Ba  Ba0  1  0.63966393  0.63966393  1.00000000  1.0
  Ba  Ba1  1  0.36033607  0.36033607  -0.00000000  1.0
  Ba  Ba2  1  0.50000000  0.50000000  1.00000000  1.0
  Bi  Bi3  1  0.92360710  0.92360710  1.00000000  1.0
  Bi  Bi4  1  0.07639290  0.07639290  -0.00000000  1.0
  I  I5  1  0.80020230  0.80020230  1.00000000  1.0
  I  I6  1  0.19979770  0.19979770  -0.00000000  1.0
  O  O7  1  0.41970482  0.91970482  0.50000000  1.0
  O  O8  1  0.58029518  0.08029518  0.50000000  1.0
  O  O9  1  0.91970482  0.41970482  0.50000000  1.0
  O  O10  1  0.08029518  0.58029518  0.50000000  1.0
  O  O11  1  0.00000000  0.00000000  0.00000000  1.0
