# generated using pymatgen
data_Rb2Mn3Se4
_symmetry_space_group_name_H-M   'P 1'
_cell_length_a   9.85280002
_cell_length_b   9.85280002
_cell_length_c   9.85280002
_cell_angle_alpha   142.96788367
_cell_angle_beta   105.29800805
_cell_angle_gamma   86.43748493
_symmetry_Int_Tables_number   1
_chemical_formula_structural   Rb2Mn3Se4
_chemical_formula_sum   'Rb4 Mn6 Se8'
_cell_volume   537.18724218
_cell_formula_units_Z   2
loop_
 _symmetry_equiv_pos_site_id
 _symmetry_equiv_pos_as_xyz
  1  'x, y, z'
loop_
 _atom_site_type_symbol
 _atom_site_label
 _atom_site_symmetry_multiplicity
 _atom_site_fract_x
 _atom_site_fract_y
 _atom_site_fract_z
 _atom_site_occupancy
  Rb  Rb0  1  1.37770526  1.23798917  1.61569443  1.0
  Rb  Rb1  1  1.12229474  0.73798917  0.86028391  1.0
  Rb  Rb2  1  0.87770526  1.26201083  1.13971609  1.0
  Rb  Rb3  1  0.62229474  0.76201083  0.38430557  1.0
  Mn  Mn4  1  0.97819742  0.25000000  0.72819742  1.0
  Mn  Mn5  1  1.47819742  0.75000000  0.72819742  1.0
  Mn  Mn6  1  1.02180258  0.75000000  0.27180258  1.0
  Mn  Mn7  1  0.52180258  0.25000000  0.27180258  1.0
  Mn  Mn8  1  1.25000000  1.25000000  1.00000000  1.0
  Mn  Mn9  1  0.75000000  0.75000000  1.00000000  1.0
  Se  Se10  1  1.01428878  0.92629067  0.64579832  1.0
  Se  Se11  1  0.71950765  0.63150954  0.64579832  1.0
  Se  Se12  1  0.78049235  0.42629067  0.91200189  1.0
  Se  Se13  1  1.48571122  1.13150954  0.91200189  1.0
  Se  Se14  1  0.51428878  0.86849046  1.08799811  1.0
  Se  Se15  1  1.21950765  1.57370933  1.08799811  1.0
  Se  Se16  1  1.28049235  1.36849046  1.35420168  1.0
  Se  Se17  1  0.98571122  1.07370933  1.35420168  1.0
