# generated using pymatgen
data_Ge2C2(SeF2)3
_symmetry_space_group_name_H-M   'P 1'
_cell_length_a   11.93002567
_cell_length_b   11.93002567
_cell_length_c   11.93002567
_cell_angle_alpha   60.00000000
_cell_angle_beta   60.00000000
_cell_angle_gamma   60.00000000
_symmetry_Int_Tables_number   1
_chemical_formula_structural   Ge2C2(SeF2)3
_chemical_formula_sum   'Ge8 C8 Se12 F24'
_cell_volume   1200.62985058
_cell_formula_units_Z   4
loop_
 _symmetry_equiv_pos_site_id
 _symmetry_equiv_pos_as_xyz
  1  'x, y, z'
loop_
 _atom_site_type_symbol
 _atom_site_label
 _atom_site_symmetry_multiplicity
 _atom_site_fract_x
 _atom_site_fract_y
 _atom_site_fract_z
 _atom_site_occupancy
  Ge  Ge0  1  -0.27490117  0.42496706  0.42496706  1.0
  Ge  Ge1  1  0.42496706  -0.27490117  0.42496706  1.0
  Ge  Ge2  1  0.42496706  1.42496706  -0.27490117  1.0
  Ge  Ge3  1  0.42496706  1.42496706  0.42496706  1.0
  Ge  Ge4  1  0.52490117  0.82503294  -0.17496706  1.0
  Ge  Ge5  1  0.82503294  0.52490117  0.82503294  1.0
  Ge  Ge6  1  0.82503294  0.82503294  -0.47509883  1.0
  Ge  Ge7  1  0.82503294  0.82503294  0.82503294  1.0
  C  C8  1  -0.06350711  1.35450237  0.35450237  1.0
  C  C9  1  0.35450237  0.93649289  0.35450237  1.0
  C  C10  1  0.35450237  1.35450237  -0.06350711  1.0
  C  C11  1  0.35450237  1.35450237  0.35450237  1.0
  C  C12  1  -0.68649289  0.89549763  0.89549763  1.0
  C  C13  1  0.89549763  -0.68649289  0.89549763  1.0
  C  C14  1  0.89549763  0.89549763  -0.68649289  1.0
  C  C15  1  0.89549763  0.89549763  0.89549763  1.0
  Se  Se16  1  0.66820582  0.66820582  -0.66820582  1.0
  Se  Se17  1  0.33179418  1.33179418  -0.33179418  1.0
  Se  Se18  1  0.66820582  -0.66820582  0.66820582  1.0
  Se  Se19  1  0.33179418  -0.33179418  0.33179418  1.0
  Se  Se20  1  -0.66820582  0.66820582  0.66820582  1.0
  Se  Se21  1  -0.33179418  0.33179418  0.33179418  1.0
  Se  Se22  1  -0.41820582  0.58179418  0.91820582  1.0
  Se  Se23  1  0.91820582  0.91820582  -0.41820582  1.0
  Se  Se24  1  0.58179418  0.91820582  0.58179418  1.0
  Se  Se25  1  0.91820582  0.58179418  0.91820582  1.0
  Se  Se26  1  0.91820582  0.58179418  -0.41820582  1.0
  Se  Se27  1  0.58179418  0.91820582  -0.08179418  1.0
  F  F28  1  -0.01262455  1.27613260  0.27613260  1.0
  F  F29  1  0.27613260  0.98737545  0.46035935  1.0
  F  F30  1  0.27613260  1.46035935  -0.01262455  1.0
  F  F31  1  0.46035935  1.27613260  0.27613260  1.0
  F  F32  1  0.27613260  1.27613260  -0.01262455  1.0
  F  F33  1  -0.01262455  1.46035935  0.27613260  1.0
  F  F34  1  0.46035935  0.98737545  0.27613260  1.0
  F  F35  1  0.27613260  1.27613260  0.46035935  1.0
  F  F36  1  0.27613260  0.98737545  0.27613260  1.0
  F  F37  1  0.46035935  1.27613260  -0.01262455  1.0
  F  F38  1  -0.01262455  1.27613260  0.46035935  1.0
  F  F39  1  0.27613260  1.46035935  0.27613260  1.0
  F  F40  1  -0.73737545  0.97386740  0.97386740  1.0
  F  F41  1  0.97386740  -0.73737545  0.78964065  1.0
  F  F42  1  0.97386740  0.78964065  -0.73737545  1.0
  F  F43  1  0.78964065  0.97386740  0.97386740  1.0
  F  F44  1  0.97386740  0.97386740  -0.73737545  1.0
  F  F45  1  -0.73737545  0.78964065  0.97386740  1.0
  F  F46  1  0.78964065  -0.73737545  0.97386740  1.0
  F  F47  1  0.97386740  0.97386740  0.78964065  1.0
  F  F48  1  0.97386740  -0.73737545  0.97386740  1.0
  F  F49  1  0.78964065  0.97386740  -0.73737545  1.0
  F  F50  1  -0.73737545  0.97386740  0.78964065  1.0
  F  F51  1  0.97386740  0.78964065  0.97386740  1.0
