# generated using pymatgen
data_Tb3ReB7
_symmetry_space_group_name_H-M   'P 1'
_cell_length_a   8.06104110
_cell_length_b   8.06104110
_cell_length_c   9.31547318
_cell_angle_alpha   90.00000000
_cell_angle_beta   90.00000000
_cell_angle_gamma   154.68587993
_symmetry_Int_Tables_number   1
_chemical_formula_structural   Tb3ReB7
_chemical_formula_sum   'Tb6 Re2 B14'
_cell_volume   258.82441302
_cell_formula_units_Z   2
loop_
 _symmetry_equiv_pos_site_id
 _symmetry_equiv_pos_as_xyz
  1  'x, y, z'
loop_
 _atom_site_type_symbol
 _atom_site_label
 _atom_site_symmetry_multiplicity
 _atom_site_fract_x
 _atom_site_fract_y
 _atom_site_fract_z
 _atom_site_occupancy
  Tb  Tb0  1  0.39410705  0.60589295  0.93955866  1.0
  Tb  Tb1  1  0.39410705  0.60589295  0.56044134  1.0
  Tb  Tb2  1  -0.39410705  0.39410705  0.43955866  1.0
  Tb  Tb3  1  -0.39410705  0.39410705  0.06044134  1.0
  Tb  Tb4  1  -0.25607883  0.25607883  0.75000000  1.0
  Tb  Tb5  1  0.25607883  0.74392117  0.25000000  1.0
  Re  Re6  1  -0.44694800  0.44694800  0.75000000  1.0
  Re  Re7  1  0.44694800  0.55305200  0.25000000  1.0
  B  B8  1  0.02075511  0.97924489  0.90536257  1.0
  B  B9  1  0.02075511  0.97924489  0.59463743  1.0
  B  B10  1  -0.02075511  0.02075511  0.40536257  1.0
  B  B11  1  -0.02075511  0.02075511  0.09463743  1.0
  B  B12  1  0.13220283  0.86779717  0.84947359  1.0
  B  B13  1  0.13220283  0.86779717  0.65052641  1.0
  B  B14  1  -0.13220283  0.13220283  0.34947359  1.0
  B  B15  1  -0.13220283  0.13220283  0.15052641  1.0
  B  B16  1  0.22671460  0.77328540  0.96650223  1.0
  B  B17  1  0.22671460  0.77328540  0.53349777  1.0
  B  B18  1  -0.22671460  0.22671460  0.46650223  1.0
  B  B19  1  -0.22671460  0.22671460  0.03349777  1.0
  B  B20  1  -0.04269757  0.04269757  0.75000000  1.0
  B  B21  1  0.04269757  0.95730243  0.25000000  1.0
