# generated using pymatgen
data_Cr2P
_symmetry_space_group_name_H-M   'P 1'
_cell_length_a   6.84366981
_cell_length_b   6.84366981
_cell_length_c   6.84366981
_cell_angle_alpha   122.73746336
_cell_angle_beta   83.49298371
_cell_angle_gamma   124.92715035
_symmetry_Int_Tables_number   1
_chemical_formula_structural   Cr2P
_chemical_formula_sum   'Cr12 P6'
_cell_volume   211.90886412
_cell_formula_units_Z   6
loop_
 _symmetry_equiv_pos_site_id
 _symmetry_equiv_pos_as_xyz
  1  'x, y, z'
loop_
 _atom_site_type_symbol
 _atom_site_label
 _atom_site_symmetry_multiplicity
 _atom_site_fract_x
 _atom_site_fract_y
 _atom_site_fract_z
 _atom_site_occupancy
  Cr  Cr0  1  0.52556635  0.52556635  -0.00000000  1.0
  Cr  Cr1  1  0.62739336  0.83992322  0.78747015  1.0
  Cr  Cr2  1  1.05245307  0.83992322  0.21252985  1.0
  Cr  Cr3  1  1.13894203  1.42363679  0.71530524  1.0
  Cr  Cr4  1  0.70833156  0.42363679  0.28469476  1.0
  Cr  Cr5  1  0.44527119  0.94527119  0.50000000  1.0
  Cr  Cr6  1  0.32504256  0.99174739  0.91685886  1.0
  Cr  Cr7  1  1.07488853  0.99174739  0.66670483  1.0
  Cr  Cr8  1  0.32504256  0.40818370  0.33329517  1.0
  Cr  Cr9  1  1.07488853  1.40818370  1.08314114  1.0
  Cr  Cr10  1  0.81456111  1.10957485  0.29501374  1.0
  Cr  Cr11  1  0.81456111  1.51954737  0.70498626  1.0
  P  P12  1  0.40692838  0.84458077  1.10757645  1.0
  P  P13  1  0.73700432  0.84458077  0.43765239  1.0
  P  P14  1  0.40692838  0.29935193  0.56234761  1.0
  P  P15  1  0.73700432  1.29935193  0.89242355  1.0
  P  P16  1  0.09866769  0.59866769  0.50000000  1.0
  P  P17  1  -0.00837504  -0.00837504  -0.00000000  1.0
