# generated using pymatgen
data_K2NaTlO3
_symmetry_space_group_name_H-M   'P 1'
_cell_length_a   6.45383713
_cell_length_b   7.04253038
_cell_length_c   12.13749132
_cell_angle_alpha   90.00000000
_cell_angle_beta   95.33565576
_cell_angle_gamma   90.00000000
_symmetry_Int_Tables_number   1
_chemical_formula_structural   K2NaTlO3
_chemical_formula_sum   'K8 Na4 Tl4 O12'
_cell_volume   549.27494010
_cell_formula_units_Z   4
loop_
 _symmetry_equiv_pos_site_id
 _symmetry_equiv_pos_as_xyz
  1  'x, y, z'
loop_
 _atom_site_type_symbol
 _atom_site_label
 _atom_site_symmetry_multiplicity
 _atom_site_fract_x
 _atom_site_fract_y
 _atom_site_fract_z
 _atom_site_occupancy
  K  K0  1  0.92033510  0.33672641  0.85474994  1.0
  K  K1  1  0.92033510  0.16327359  0.35474994  1.0
  K  K2  1  0.07966490  0.83672641  0.64525006  1.0
  K  K3  1  0.07966490  0.66327359  0.14525006  1.0
  K  K4  1  0.56883638  0.63910102  0.63849220  1.0
  K  K5  1  0.56883638  0.86089898  0.13849220  1.0
  K  K6  1  0.43116362  0.13910102  0.86150780  1.0
  K  K7  1  0.43116362  0.36089898  0.36150780  1.0
  Na  Na8  1  0.86189302  0.87521825  0.91206586  1.0
  Na  Na9  1  0.86189302  0.62478175  0.41206586  1.0
  Na  Na10  1  0.13810698  0.37521825  0.58793414  1.0
  Na  Na11  1  0.13810698  0.12478175  0.08793414  1.0
  Tl  Tl12  1  0.35333970  0.62591720  0.90822910  1.0
  Tl  Tl13  1  0.35333970  0.87408280  0.40822910  1.0
  Tl  Tl14  1  0.64666030  0.12591720  0.59177090  1.0
  Tl  Tl15  1  0.64666030  0.37408280  0.09177090  1.0
  O  O16  1  0.74582661  0.99428385  0.74443494  1.0
  O  O17  1  0.74582661  0.50571615  0.24443494  1.0
  O  O18  1  0.25417339  0.49428385  0.75556506  1.0
  O  O19  1  0.25417339  0.00571615  0.25556506  1.0
  O  O20  1  0.69675554  0.60149387  0.96014972  1.0
  O  O21  1  0.69675554  0.89850613  0.46014972  1.0
  O  O22  1  0.30324446  0.10149387  0.53985028  1.0
  O  O23  1  0.30324446  0.39850613  0.03985028  1.0
  O  O24  1  0.22036051  0.87889868  0.96823411  1.0
  O  O25  1  0.22036051  0.62110132  0.46823411  1.0
  O  O26  1  0.77963949  0.37889868  0.53176589  1.0
  O  O27  1  0.77963949  0.12110132  0.03176589  1.0
