# generated using pymatgen
data_KBePO4
_symmetry_space_group_name_H-M   'P 1'
_cell_length_a   8.46415922
_cell_length_b   8.63101008
_cell_length_c   4.98516878
_cell_angle_alpha   90.00000000
_cell_angle_beta   90.00000000
_cell_angle_gamma   90.00000000
_symmetry_Int_Tables_number   1
_chemical_formula_structural   KBePO4
_chemical_formula_sum   'K4 Be4 P4 O16'
_cell_volume   364.18773409
_cell_formula_units_Z   4
loop_
 _symmetry_equiv_pos_site_id
 _symmetry_equiv_pos_as_xyz
  1  'x, y, z'
loop_
 _atom_site_type_symbol
 _atom_site_label
 _atom_site_symmetry_multiplicity
 _atom_site_fract_x
 _atom_site_fract_y
 _atom_site_fract_z
 _atom_site_occupancy
  K  K0  1  0.50252239  0.79245046  0.00271498  1.0
  K  K1  1  0.00252239  0.70754954  0.00271498  1.0
  K  K2  1  0.49747761  0.20754954  0.50271498  1.0
  K  K3  1  0.99747761  0.29245046  0.50271498  1.0
  Be  Be4  1  0.18132992  0.90966577  0.49090940  1.0
  Be  Be5  1  0.68132992  0.59033423  0.49090940  1.0
  Be  Be6  1  0.81867008  0.09033423  -0.00909060  1.0
  Be  Be7  1  0.31867008  0.40966577  -0.00909060  1.0
  P  P8  1  0.30935365  0.58082834  0.48944013  1.0
  P  P9  1  0.80935365  0.91917166  0.48944013  1.0
  P  P10  1  0.69064635  0.41917166  0.98944013  1.0
  P  P11  1  0.19064635  0.08082834  0.98944013  1.0
  O  O12  1  0.49034992  0.59499930  0.48820229  1.0
  O  O13  1  0.99034992  0.90500070  0.48820229  1.0
  O  O14  1  0.50965008  0.40500070  0.98820229  1.0
  O  O15  1  0.00965008  0.09499930  0.98820229  1.0
  O  O16  1  0.26189991  0.23713965  0.89631851  1.0
  O  O17  1  0.76189991  0.26286035  0.89631851  1.0
  O  O18  1  0.73810009  0.76286035  0.39631851  1.0
  O  O19  1  0.23810009  0.73713965  0.39631851  1.0
  O  O20  1  0.24659411  0.95146303  0.79158438  1.0
  O  O21  1  0.74659411  0.54853697  0.79158438  1.0
  O  O22  1  0.75340589  0.04853697  0.29158438  1.0
  O  O23  1  0.25340589  0.45146303  0.29158438  1.0
  O  O24  1  0.24874715  0.53918984  0.77593030  1.0
  O  O25  1  0.74874715  0.96081016  0.77593030  1.0
  O  O26  1  0.75125285  0.46081016  0.27593030  1.0
  O  O27  1  0.25125285  0.03918984  0.27593030  1.0
