# generated using pymatgen
data_Te2AuCl
_symmetry_space_group_name_H-M   'P 1'
_cell_length_a   6.56567899
_cell_length_b   6.56567899
_cell_length_c   8.78311647
_cell_angle_alpha   90.00000000
_cell_angle_beta   90.00000000
_cell_angle_gamma   143.36963454
_symmetry_Int_Tables_number   1
_chemical_formula_structural   Te2AuCl
_chemical_formula_sum   'Te4 Au2 Cl2'
_cell_volume   225.90600256
_cell_formula_units_Z   2
loop_
 _symmetry_equiv_pos_site_id
 _symmetry_equiv_pos_as_xyz
  1  'x, y, z'
loop_
 _atom_site_type_symbol
 _atom_site_label
 _atom_site_symmetry_multiplicity
 _atom_site_fract_x
 _atom_site_fract_y
 _atom_site_fract_z
 _atom_site_occupancy
  Te  Te0  1  0.10751413  0.89248587  0.95023786  1.0
  Te  Te1  1  0.10751413  0.89248587  0.54976214  1.0
  Te  Te2  1  -0.10751413  0.10751413  0.45023786  1.0
  Te  Te3  1  -0.10751413  0.10751413  0.04976214  1.0
  Au  Au4  1  -0.41381960  0.41381960  0.75000000  1.0
  Au  Au5  1  0.41381960  0.58618040  0.25000000  1.0
  Cl  Cl6  1  0.32803433  0.67196567  0.75000000  1.0
  Cl  Cl7  1  -0.32803433  0.32803433  0.25000000  1.0
