# generated using pymatgen
data_CoH8Se2(ClO4)2
_symmetry_space_group_name_H-M   'P 1'
_cell_length_a   5.12945903
_cell_length_b   14.95185407
_cell_length_c   6.46366869
_cell_angle_alpha   90.00000000
_cell_angle_beta   91.29268804
_cell_angle_gamma   90.00000000
_symmetry_Int_Tables_number   1
_chemical_formula_structural   CoH8Se2(ClO4)2
_chemical_formula_sum   'Co2 H16 Se4 Cl4 O16'
_cell_volume   495.60440687
_cell_formula_units_Z   2
loop_
 _symmetry_equiv_pos_site_id
 _symmetry_equiv_pos_as_xyz
  1  'x, y, z'
loop_
 _atom_site_type_symbol
 _atom_site_label
 _atom_site_symmetry_multiplicity
 _atom_site_fract_x
 _atom_site_fract_y
 _atom_site_fract_z
 _atom_site_occupancy
  Co  Co0  1  0.00000000  0.50000000  0.50000000  1.0
  Co  Co1  1  0.00000000  0.00000000  0.00000000  1.0
  H  H2  1  0.89328113  0.30370119  0.29583093  1.0
  H  H3  1  0.89328113  0.19629881  0.79583093  1.0
  H  H4  1  0.10671887  0.80370119  0.20416907  1.0
  H  H5  1  0.10671887  0.69629881  0.70416907  1.0
  H  H6  1  0.76001508  0.94216886  0.34443556  1.0
  H  H7  1  0.76001508  0.55783114  0.84443556  1.0
  H  H8  1  0.23998492  0.44216886  0.15556444  1.0
  H  H9  1  0.23998492  0.05783114  0.65556444  1.0
  H  H10  1  0.42948473  0.42084033  0.34789893  1.0
  H  H11  1  0.42948473  0.07915967  0.84789893  1.0
  H  H12  1  0.57051527  0.92084033  0.15210107  1.0
  H  H13  1  0.57051527  0.57915967  0.65210107  1.0
  H  H14  1  0.26988366  0.23451279  0.16644895  1.0
  H  H15  1  0.26988366  0.26548721  0.66644895  1.0
  H  H16  1  0.73011634  0.73451279  0.33355105  1.0
  H  H17  1  0.73011634  0.76548721  0.83355105  1.0
  Se  Se18  1  0.68476890  0.17021646  0.21206080  1.0
  Se  Se19  1  0.68476890  0.32978354  0.71206080  1.0
  Se  Se20  1  0.31523110  0.67021646  0.28793920  1.0
  Se  Se21  1  0.31523110  0.82978354  0.78793920  1.0
  Cl  Cl22  1  0.22392713  0.05771981  0.30788605  1.0
  Cl  Cl23  1  0.22392713  0.44228019  0.80788604  1.0
  Cl  Cl24  1  0.77607287  0.55771981  0.19211396  1.0
  Cl  Cl25  1  0.77607287  0.94228019  0.69211395  1.0
  O  O26  1  0.93405130  0.25622828  0.19259197  1.0
  O  O27  1  0.93405130  0.24377172  0.69259197  1.0
  O  O28  1  0.06594870  0.75622828  0.30740803  1.0
  O  O29  1  0.06594870  0.74377172  0.80740803  1.0
  O  O30  1  0.75774190  0.38334925  0.48894640  1.0
  O  O31  1  0.75774190  0.11665075  -0.01105360  1.0
  O  O32  1  0.24225810  0.88334925  0.01105360  1.0
  O  O33  1  0.24225810  0.61665075  0.51105360  1.0
  O  O34  1  0.75324072  0.93234306  0.19355201  1.0
  O  O35  1  0.75324072  0.56765694  0.69355201  1.0
  O  O36  1  0.24675928  0.43234306  0.30644799  1.0
  O  O37  1  0.24675928  0.06765694  0.80644799  1.0
  O  O38  1  0.44754646  0.24585240  0.11134969  1.0
  O  O39  1  0.44754646  0.25414760  0.61134969  1.0
  O  O40  1  0.55245354  0.74585240  0.38865031  1.0
  O  O41  1  0.55245354  0.75414760  0.88865031  1.0
