# generated using pymatgen
data_TiO2
_symmetry_space_group_name_H-M   'P 1'
_cell_length_a   4.57808270
_cell_length_b   5.57205960
_cell_length_c   4.92222417
_cell_angle_alpha   90.00000000
_cell_angle_beta   90.00000000
_cell_angle_gamma   90.00000000
_symmetry_Int_Tables_number   1
_chemical_formula_structural   TiO2
_chemical_formula_sum   'Ti4 O8'
_cell_volume   125.56273759
_cell_formula_units_Z   4
loop_
 _symmetry_equiv_pos_site_id
 _symmetry_equiv_pos_as_xyz
  1  'x, y, z'
loop_
 _atom_site_type_symbol
 _atom_site_label
 _atom_site_symmetry_multiplicity
 _atom_site_fract_x
 _atom_site_fract_y
 _atom_site_fract_z
 _atom_site_occupancy
  Ti  Ti0  1  0.50000000  0.17732534  0.25000000  1.0
  Ti  Ti1  1  0.50000000  0.82267466  0.75000000  1.0
  Ti  Ti2  1  0.00000000  0.67732534  0.25000000  1.0
  Ti  Ti3  1  0.00000000  0.32267466  0.75000000  1.0
  O  O4  1  0.22886216  0.38047660  0.08102623  1.0
  O  O5  1  0.22886216  0.61952340  0.58102623  1.0
  O  O6  1  0.72886216  0.88047660  0.41897377  1.0
  O  O7  1  0.72886216  0.11952340  0.91897377  1.0
  O  O8  1  0.77113784  0.38047660  0.41897377  1.0
  O  O9  1  0.77113784  0.61952340  0.91897377  1.0
  O  O10  1  0.27113784  0.88047660  0.08102623  1.0
  O  O11  1  0.27113784  0.11952340  0.58102623  1.0
