# generated using pymatgen
data_BaGaB4H3O10
_symmetry_space_group_name_H-M   'P 1'
_cell_length_a   7.18830051
_cell_length_b   9.95624689
_cell_length_c   7.29295957
_cell_angle_alpha   73.13174113
_cell_angle_beta   59.68450608
_cell_angle_gamma   71.79217355
_symmetry_Int_Tables_number   1
_chemical_formula_structural   BaGaB4H3O10
_chemical_formula_sum   'Ba2 Ga2 B8 H6 O20'
_cell_volume   422.39412146
_cell_formula_units_Z   2
loop_
 _symmetry_equiv_pos_site_id
 _symmetry_equiv_pos_as_xyz
  1  'x, y, z'
loop_
 _atom_site_type_symbol
 _atom_site_label
 _atom_site_symmetry_multiplicity
 _atom_site_fract_x
 _atom_site_fract_y
 _atom_site_fract_z
 _atom_site_occupancy
  Ba  Ba0  1  -0.27252067  0.79315474  -0.42437460  1.0
  Ba  Ba1  1  0.27252067  0.20684526  -0.57562540  1.0
  Ga  Ga2  1  -0.02755876  0.12143716  -0.88752207  1.0
  Ga  Ga3  1  0.02755876  0.87856284  -0.11247793  1.0
  B  B4  1  0.58260322  0.84238199  -0.94194248  1.0
  B  B5  1  -0.58260322  0.15761801  -0.05805752  1.0
  B  B6  1  0.12107793  0.58930534  -0.87860718  1.0
  B  B7  1  -0.12107793  0.41069466  -0.12139282  1.0
  B  B8  1  0.21012720  0.79306369  -0.80685232  1.0
  B  B9  1  -0.21012720  0.20693631  -0.19314768  1.0
  B  B10  1  0.31916109  0.85398931  -0.56788510  1.0
  B  B11  1  -0.31916109  0.14601069  -0.43211490  1.0
  H  H12  1  0.03332950  0.41067970  -0.86675722  1.0
  H  H13  1  -0.03332950  0.58932030  -0.13324278  1.0
  H  H14  1  -0.35911656  0.48274907  -0.32529535  1.0
  H  H15  1  0.35911656  0.51725093  -0.67470465  1.0
  H  H16  1  -0.59909202  0.57833486  -0.27412259  1.0
  H  H17  1  0.59909202  0.42166514  -0.72587741  1.0
  O  O18  1  0.43691664  0.80128806  -0.97357153  1.0
  O  O19  1  -0.43691664  0.19871194  -0.02642847  1.0
  O  O20  1  0.22956586  0.12638451  -0.88285528  1.0
  O  O21  1  -0.22956586  0.87361549  -0.11714472  1.0
  O  O22  1  0.04718418  0.89762760  -0.87021189  1.0
  O  O23  1  -0.04718418  0.10237240  -0.12978811  1.0
  O  O24  1  0.10088562  0.44675017  -0.80382851  1.0
  O  O25  1  -0.10088562  0.55324983  -0.19617149  1.0
  O  O26  1  0.16938367  0.64661710  -0.75899254  1.0
  O  O27  1  -0.16938367  0.35338290  -0.24100746  1.0
  O  O28  1  0.53479353  0.85526083  -0.73528380  1.0
  O  O29  1  -0.53479353  0.14473917  -0.26471620  1.0
  O  O30  1  -0.27788393  0.10472973  -0.61435485  1.0
  O  O31  1  0.27788393  0.89527027  -0.38564515  1.0
  O  O32  1  0.16690911  0.82178427  -0.59785707  1.0
  O  O33  1  -0.16690911  0.17821573  -0.40214293  1.0
  O  O34  1  -0.44210293  0.57380415  -0.37188737  1.0
  O  O35  1  0.44210293  0.42619585  -0.62811263  1.0
  O  O36  1  -0.90523512  0.66471814  -0.05527744  1.0
  O  O37  1  0.90523512  0.33528186  -0.94472256  1.0
