# generated using pymatgen
data_C3N4
_symmetry_space_group_name_H-M   'P 1'
_cell_length_a   7.12579907
_cell_length_b   7.12579907
_cell_length_c   4.35771385
_cell_angle_alpha   90.00000000
_cell_angle_beta   90.00000000
_cell_angle_gamma   120.00000000
_symmetry_Int_Tables_number   1
_chemical_formula_structural   C3N4
_chemical_formula_sum   'C6 N8'
_cell_volume   191.62690487
_cell_formula_units_Z   2
loop_
 _symmetry_equiv_pos_site_id
 _symmetry_equiv_pos_as_xyz
  1  'x, y, z'
loop_
 _atom_site_type_symbol
 _atom_site_label
 _atom_site_symmetry_multiplicity
 _atom_site_fract_x
 _atom_site_fract_y
 _atom_site_fract_z
 _atom_site_occupancy
  C  C0  1  0.88053011  0.76106022  0.00000000  1.0
  C  C1  1  0.88053011  0.11946989  0.00000000  1.0
  C  C2  1  0.23893978  0.11946989  0.00000000  1.0
  C  C3  1  0.55382053  0.44617947  0.00000000  1.0
  C  C4  1  0.89235894  0.44617947  0.00000000  1.0
  C  C5  1  0.55382053  0.10764106  0.00000000  1.0
  N  N6  1  0.00000000  0.00000000  0.00000000  1.0
  N  N7  1  0.66490435  0.66142098  0.00000000  1.0
  N  N8  1  -0.00348337  0.33509565  0.00000000  1.0
  N  N9  1  0.33857902  0.00348337  0.00000000  1.0
  N  N10  1  0.33857902  0.33509565  0.00000000  1.0
  N  N11  1  -0.00348337  0.66142098  0.00000000  1.0
  N  N12  1  0.66490435  0.00348337  0.00000000  1.0
  N  N13  1  0.66666667  0.33333333  0.00000000  1.0
