# generated using pymatgen
data_SrLaI4
_symmetry_space_group_name_H-M   'P 1'
_cell_length_a   9.12634317
_cell_length_b   9.12634317
_cell_length_c   7.57340813
_cell_angle_alpha   71.06023882
_cell_angle_beta   108.93976118
_cell_angle_gamma   69.11314153
_symmetry_Int_Tables_number   1
_chemical_formula_structural   SrLaI4
_chemical_formula_sum   'Sr2 La2 I8'
_cell_volume   483.31711000
_cell_formula_units_Z   2
loop_
 _symmetry_equiv_pos_site_id
 _symmetry_equiv_pos_as_xyz
  1  'x, y, z'
loop_
 _atom_site_type_symbol
 _atom_site_label
 _atom_site_symmetry_multiplicity
 _atom_site_fract_x
 _atom_site_fract_y
 _atom_site_fract_z
 _atom_site_occupancy
  Sr  Sr0  1  1.36538174  0.36538174  0.75000000  1.0
  Sr  Sr1  1  0.63461826  0.63461826  0.25000000  1.0
  La  La2  1  0.99932492  0.99932492  0.75000000  1.0
  La  La3  1  1.00067508  0.00067508  0.25000000  1.0
  I  I4  1  1.70010556  -0.05405767  0.91277329  1.0
  I  I5  1  1.05405767  0.29989444  0.41277329  1.0
  I  I6  1  0.94594233  0.70010556  0.58722671  1.0
  I  I7  1  1.29989444  0.05405767  0.08722671  1.0
  I  I8  1  1.36633254  -0.24332866  0.73801467  1.0
  I  I9  1  1.24332866  0.63366746  0.23801467  1.0
  I  I10  1  0.75667134  0.36633254  0.76198533  1.0
  I  I11  1  1.63366746  0.24332866  0.26198533  1.0
