# generated using pymatgen
data_HfNF4
_symmetry_space_group_name_H-M   'P 1'
_cell_length_a   7.99537402
_cell_length_b   6.69274847
_cell_length_c   12.39377387
_cell_angle_alpha   54.21019797
_cell_angle_beta   64.85772454
_cell_angle_gamma   69.22849657
_symmetry_Int_Tables_number   1
_chemical_formula_structural   HfNF4
_chemical_formula_sum   'Hf4 N4 F16'
_cell_volume   481.88234944
_cell_formula_units_Z   4
loop_
 _symmetry_equiv_pos_site_id
 _symmetry_equiv_pos_as_xyz
  1  'x, y, z'
loop_
 _atom_site_type_symbol
 _atom_site_label
 _atom_site_symmetry_multiplicity
 _atom_site_fract_x
 _atom_site_fract_y
 _atom_site_fract_z
 _atom_site_occupancy
  N  N0  1  -0.36857362  -0.17440258  0.90247954  1.0
  N  N1  1  -0.63142638  0.17440258  0.09752046  1.0
  N  N2  1  -0.86497232  -0.16407615  0.90019841  1.0
  N  N3  1  -0.13502768  0.16407615  0.09980159  1.0
  F  F4  1  -0.95199034  0.31590060  0.60319025  1.0
  F  F5  1  -0.04800966  -0.31590060  0.39680975  1.0
  F  F6  1  -0.25977365  0.33277444  0.58825353  1.0
  F  F7  1  -0.74022635  -0.33277444  0.41174647  1.0
  F  F8  1  -0.56867770  0.30511724  0.59585744  1.0
  F  F9  1  -0.43132230  -0.30511724  0.40414256  1.0
  F  F10  1  -1.01216251  0.29413687  0.39048531  1.0
  F  F11  1  0.01216251  -0.29413687  0.60951469  1.0
  F  F12  1  -0.73706734  0.02321395  0.48451183  1.0
  F  F13  1  -0.26293266  -0.02321395  0.51548817  1.0
  F  F14  1  -0.48578316  -0.32124240  0.62496036  1.0
  F  F15  1  -0.51421684  0.32124240  0.37503964  1.0
  F  F16  1  -0.73696385  0.59265532  0.19610014  1.0
  F  F17  1  -0.26303615  -0.59265532  0.80389986  1.0
  F  F18  1  -0.78712424  -0.52831531  0.77603590  1.0
  F  F19  1  -0.21287576  0.52831531  0.22396410  1.0
  Hf  Hf20  1  -0.80263470  0.41683941  0.39099411  1.0
  Hf  Hf21  1  -0.19736530  -0.41683941  0.60900589  1.0
  Hf  Hf22  1  -0.69693285  -0.35996802  0.58078142  1.0
  Hf  Hf23  1  -0.30306715  0.35996802  0.41921858  1.0
