# generated using pymatgen
data_Ga3Bi5Cl12
_symmetry_space_group_name_H-M   'P 1'
_cell_length_a   12.56200650
_cell_length_b   12.56200650
_cell_length_c   12.56200650
_cell_angle_alpha   57.25191065
_cell_angle_beta   57.25191065
_cell_angle_gamma   57.25191065
_symmetry_Int_Tables_number   1
_chemical_formula_structural   Ga3Bi5Cl12
_chemical_formula_sum   'Ga6 Bi10 Cl24'
_cell_volume   1313.01474178
_cell_formula_units_Z   2
loop_
 _symmetry_equiv_pos_site_id
 _symmetry_equiv_pos_as_xyz
  1  'x, y, z'
loop_
 _atom_site_type_symbol
 _atom_site_label
 _atom_site_symmetry_multiplicity
 _atom_site_fract_x
 _atom_site_fract_y
 _atom_site_fract_z
 _atom_site_occupancy
  Ga  Ga0  1  0.96065892  -0.57539735  -0.11150135  1.0
  Ga  Ga1  1  0.46065892  0.38849865  -0.07539735  1.0
  Ga  Ga2  1  0.38849865  0.92460265  -0.53934108  1.0
  Ga  Ga3  1  0.88849865  -0.03934108  -0.57539735  1.0
  Ga  Ga4  1  0.92460265  0.46065892  -0.61150135  1.0
  Ga  Ga5  1  0.42460265  -0.11150135  -0.03934108  1.0
  Bi  Bi6  1  1.08519434  -0.23628318  -0.07590508  1.0
  Bi  Bi7  1  0.58519434  0.42409492  -0.73628318  1.0
  Bi  Bi8  1  0.42409492  0.26371682  -0.41480566  1.0
  Bi  Bi9  1  0.92409492  0.08519434  -0.23628318  1.0
  Bi  Bi10  1  0.26371682  0.58519434  -0.57590508  1.0
  Bi  Bi11  1  0.76371682  -0.07590508  0.08519434  1.0
  Bi  Bi12  1  -0.00061850  -0.00061850  -0.00061850  1.0
  Bi  Bi13  1  0.49938150  0.49938150  -0.50061850  1.0
  Bi  Bi14  1  0.84925926  -0.15074074  -0.15074074  1.0
  Bi  Bi15  1  0.34925926  0.34925926  -0.65074074  1.0
  Cl  Cl16  1  0.55437316  0.97409814  -0.58304127  1.0
  Cl  Cl17  1  1.05437316  -0.08304127  -0.52590186  1.0
  Cl  Cl18  1  0.91695873  -0.52590186  0.05437316  1.0
  Cl  Cl19  1  0.41695873  0.55437316  -0.02590186  1.0
  Cl  Cl20  1  0.47409814  0.05437316  -0.08304127  1.0
  Cl  Cl21  1  0.97409814  0.41695873  -0.44562684  1.0
  Cl  Cl22  1  0.60315968  -0.29665657  -0.00486895  1.0
  Cl  Cl23  1  1.10315968  -0.50486895  0.20334343  1.0
  Cl  Cl24  1  0.49513105  0.20334343  0.10315968  1.0
  Cl  Cl25  1  0.99513105  -0.39684032  -0.29665657  1.0
  Cl  Cl26  1  1.20334343  0.10315968  -0.50486895  1.0
  Cl  Cl27  1  0.70334343  -0.00486895  -0.39684032  1.0
  Cl  Cl28  1  0.64578598  0.35437809  -0.25406703  1.0
  Cl  Cl29  1  0.14578598  0.24593297  -0.14562191  1.0
  Cl  Cl30  1  0.24593297  0.85437809  -0.85421402  1.0
  Cl  Cl31  1  0.74593297  0.64578598  -0.64562191  1.0
  Cl  Cl32  1  0.85437809  0.14578598  -0.75406703  1.0
  Cl  Cl33  1  0.35437809  0.74593297  -0.35421402  1.0
  Cl  Cl34  1  0.29473350  0.43189163  -0.12459343  1.0
  Cl  Cl35  1  0.79473350  -0.62459343  -0.06810837  1.0
  Cl  Cl36  1  0.37540657  -0.06810837  -0.20526650  1.0
  Cl  Cl37  1  0.87540657  0.29473350  -0.56810837  1.0
  Cl  Cl38  1  0.93189163  -0.20526650  -0.62459343  1.0
  Cl  Cl39  1  0.43189163  0.87540657  -0.70526650  1.0
