# generated using pymatgen
data_Li2CoSiO4
_symmetry_space_group_name_H-M   'P 1'
_cell_length_a   5.09528404
_cell_length_b   10.75813544
_cell_length_c   8.03681126
_cell_angle_alpha   90.00000000
_cell_angle_beta   128.68923323
_cell_angle_gamma   90.00000000
_symmetry_Int_Tables_number   1
_chemical_formula_structural   Li2CoSiO4
_chemical_formula_sum   'Li8 Co4 Si4 O16'
_cell_volume   343.86559774
_cell_formula_units_Z   4
loop_
 _symmetry_equiv_pos_site_id
 _symmetry_equiv_pos_as_xyz
  1  'x, y, z'
loop_
 _atom_site_type_symbol
 _atom_site_label
 _atom_site_symmetry_multiplicity
 _atom_site_fract_x
 _atom_site_fract_y
 _atom_site_fract_z
 _atom_site_occupancy
  Li  Li0  1  0.68456102  0.33634701  0.49353958  1.0
  Li  Li1  1  0.68456102  0.16365299  0.99353958  1.0
  Li  Li2  1  0.31543898  0.83634701  0.00646042  1.0
  Li  Li3  1  0.31543898  0.66365299  0.50646042  1.0
  Li  Li4  1  0.53944516  0.07425429  0.24139812  1.0
  Li  Li5  1  0.53944516  0.42574571  0.74139812  1.0
  Li  Li6  1  0.46055484  0.57425429  0.25860188  1.0
  Li  Li7  1  0.46055484  0.92574571  0.75860188  1.0
  Co  Co8  1  0.18628279  0.16552772  0.49697450  1.0
  Co  Co9  1  0.18628279  0.33447228  0.99697450  1.0
  Co  Co10  1  0.81371721  0.66552772  0.00302550  1.0
  Co  Co11  1  0.81371721  0.83447228  0.50302550  1.0
  Si  Si12  1  0.93595467  0.41171381  0.24596612  1.0
  Si  Si13  1  0.93595467  0.08828619  0.74596612  1.0
  Si  Si14  1  0.06404533  0.91171381  0.25403388  1.0
  Si  Si15  1  0.06404533  0.58828619  0.75403388  1.0
  O  O16  1  0.94470287  0.05560617  0.24535798  1.0
  O  O17  1  0.94470287  0.44439383  0.74535798  1.0
  O  O18  1  0.05529713  0.55560617  0.25464202  1.0
  O  O19  1  0.05529713  0.94439383  0.75464202  1.0
  O  O20  1  0.82491809  0.33925756  0.02873115  1.0
  O  O21  1  0.82491809  0.16074244  0.52873115  1.0
  O  O22  1  0.17508191  0.83925756  0.47126885  1.0
  O  O23  1  0.17508191  0.66074244  0.97126885  1.0
  O  O24  1  0.60987364  0.41001561  0.24512362  1.0
  O  O25  1  0.60987364  0.08998439  0.74512362  1.0
  O  O26  1  0.39012636  0.91001561  0.25487638  1.0
  O  O27  1  0.39012636  0.58998439  0.75487638  1.0
  O  O28  1  0.25810015  0.33940677  0.46234312  1.0
  O  O29  1  0.25810015  0.16059323  0.96234312  1.0
  O  O30  1  0.74189985  0.83940677  0.03765688  1.0
  O  O31  1  0.74189985  0.66059323  0.53765688  1.0
