# generated using pymatgen
data_MgFeSiO4
_symmetry_space_group_name_H-M   'P 1'
_cell_length_a   10.47412244
_cell_length_b   5.93294133
_cell_length_c   4.89091488
_cell_angle_alpha   90.00000000
_cell_angle_beta   90.00000000
_cell_angle_gamma   90.00000000
_symmetry_Int_Tables_number   1
_chemical_formula_structural   MgFeSiO4
_chemical_formula_sum   'Mg4 Fe4 Si4 O16'
_cell_volume   303.93296353
_cell_formula_units_Z   4
loop_
 _symmetry_equiv_pos_site_id
 _symmetry_equiv_pos_as_xyz
  1  'x, y, z'
loop_
 _atom_site_type_symbol
 _atom_site_label
 _atom_site_symmetry_multiplicity
 _atom_site_fract_x
 _atom_site_fract_y
 _atom_site_fract_z
 _atom_site_occupancy
  Mg  Mg0  1  0.77629800  0.75000000  0.48622797  1.0
  Mg  Mg1  1  0.27629800  0.75000000  0.01377203  1.0
  Mg  Mg2  1  0.22370200  0.25000000  0.51377203  1.0
  Mg  Mg3  1  0.72370200  0.25000000  0.98622797  1.0
  Fe  Fe4  1  0.50000000  0.00000000  0.50000000  1.0
  Fe  Fe5  1  0.00000000  0.50000000  0.00000000  1.0
  Fe  Fe6  1  0.50000000  0.50000000  0.50000000  1.0
  Fe  Fe7  1  0.00000000  -0.00000000  -0.00000000  1.0
  Si  Si8  1  0.59586026  0.75000000  0.92522774  1.0
  Si  Si9  1  0.09586026  0.75000000  0.57477226  1.0
  Si  Si10  1  0.40413974  0.25000000  0.07477226  1.0
  Si  Si11  1  0.90413974  0.25000000  0.42522774  1.0
  O  O12  1  0.60099703  0.75000000  0.26024829  1.0
  O  O13  1  0.10099703  0.75000000  0.23975171  1.0
  O  O14  1  0.39900297  0.25000000  0.73975171  1.0
  O  O15  1  0.89900297  0.25000000  0.76024829  1.0
  O  O16  1  0.94724851  0.75000000  0.69747886  1.0
  O  O17  1  0.44724851  0.75000000  0.80252114  1.0
  O  O18  1  0.05275149  0.25000000  0.30252114  1.0
  O  O19  1  0.55275149  0.25000000  0.19747886  1.0
  O  O20  1  0.66418643  0.96830725  0.77287924  1.0
  O  O21  1  0.16418643  0.53169275  0.72712076  1.0
  O  O22  1  0.33581357  0.46830725  0.22712076  1.0
  O  O23  1  0.83581357  0.03169275  0.27287924  1.0
  O  O24  1  0.33581357  0.03169275  0.22712076  1.0
  O  O25  1  0.83581357  0.46830725  0.27287924  1.0
  O  O26  1  0.66418643  0.53169275  0.77287924  1.0
  O  O27  1  0.16418643  0.96830725  0.72712076  1.0
