# generated using pymatgen
data_Lu2O3
_symmetry_space_group_name_H-M   'P 1'
_cell_length_a   7.17205673
_cell_length_b   7.17205673
_cell_length_c   8.49663294
_cell_angle_alpha   79.72169334
_cell_angle_beta   100.27830666
_cell_angle_gamma   152.42459019
_symmetry_Int_Tables_number   1
_chemical_formula_structural   Lu2O3
_chemical_formula_sum   'Lu6 O9'
_cell_volume   198.87487853
_cell_formula_units_Z   3
loop_
 _symmetry_equiv_pos_site_id
 _symmetry_equiv_pos_as_xyz
  1  'x, y, z'
loop_
 _atom_site_type_symbol
 _atom_site_label
 _atom_site_symmetry_multiplicity
 _atom_site_fract_x
 _atom_site_fract_y
 _atom_site_fract_z
 _atom_site_occupancy
  Lu  Lu0  1  0.86477303  0.13522697  0.51241744  1.0
  Lu  Lu1  1  0.13522697  -0.13522697  0.48758256  1.0
  Lu  Lu2  1  0.80819247  0.19180753  0.86262236  1.0
  Lu  Lu3  1  0.19180753  -0.19180753  0.13737764  1.0
  Lu  Lu4  1  0.53155156  0.46844844  0.81498858  1.0
  Lu  Lu5  1  0.46844844  -0.46844844  0.18501142  1.0
  O  O6  1  0.67424711  0.32575289  0.96752795  1.0
  O  O7  1  0.32575289  -0.32575289  0.03247205  1.0
  O  O8  1  0.96924412  0.03075588  0.34271559  1.0
  O  O9  1  0.03075588  -0.03075588  0.65728441  1.0
  O  O10  1  0.70805819  0.29194181  0.62179816  1.0
  O  O11  1  0.29194181  -0.29194181  0.37820184  1.0
  O  O12  1  0.37263505  -0.37263505  0.71970712  1.0
  O  O13  1  0.62736495  0.37263505  0.28029288  1.0
  O  O14  1  0.00000000  0.00000000  0.00000000  1.0
