# generated using pymatgen
data_Si5Ir3
_symmetry_space_group_name_H-M   'P 1'
_cell_length_a   6.46066954
_cell_length_b   14.28581225
_cell_length_c   11.64811501
_cell_angle_alpha   90.00000000
_cell_angle_beta   116.57521841
_cell_angle_gamma   90.00000000
_symmetry_Int_Tables_number   1
_chemical_formula_structural   Si5Ir3
_chemical_formula_sum   'Si40 Ir24'
_cell_volume   961.48954806
_cell_formula_units_Z   8
loop_
 _symmetry_equiv_pos_site_id
 _symmetry_equiv_pos_as_xyz
  1  'x, y, z'
loop_
 _atom_site_type_symbol
 _atom_site_label
 _atom_site_symmetry_multiplicity
 _atom_site_fract_x
 _atom_site_fract_y
 _atom_site_fract_z
 _atom_site_occupancy
  Si  Si0  1  0.94634033  0.71975753  0.30738782  1.0
  Si  Si1  1  0.94634033  0.78024247  0.80738782  1.0
  Si  Si2  1  0.05365967  0.21975753  0.19261218  1.0
  Si  Si3  1  0.05365967  0.28024247  0.69261218  1.0
  Si  Si4  1  0.88328092  0.25102462  0.35629230  1.0
  Si  Si5  1  0.88328092  0.24897538  0.85629230  1.0
  Si  Si6  1  0.11671908  0.75102462  0.14370770  1.0
  Si  Si7  1  0.11671908  0.74897538  0.64370770  1.0
  Si  Si8  1  0.85279671  0.43662837  0.00960000  1.0
  Si  Si9  1  0.85279671  0.06337163  0.50960000  1.0
  Si  Si10  1  0.14720329  0.93662837  0.49040000  1.0
  Si  Si11  1  0.14720329  0.56337163  0.99040000  1.0
  Si  Si12  1  0.82806908  0.05693561  0.16446281  1.0
  Si  Si13  1  0.82806908  0.44306439  0.66446281  1.0
  Si  Si14  1  0.17193092  0.55693561  0.33553719  1.0
  Si  Si15  1  0.17193092  0.94306439  0.83553719  1.0
  Si  Si16  1  0.75703292  0.48801420  0.20498751  1.0
  Si  Si17  1  0.75703292  0.01198580  0.70498751  1.0
  Si  Si18  1  0.24296708  0.98801420  0.29501249  1.0
  Si  Si19  1  0.24296708  0.51198580  0.79501249  1.0
  Si  Si20  1  0.75588791  0.49005023  0.42354213  1.0
  Si  Si21  1  0.75588791  0.00994977  0.92354213  1.0
  Si  Si22  1  0.24411209  0.99005023  0.07645787  1.0
  Si  Si23  1  0.24411209  0.50994977  0.57645787  1.0
  Si  Si24  1  0.63963459  0.88712711  0.39119158  1.0
  Si  Si25  1  0.63963459  0.61287289  0.89119158  1.0
  Si  Si26  1  0.36036541  0.38712711  0.10880842  1.0
  Si  Si27  1  0.36036541  0.11287289  0.60880842  1.0
  Si  Si28  1  0.45304278  0.15016297  0.40933487  1.0
  Si  Si29  1  0.45304278  0.34983703  0.90933487  1.0
  Si  Si30  1  0.54695722  0.65016297  0.09066513  1.0
  Si  Si31  1  0.54695722  0.84983703  0.59066513  1.0
  Si  Si32  1  0.42683728  0.15833716  0.06749587  1.0
  Si  Si33  1  0.42683728  0.34166284  0.56749587  1.0
  Si  Si34  1  0.57316272  0.65833716  0.43250413  1.0
  Si  Si35  1  0.57316272  0.84166284  0.93250413  1.0
  Si  Si36  1  0.36404486  0.39051797  0.32753986  1.0
  Si  Si37  1  0.36404486  0.10948203  0.82753986  1.0
  Si  Si38  1  0.63595514  0.89051797  0.17246014  1.0
  Si  Si39  1  0.63595514  0.60948203  0.67246014  1.0
  Ir  Ir40  1  0.93314218  0.90633658  0.10335797  1.0
  Ir  Ir41  1  0.93314218  0.59366342  0.60335797  1.0
  Ir  Ir42  1  0.06685782  0.40633658  0.39664203  1.0
  Ir  Ir43  1  0.06685782  0.09366342  0.89664203  1.0
  Ir  Ir44  1  0.92744661  0.59821137  0.11117934  1.0
  Ir  Ir45  1  0.92744661  0.90178863  0.61117934  1.0
  Ir  Ir46  1  0.07255339  0.09821137  0.38882066  1.0
  Ir  Ir47  1  0.07255339  0.40178863  0.88882066  1.0
  Ir  Ir48  1  0.73682296  0.33337647  0.13352484  1.0
  Ir  Ir49  1  0.73682296  0.16662353  0.63352484  1.0
  Ir  Ir50  1  0.26317704  0.83337647  0.36647516  1.0
  Ir  Ir51  1  0.26317704  0.66662353  0.86647516  1.0
  Ir  Ir52  1  0.73321917  0.33536367  0.49335802  1.0
  Ir  Ir53  1  0.73321917  0.16463633  0.99335802  1.0
  Ir  Ir54  1  0.26678083  0.83536367  0.00664198  1.0
  Ir  Ir55  1  0.26678083  0.66463633  0.50664198  1.0
  Ir  Ir56  1  0.58195331  0.04351875  0.27281729  1.0
  Ir  Ir57  1  0.58195331  0.45648125  0.77281729  1.0
  Ir  Ir58  1  0.41804669  0.54351875  0.22718271  1.0
  Ir  Ir59  1  0.41804669  0.95648125  0.72718271  1.0
  Ir  Ir60  1  0.45175702  0.24758435  0.24410775  1.0
  Ir  Ir61  1  0.45175702  0.25241565  0.74410775  1.0
  Ir  Ir62  1  0.54824298  0.74758435  0.25589225  1.0
  Ir  Ir63  1  0.54824298  0.75241565  0.75589225  1.0
