# generated using pymatgen
data_Sr2FeN2
_symmetry_space_group_name_H-M   'P 1'
_cell_length_a   8.65313414
_cell_length_b   8.87062308
_cell_length_c   6.54823349
_cell_angle_alpha   109.69119976
_cell_angle_beta   102.24375963
_cell_angle_gamma   90.03174045
_symmetry_Int_Tables_number   1
_chemical_formula_structural   Sr2FeN2
_chemical_formula_sum   'Sr10 Fe5 N10'
_cell_volume   461.05814773
_cell_formula_units_Z   5
loop_
 _symmetry_equiv_pos_site_id
 _symmetry_equiv_pos_as_xyz
  1  'x, y, z'
loop_
 _atom_site_type_symbol
 _atom_site_label
 _atom_site_symmetry_multiplicity
 _atom_site_fract_x
 _atom_site_fract_y
 _atom_site_fract_z
 _atom_site_occupancy
  Fe  Fe0  1  0.50000000  0.50000000  -0.00000000  1.0
  Fe  Fe1  1  0.96999329  0.59213671  0.39899836  1.0
  Fe  Fe2  1  0.03000671  0.40786329  0.60100164  1.0
  Fe  Fe3  1  0.60689069  0.98170758  0.91408033  1.0
  Fe  Fe4  1  0.39310931  0.01829242  0.08591967  1.0
  N  N5  1  0.94132044  0.36782203  0.30094697  1.0
  N  N6  1  0.05867956  0.63217797  0.69905303  1.0
  N  N7  1  0.94202192  0.76028815  0.30100032  1.0
  N  N8  1  0.05797808  0.23971185  0.69899968  1.0
  N  N9  1  0.78702166  0.95832616  0.82128828  1.0
  N  N10  1  0.21297834  0.04167384  0.17871172  1.0
  N  N11  1  0.56889986  0.43251363  0.73774451  1.0
  N  N12  1  0.43110014  0.56748637  0.26225549  1.0
  N  N13  1  0.39372602  0.96027629  0.79386651  1.0
  N  N14  1  0.60627398  0.03972371  0.20613349  1.0
  Sr  Sr15  1  0.80077909  0.66993812  0.88190786  1.0
  Sr  Sr16  1  0.19922091  0.33006188  0.11809214  1.0
  Sr  Sr17  1  0.79924433  0.26991364  0.87152189  1.0
  Sr  Sr18  1  0.20075567  0.73008636  0.12847811  1.0
  Sr  Sr19  1  0.06523539  0.93560646  0.73129481  1.0
  Sr  Sr20  1  0.93476461  0.06439354  0.26870519  1.0
  Sr  Sr21  1  0.36395470  0.64330683  0.64291221  1.0
  Sr  Sr22  1  0.63604530  0.35669317  0.35708779  1.0
  Sr  Sr23  1  0.65035766  0.82043626  0.39224268  1.0
  Sr  Sr24  1  0.34964234  0.17956374  0.60775732  1.0
