# generated using pymatgen
data_Ta2NiO6
_symmetry_space_group_name_H-M   'P 1'
_cell_length_a   4.78146146
_cell_length_b   4.78146146
_cell_length_c   9.10983580
_cell_angle_alpha   90.00000000
_cell_angle_beta   90.00000000
_cell_angle_gamma   90.00000000
_symmetry_Int_Tables_number   1
_chemical_formula_structural   Ta2NiO6
_chemical_formula_sum   'Ta4 Ni2 O12'
_cell_volume   208.27247040
_cell_formula_units_Z   2
loop_
 _symmetry_equiv_pos_site_id
 _symmetry_equiv_pos_as_xyz
  1  'x, y, z'
loop_
 _atom_site_type_symbol
 _atom_site_label
 _atom_site_symmetry_multiplicity
 _atom_site_fract_x
 _atom_site_fract_y
 _atom_site_fract_z
 _atom_site_occupancy
  Ta  Ta0  1  0.50000000  0.50000000  0.16937116  1.0
  Ta  Ta1  1  0.50000000  0.50000000  0.83062884  1.0
  Ta  Ta2  1  0.00000000  0.00000000  0.66937116  1.0
  Ta  Ta3  1  0.00000000  0.00000000  0.33062884  1.0
  Ni  Ni4  1  0.50000000  0.50000000  0.50000000  1.0
  Ni  Ni5  1  0.00000000  0.00000000  0.00000000  1.0
  O  O6  1  0.20328038  0.79671962  0.17386920  1.0
  O  O7  1  0.20328038  0.79671962  0.82613080  1.0
  O  O8  1  0.70328038  0.70328038  0.67386920  1.0
  O  O9  1  0.70328038  0.70328038  0.32613080  1.0
  O  O10  1  0.79671962  0.20328038  0.17386920  1.0
  O  O11  1  0.79671962  0.20328038  0.82613080  1.0
  O  O12  1  0.29671962  0.29671962  0.67386920  1.0
  O  O13  1  0.29671962  0.29671962  0.32613080  1.0
  O  O14  1  0.19034253  0.80965747  0.50000000  1.0
  O  O15  1  0.69034253  0.69034253  0.00000000  1.0
  O  O16  1  0.80965747  0.19034253  0.50000000  1.0
  O  O17  1  0.30965747  0.30965747  0.00000000  1.0
