# generated using pymatgen
data_RbAg(PO3)2
_symmetry_space_group_name_H-M   'P 1'
_cell_length_a   6.35527988
_cell_length_b   13.55163320
_cell_length_c   7.67594137
_cell_angle_alpha   90.00000000
_cell_angle_beta   95.74203185
_cell_angle_gamma   90.00000000
_symmetry_Int_Tables_number   1
_chemical_formula_structural   RbAg(PO3)2
_chemical_formula_sum   'Rb4 Ag4 P8 O24'
_cell_volume   657.76897498
_cell_formula_units_Z   4
loop_
 _symmetry_equiv_pos_site_id
 _symmetry_equiv_pos_as_xyz
  1  'x, y, z'
loop_
 _atom_site_type_symbol
 _atom_site_label
 _atom_site_symmetry_multiplicity
 _atom_site_fract_x
 _atom_site_fract_y
 _atom_site_fract_z
 _atom_site_occupancy
  Rb  Rb0  1  0.28878467  0.16602518  0.24115855  1.0
  Rb  Rb1  1  0.28878467  0.33397482  0.74115855  1.0
  Rb  Rb2  1  0.71121533  0.66602518  0.25884145  1.0
  Rb  Rb3  1  0.71121533  0.83397482  0.75884145  1.0
  Ag  Ag4  1  0.81460597  0.97184580  0.19288085  1.0
  Ag  Ag5  1  0.81460597  0.52815420  0.69288085  1.0
  Ag  Ag6  1  0.18539403  0.47184580  0.30711915  1.0
  Ag  Ag7  1  0.18539403  0.02815420  0.80711915  1.0
  P  P8  1  0.68844786  0.36568578  0.35864047  1.0
  P  P9  1  0.68844786  0.13431422  0.85864047  1.0
  P  P10  1  0.31155214  0.86568578  0.14135953  1.0
  P  P11  1  0.31155214  0.63431422  0.64135953  1.0
  P  P12  1  0.84064526  0.16974962  0.50524846  1.0
  P  P13  1  0.84064526  0.33025038  1.00524846  1.0
  P  P14  1  0.15935474  0.66974962  -0.00524846  1.0
  P  P15  1  0.15935474  0.83025038  0.49475154  1.0
  O  O16  1  0.73387914  0.11643671  0.34841859  1.0
  O  O17  1  0.73387914  0.38356329  0.84841859  1.0
  O  O18  1  0.26612086  0.61643671  0.15158141  1.0
  O  O19  1  0.26612086  0.88356329  0.65158141  1.0
  O  O20  1  0.67568248  0.33005230  0.15489468  1.0
  O  O21  1  0.67568248  0.16994770  0.65489468  1.0
  O  O22  1  0.32431752  0.83005230  0.34510532  1.0
  O  O23  1  0.32431752  0.66994770  0.84510532  1.0
  O  O24  1  0.46831914  0.35064474  0.41098749  1.0
  O  O25  1  0.46831914  0.14935526  0.91098749  1.0
  O  O26  1  0.53168086  0.85064474  0.08901251  1.0
  O  O27  1  0.53168086  0.64935526  0.58901251  1.0
  O  O28  1  0.93747114  0.85589544  0.42074118  1.0
  O  O29  1  0.93747114  0.64410456  0.92074118  1.0
  O  O30  1  0.06252886  0.35589544  0.07925882  1.0
  O  O31  1  0.06252886  0.14410456  0.57925882  1.0
  O  O32  1  0.85405328  0.28800446  0.46105948  1.0
  O  O33  1  0.85405328  0.21199554  0.96105948  1.0
  O  O34  1  0.14594672  0.78800446  0.03894052  1.0
  O  O35  1  0.14594672  0.71199554  0.53894052  1.0
  O  O36  1  0.79491657  0.46536212  0.38023541  1.0
  O  O37  1  0.79491657  0.03463788  0.88023541  1.0
  O  O38  1  0.20508343  0.96536212  0.11976459  1.0
  O  O39  1  0.20508343  0.53463788  0.61976459  1.0
