# generated using pymatgen
data_BO2
_symmetry_space_group_name_H-M   'P 1'
_cell_length_a   6.83186519
_cell_length_b   8.83672415
_cell_length_c   7.95817379
_cell_angle_alpha   90.00000000
_cell_angle_beta   88.06446425
_cell_angle_gamma   90.00000000
_symmetry_Int_Tables_number   1
_chemical_formula_structural   BO2
_chemical_formula_sum   'B12 O24'
_cell_volume   480.17124922
_cell_formula_units_Z   12
loop_
 _symmetry_equiv_pos_site_id
 _symmetry_equiv_pos_as_xyz
  1  'x, y, z'
loop_
 _atom_site_type_symbol
 _atom_site_label
 _atom_site_symmetry_multiplicity
 _atom_site_fract_x
 _atom_site_fract_y
 _atom_site_fract_z
 _atom_site_occupancy
  O  O0  1  0.81720661  0.25990860  0.36173121  1.0
  O  O1  1  0.81720661  0.24009140  0.86173121  1.0
  O  O2  1  0.18279339  0.75990860  0.13826879  1.0
  O  O3  1  0.18279339  0.74009140  0.63826879  1.0
  O  O4  1  0.29739981  0.05768634  0.38607663  1.0
  O  O5  1  0.29739981  0.44231366  0.88607663  1.0
  O  O6  1  0.70260019  0.55768634  0.11392337  1.0
  O  O7  1  0.70260019  0.94231366  0.61392337  1.0
  O  O8  1  0.54051885  0.29735099  0.53748743  1.0
  O  O9  1  0.54051885  0.20264901  1.03748743  1.0
  O  O10  1  0.45948115  0.79735099  -0.03748743  1.0
  O  O11  1  0.45948115  0.70264901  0.46251257  1.0
  O  O12  1  0.68473494  0.51186763  0.39261820  1.0
  O  O13  1  0.68473494  -0.01186763  0.89261820  1.0
  O  O14  1  0.31526506  1.01186763  0.10738180  1.0
  O  O15  1  0.31526506  0.48813237  0.60738180  1.0
  O  O16  1  0.88268960  0.72243333  0.29917268  1.0
  O  O17  1  0.88268960  0.77756667  0.79917268  1.0
  O  O18  1  0.11731040  0.22243333  0.20082732  1.0
  O  O19  1  0.11731040  0.27756667  0.70082732  1.0
  O  O20  1  0.97997702  0.46565093  0.21748187  1.0
  O  O21  1  0.97997702  0.03434907  0.71748187  1.0
  O  O22  1  0.02002298  0.96565093  0.28251813  1.0
  O  O23  1  0.02002298  0.53434907  0.78251813  1.0
  B  B24  1  0.97126649  0.31324245  0.26041076  1.0
  B  B25  1  0.97126649  0.18675755  0.76041076  1.0
  B  B26  1  0.02873351  0.81324245  0.23958924  1.0
  B  B27  1  0.02873351  0.68675755  0.73958924  1.0
  B  B28  1  0.82463227  0.92736504  0.76212923  1.0
  B  B29  1  0.82463227  0.57263496  0.26212923  1.0
  B  B30  1  0.17536773  0.42736504  0.73787077  1.0
  B  B31  1  0.17536773  0.07263496  0.23787077  1.0
  B  B32  1  0.67698782  0.35769295  0.42832141  1.0
  B  B33  1  0.67698782  0.14230705  0.92832141  1.0
  B  B34  1  0.32301218  0.85769295  0.07167859  1.0
  B  B35  1  0.32301218  0.64230705  0.57167859  1.0
