# generated using pymatgen
data_Li2MnO4
_symmetry_space_group_name_H-M   'P 1'
_cell_length_a   7.01018577
_cell_length_b   10.73828639
_cell_length_c   8.54059868
_cell_angle_alpha   40.67565899
_cell_angle_beta   86.75708955
_cell_angle_gamma   52.56725147
_symmetry_Int_Tables_number   1
_chemical_formula_structural   Li2MnO4
_chemical_formula_sum   'Li4 Mn2 O8'
_cell_volume   207.64258376
_cell_formula_units_Z   2
loop_
 _symmetry_equiv_pos_site_id
 _symmetry_equiv_pos_as_xyz
  1  'x, y, z'
loop_
 _atom_site_type_symbol
 _atom_site_label
 _atom_site_symmetry_multiplicity
 _atom_site_fract_x
 _atom_site_fract_y
 _atom_site_fract_z
 _atom_site_occupancy
  Li  Li0  1  0.62500000  -0.37500000  1.12500000  1.0
  Li  Li1  1  -0.37500000  1.12500000  0.62500000  1.0
  Li  Li2  1  -0.37500000  0.62500000  0.62500000  1.0
  Li  Li3  1  1.12500000  -0.37500000  0.62500000  1.0
  Mn  Mn4  1  -0.00000000  0.00000000  -0.00000000  1.0
  Mn  Mn5  1  0.25000000  0.25000000  1.25000000  1.0
  O  O6  1  -0.09898656  0.24564283  0.63336771  1.0
  O  O7  1  0.21997602  0.63336771  1.24564283  1.0
  O  O8  1  0.00435717  0.34898656  1.03002398  1.0
  O  O9  1  0.61663229  0.03002398  1.34898656  1.0
  O  O10  1  0.63336771  0.21997602  -0.09898656  1.0
  O  O11  1  0.24564283  -0.09898656  1.21997602  1.0
  O  O12  1  0.03002398  0.61663229  1.00435717  1.0
  O  O13  1  0.34898656  0.00435717  1.61663229  1.0
