# generated using pymatgen
data_NaMnH6C3S3(NO)3
_symmetry_space_group_name_H-M   'P 1'
_cell_length_a   10.16068648
_cell_length_b   10.16068648
_cell_length_c   6.65839812
_cell_angle_alpha   90.00000000
_cell_angle_beta   90.00000000
_cell_angle_gamma   120.00000000
_symmetry_Int_Tables_number   1
_chemical_formula_structural   NaMnH6C3S3(NO)3
_chemical_formula_sum   'Na2 Mn2 H12 C6 S6 N6 O6'
_cell_volume   595.31454331
_cell_formula_units_Z   2
loop_
 _symmetry_equiv_pos_site_id
 _symmetry_equiv_pos_as_xyz
  1  'x, y, z'
loop_
 _atom_site_type_symbol
 _atom_site_label
 _atom_site_symmetry_multiplicity
 _atom_site_fract_x
 _atom_site_fract_y
 _atom_site_fract_z
 _atom_site_occupancy
  Na  Na0  1  0.00000000  0.00000000  0.00000000  1.0
  Na  Na1  1  0.00000000  0.00000000  0.50000000  1.0
  Mn  Mn2  1  0.33333333  0.66666667  0.99609430  1.0
  Mn  Mn3  1  0.66666667  0.33333333  0.00390570  1.0
  H  H4  1  0.10055565  0.29120792  0.23410908  1.0
  H  H5  1  0.19065227  0.89944435  0.23410908  1.0
  H  H6  1  0.70879208  0.80934773  0.23410908  1.0
  H  H7  1  0.89944435  0.70879208  0.76589092  1.0
  H  H8  1  0.80934773  0.10055565  0.76589092  1.0
  H  H9  1  0.29120792  0.19065227  0.76589092  1.0
  H  H10  1  0.92386875  0.19222082  0.25468140  1.0
  H  H11  1  0.26835207  0.07613125  0.25468140  1.0
  H  H12  1  0.80777918  0.73164793  0.25468140  1.0
  H  H13  1  0.07613125  0.80777918  0.74531860  1.0
  H  H14  1  0.73164793  0.92386875  0.74531860  1.0
  H  H15  1  0.19222082  0.26835207  0.74531860  1.0
  C  C16  1  0.58291546  0.97681641  0.20699049  1.0
  C  C17  1  0.39390095  0.41708454  0.20699049  1.0
  C  C18  1  0.02318359  0.60609905  0.20699049  1.0
  C  C19  1  0.41708454  0.02318359  0.79300951  1.0
  C  C20  1  0.60609905  0.58291546  0.79300951  1.0
  C  C21  1  0.97681641  0.39390095  0.79300951  1.0
  S  S22  1  0.68010117  0.14736793  0.30238287  1.0
  S  S23  1  0.46726676  0.31989883  0.30238287  1.0
  S  S24  1  0.85263207  0.53273324  0.30238287  1.0
  S  S25  1  0.31989883  0.85263207  0.69761713  1.0
  S  S26  1  0.53273324  0.68010117  0.69761713  1.0
  S  S27  1  0.14736793  0.46726676  0.69761713  1.0
  N  N28  1  0.51319226  0.85256013  0.13913206  1.0
  N  N29  1  0.33936787  0.48680774  0.13913206  1.0
  N  N30  1  0.14743987  0.66063213  0.13913206  1.0
  N  N31  1  0.48680774  0.14743987  0.86086794  1.0
  N  N32  1  0.66063213  0.51319226  0.86086794  1.0
  N  N33  1  0.85256013  0.33936787  0.86086794  1.0
  O  O34  1  0.01766203  0.18633788  0.24595002  1.0
  O  O35  1  0.16867585  0.98233797  0.24595002  1.0
  O  O36  1  0.81366212  0.83132415  0.24595002  1.0
  O  O37  1  0.98233797  0.81366212  0.75404998  1.0
  O  O38  1  0.83132415  0.01766203  0.75404998  1.0
  O  O39  1  0.18633788  0.16867585  0.75404998  1.0
