# generated using pymatgen
data_Na3Sn2ClF6
_symmetry_space_group_name_H-M   'P 1'
_cell_length_a   15.29871498
_cell_length_b   15.29871498
_cell_length_c   15.29871498
_cell_angle_alpha   22.06783820
_cell_angle_beta   22.06783820
_cell_angle_gamma   22.06783820
_symmetry_Int_Tables_number   1
_chemical_formula_structural   Na3Sn2ClF6
_chemical_formula_sum   'Na6 Sn4 Cl2 F12'
_cell_volume   443.11973684
_cell_formula_units_Z   2
loop_
 _symmetry_equiv_pos_site_id
 _symmetry_equiv_pos_as_xyz
  1  'x, y, z'
loop_
 _atom_site_type_symbol
 _atom_site_label
 _atom_site_symmetry_multiplicity
 _atom_site_fract_x
 _atom_site_fract_y
 _atom_site_fract_z
 _atom_site_occupancy
  Na  Na0  1  0.50000000  0.50000000  0.50000000  1.0
  Na  Na1  1  1.00000000  -0.00000000  0.00000000  1.0
  Na  Na2  1  0.81489907  0.81489907  -0.18510093  1.0
  Na  Na3  1  0.31489907  0.31489907  0.31489907  1.0
  Na  Na4  1  0.18510093  0.18510093  0.18510093  1.0
  Na  Na5  1  0.68510093  0.68510093  -0.31489907  1.0
  Sn  Sn6  1  1.10942990  0.10942990  0.10942990  1.0
  Sn  Sn7  1  0.60942990  0.60942990  -0.39057010  1.0
  Sn  Sn8  1  0.89057010  -0.10942990  -0.10942990  1.0
  Sn  Sn9  1  0.39057010  0.39057010  0.39057010  1.0
  Cl  Cl10  1  0.75000000  0.75000000  -0.25000000  1.0
  Cl  Cl11  1  0.25000000  0.25000000  0.25000000  1.0
  F  F12  1  1.39165743  0.17973849  -0.15031499  1.0
  F  F13  1  1.17973849  -0.15031499  0.39165743  1.0
  F  F14  1  0.84968501  0.39165743  0.17973849  1.0
  F  F15  1  0.89165743  0.34968501  -0.32026151  1.0
  F  F16  1  0.34968501  0.67973849  -0.10834257  1.0
  F  F17  1  0.67973849  0.89165743  -0.65031499  1.0
  F  F18  1  0.60834257  -0.17973849  0.15031499  1.0
  F  F19  1  0.82026151  0.15031499  -0.39165743  1.0
  F  F20  1  1.15031499  -0.39165743  -0.17973849  1.0
  F  F21  1  1.10834257  -0.34968501  0.32026151  1.0
  F  F22  1  0.65031499  0.32026151  0.10834257  1.0
  F  F23  1  1.32026151  0.10834257  -0.34968501  1.0
