# generated using pymatgen
data_K2Al2Sb2O7
_symmetry_space_group_name_H-M   'P 1'
_cell_length_a   5.71986010
_cell_length_b   5.71986010
_cell_length_c   8.26086487
_cell_angle_alpha   90.00000000
_cell_angle_beta   90.00000000
_cell_angle_gamma   120.00000000
_symmetry_Int_Tables_number   1
_chemical_formula_structural   K2Al2Sb2O7
_chemical_formula_sum   'K2 Al2 Sb2 O7'
_cell_volume   234.05987218
_cell_formula_units_Z   1
loop_
 _symmetry_equiv_pos_site_id
 _symmetry_equiv_pos_as_xyz
  1  'x, y, z'
loop_
 _atom_site_type_symbol
 _atom_site_label
 _atom_site_symmetry_multiplicity
 _atom_site_fract_x
 _atom_site_fract_y
 _atom_site_fract_z
 _atom_site_occupancy
  K  K0  1  0.33333333  0.66666667  0.59018153  1.0
  K  K1  1  0.66666667  0.33333333  0.40981847  1.0
  Al  Al2  1  0.00000000  0.00000000  0.20984194  1.0
  Al  Al3  1  0.00000000  0.00000000  0.79015806  1.0
  Sb  Sb4  1  0.33333333  0.66666667  0.15592582  1.0
  Sb  Sb5  1  0.66666667  0.33333333  0.84407418  1.0
  O  O6  1  0.66413505  0.83206752  0.28949860  1.0
  O  O7  1  0.83206752  0.66413505  0.71050140  1.0
  O  O8  1  0.83206752  0.16793248  0.71050140  1.0
  O  O9  1  0.16793248  0.83206752  0.28949860  1.0
  O  O10  1  0.16793248  0.33586495  0.28949860  1.0
  O  O11  1  0.33586495  0.16793248  0.71050140  1.0
  O  O12  1  0.00000000  0.00000000  0.00000000  1.0
