# generated using pymatgen
data_Sr3ZnIrO6
_symmetry_space_group_name_H-M   'P 1'
_cell_length_a   6.74661991
_cell_length_b   6.74661991
_cell_length_c   6.74661991
_cell_angle_alpha   91.40822127
_cell_angle_beta   91.40822127
_cell_angle_gamma   91.40822127
_symmetry_Int_Tables_number   1
_chemical_formula_structural   Sr3ZnIrO6
_chemical_formula_sum   'Sr6 Zn2 Ir2 O12'
_cell_volume   306.80220038
_cell_formula_units_Z   2
loop_
 _symmetry_equiv_pos_site_id
 _symmetry_equiv_pos_as_xyz
  1  'x, y, z'
loop_
 _atom_site_type_symbol
 _atom_site_label
 _atom_site_symmetry_multiplicity
 _atom_site_fract_x
 _atom_site_fract_y
 _atom_site_fract_z
 _atom_site_occupancy
  Sr  Sr0  1  0.88800869  1.25000000  -0.38800869  1.0
  Sr  Sr1  1  1.38800869  0.11199131  -0.25000000  1.0
  Sr  Sr2  1  0.75000000  0.38800869  0.11199131  1.0
  Sr  Sr3  1  1.25000000  0.61199131  -0.11199131  1.0
  Sr  Sr4  1  1.11199131  -0.25000000  0.38800869  1.0
  Sr  Sr5  1  0.61199131  0.88800869  0.25000000  1.0
  Zn  Zn6  1  0.25000000  0.25000000  0.25000000  1.0
  Zn  Zn7  1  0.75000000  0.75000000  0.75000000  1.0
  Ir  Ir8  1  0.50000000  0.50000000  0.50000000  1.0
  Ir  Ir9  1  0.00000000  0.00000000  0.00000000  1.0
  O  O10  1  1.21537151  0.40624019  -0.45947664  1.0
  O  O11  1  0.71537151  1.04052336  -0.09375981  1.0
  O  O12  1  0.95947664  0.09375981  0.28462849  1.0
  O  O13  1  1.45947664  -0.21537151  0.59375981  1.0
  O  O14  1  1.59375981  0.45947664  -0.21537151  1.0
  O  O15  1  1.09375981  0.28462849  -0.04052336  1.0
  O  O16  1  0.78462849  0.59375981  0.45947664  1.0
  O  O17  1  1.28462849  -0.04052336  0.09375981  1.0
  O  O18  1  0.54052336  1.21537151  -0.59375981  1.0
  O  O19  1  1.04052336  0.90624019  -0.28462849  1.0
  O  O20  1  0.90624019  0.71537151  0.04052336  1.0
  O  O21  1  0.40624019  0.54052336  0.21537151  1.0
