# generated using pymatgen
data_Li3CuO3
_symmetry_space_group_name_H-M   'P 1'
_cell_length_a   8.76478194
_cell_length_b   8.76478194
_cell_length_c   3.59986640
_cell_angle_alpha   90.00000000
_cell_angle_beta   90.00000000
_cell_angle_gamma   90.00000000
_symmetry_Int_Tables_number   1
_chemical_formula_structural   Li3CuO3
_chemical_formula_sum   'Li12 Cu4 O12'
_cell_volume   276.54678578
_cell_formula_units_Z   4
loop_
 _symmetry_equiv_pos_site_id
 _symmetry_equiv_pos_as_xyz
  1  'x, y, z'
loop_
 _atom_site_type_symbol
 _atom_site_label
 _atom_site_symmetry_multiplicity
 _atom_site_fract_x
 _atom_site_fract_y
 _atom_site_fract_z
 _atom_site_occupancy
  Li  Li0  1  0.36010110  0.10257142  0.50000000  1.0
  Li  Li1  1  0.86010110  0.39742858  0.00000000  1.0
  Li  Li2  1  0.89742858  0.63989890  0.50000000  1.0
  Li  Li3  1  0.39742858  0.86010110  0.00000000  1.0
  Li  Li4  1  0.63989890  0.89742858  0.50000000  1.0
  Li  Li5  1  0.13989890  0.60257142  0.00000000  1.0
  Li  Li6  1  0.10257142  0.36010110  0.50000000  1.0
  Li  Li7  1  0.60257142  0.13989890  0.00000000  1.0
  Li  Li8  1  0.33289939  0.66710061  0.50000000  1.0
  Li  Li9  1  0.83289939  0.83289939  0.00000000  1.0
  Li  Li10  1  0.66710061  0.33289939  0.50000000  1.0
  Li  Li11  1  0.16710061  0.16710061  0.00000000  1.0
  Cu  Cu12  1  0.11354597  0.88645403  0.50000000  1.0
  Cu  Cu13  1  0.61354597  0.61354597  0.00000000  1.0
  Cu  Cu14  1  0.88645403  0.11354597  0.50000000  1.0
  Cu  Cu15  1  0.38645403  0.38645403  0.00000000  1.0
  O  O16  1  0.32326369  0.88765717  0.50000000  1.0
  O  O17  1  0.82326369  0.61234283  0.00000000  1.0
  O  O18  1  0.11234283  0.67673631  0.50000000  1.0
  O  O19  1  0.61234283  0.82326369  0.00000000  1.0
  O  O20  1  0.67673631  0.11234283  0.50000000  1.0
  O  O21  1  0.17673631  0.38765717  0.00000000  1.0
  O  O22  1  0.88765717  0.32326369  0.50000000  1.0
  O  O23  1  0.38765717  0.17673631  0.00000000  1.0
  O  O24  1  0.10134602  0.10134602  0.50000000  1.0
  O  O25  1  0.60134602  0.39865398  0.00000000  1.0
  O  O26  1  0.89865398  0.89865398  0.50000000  1.0
  O  O27  1  0.39865398  0.60134602  0.00000000  1.0
