# generated using pymatgen
data_Hf9Ni11
_symmetry_space_group_name_H-M   'P 1'
_cell_length_a   7.69735241
_cell_length_b   7.69735241
_cell_length_c   7.69735241
_cell_angle_alpha   100.06515823
_cell_angle_beta   100.06515823
_cell_angle_gamma   130.57659255
_symmetry_Int_Tables_number   1
_chemical_formula_structural   Hf9Ni11
_chemical_formula_sum   'Hf9 Ni11'
_cell_volume   314.67419892
_cell_formula_units_Z   1
loop_
 _symmetry_equiv_pos_site_id
 _symmetry_equiv_pos_as_xyz
  1  'x, y, z'
loop_
 _atom_site_type_symbol
 _atom_site_label
 _atom_site_symmetry_multiplicity
 _atom_site_fract_x
 _atom_site_fract_y
 _atom_site_fract_z
 _atom_site_occupancy
  Hf  Hf0  1  0.75681537  0.58620949  0.34302486  1.0
  Hf  Hf1  1  0.58620949  0.24318463  0.82939412  1.0
  Hf  Hf2  1  1.24318463  1.41379051  1.65697514  1.0
  Hf  Hf3  1  0.41379051  0.75681537  1.17060588  1.0
  Hf  Hf4  1  0.69022084  0.90772684  1.59794768  1.0
  Hf  Hf5  1  0.90772684  1.30977916  1.21750600  1.0
  Hf  Hf6  1  0.30977916  0.09227316  0.40205232  1.0
  Hf  Hf7  1  1.09227316  0.69022084  0.78249400  1.0
  Hf  Hf8  1  0.00000000  0.00000000  0.00000000  1.0
  Ni  Ni9  1  1.09249676  0.98742952  0.66221381  1.0
  Ni  Ni10  1  0.67478430  0.56971705  0.66221381  1.0
  Ni  Ni11  1  0.98742952  0.32521570  0.89493275  1.0
  Ni  Ni12  1  1.56971705  0.90750324  0.89493275  1.0
  Ni  Ni13  1  1.32521570  1.43028295  1.33778619  1.0
  Ni  Ni14  1  0.90750324  1.01257048  1.33778619  1.0
  Ni  Ni15  1  0.43028295  1.09249676  1.10506725  1.0
  Ni  Ni16  1  1.01257048  1.67478430  1.10506725  1.0
  Ni  Ni17  1  1.25000000  0.75000000  0.50000000  1.0
  Ni  Ni18  1  0.75000000  0.25000000  0.50000000  1.0
  Ni  Ni19  1  0.50000000  0.50000000  0.00000000  1.0
