# generated using pymatgen
data_La2B4Rh5
_symmetry_space_group_name_H-M   'P 1'
_cell_length_a   7.58970117
_cell_length_b   6.30921210
_cell_length_c   5.75500372
_cell_angle_alpha   77.81900989
_cell_angle_beta   54.34782820
_cell_angle_gamma   47.83316191
_symmetry_Int_Tables_number   1
_chemical_formula_structural   La2B4Rh5
_chemical_formula_sum   'La2 B4 Rh5'
_cell_volume   158.36385747
_cell_formula_units_Z   1
loop_
 _symmetry_equiv_pos_site_id
 _symmetry_equiv_pos_as_xyz
  1  'x, y, z'
loop_
 _atom_site_type_symbol
 _atom_site_label
 _atom_site_symmetry_multiplicity
 _atom_site_fract_x
 _atom_site_fract_y
 _atom_site_fract_z
 _atom_site_occupancy
  La  La0  1  0.64373373  0.64373373  -0.64373373  1.0
  La  La1  1  0.35626627  1.35626627  -0.35626627  1.0
  B  B2  1  1.70854759  0.03258864  -0.03258864  1.0
  B  B3  1  0.96741136  0.29145241  0.70854759  1.0
  B  B4  1  1.03258864  0.70854759  0.29145241  1.0
  B  B5  1  1.29145241  -0.03258864  0.03258864  1.0
  Rh  Rh6  1  0.75000000  0.75000000  0.75000000  1.0
  Rh  Rh7  1  1.25000000  0.25000000  0.25000000  1.0
  Rh  Rh8  1  0.00000000  -0.00000000  1.50000000  1.0
  Rh  Rh9  1  0.50000000  -0.50000000  1.00000000  1.0
  Rh  Rh10  1  0.00000000  0.00000000  0.00000000  1.0
