# generated using pymatgen
data_Cs2PdSe8
_symmetry_space_group_name_H-M   'P 1'
_cell_length_a   12.78021563
_cell_length_b   12.78021563
_cell_length_c   12.78021563
_cell_angle_alpha   106.17398564
_cell_angle_beta   106.17398564
_cell_angle_gamma   116.28841157
_symmetry_Int_Tables_number   1
_chemical_formula_structural   Cs2PdSe8
_chemical_formula_sum   'Cs8 Pd4 Se32'
_cell_volume   1589.65638674
_cell_formula_units_Z   4
loop_
 _symmetry_equiv_pos_site_id
 _symmetry_equiv_pos_as_xyz
  1  'x, y, z'
loop_
 _atom_site_type_symbol
 _atom_site_label
 _atom_site_symmetry_multiplicity
 _atom_site_fract_x
 _atom_site_fract_y
 _atom_site_fract_z
 _atom_site_occupancy
  Cs  Cs0  1  0.61461425  0.88538575  1.50000000  1.0
  Cs  Cs1  1  0.11461425  0.61461425  0.72922849  1.0
  Cs  Cs2  1  1.13538575  1.36461425  1.00000000  1.0
  Cs  Cs3  1  1.63538575  1.63538575  1.77077151  1.0
  Cs  Cs4  1  0.88538575  0.38538575  1.27077151  1.0
  Cs  Cs5  1  0.38538575  0.11461425  0.50000000  1.0
  Cs  Cs6  1  0.86461425  0.86461425  0.22922849  1.0
  Cs  Cs7  1  1.36461425  1.13538575  1.00000000  1.0
  Pd  Pd8  1  0.75000000  1.25000000  0.50000000  1.0
  Pd  Pd9  1  0.25000000  0.75000000  0.50000000  1.0
  Pd  Pd10  1  0.50000000  0.50000000  -0.00000000  1.0
  Pd  Pd11  1  0.00000000  0.00000000  0.00000000  1.0
  Se  Se12  1  0.90001990  1.27491012  0.68943593  1.0
  Se  Se13  1  0.40001990  0.71058397  0.62510978  1.0
  Se  Se14  1  0.52491012  0.65001990  0.18943593  1.0
  Se  Se15  1  1.02491012  0.83547419  0.87489022  1.0
  Se  Se16  1  0.84998010  0.97508988  1.81056407  1.0
  Se  Se17  1  1.34998010  0.53941603  0.87489022  1.0
  Se  Se18  1  1.22508988  0.59998010  1.31056407  1.0
  Se  Se19  1  0.72508988  0.41452581  0.62510978  1.0
  Se  Se20  1  1.08547419  0.77491012  0.37489022  1.0
  Se  Se21  1  1.58547419  1.21058397  1.31056407  1.0
  Se  Se22  1  1.96058397  1.15001990  1.12510978  1.0
  Se  Se23  1  1.46058397  1.33547419  1.81056407  1.0
  Se  Se24  1  0.66452581  0.47508988  1.12510978  1.0
  Se  Se25  1  0.16452581  0.03941603  0.18943593  1.0
  Se  Se26  1  0.78941603  1.09998010  0.37489022  1.0
  Se  Se27  1  0.28941603  0.91452581  0.68943593  1.0
  Se  Se28  1  1.02991658  1.19575774  0.65400375  1.0
  Se  Se29  1  1.52991658  0.87591283  0.83415883  1.0
  Se  Se30  1  1.44575774  0.77991658  1.15400375  1.0
  Se  Se31  1  0.94575774  0.79175400  1.66584117  1.0
  Se  Se32  1  1.72008342  1.05424226  0.84599625  1.0
  Se  Se33  1  1.22008342  1.37408717  0.66584117  1.0
  Se  Se34  1  0.30424226  0.47008342  0.34599625  1.0
  Se  Se35  1  0.80424226  1.45824600  0.83415883  1.0
  Se  Se36  1  1.04175400  1.69575774  1.16584117  1.0
  Se  Se37  1  1.54175400  1.37591283  1.34599625  1.0
  Se  Se38  1  0.12591283  0.27991658  0.33415883  1.0
  Se  Se39  1  0.62591283  1.29175400  0.84599625  1.0
  Se  Se40  1  1.70824600  1.55424226  1.33415883  1.0
  Se  Se41  1  1.20824600  1.87408717  1.15400375  1.0
  Se  Se42  1  1.62408717  0.97008342  1.16584117  1.0
  Se  Se43  1  1.12408717  0.95824600  1.65400375  1.0
