# generated using pymatgen
data_K2SIO7
_symmetry_space_group_name_H-M   'P 1'
_cell_length_a   7.48900948
_cell_length_b   7.23014764
_cell_length_c   15.44062448
_cell_angle_alpha   90.00000000
_cell_angle_beta   111.32881613
_cell_angle_gamma   90.00000000
_symmetry_Int_Tables_number   1
_chemical_formula_structural   K2SIO7
_chemical_formula_sum   'K8 S4 I4 O28'
_cell_volume   778.79506480
_cell_formula_units_Z   4
loop_
 _symmetry_equiv_pos_site_id
 _symmetry_equiv_pos_as_xyz
  1  'x, y, z'
loop_
 _atom_site_type_symbol
 _atom_site_label
 _atom_site_symmetry_multiplicity
 _atom_site_fract_x
 _atom_site_fract_y
 _atom_site_fract_z
 _atom_site_occupancy
  K  K0  1  0.94945585  0.83957938  0.32200161  1.0
  K  K1  1  0.94945585  0.66042062  0.82200161  1.0
  K  K2  1  0.05054415  0.33957938  0.17799839  1.0
  K  K3  1  0.05054415  0.16042062  0.67799839  1.0
  K  K4  1  0.59059696  0.10581125  0.41631571  1.0
  K  K5  1  0.59059696  0.39418875  0.91631571  1.0
  K  K6  1  0.40940304  0.60581125  0.08368429  1.0
  K  K7  1  0.40940304  0.89418875  0.58368429  1.0
  S  S8  1  0.56167785  0.12295015  0.14744430  1.0
  S  S9  1  0.56167785  0.37704985  0.64744430  1.0
  S  S10  1  0.43832215  0.62295015  0.35255570  1.0
  S  S11  1  0.43832215  0.87704985  0.85255570  1.0
  O  O12  1  0.92798842  0.33061810  0.49842538  1.0
  O  O13  1  0.92798842  0.16938190  0.99842538  1.0
  O  O14  1  0.07201158  0.83061810  0.00157462  1.0
  O  O15  1  0.07201158  0.66938190  0.50157462  1.0
  O  O16  1  0.65098910  0.27285774  0.11159128  1.0
  O  O17  1  0.65098910  0.22714226  0.61159128  1.0
  O  O18  1  0.34901090  0.77285774  0.38840872  1.0
  O  O19  1  0.34901090  0.72714226  0.88840872  1.0
  O  O20  1  0.41323637  0.44078724  0.39603704  1.0
  O  O21  1  0.41323637  0.05921276  0.89603704  1.0
  O  O22  1  0.58676363  0.94078724  0.10396296  1.0
  O  O23  1  0.58676363  0.55921276  0.60396296  1.0
  O  O24  1  0.34850400  0.15867382  0.11858066  1.0
  O  O25  1  0.34850400  0.34132618  0.61858066  1.0
  O  O26  1  0.65149600  0.65867382  0.38141934  1.0
  O  O27  1  0.65149600  0.84132618  0.88141934  1.0
  O  O28  1  0.17544314  0.12814793  0.43193094  1.0
  O  O29  1  0.17544314  0.37185207  0.93193094  1.0
  O  O30  1  0.82455686  0.62814793  0.06806906  1.0
  O  O31  1  0.82455686  0.87185207  0.56806906  1.0
  O  O32  1  0.97858407  0.45317022  0.32733336  1.0
  O  O33  1  0.97858407  0.04682978  0.82733336  1.0
  O  O34  1  0.02141593  0.95317022  0.17266664  1.0
  O  O35  1  0.02141593  0.54682978  0.67266664  1.0
  O  O36  1  0.64372906  0.10559007  0.24983774  1.0
  O  O37  1  0.64372906  0.39440993  0.74983774  1.0
  O  O38  1  0.35627094  0.60559007  0.25016226  1.0
  O  O39  1  0.35627094  0.89440993  0.75016226  1.0
  I  I40  1  0.87371796  0.87824620  0.05315826  1.0
  I  I41  1  0.87371796  0.62175380  0.55315826  1.0
  I  I42  1  0.12628204  0.37824620  0.44684174  1.0
  I  I43  1  0.12628204  0.12175380  0.94684174  1.0
