# generated using pymatgen
data_NbBr2O
_symmetry_space_group_name_H-M   'P 1'
_cell_length_a   8.03834991
_cell_length_b   8.03834991
_cell_length_c   7.09176142
_cell_angle_alpha   75.69511789
_cell_angle_beta   104.30488211
_cell_angle_gamma   151.70737161
_symmetry_Int_Tables_number   1
_chemical_formula_structural   NbBr2O
_chemical_formula_sum   'Nb2 Br4 O2'
_cell_volume   210.02255770
_cell_formula_units_Z   2
loop_
 _symmetry_equiv_pos_site_id
 _symmetry_equiv_pos_as_xyz
  1  'x, y, z'
loop_
 _atom_site_type_symbol
 _atom_site_label
 _atom_site_symmetry_multiplicity
 _atom_site_fract_x
 _atom_site_fract_y
 _atom_site_fract_z
 _atom_site_occupancy
  Nb  Nb0  1  1.04738420  -0.95256487  0.71380148  1.0
  Nb  Nb1  1  1.04743513  0.04738420  0.28619852  1.0
  Br  Br2  1  1.88064706  0.11494119  0.93446966  1.0
  Br  Br3  1  1.11494119  -0.11935294  0.06553034  1.0
  Br  Br4  1  0.86540430  -0.85502496  0.42157884  1.0
  Br  Br5  1  1.14497504  -0.13459570  0.57842116  1.0
  O  O6  1  0.50873287  -0.49111980  0.71997529  1.0
  O  O7  1  1.50888020  -0.49126713  0.28002471  1.0
