# generated using pymatgen
data_K2SnCl4O
_symmetry_space_group_name_H-M   'P 1'
_cell_length_a   12.26585099
_cell_length_b   8.22262839
_cell_length_c   8.70144084
_cell_angle_alpha   90.00000000
_cell_angle_beta   90.00000000
_cell_angle_gamma   90.00000000
_symmetry_Int_Tables_number   1
_chemical_formula_structural   K2SnCl4O
_chemical_formula_sum   'K8 Sn4 Cl16 O4'
_cell_volume   877.60586941
_cell_formula_units_Z   4
loop_
 _symmetry_equiv_pos_site_id
 _symmetry_equiv_pos_as_xyz
  1  'x, y, z'
loop_
 _atom_site_type_symbol
 _atom_site_label
 _atom_site_symmetry_multiplicity
 _atom_site_fract_x
 _atom_site_fract_y
 _atom_site_fract_z
 _atom_site_occupancy
  K  K0  1  0.85231221  0.25000000  0.06643024  1.0
  K  K1  1  0.35231221  0.25000000  0.43356976  1.0
  K  K2  1  0.14768779  0.75000000  0.93356976  1.0
  K  K3  1  0.64768779  0.75000000  0.56643024  1.0
  K  K4  1  0.64793463  0.25000000  0.56648101  1.0
  K  K5  1  0.14793463  0.25000000  0.93351899  1.0
  K  K6  1  0.35206537  0.75000000  0.43351899  1.0
  K  K7  1  0.85206537  0.75000000  0.06648101  1.0
  Sn  Sn8  1  0.00000000  0.50000000  0.50000000  1.0
  Sn  Sn9  1  0.00000000  0.00000000  0.50000000  1.0
  Sn  Sn10  1  0.50000000  0.50000000  0.00000000  1.0
  Sn  Sn11  1  0.50000000  0.00000000  0.00000000  1.0
  Cl  Cl12  1  0.80784228  0.49984014  0.36631742  1.0
  Cl  Cl13  1  0.80784228  0.00015986  0.36631742  1.0
  Cl  Cl14  1  0.30784228  0.49984014  0.13368258  1.0
  Cl  Cl15  1  0.30784228  0.00015986  0.13368258  1.0
  Cl  Cl16  1  0.19215772  0.99984014  0.63368258  1.0
  Cl  Cl17  1  0.19215772  0.50015986  0.63368258  1.0
  Cl  Cl18  1  0.69215772  0.99984014  0.86631742  1.0
  Cl  Cl19  1  0.69215772  0.50015986  0.86631742  1.0
  Cl  Cl20  1  0.93443045  0.25000000  0.68501841  1.0
  Cl  Cl21  1  0.43443045  0.25000000  0.81498159  1.0
  Cl  Cl22  1  0.06556955  0.75000000  0.31498159  1.0
  Cl  Cl23  1  0.56556955  0.75000000  0.18501841  1.0
  Cl  Cl24  1  0.56553221  0.25000000  0.18498830  1.0
  Cl  Cl25  1  0.06553221  0.25000000  0.31501170  1.0
  Cl  Cl26  1  0.43446779  0.75000000  0.81501170  1.0
  Cl  Cl27  1  0.93446779  0.75000000  0.68498830  1.0
  O  O28  1  0.00000000  0.50000000  0.00000000  1.0
  O  O29  1  0.00000000  0.00000000  -0.00000000  1.0
  O  O30  1  0.50000000  0.50000000  0.50000000  1.0
  O  O31  1  0.50000000  0.00000000  0.50000000  1.0
