# generated using pymatgen
data_GeBr4
_symmetry_space_group_name_H-M   'P 1'
_cell_length_a   12.25868656
_cell_length_b   12.25868656
_cell_length_c   12.25868656
_cell_angle_alpha   90.00000000
_cell_angle_beta   90.00000000
_cell_angle_gamma   90.00000000
_symmetry_Int_Tables_number   1
_chemical_formula_structural   GeBr4
_chemical_formula_sum   'Ge8 Br32'
_cell_volume   1842.17897715
_cell_formula_units_Z   8
loop_
 _symmetry_equiv_pos_site_id
 _symmetry_equiv_pos_as_xyz
  1  'x, y, z'
loop_
 _atom_site_type_symbol
 _atom_site_label
 _atom_site_symmetry_multiplicity
 _atom_site_fract_x
 _atom_site_fract_y
 _atom_site_fract_z
 _atom_site_occupancy
  Ge  Ge0  1  0.36442948  0.86442948  0.63557052  1.0
  Ge  Ge1  1  0.36442948  0.63557052  0.13557052  1.0
  Ge  Ge2  1  0.86442948  0.86442948  0.86442948  1.0
  Ge  Ge3  1  0.86442948  0.63557052  0.36442948  1.0
  Ge  Ge4  1  0.63557052  0.36442948  0.86442948  1.0
  Ge  Ge5  1  0.63557052  0.13557052  0.36442948  1.0
  Ge  Ge6  1  0.13557052  0.36442948  0.63557052  1.0
  Ge  Ge7  1  0.13557052  0.13557052  0.13557052  1.0
  Br  Br8  1  0.53961761  0.48541954  0.75642636  1.0
  Br  Br9  1  0.53961761  0.01458046  0.25642636  1.0
  Br  Br10  1  0.03961761  0.48541954  0.74357364  1.0
  Br  Br11  1  0.03961761  0.01458046  0.24357364  1.0
  Br  Br12  1  0.98541954  0.74357364  0.46038239  1.0
  Br  Br13  1  0.98541954  0.75642636  0.96038239  1.0
  Br  Br14  1  0.48541954  0.74357364  0.03961761  1.0
  Br  Br15  1  0.48541954  0.75642636  0.53961761  1.0
  Br  Br16  1  0.24357364  0.03961761  0.01458046  1.0
  Br  Br17  1  0.24357364  0.46038239  0.51458046  1.0
  Br  Br18  1  0.74357364  0.03961761  0.48541954  1.0
  Br  Br19  1  0.74357364  0.46038239  0.98541954  1.0
  Br  Br20  1  0.46038239  0.98541954  0.74357364  1.0
  Br  Br21  1  0.46038239  0.51458046  0.24357364  1.0
  Br  Br22  1  0.96038239  0.98541954  0.75642636  1.0
  Br  Br23  1  0.96038239  0.51458046  0.25642636  1.0
  Br  Br24  1  0.01458046  0.24357364  0.03961761  1.0
  Br  Br25  1  0.01458046  0.25642636  0.53961761  1.0
  Br  Br26  1  0.51458046  0.24357364  0.46038239  1.0
  Br  Br27  1  0.51458046  0.25642636  0.96038239  1.0
  Br  Br28  1  0.75642636  0.53961761  0.48541954  1.0
  Br  Br29  1  0.75642636  0.96038239  0.98541954  1.0
  Br  Br30  1  0.25642636  0.53961761  0.01458046  1.0
  Br  Br31  1  0.25642636  0.96038239  0.51458046  1.0
  Br  Br32  1  0.25589758  0.75589758  0.74410242  1.0
  Br  Br33  1  0.25589758  0.74410242  0.24410242  1.0
  Br  Br34  1  0.75589758  0.75589758  0.75589758  1.0
  Br  Br35  1  0.75589758  0.74410242  0.25589758  1.0
  Br  Br36  1  0.74410242  0.25589758  0.75589758  1.0
  Br  Br37  1  0.74410242  0.24410242  0.25589758  1.0
  Br  Br38  1  0.24410242  0.25589758  0.74410242  1.0
  Br  Br39  1  0.24410242  0.24410242  0.24410242  1.0
