# generated using pymatgen
data_LaIn4Ni
_symmetry_space_group_name_H-M   'P 1'
_cell_length_a   8.82243754
_cell_length_b   8.82243754
_cell_length_c   7.32032223
_cell_angle_alpha   90.00000000
_cell_angle_beta   90.00000000
_cell_angle_gamma   150.22067659
_symmetry_Int_Tables_number   1
_chemical_formula_structural   LaIn4Ni
_chemical_formula_sum   'La2 In8 Ni2'
_cell_volume   282.98749448
_cell_formula_units_Z   2
loop_
 _symmetry_equiv_pos_site_id
 _symmetry_equiv_pos_as_xyz
  1  'x, y, z'
loop_
 _atom_site_type_symbol
 _atom_site_label
 _atom_site_symmetry_multiplicity
 _atom_site_fract_x
 _atom_site_fract_y
 _atom_site_fract_z
 _atom_site_occupancy
  La  La0  1  -0.61830158  0.61830158  0.25000000  1.0
  La  La1  1  -0.38169842  1.38169842  0.75000000  1.0
  In  In2  1  -0.81107409  0.81107409  0.45104603  1.0
  In  In3  1  -0.81107409  0.81107409  0.04895397  1.0
  In  In4  1  -0.18892591  1.18892591  0.95104603  1.0
  In  In5  1  -0.18892591  1.18892591  0.54895397  1.0
  In  In6  1  -0.42435409  1.42435409  0.25000000  1.0
  In  In7  1  -0.57564591  0.57564591  0.75000000  1.0
  In  In8  1  0.00000000  0.00000000  0.50000000  1.0
  In  In9  1  0.00000000  0.00000000  0.00000000  1.0
  Ni  Ni10  1  -0.27334576  1.27334576  0.25000000  1.0
  Ni  Ni11  1  -0.72665424  0.72665424  0.75000000  1.0
