# generated using pymatgen
data_Sr2ZnN2
_symmetry_space_group_name_H-M   'P 1'
_cell_length_a   6.98688036
_cell_length_b   6.98688036
_cell_length_c   6.98688036
_cell_angle_alpha   147.80985589
_cell_angle_beta   147.80985589
_cell_angle_gamma   46.16613643
_symmetry_Int_Tables_number   1
_chemical_formula_structural   Sr2ZnN2
_chemical_formula_sum   'Sr2 Zn1 N2'
_cell_volume   96.46170978
_cell_formula_units_Z   1
loop_
 _symmetry_equiv_pos_site_id
 _symmetry_equiv_pos_as_xyz
  1  'x, y, z'
loop_
 _atom_site_type_symbol
 _atom_site_label
 _atom_site_symmetry_multiplicity
 _atom_site_fract_x
 _atom_site_fract_y
 _atom_site_fract_z
 _atom_site_occupancy
  Sr  Sr0  1  0.65891535  0.65891535  1.00000000  1.0
  Sr  Sr1  1  0.34108465  0.34108465  0.00000000  1.0
  Zn  Zn2  1  0.00000000  0.00000000  0.00000000  1.0
  N  N3  1  0.85675021  0.85675021  1.00000000  1.0
  N  N4  1  0.14324979  0.14324979  0.00000000  1.0
