# generated using pymatgen
data_RbGa2P5O16
_symmetry_space_group_name_H-M   'P 1'
_cell_length_a   7.50185385
_cell_length_b   9.35598588
_cell_length_c   10.34383586
_cell_angle_alpha   90.00000000
_cell_angle_beta   111.82946910
_cell_angle_gamma   90.00000000
_symmetry_Int_Tables_number   1
_chemical_formula_structural   RbGa2P5O16
_chemical_formula_sum   'Rb2 Ga4 P10 O32'
_cell_volume   673.94684886
_cell_formula_units_Z   2
loop_
 _symmetry_equiv_pos_site_id
 _symmetry_equiv_pos_as_xyz
  1  'x, y, z'
loop_
 _atom_site_type_symbol
 _atom_site_label
 _atom_site_symmetry_multiplicity
 _atom_site_fract_x
 _atom_site_fract_y
 _atom_site_fract_z
 _atom_site_occupancy
  Rb  Rb0  1  0.36790350  0.29655289  0.10264764  1.0
  Rb  Rb1  1  0.36790350  0.70344711  0.60264764  1.0
  Ga  Ga2  1  0.75405074  0.63929546  0.40190416  1.0
  Ga  Ga3  1  0.75405074  0.36070454  0.90190416  1.0
  Ga  Ga4  1  0.31366376  0.86698219  0.00982145  1.0
  Ga  Ga5  1  0.31366376  0.13301781  0.50982145  1.0
  P  P6  1  -0.00105061  0.36374841  0.49927854  1.0
  P  P7  1  -0.00105061  0.63625159  -0.00072146  1.0
  P  P8  1  0.95425027  0.79428113  0.74460556  1.0
  P  P9  1  0.95425027  0.20571887  0.24460556  1.0
  P  P10  1  0.90032534  0.95686611  0.38373961  1.0
  P  P11  1  0.90032534  0.04313389  0.88373961  1.0
  P  P12  1  0.66093937  0.62436893  0.07174095  1.0
  P  P13  1  0.66093937  0.37563107  0.57174095  1.0
  P  P14  1  0.50008233  0.91590550  0.34307207  1.0
  P  P15  1  0.50008233  0.08409450  0.84307207  1.0
  O  O16  1  0.99368370  0.52431390  0.47109129  1.0
  O  O17  1  0.99368370  0.47568610  0.97109129  1.0
  O  O18  1  0.90369936  0.79817369  0.35488767  1.0
  O  O19  1  0.90369936  0.20182631  0.85488767  1.0
  O  O20  1  0.87611599  0.71576776  0.85377055  1.0
  O  O21  1  0.87611599  0.28423224  0.35377055  1.0
  O  O22  1  0.88196041  0.67544811  0.09419252  1.0
  O  O23  1  0.88196041  0.32455189  0.59419252  1.0
  O  O24  1  0.87173349  0.95534068  0.74110633  1.0
  O  O25  1  0.87173349  0.04465932  0.24110633  1.0
  O  O26  1  0.85467447  0.26986254  0.10417076  1.0
  O  O27  1  0.85467447  0.73013746  0.60417076  1.0
  O  O28  1  0.71043842  0.99522550  0.41281189  1.0
  O  O29  1  0.71043842  0.00477450  0.91281189  1.0
  O  O30  1  0.67288755  0.56302851  0.21217079  1.0
  O  O31  1  0.67288755  0.43697149  0.71217079  1.0
  O  O32  1  0.60834735  0.49130033  0.45826276  1.0
  O  O33  1  0.60834735  0.50869967  0.95826276  1.0
  O  O34  1  0.52923213  0.75439233  0.36441155  1.0
  O  O35  1  0.52923213  0.24560767  0.86441155  1.0
  O  O36  1  0.54055027  0.75898253  0.02373641  1.0
  O  O37  1  0.54055027  0.24101747  0.52373641  1.0
  O  O38  1  0.42301369  0.96146026  0.19024840  1.0
  O  O39  1  0.42301369  0.03853974  0.69024840  1.0
  O  O40  1  0.38529448  0.96731010  0.42833026  1.0
  O  O41  1  0.38529448  0.03268990  0.92833026  1.0
  O  O42  1  0.19975396  0.69597905  0.06577462  1.0
  O  O43  1  0.19975396  0.30402095  0.56577462  1.0
  O  O44  1  0.17224947  0.79394690  0.80721131  1.0
  O  O45  1  0.17224947  0.20605310  0.30721131  1.0
  O  O46  1  0.07050055  0.97945985  0.99931291  1.0
  O  O47  1  0.07050055  0.02054015  0.49931291  1.0
