# generated using pymatgen
data_Bi12Rh3Br4
_symmetry_space_group_name_H-M   'P 1'
_cell_length_a   19.33200518
_cell_length_b   17.32215551
_cell_length_c   10.09094219
_cell_angle_alpha   85.38015072
_cell_angle_beta   63.26846209
_cell_angle_gamma   31.35138719
_symmetry_Int_Tables_number   1
_chemical_formula_structural   Bi12Rh3Br4
_chemical_formula_sum   'Bi24 Rh6 Br8'
_cell_volume   1188.77513024
_cell_formula_units_Z   2
loop_
 _symmetry_equiv_pos_site_id
 _symmetry_equiv_pos_as_xyz
  1  'x, y, z'
loop_
 _atom_site_type_symbol
 _atom_site_label
 _atom_site_symmetry_multiplicity
 _atom_site_fract_x
 _atom_site_fract_y
 _atom_site_fract_z
 _atom_site_occupancy
  Bi  Bi0  1  0.85617093  0.26623019  0.72115175  1.0
  Bi  Bi1  1  1.15644713  0.72115175  0.26623019  1.0
  Bi  Bi2  1  0.98376981  0.39382907  1.09355287  1.0
  Bi  Bi3  1  0.52884825  1.09355287  0.39382907  1.0
  Bi  Bi4  1  1.72115175  0.15644713  -0.14382907  1.0
  Bi  Bi5  1  1.26623019  -0.14382907  0.15644713  1.0
  Bi  Bi6  1  1.09355287  0.52884825  0.98376981  1.0
  Bi  Bi7  1  0.39382907  0.98376981  0.52884825  1.0
  Bi  Bi8  1  0.88903065  0.11975604  0.35327905  1.0
  Bi  Bi9  1  1.63793426  0.35327905  0.11975604  1.0
  Bi  Bi10  1  1.13024396  0.36096935  0.61206574  1.0
  Bi  Bi11  1  0.89672095  0.61206574  0.36096935  1.0
  Bi  Bi12  1  1.35327905  0.63793426  -0.11096935  1.0
  Bi  Bi13  1  1.11975604  -0.11096935  0.63793426  1.0
  Bi  Bi14  1  0.61206574  0.89672095  1.13024396  1.0
  Bi  Bi15  1  0.36096935  1.13024396  0.89672095  1.0
  Bi  Bi16  1  1.37235247  -0.02849328  0.23699056  1.0
  Bi  Bi17  1  1.41915026  0.23699056  -0.02849328  1.0
  Bi  Bi18  1  0.27849328  0.87764753  0.83084974  1.0
  Bi  Bi19  1  1.01300944  0.83084974  0.87764753  1.0
  Bi  Bi20  1  1.23699056  0.41915026  0.37235247  1.0
  Bi  Bi21  1  0.97150672  0.37235247  0.41915026  1.0
  Bi  Bi22  1  0.83084974  1.01300944  0.27849328  1.0
  Bi  Bi23  1  0.87764753  0.27849328  1.01300944  1.0
  Rh  Rh24  1  -0.00000000  0.00000000  0.00000000  1.0
  Rh  Rh25  1  1.25000000  0.25000000  0.25000000  1.0
  Rh  Rh26  1  1.12500000  0.12500000  0.62500000  1.0
  Rh  Rh27  1  1.12500000  0.62500000  0.12500000  1.0
  Rh  Rh28  1  1.12500000  0.12500000  0.12500000  1.0
  Rh  Rh29  1  1.62500000  0.12500000  0.12500000  1.0
  Br  Br30  1  0.77654840  0.40153279  0.41187882  1.0
  Br  Br31  1  1.41004000  0.41187882  0.40153279  1.0
  Br  Br32  1  0.84846721  0.47345160  0.83996000  1.0
  Br  Br33  1  0.83812118  0.83996000  0.47345160  1.0
  Br  Br34  1  1.41187882  0.41004000  -0.22345160  1.0
  Br  Br35  1  1.40153279  -0.22345160  0.41004000  1.0
  Br  Br36  1  0.83996000  0.83812118  0.84846721  1.0
  Br  Br37  1  0.47345160  0.84846721  0.83812118  1.0
