# generated using pymatgen
data_MnMoH2SeO7
_symmetry_space_group_name_H-M   'P 1'
_cell_length_a   9.06203578
_cell_length_b   6.78650114
_cell_length_c   5.08210555
_cell_angle_alpha   109.52482283
_cell_angle_beta   95.76690822
_cell_angle_gamma   92.16387816
_symmetry_Int_Tables_number   1
_chemical_formula_structural   MnMoH2SeO7
_chemical_formula_sum   'Mn2 Mo2 H4 Se2 O14'
_cell_volume   292.23431051
_cell_formula_units_Z   2
loop_
 _symmetry_equiv_pos_site_id
 _symmetry_equiv_pos_as_xyz
  1  'x, y, z'
loop_
 _atom_site_type_symbol
 _atom_site_label
 _atom_site_symmetry_multiplicity
 _atom_site_fract_x
 _atom_site_fract_y
 _atom_site_fract_z
 _atom_site_occupancy
  Mn  Mn0  1  -0.50000000  0.00000000  -0.50000000  1.0
  Mn  Mn1  1  -0.00000000  -0.50000000  0.00000000  1.0
  Mo  Mo2  1  -0.39866295  -0.59549366  -0.79783484  1.0
  Mo  Mo3  1  -0.60133705  -0.40450634  -0.20216516  1.0
  H  H4  1  -0.86485881  -0.13026987  -0.61552032  1.0
  H  H5  1  -0.13514119  -0.86973013  -0.38447968  1.0
  H  H6  1  -0.98730205  -0.23448065  -0.46953091  1.0
  H  H7  1  -0.01269795  -0.76551935  -0.53046909  1.0
  Se  Se8  1  -0.75391833  -0.80773818  -0.84252872  1.0
  Se  Se9  1  -0.24608167  -0.19226182  -0.15747128  1.0
  O  O10  1  -0.21933318  -0.53116803  -0.85633477  1.0
  O  O11  1  -0.78066682  -0.46883197  -0.14366523  1.0
  O  O12  1  -0.49268619  -0.30961249  -0.84576490  1.0
  O  O13  1  -0.50731381  -0.69038751  -0.15423510  1.0
  O  O14  1  -0.92108631  -0.71567242  -0.77241903  1.0
  O  O15  1  -0.07891369  -0.28432758  -0.22758097  1.0
  O  O16  1  -0.39232420  -0.83561806  -0.73588494  1.0
  O  O17  1  -0.60767580  -0.16438194  -0.26411506  1.0
  O  O18  1  -0.72157610  -0.96834968  -0.64957472  1.0
  O  O19  1  -0.27842390  -0.03165032  -0.35042528  1.0
  O  O20  1  -0.62357235  -0.58531081  -0.62193428  1.0
  O  O21  1  -0.37642765  -0.41468919  -0.37806572  1.0
  O  O22  1  -0.94995465  -0.23471818  -0.64713404  1.0
  O  O23  1  -0.05004535  -0.76528182  -0.35286596  1.0
