# generated using pymatgen
data_LiSb(MoO4)2
_symmetry_space_group_name_H-M   'P 1'
_cell_length_a   11.27361845
_cell_length_b   11.27361845
_cell_length_c   5.67025295
_cell_angle_alpha   79.94207680
_cell_angle_beta   100.05792320
_cell_angle_gamma   154.28083432
_symmetry_Int_Tables_number   1
_chemical_formula_structural   LiSb(MoO4)2
_chemical_formula_sum   'Li2 Sb2 Mo4 O16'
_cell_volume   307.67823144
_cell_formula_units_Z   2
loop_
 _symmetry_equiv_pos_site_id
 _symmetry_equiv_pos_as_xyz
  1  'x, y, z'
loop_
 _atom_site_type_symbol
 _atom_site_label
 _atom_site_symmetry_multiplicity
 _atom_site_fract_x
 _atom_site_fract_y
 _atom_site_fract_z
 _atom_site_occupancy
  Li  Li0  1  1.50000000  -0.00000000  0.00000000  1.0
  Li  Li1  1  1.00000000  -0.50000000  0.50000000  1.0
  Sb  Sb2  1  0.31274245  0.31274245  0.75000000  1.0
  Sb  Sb3  1  0.68725755  0.68725755  0.25000000  1.0
  Mo  Mo4  1  1.61542515  -0.10926443  0.72311356  1.0
  Mo  Mo5  1  1.10926443  -0.61542515  0.22311356  1.0
  Mo  Mo6  1  0.89073557  -0.38457485  0.77688644  1.0
  Mo  Mo7  1  1.38457485  0.10926443  0.27688644  1.0
  O  O8  1  1.53911367  -0.35571640  0.88418863  1.0
  O  O9  1  1.35571640  -0.53911367  0.38418863  1.0
  O  O10  1  0.64428360  -0.46088633  0.61581137  1.0
  O  O11  1  1.46088633  0.35571640  0.11581137  1.0
  O  O12  1  1.85830593  0.06645068  0.52700316  1.0
  O  O13  1  0.93354932  -0.85830593  0.02700316  1.0
  O  O14  1  1.06645068  -0.14169407  0.97299684  1.0
  O  O15  1  1.14169407  -0.06645068  0.47299684  1.0
  O  O16  1  1.69675864  0.11409357  0.73110010  1.0
  O  O17  1  0.88590643  -0.69675864  0.23110010  1.0
  O  O18  1  1.11409357  -0.30324136  0.76889990  1.0
  O  O19  1  1.30324136  -0.11409357  0.26889990  1.0
  O  O20  1  1.62596790  0.30483909  0.95579371  1.0
  O  O21  1  0.69516091  -0.62596790  0.45579371  1.0
  O  O22  1  1.30483909  -0.37403210  0.54420629  1.0
  O  O23  1  1.37403210  -0.30483909  0.04420629  1.0
