# generated using pymatgen
data_CaMnO3
_symmetry_space_group_name_H-M   'P 1'
_cell_length_a   5.86068786
_cell_length_b   5.86068786
_cell_length_c   5.86068786
_cell_angle_alpha   52.57309761
_cell_angle_beta   52.57309761
_cell_angle_gamma   52.57309761
_symmetry_Int_Tables_number   1
_chemical_formula_structural   CaMnO3
_chemical_formula_sum   'Ca2 Mn2 O6'
_cell_volume   117.52918268
_cell_formula_units_Z   2
loop_
 _symmetry_equiv_pos_site_id
 _symmetry_equiv_pos_as_xyz
  1  'x, y, z'
loop_
 _atom_site_type_symbol
 _atom_site_label
 _atom_site_symmetry_multiplicity
 _atom_site_fract_x
 _atom_site_fract_y
 _atom_site_fract_z
 _atom_site_occupancy
  Ca  Ca0  1  0.13372015  0.13372015  0.13372015  1.0
  Ca  Ca1  1  0.86627985  -0.13372015  -0.13372015  1.0
  Mn  Mn2  1  0.33838329  0.33838329  -0.66161671  1.0
  Mn  Mn3  1  0.66161671  0.66161671  -0.33838329  1.0
  O  O4  1  0.93956920  0.53198782  -0.68609465  1.0
  O  O5  1  0.53198782  0.31390535  -0.06043080  1.0
  O  O6  1  0.31390535  0.93956920  -0.46801218  1.0
  O  O7  1  1.06043080  -0.53198782  -0.31390535  1.0
  O  O8  1  0.46801218  -0.31390535  0.06043080  1.0
  O  O9  1  0.68609465  0.06043080  -0.53198782  1.0
