# generated using pymatgen
data_V3(FeO4)2
_symmetry_space_group_name_H-M   'P 1'
_cell_length_a   5.69625435
_cell_length_b   5.69625435
_cell_length_c   9.60852644
_cell_angle_alpha   90.00000000
_cell_angle_beta   90.00000000
_cell_angle_gamma   120.00000000
_symmetry_Int_Tables_number   1
_chemical_formula_structural   V3(FeO4)2
_chemical_formula_sum   'V6 Fe4 O16'
_cell_volume   270.00149445
_cell_formula_units_Z   2
loop_
 _symmetry_equiv_pos_site_id
 _symmetry_equiv_pos_as_xyz
  1  'x, y, z'
loop_
 _atom_site_type_symbol
 _atom_site_label
 _atom_site_symmetry_multiplicity
 _atom_site_fract_x
 _atom_site_fract_y
 _atom_site_fract_z
 _atom_site_occupancy
  Fe  Fe0  1  0.33333333  0.66666667  0.63412601  1.0
  Fe  Fe1  1  0.66666667  0.33333333  0.13412601  1.0
  Fe  Fe2  1  0.33333333  0.66666667  0.05307162  1.0
  Fe  Fe3  1  0.66666667  0.33333333  0.55307162  1.0
  O  O4  1  0.33242910  0.16621455  0.25008888  1.0
  O  O5  1  0.16621455  0.33242910  0.75008888  1.0
  O  O6  1  0.16621455  0.83378545  0.75008888  1.0
  O  O7  1  0.83378545  0.16621455  0.25008888  1.0
  O  O8  1  0.83378545  0.66757090  0.25008888  1.0
  O  O9  1  0.66757090  0.83378545  0.75008888  1.0
  O  O10  1  0.00000000  0.00000000  -0.01177939  1.0
  O  O11  1  0.00000000  0.00000000  0.48822061  1.0
  O  O12  1  0.02740709  0.51370354  0.47964022  1.0
  O  O13  1  0.51370354  0.02740709  0.97964022  1.0
  O  O14  1  0.51370354  0.48629646  0.97964022  1.0
  O  O15  1  0.48629646  0.51370354  0.47964022  1.0
  O  O16  1  0.48629646  0.97259291  0.47964022  1.0
  O  O17  1  0.97259291  0.48629646  0.97964022  1.0
  O  O18  1  0.33333333  0.66666667  0.25292232  1.0
  O  O19  1  0.66666667  0.33333333  0.75292232  1.0
  V  V20  1  0.70174608  0.85087304  0.35795738  1.0
  V  V21  1  0.85087304  0.70174608  0.85795738  1.0
  V  V22  1  0.85087304  0.14912696  0.85795738  1.0
  V  V23  1  0.14912696  0.85087304  0.35795738  1.0
  V  V24  1  0.14912696  0.29825392  0.35795738  1.0
  V  V25  1  0.29825392  0.14912696  0.85795738  1.0
