# generated using pymatgen
data_Rb2Si2S5
_symmetry_space_group_name_H-M   'P 1'
_cell_length_a   11.09536959
_cell_length_b   11.09536959
_cell_length_c   9.14435769
_cell_angle_alpha   82.75403793
_cell_angle_beta   97.24596207
_cell_angle_gamma   89.90760765
_symmetry_Int_Tables_number   1
_chemical_formula_structural   Rb2Si2S5
_chemical_formula_sum   'Rb8 Si8 S20'
_cell_volume   1107.65208798
_cell_formula_units_Z   4
loop_
 _symmetry_equiv_pos_site_id
 _symmetry_equiv_pos_as_xyz
  1  'x, y, z'
loop_
 _atom_site_type_symbol
 _atom_site_label
 _atom_site_symmetry_multiplicity
 _atom_site_fract_x
 _atom_site_fract_y
 _atom_site_fract_z
 _atom_site_occupancy
  Rb  Rb0  1  0.28892913  -0.02800981  0.36493399  1.0
  Rb  Rb1  1  1.02800981  0.71107087  0.86493399  1.0
  Rb  Rb2  1  0.97199019  -0.71107087  0.13506601  1.0
  Rb  Rb3  1  1.71107087  0.02800981  0.63506601  1.0
  Rb  Rb4  1  1.54866588  0.28956276  0.11578023  1.0
  Rb  Rb5  1  0.71043724  -0.54866588  0.61578023  1.0
  Rb  Rb6  1  1.28956276  0.54866588  0.38421977  1.0
  Rb  Rb7  1  0.45133412  -0.28956276  0.88421977  1.0
  Si  Si8  1  0.63434800  -0.23455520  0.38872071  1.0
  Si  Si9  1  1.23455520  0.36565200  0.88872071  1.0
  Si  Si10  1  0.76544480  -0.36565200  0.11127929  1.0
  Si  Si11  1  1.36565200  0.23455520  0.61127929  1.0
  Si  Si12  1  0.76526479  -0.04365071  0.11474097  1.0
  Si  Si13  1  1.04365071  0.23473521  0.61474097  1.0
  Si  Si14  1  0.95634929  -0.23473521  0.38525903  1.0
  Si  Si15  1  1.23473521  0.04365071  0.88525903  1.0
  S  S16  1  0.74767071  -0.18964979  0.97346265  1.0
  S  S17  1  1.18964979  0.25232929  0.47346265  1.0
  S  S18  1  0.81035021  -0.25232929  0.52653735  1.0
  S  S19  1  1.25232929  0.18964979  0.02653735  1.0
  S  S20  1  0.61867486  -0.05921410  0.25396717  1.0
  S  S21  1  1.05921410  0.38132514  0.75396717  1.0
  S  S22  1  0.94078590  -0.38132514  0.24603283  1.0
  S  S23  1  1.38132514  0.05921410  0.74603283  1.0
  S  S24  1  1.74893200  0.12011623  0.98197699  1.0
  S  S25  1  0.87988377  -0.74893200  0.48197699  1.0
  S  S26  1  1.12011623  0.74893200  0.51802301  1.0
  S  S27  1  0.25106800  -0.12011623  0.01802301  1.0
  S  S28  1  1.49980427  0.25255449  0.47525520  1.0
  S  S29  1  0.74744551  -0.49980427  0.97525520  1.0
  S  S30  1  1.25255449  0.49980427  0.02474480  1.0
  S  S31  1  0.50019573  -0.25255449  0.52474480  1.0
  S  S32  1  0.94079528  -0.05920472  0.25000000  1.0
  S  S33  1  1.05920472  0.05920472  0.75000000  1.0
  S  S34  1  0.61872383  -0.38127617  0.25000000  1.0
  S  S35  1  1.38127617  0.38127617  0.75000000  1.0
