# generated using pymatgen
data_Na5Gd(MoO4)4
_symmetry_space_group_name_H-M   'P 1'
_cell_length_a   10.05195401
_cell_length_b   10.05195401
_cell_length_c   10.05195401
_cell_angle_alpha   109.48659883
_cell_angle_beta   109.48659883
_cell_angle_gamma   109.44046862
_symmetry_Int_Tables_number   1
_chemical_formula_structural   Na5Gd(MoO4)4
_chemical_formula_sum   'Na10 Gd2 Mo8 O32'
_cell_volume   781.86089921
_cell_formula_units_Z   2
loop_
 _symmetry_equiv_pos_site_id
 _symmetry_equiv_pos_as_xyz
  1  'x, y, z'
loop_
 _atom_site_type_symbol
 _atom_site_label
 _atom_site_symmetry_multiplicity
 _atom_site_fract_x
 _atom_site_fract_y
 _atom_site_fract_z
 _atom_site_occupancy
  Na  Na0  1  0.59550261  0.92056905  1.08119237  1.0
  Na  Na1  1  0.83937667  1.51431024  0.91880763  1.0
  Na  Na2  1  0.67056905  1.08937667  0.82506644  1.0
  Na  Na3  1  1.26431024  0.84550261  1.17493356  1.0
  Na  Na4  1  1.15449739  1.32943095  1.41880763  1.0
  Na  Na5  1  0.91062333  0.73568976  1.58119237  1.0
  Na  Na6  1  1.07943095  1.16062333  1.67493356  1.0
  Na  Na7  1  0.48568976  0.40449739  0.32506644  1.0
  Na  Na8  1  0.75000000  0.25000000  0.50000000  1.0
  Na  Na9  1  1.00000000  1.00000000  1.00000000  1.0
  Gd  Gd10  1  0.50000000  0.50000000  -0.00000000  1.0
  Gd  Gd11  1  0.25000000  0.75000000  0.50000000  1.0
  Mo  Mo12  1  0.80438772  1.39010668  1.22530307  1.0
  Mo  Mo13  1  1.16480361  1.57908465  0.77469693  1.0
  Mo  Mo14  1  1.14010668  0.41480361  1.08571896  1.0
  Mo  Mo15  1  0.32908465  1.05438772  0.91428104  1.0
  Mo  Mo16  1  0.94561228  0.85989332  1.27469693  1.0
  Mo  Mo17  1  1.58519639  1.67091535  1.72530307  1.0
  Mo  Mo18  1  0.60989332  0.83519639  0.41428104  1.0
  Mo  Mo19  1  1.42091535  1.19561228  1.58571896  1.0
  O  O20  1  0.74043038  1.47378200  1.09799553  1.0
  O  O21  1  0.37578647  0.64243485  0.90200447  1.0
  O  O22  1  1.22378200  0.62578647  1.23335162  1.0
  O  O23  1  0.39243485  0.99043038  0.76664838  1.0
  O  O24  1  1.00956962  0.77621800  1.40200447  1.0
  O  O25  1  1.37421353  1.60756515  1.59799553  1.0
  O  O26  1  0.52621800  0.62421353  0.26664838  1.0
  O  O27  1  1.35756515  1.25956962  1.73335162  1.0
  O  O28  1  0.71843313  1.17844037  1.10761461  1.0
  O  O29  1  1.07082576  1.61081852  0.89238539  1.0
  O  O30  1  0.92844037  0.32082576  0.96000724  1.0
  O  O31  1  0.36081852  0.96843313  1.03999276  1.0
  O  O32  1  1.03156687  1.07155963  1.39238539  1.0
  O  O33  1  1.67917424  1.63918148  1.60761461  1.0
  O  O34  1  0.82155963  0.92917424  0.53999276  1.0
  O  O35  1  1.38918148  1.28156687  1.46000724  1.0
  O  O36  1  0.44298149  1.27105257  1.04704683  1.0
  O  O37  1  1.22400574  0.39593466  0.95295317  1.0
  O  O38  1  1.02105257  0.47400574  1.32807108  1.0
  O  O39  1  0.14593466  0.69298149  0.67192892  1.0
  O  O40  1  1.30701851  0.97894743  1.45295317  1.0
  O  O41  1  0.52599426  0.85406534  0.54704683  1.0
  O  O42  1  0.72894743  0.77599426  0.17192892  1.0
  O  O43  1  1.60406534  1.55701851  1.82807108  1.0
  O  O44  1  0.74873284  0.42582813  0.37880471  1.0
  O  O45  1  1.04702343  1.36992813  0.62119529  1.0
  O  O46  1  1.17582813  1.29702343  1.17709530  1.0
  O  O47  1  1.11992813  0.99873284  1.82290470  1.0
  O  O48  1  1.00126716  0.82417187  1.12119529  1.0
  O  O49  1  1.70297657  0.88007187  0.87880471  1.0
  O  O50  1  0.57417187  0.95297657  1.32290470  1.0
  O  O51  1  0.63007187  1.25126716  0.67709530  1.0
