# generated using pymatgen
data_ZnCuAsO5
_symmetry_space_group_name_H-M   'P 1'
_cell_length_a   8.88675954
_cell_length_b   8.71449944
_cell_length_c   5.82313729
_cell_angle_alpha   90.00000000
_cell_angle_beta   90.00000000
_cell_angle_gamma   90.00000000
_symmetry_Int_Tables_number   1
_chemical_formula_structural   ZnCuAsO5
_chemical_formula_sum   'Zn4 Cu4 As4 O20'
_cell_volume   450.96507045
_cell_formula_units_Z   4
loop_
 _symmetry_equiv_pos_site_id
 _symmetry_equiv_pos_as_xyz
  1  'x, y, z'
loop_
 _atom_site_type_symbol
 _atom_site_label
 _atom_site_symmetry_multiplicity
 _atom_site_fract_x
 _atom_site_fract_y
 _atom_site_fract_z
 _atom_site_occupancy
  Zn  Zn0  1  0.89171666  0.65131623  0.50000000  1.0
  Zn  Zn1  1  0.39171666  0.84868377  0.00000000  1.0
  Zn  Zn2  1  0.10828334  0.34868377  0.50000000  1.0
  Zn  Zn3  1  0.60828334  0.15131623  0.00000000  1.0
  Cu  Cu4  1  0.50000000  0.50000000  0.24514816  1.0
  Cu  Cu5  1  0.50000000  0.50000000  0.75485184  1.0
  Cu  Cu6  1  0.00000000  0.00000000  0.74514816  1.0
  Cu  Cu7  1  0.00000000  0.00000000  0.25485184  1.0
  As  As8  1  0.25488053  0.72695937  0.50000000  1.0
  As  As9  1  0.75488053  0.77304063  0.00000000  1.0
  As  As10  1  0.74511947  0.27304063  0.50000000  1.0
  As  As11  1  0.24511947  0.22695937  0.00000000  1.0
  O  O12  1  0.25009430  0.83811112  0.25807370  1.0
  O  O13  1  0.25009430  0.83811112  0.74192630  1.0
  O  O14  1  0.75009430  0.66188888  0.75807370  1.0
  O  O15  1  0.75009430  0.66188888  0.24192630  1.0
  O  O16  1  0.74990570  0.16188888  0.25807370  1.0
  O  O17  1  0.74990570  0.16188888  0.74192630  1.0
  O  O18  1  0.24990570  0.33811112  0.75807370  1.0
  O  O19  1  0.24990570  0.33811112  0.24192630  1.0
  O  O20  1  0.43074900  0.62339505  0.50000000  1.0
  O  O21  1  0.93074900  0.87660495  0.00000000  1.0
  O  O22  1  0.56925100  0.37660495  0.50000000  1.0
  O  O23  1  0.06925100  0.12339505  0.00000000  1.0
  O  O24  1  0.10906772  0.59367246  0.50000000  1.0
  O  O25  1  0.60906772  0.90632754  0.00000000  1.0
  O  O26  1  0.89093228  0.40632754  0.50000000  1.0
  O  O27  1  0.39093228  0.09367246  0.00000000  1.0
  O  O28  1  0.93081462  0.88708109  0.50000000  1.0
  O  O29  1  0.43081462  0.61291891  0.00000000  1.0
  O  O30  1  0.06918538  0.11291891  0.50000000  1.0
  O  O31  1  0.56918538  0.38708109  0.00000000  1.0
