# generated using pymatgen
data_CdSe2O5
_symmetry_space_group_name_H-M   'P 1'
_cell_length_a   7.06667132
_cell_length_b   7.06667132
_cell_length_c   6.23173774
_cell_angle_alpha   74.13598570
_cell_angle_beta   105.86401430
_cell_angle_gamma   71.54005041
_symmetry_Int_Tables_number   1
_chemical_formula_structural   CdSe2O5
_chemical_formula_sum   'Cd2 Se4 O10'
_cell_volume   260.92019908
_cell_formula_units_Z   2
loop_
 _symmetry_equiv_pos_site_id
 _symmetry_equiv_pos_as_xyz
  1  'x, y, z'
loop_
 _atom_site_type_symbol
 _atom_site_label
 _atom_site_symmetry_multiplicity
 _atom_site_fract_x
 _atom_site_fract_y
 _atom_site_fract_z
 _atom_site_occupancy
  Cd  Cd0  1  0.58735394  -0.41264606  0.75000000  1.0
  Cd  Cd1  1  1.41264606  0.41264606  0.25000000  1.0
  Se  Se2  1  1.70610771  0.01341711  0.86697530  1.0
  Se  Se3  1  0.98658289  -0.70610771  0.36697530  1.0
  Se  Se4  1  1.01341711  0.70610771  0.63302470  1.0
  Se  Se5  1  0.29389229  -0.01341711  0.13302470  1.0
  O  O6  1  0.52116212  -0.07798104  0.76746645  1.0
  O  O7  1  1.07798104  0.47883788  0.26746645  1.0
  O  O8  1  0.92201896  -0.47883788  0.73253355  1.0
  O  O9  1  1.47883788  0.07798104  0.23253355  1.0
  O  O10  1  1.59026740  0.27887710  0.66979219  1.0
  O  O11  1  0.72112290  -0.59026740  0.16979219  1.0
  O  O12  1  1.27887710  0.59026740  0.83020781  1.0
  O  O13  1  0.40973260  -0.27887710  0.33020781  1.0
  O  O14  1  0.91820871  -0.08179129  0.75000000  1.0
  O  O15  1  1.08179129  0.08179129  0.25000000  1.0
