# generated using pymatgen
data_BPb6NO10
_symmetry_space_group_name_H-M   'P 1'
_cell_length_a   5.87126450
_cell_length_b   9.70674975
_cell_length_c   11.67382540
_cell_angle_alpha   90.00000000
_cell_angle_beta   90.00000000
_cell_angle_gamma   90.00000000
_symmetry_Int_Tables_number   1
_chemical_formula_structural   BPb6NO10
_chemical_formula_sum   'B2 Pb12 N2 O20'
_cell_volume   665.30176013
_cell_formula_units_Z   2
loop_
 _symmetry_equiv_pos_site_id
 _symmetry_equiv_pos_as_xyz
  1  'x, y, z'
loop_
 _atom_site_type_symbol
 _atom_site_label
 _atom_site_symmetry_multiplicity
 _atom_site_fract_x
 _atom_site_fract_y
 _atom_site_fract_z
 _atom_site_occupancy
  B  B0  1  0.00000000  0.00000000  0.92619685  1.0
  B  B1  1  0.50000000  0.50000000  0.07380315  1.0
  Pb  Pb2  1  0.50000000  0.69479752  0.31419618  1.0
  Pb  Pb3  1  0.50000000  0.30520248  0.31419618  1.0
  Pb  Pb4  1  0.00000000  0.80520248  0.68580382  1.0
  Pb  Pb5  1  0.00000000  0.19479752  0.68580382  1.0
  Pb  Pb6  1  0.50000000  0.00000000  0.14437350  1.0
  Pb  Pb7  1  0.00000000  0.50000000  0.85562650  1.0
  Pb  Pb8  1  0.00000000  0.76638795  0.11764803  1.0
  Pb  Pb9  1  -0.00000000  0.23361205  0.11764803  1.0
  Pb  Pb10  1  0.50000000  0.73361205  0.88235197  1.0
  Pb  Pb11  1  0.50000000  0.26638795  0.88235197  1.0
  Pb  Pb12  1  0.00000000  0.00000000  0.35932441  1.0
  Pb  Pb13  1  0.50000000  0.50000000  0.64067559  1.0
  N  N14  1  0.00000000  0.50000000  0.40843286  1.0
  N  N15  1  0.50000000  0.00000000  0.59156714  1.0
  O  O16  1  0.00000000  0.00000000  0.04752005  1.0
  O  O17  1  0.50000000  0.50000000  0.95247995  1.0
  O  O18  1  -0.00000000  0.87282395  0.87394219  1.0
  O  O19  1  0.00000000  0.12717605  0.87394219  1.0
  O  O20  1  0.50000000  0.62717605  0.12605781  1.0
  O  O21  1  0.50000000  0.37282395  0.12605781  1.0
  O  O22  1  0.00000000  0.50000000  0.29880943  1.0
  O  O23  1  0.50000000  0.00000000  0.70119057  1.0
  O  O24  1  0.00000000  0.38681969  0.46161470  1.0
  O  O25  1  -0.00000000  0.61318031  0.46161470  1.0
  O  O26  1  0.50000000  0.11318031  0.53838530  1.0
  O  O27  1  0.50000000  0.88681969  0.53838530  1.0
  O  O28  1  0.75147946  0.85358494  0.25006170  1.0
  O  O29  1  0.24852054  0.14641506  0.25006170  1.0
  O  O30  1  0.25147946  0.64641506  0.74993830  1.0
  O  O31  1  0.74852054  0.35358494  0.74993830  1.0
  O  O32  1  0.74852054  0.64641506  0.74993830  1.0
  O  O33  1  0.25147946  0.35358494  0.74993830  1.0
  O  O34  1  0.24852054  0.85358494  0.25006170  1.0
  O  O35  1  0.75147946  0.14641506  0.25006170  1.0
