# generated using pymatgen
data_Nb4CoS8
_symmetry_space_group_name_H-M   'P 1'
_cell_length_a   6.65619886
_cell_length_b   6.65619886
_cell_length_c   11.69590546
_cell_angle_alpha   90.00000000
_cell_angle_beta   90.00000000
_cell_angle_gamma   120.00000000
_symmetry_Int_Tables_number   1
_chemical_formula_structural   Nb4CoS8
_chemical_formula_sum   'Nb8 Co2 S16'
_cell_volume   448.76301513
_cell_formula_units_Z   2
loop_
 _symmetry_equiv_pos_site_id
 _symmetry_equiv_pos_as_xyz
  1  'x, y, z'
loop_
 _atom_site_type_symbol
 _atom_site_label
 _atom_site_symmetry_multiplicity
 _atom_site_fract_x
 _atom_site_fract_y
 _atom_site_fract_z
 _atom_site_occupancy
  Nb  Nb0  1  0.49319986  0.98648101  0.25000000  1.0
  Nb  Nb1  1  0.98648101  0.49328115  0.75000000  1.0
  Nb  Nb2  1  0.49328115  0.50680014  0.25000000  1.0
  Nb  Nb3  1  0.01351899  0.50671885  0.25000000  1.0
  Nb  Nb4  1  0.50680014  0.01351899  0.75000000  1.0
  Nb  Nb5  1  0.50671885  0.49319986  0.75000000  1.0
  Nb  Nb6  1  0.00000000  0.00000000  0.25000000  1.0
  Nb  Nb7  1  0.00000000  0.00000000  0.75000000  1.0
  Co  Co8  1  0.00000000  0.00000000  0.50000000  1.0
  Co  Co9  1  0.00000000  0.00000000  0.00000000  1.0
  S  S10  1  0.83497429  0.66984724  0.38350628  1.0
  S  S11  1  0.83497429  0.66984724  0.11649372  1.0
  S  S12  1  0.66984724  0.83487294  0.88350628  1.0
  S  S13  1  0.66984724  0.83487294  0.61649372  1.0
  S  S14  1  0.83487294  0.16502571  0.38350628  1.0
  S  S15  1  0.83487294  0.16502571  0.11649372  1.0
  S  S16  1  0.33015276  0.16512706  0.38350628  1.0
  S  S17  1  0.33015276  0.16512706  0.11649372  1.0
  S  S18  1  0.16502571  0.33015276  0.88350628  1.0
  S  S19  1  0.16502571  0.33015276  0.61649372  1.0
  S  S20  1  0.16512706  0.83497429  0.88350628  1.0
  S  S21  1  0.16512706  0.83497429  0.61649372  1.0
  S  S22  1  0.33333333  0.66666667  0.38807671  1.0
  S  S23  1  0.33333333  0.66666667  0.11192329  1.0
  S  S24  1  0.66666667  0.33333333  0.88807671  1.0
  S  S25  1  0.66666667  0.33333333  0.61192329  1.0
