# generated using pymatgen
data_EuPO4
_symmetry_space_group_name_H-M   'P 1'
_cell_length_a   6.45072759
_cell_length_b   7.02074143
_cell_length_c   8.16088065
_cell_angle_alpha   90.00000000
_cell_angle_beta   125.91526434
_cell_angle_gamma   90.00000000
_symmetry_Int_Tables_number   1
_chemical_formula_structural   EuPO4
_chemical_formula_sum   'Eu4 P4 O16'
_cell_volume   299.33139857
_cell_formula_units_Z   4
loop_
 _symmetry_equiv_pos_site_id
 _symmetry_equiv_pos_as_xyz
  1  'x, y, z'
loop_
 _atom_site_type_symbol
 _atom_site_label
 _atom_site_symmetry_multiplicity
 _atom_site_fract_x
 _atom_site_fract_y
 _atom_site_fract_z
 _atom_site_occupancy
  Eu  Eu0  1  0.81346964  0.84176620  0.21595203  1.0
  Eu  Eu1  1  0.81346964  0.65823380  0.71595203  1.0
  Eu  Eu2  1  0.18653036  0.34176620  0.28404797  1.0
  Eu  Eu3  1  0.18653036  0.15823380  0.78404797  1.0
  P  P4  1  0.69319071  0.33771490  0.30434676  1.0
  P  P5  1  0.69319071  0.16228510  0.80434676  1.0
  P  P6  1  0.30680929  0.83771490  0.19565324  1.0
  P  P7  1  0.30680929  0.66228510  0.69565324  1.0
  O  O8  1  0.88358772  0.16616078  0.38390990  1.0
  O  O9  1  0.88358772  0.33383922  0.88390990  1.0
  O  O10  1  0.11641228  0.66616078  0.11609010  1.0
  O  O11  1  0.11641228  0.83383922  0.61609010  1.0
  O  O12  1  0.81388131  0.49471114  0.25003302  1.0
  O  O13  1  0.81388131  0.00528886  0.75003302  1.0
  O  O14  1  0.18611869  0.99471114  0.24996698  1.0
  O  O15  1  0.18611869  0.50528886  0.74996698  1.0
  O  O16  1  0.66161676  0.39819559  0.47213899  1.0
  O  O17  1  0.66161676  0.10180441  0.97213899  1.0
  O  O18  1  0.33838324  0.89819559  0.02786101  1.0
  O  O19  1  0.33838324  0.60180441  0.52786101  1.0
  O  O20  1  0.41427472  0.28807050  0.12496631  1.0
  O  O21  1  0.41427472  0.21192950  0.62496631  1.0
  O  O22  1  0.58572528  0.78807050  0.37503369  1.0
  O  O23  1  0.58572528  0.71192950  0.87503369  1.0
