# generated using pymatgen
data_LiSn
_symmetry_space_group_name_H-M   'P 1'
_cell_length_a   5.18856695
_cell_length_b   3.20259005
_cell_length_c   7.84040959
_cell_angle_alpha   90.00000000
_cell_angle_beta   105.41713667
_cell_angle_gamma   90.00000000
_symmetry_Int_Tables_number   1
_chemical_formula_structural   LiSn
_chemical_formula_sum   'Li3 Sn3'
_cell_volume   125.59482318
_cell_formula_units_Z   3
loop_
 _symmetry_equiv_pos_site_id
 _symmetry_equiv_pos_as_xyz
  1  'x, y, z'
loop_
 _atom_site_type_symbol
 _atom_site_label
 _atom_site_symmetry_multiplicity
 _atom_site_fract_x
 _atom_site_fract_y
 _atom_site_fract_z
 _atom_site_occupancy
  Li  Li0  1  0.73311809  0.50000000  0.67188900  1.0
  Li  Li1  1  0.26688191  0.50000000  0.32811100  1.0
  Li  Li2  1  0.50000000  0.50000000  0.00000000  1.0
  Sn  Sn3  1  0.75811187  0.00000000  0.33918736  1.0
  Sn  Sn4  1  0.24188813  0.00000000  0.66081264  1.0
  Sn  Sn5  1  0.00000000  0.00000000  0.00000000  1.0
