# generated using pymatgen
data_Gd(PO3)3
_symmetry_space_group_name_H-M   'P 1'
_cell_length_a   7.04750919
_cell_length_b   7.04750919
_cell_length_c   7.32560705
_cell_angle_alpha   90.00000000
_cell_angle_beta   90.00000000
_cell_angle_gamma   105.15011337
_symmetry_Int_Tables_number   1
_chemical_formula_structural   Gd(PO3)3
_chemical_formula_sum   'Gd2 P6 O18'
_cell_volume   351.19814800
_cell_formula_units_Z   2
loop_
 _symmetry_equiv_pos_site_id
 _symmetry_equiv_pos_as_xyz
  1  'x, y, z'
loop_
 _atom_site_type_symbol
 _atom_site_label
 _atom_site_symmetry_multiplicity
 _atom_site_fract_x
 _atom_site_fract_y
 _atom_site_fract_z
 _atom_site_occupancy
  Gd  Gd0  1  0.37339820  0.37339820  0.00000000  1.0
  Gd  Gd1  1  0.62660180  0.62660180  0.50000000  1.0
  P  P2  1  0.16589951  0.81163815  0.45557906  1.0
  P  P3  1  -0.18836185  1.16589951  0.54442094  1.0
  P  P4  1  0.18836185  0.83410049  0.04442094  1.0
  P  P5  1  -0.16589951  1.18836185  0.95557906  1.0
  P  P6  1  0.75026521  0.75026521  0.00000000  1.0
  P  P7  1  0.24973479  0.24973479  0.50000000  1.0
  O  O8  1  0.28899127  0.67197859  0.03395946  1.0
  O  O9  1  -0.32802141  1.28899127  0.96604054  1.0
  O  O10  1  0.32802141  0.71100873  0.46604054  1.0
  O  O11  1  -0.28899127  1.32802141  0.53395946  1.0
  O  O12  1  0.03104138  0.28600835  0.03651938  1.0
  O  O13  1  -0.71399165  1.03104138  0.96348062  1.0
  O  O14  1  0.71399165  0.96895862  0.46348062  1.0
  O  O15  1  -0.03104138  1.71399165  0.53651938  1.0
  O  O16  1  -0.32860703  1.63252042  0.17056741  1.0
  O  O17  1  0.63252042  0.67139297  0.82943259  1.0
  O  O18  1  -0.63252042  1.32860703  0.32943259  1.0
  O  O19  1  0.32860703  0.36747958  0.67056741  1.0
  O  O20  1  0.02800443  0.24841874  0.45361563  1.0
  O  O21  1  -0.75158126  1.02800443  0.54638437  1.0
  O  O22  1  0.75158126  0.97199557  0.04638437  1.0
  O  O23  1  -0.02800443  1.75158126  0.95361563  1.0
  O  O24  1  0.12715603  0.87284397  0.25000000  1.0
  O  O25  1  -0.12715603  1.12715603  0.75000000  1.0
