# generated using pymatgen
data_KC(NO2)3
_symmetry_space_group_name_H-M   'P 1'
_cell_length_a   9.38194852
_cell_length_b   9.38194852
_cell_length_c   9.38194852
_cell_angle_alpha   103.51313113
_cell_angle_beta   103.51313113
_cell_angle_gamma   122.18559990
_symmetry_Int_Tables_number   1
_chemical_formula_structural   KC(NO2)3
_chemical_formula_sum   'K4 C4 N12 O24'
_cell_volume   611.82298595
_cell_formula_units_Z   4
loop_
 _symmetry_equiv_pos_site_id
 _symmetry_equiv_pos_as_xyz
  1  'x, y, z'
loop_
 _atom_site_type_symbol
 _atom_site_label
 _atom_site_symmetry_multiplicity
 _atom_site_fract_x
 _atom_site_fract_y
 _atom_site_fract_z
 _atom_site_occupancy
  K  K0  1  0.85185819  0.62500000  0.72685819  1.0
  K  K1  1  0.37500000  1.10185819  1.22685819  1.0
  K  K2  1  0.87500000  0.14814181  0.77314181  1.0
  K  K3  1  0.89814181  1.12500000  1.27314181  1.0
  C  C4  1  1.44044249  1.62500000  1.31544249  1.0
  C  C5  1  1.37500000  0.69044249  0.81544249  1.0
  C  C6  1  0.87500000  1.55955751  1.18455751  1.0
  C  C7  1  1.30955751  1.12500000  0.68455751  1.0
  N  N8  1  1.54167819  1.71304173  1.83383739  1.0
  N  N9  1  0.87079567  0.53695827  0.32863646  1.0
  N  N10  1  1.46304173  1.79167819  1.33383739  1.0
  N  N11  1  1.29215921  1.45832181  1.17136354  1.0
  N  N12  1  1.20832181  1.54215921  1.67136354  1.0
  N  N13  1  0.87920433  0.70784079  0.16616261  1.0
  N  N14  1  1.28695827  1.12079567  0.82863646  1.0
  N  N15  1  1.45784079  1.12920433  0.66616261  1.0
  N  N16  1  1.56074010  1.62500000  1.43574010  1.0
  N  N17  1  1.37500000  0.81074010  0.93574010  1.0
  N  N18  1  0.87500000  1.43925990  1.06425990  1.0
  N  N19  1  1.18925990  1.12500000  0.56425990  1.0
  O  O20  1  0.78668923  1.37735760  1.32239759  1.0
  O  O21  1  1.69503999  0.87264240  0.90933163  1.0
  O  O22  1  1.12735760  1.03668923  0.82239759  1.0
  O  O23  1  0.53570836  0.21331077  0.59066837  1.0
  O  O24  1  0.96331077  1.78570836  1.09066837  1.0
  O  O25  1  1.05496001  0.46429164  0.67760241  1.0
  O  O26  1  0.62264240  0.94503999  1.40933163  1.0
  O  O27  1  1.21429164  1.30496001  1.17760241  1.0
  O  O28  1  1.52526762  1.56926076  1.77284569  1.0
  O  O29  1  0.95358493  0.68073924  0.45600686  1.0
  O  O30  1  1.31926076  1.77526762  1.27284569  1.0
  O  O31  1  1.24757807  1.47473238  1.04399314  1.0
  O  O32  1  1.22473238  1.49757807  1.54399314  1.0
  O  O33  1  0.79641507  0.75242193  0.22715431  1.0
  O  O34  1  1.43073924  1.20358493  0.95600686  1.0
  O  O35  1  1.50242193  1.04641507  0.72715431  1.0
  O  O36  1  1.67185192  1.76576724  1.57007666  1.0
  O  O37  1  0.55430942  0.48423276  0.40608469  1.0
  O  O38  1  0.51576724  0.92185192  1.07007666  1.0
  O  O39  1  0.89822474  1.32814808  1.09391531  1.0
  O  O40  1  1.07814808  1.14822474  1.59391531  1.0
  O  O41  1  1.19569058  1.10177526  0.42992334  1.0
  O  O42  1  1.23423276  0.80430942  0.90608469  1.0
  O  O43  1  0.85177526  0.44569058  0.92992334  1.0
