# generated using pymatgen
data_Al2Si2O9
_symmetry_space_group_name_H-M   'P 1'
_cell_length_a   5.21102696
_cell_length_b   5.21102696
_cell_length_c   16.25180706
_cell_angle_alpha   86.55373439
_cell_angle_beta   93.44626561
_cell_angle_gamma   59.82037172
_symmetry_Int_Tables_number   1
_chemical_formula_structural   Al2Si2O9
_chemical_formula_sum   'Al4 Si4 O18'
_cell_volume   378.71373725
_cell_formula_units_Z   2
loop_
 _symmetry_equiv_pos_site_id
 _symmetry_equiv_pos_as_xyz
  1  'x, y, z'
loop_
 _atom_site_type_symbol
 _atom_site_label
 _atom_site_symmetry_multiplicity
 _atom_site_fract_x
 _atom_site_fract_y
 _atom_site_fract_z
 _atom_site_occupancy
  O  O0  1  0.76854298  -0.54337340  0.91825717  1.0
  O  O1  1  0.54337340  0.23145702  0.41825717  1.0
  O  O2  1  0.88877781  -0.81258026  0.77886318  1.0
  O  O3  1  0.81258026  0.11122219  0.27886318  1.0
  O  O4  1  1.33976994  -0.37151028  0.79032437  1.0
  O  O5  1  0.37151028  -0.33976994  0.29032437  1.0
  O  O6  1  0.78186202  -0.25886107  0.77897796  1.0
  O  O7  1  0.25886107  0.21813798  0.27897796  1.0
  O  O8  1  1.00701856  -0.16308609  0.91829191  1.0
  O  O9  1  0.16308609  -0.00701856  0.41829191  1.0
  O  O10  1  1.22522782  -0.43586913  0.54460589  1.0
  O  O11  1  0.43586913  -0.22522782  0.04460589  1.0
  O  O12  1  0.99678948  -0.82405120  0.55421610  1.0
  O  O13  1  0.82405120  0.00321052  0.05421610  1.0
  O  O14  1  1.05533073  -0.61260966  0.05406839  1.0
  O  O15  1  0.61260966  -0.05533073  0.55406839  1.0
  O  O16  1  0.39747686  0.06343608  0.94501091  1.0
  O  O17  1  0.93656392  -0.39747686  0.44501091  1.0
  Al  Al18  1  1.25816121  -0.77749228  0.48806730  1.0
  Al  Al19  1  0.77749228  -0.25816121  -0.01193270  1.0
  Al  Al20  1  0.89542348  -0.05084590  0.48799617  1.0
  Al  Al21  1  0.05084590  0.10457652  -0.01200383  1.0
  Si  Si22  1  1.00776206  -0.15465201  0.81614483  1.0
  Si  Si23  1  0.15465201  -0.00776206  0.31614483  1.0
  Si  Si24  1  0.69077536  -0.49558649  0.81607580  1.0
  Si  Si25  1  0.49558649  0.30922464  0.31607580  1.0
