# generated using pymatgen
data_La2Al3Ge4
_symmetry_space_group_name_H-M   'P 1'
_cell_length_a   8.23380258
_cell_length_b   8.23380258
_cell_length_c   8.07611286
_cell_angle_alpha   90.00000000
_cell_angle_beta   90.00000000
_cell_angle_gamma   136.13488878
_symmetry_Int_Tables_number   1
_chemical_formula_structural   La2Al3Ge4
_chemical_formula_sum   'La4 Al6 Ge8'
_cell_volume   379.41394379
_cell_formula_units_Z   2
loop_
 _symmetry_equiv_pos_site_id
 _symmetry_equiv_pos_as_xyz
  1  'x, y, z'
loop_
 _atom_site_type_symbol
 _atom_site_label
 _atom_site_symmetry_multiplicity
 _atom_site_fract_x
 _atom_site_fract_y
 _atom_site_fract_z
 _atom_site_occupancy
  La  La0  1  -0.38575379  0.38575379  0.08261250  1.0
  La  La1  1  0.11424621  0.88575379  0.41738750  1.0
  La  La2  1  0.38575379  0.61424621  0.91738750  1.0
  La  La3  1  -0.11424621  0.11424621  0.58261250  1.0
  Al  Al4  1  0.53389829  0.96610171  0.25000000  1.0
  Al  Al5  1  0.03389829  0.46610171  0.25000000  1.0
  Al  Al6  1  -0.03389829  0.53389829  0.75000000  1.0
  Al  Al7  1  0.46610171  1.03389829  0.75000000  1.0
  Al  Al8  1  -0.50000000  0.50000000  0.50000000  1.0
  Al  Al9  1  0.00000000  1.00000000  0.00000000  1.0
  Ge  Ge10  1  -0.31375338  0.31375338  0.44913076  1.0
  Ge  Ge11  1  0.18624662  0.81375338  0.05086924  1.0
  Ge  Ge12  1  0.31375338  0.68624662  0.55086924  1.0
  Ge  Ge13  1  -0.18624662  0.18624662  0.94913076  1.0
  Ge  Ge14  1  0.70078804  0.79921196  0.25000000  1.0
  Ge  Ge15  1  0.20078804  0.29921196  0.25000000  1.0
  Ge  Ge16  1  -0.20078804  0.70078804  0.75000000  1.0
  Ge  Ge17  1  0.29921196  1.20078804  0.75000000  1.0
