# generated using pymatgen
data_Ti(PO4)2
_symmetry_space_group_name_H-M   'P 1'
_cell_length_a   5.24914656
_cell_length_b   6.39166598
_cell_length_c   10.34334520
_cell_angle_alpha   90.00000000
_cell_angle_beta   84.21515269
_cell_angle_gamma   90.00000000
_symmetry_Int_Tables_number   1
_chemical_formula_structural   Ti(PO4)2
_chemical_formula_sum   'Ti2 P4 O16'
_cell_volume   345.26014665
_cell_formula_units_Z   2
loop_
 _symmetry_equiv_pos_site_id
 _symmetry_equiv_pos_as_xyz
  1  'x, y, z'
loop_
 _atom_site_type_symbol
 _atom_site_label
 _atom_site_symmetry_multiplicity
 _atom_site_fract_x
 _atom_site_fract_y
 _atom_site_fract_z
 _atom_site_occupancy
  Ti  Ti0  1  0.23679286  0.75000000  0.64902437  1.0
  Ti  Ti1  1  0.76320714  0.25000000  0.35097563  1.0
  P  P2  1  0.67283274  0.75000000  0.86907607  1.0
  P  P3  1  0.32716726  0.25000000  0.13092393  1.0
  P  P4  1  0.78198693  0.75000000  0.43589652  1.0
  P  P5  1  0.21801307  0.25000000  0.56410348  1.0
  O  O6  1  1.03010162  0.75000000  0.50465682  1.0
  O  O7  1  -0.03010162  0.25000000  0.49534318  1.0
  O  O8  1  -0.08907900  0.75000000  0.77030930  1.0
  O  O9  1  1.08907900  0.25000000  0.22969070  1.0
  O  O10  1  0.69656937  0.94177002  0.96231265  1.0
  O  O11  1  0.69656937  0.55822998  0.96231265  1.0
  O  O12  1  0.30343063  0.44177002  0.03768735  1.0
  O  O13  1  0.30343063  0.05822998  0.03768735  1.0
  O  O14  1  0.42319939  0.75000000  0.80539428  1.0
  O  O15  1  0.57680061  0.25000000  0.19460572  1.0
  O  O16  1  0.77384838  0.94593329  0.34901733  1.0
  O  O17  1  0.77384838  0.55406671  0.34901733  1.0
  O  O18  1  0.22615162  0.44593329  0.65098267  1.0
  O  O19  1  0.22615162  0.05406671  0.65098267  1.0
  O  O20  1  0.54611881  0.75000000  0.53941420  1.0
  O  O21  1  0.45388119  0.25000000  0.46058580  1.0
