# generated using pymatgen
data_RbFeP2(HO4)2
_symmetry_space_group_name_H-M   'P 1'
_cell_length_a   7.30322135
_cell_length_b   9.66511512
_cell_length_c   8.98893041
_cell_angle_alpha   64.79898476
_cell_angle_beta   69.96477065
_cell_angle_gamma   70.10559085
_symmetry_Int_Tables_number   1
_chemical_formula_structural   RbFeP2(HO4)2
_chemical_formula_sum   'Rb3 Fe3 P6 H6 O24'
_cell_volume   525.06653004
_cell_formula_units_Z   3
loop_
 _symmetry_equiv_pos_site_id
 _symmetry_equiv_pos_as_xyz
  1  'x, y, z'
loop_
 _atom_site_type_symbol
 _atom_site_label
 _atom_site_symmetry_multiplicity
 _atom_site_fract_x
 _atom_site_fract_y
 _atom_site_fract_z
 _atom_site_occupancy
  Rb  Rb0  1  -0.86427352  -0.97250104  -0.83063959  1.0
  Rb  Rb1  1  -0.13572648  -0.02749896  -0.16936041  1.0
  Rb  Rb2  1  -0.00000000  -0.50000000  0.00000000  1.0
  H  H3  1  -0.88634598  -0.75732195  -0.26529013  1.0
  H  H4  1  -0.11365402  -0.24267805  -0.73470987  1.0
  H  H5  1  -0.43392263  -0.27538111  0.05340311  1.0
  H  H6  1  -0.56607737  -0.72461889  -1.05340311  1.0
  H  H7  1  -0.22180316  -0.78857626  -0.54778099  1.0
  H  H8  1  -0.77819684  -0.21142374  -0.45221901  1.0
  P  P9  1  -0.94890030  -0.72325537  -0.55165343  1.0
  P  P10  1  -0.05109970  -0.27674463  -0.44834657  1.0
  P  P11  1  -0.58528991  -0.71752055  -0.34890736  1.0
  P  P12  1  -0.41471009  -0.28247945  -0.65109264  1.0
  P  P13  1  -0.41781290  -0.73313333  -0.87832366  1.0
  P  P14  1  -0.58218710  -0.26686667  -0.12167634  1.0
  Fe  Fe15  1  -0.50000000  -0.00000000  -0.50000000  1.0
  Fe  Fe16  1  -0.70469702  -0.45243901  -0.71728726  1.0
  Fe  Fe17  1  -0.29530298  -0.54756099  -0.28271274  1.0
  O  O18  1  -0.94310032  -0.28328628  -0.62791187  1.0
  O  O19  1  -0.05689968  -0.71671372  -0.37208813  1.0
  O  O20  1  -0.91019402  -0.23563546  -0.37665417  1.0
  O  O21  1  -0.08980598  -0.76436454  -0.62334583  1.0
  O  O22  1  -0.77411690  -0.78188040  -0.21020856  1.0
  O  O23  1  -0.22588310  -0.21811960  -0.78979144  1.0
  O  O24  1  -0.60329017  -0.74738930  -0.92605163  1.0
  O  O25  1  -0.39670983  -0.25261070  -0.07394837  1.0
  O  O26  1  -0.66500181  -0.56824040  -0.48544369  1.0
  O  O27  1  -0.33499819  -0.43175960  -0.51455631  1.0
  O  O28  1  -0.48187855  -0.59278947  -0.81705252  1.0
  O  O29  1  -0.51812145  -0.40721053  -0.18294748  1.0
  O  O30  1  -0.90400895  -0.56578715  -0.68507853  1.0
  O  O31  1  -0.09599105  -0.43421285  -0.31492147  1.0
  O  O32  1  -0.76058298  -0.85821926  -0.54064806  1.0
  O  O33  1  -0.23941702  -0.14178074  -0.45935194  1.0
  O  O34  1  -0.51649734  -0.31252085  -0.75678815  1.0
  O  O35  1  -0.48350266  -0.68747915  -0.24321185  1.0
  O  O36  1  -0.43714378  -0.84684591  -0.41919908  1.0
  O  O37  1  -0.56285622  -0.15315409  -0.58080092  1.0
  O  O38  1  -0.35122243  -0.88909556  -0.73946557  1.0
  O  O39  1  -0.64877757  -0.11090444  -0.26053443  1.0
  O  O40  1  -0.75213749  -0.29369693  -0.95765139  1.0
  O  O41  1  -0.24786251  -0.70630307  -0.04234861  1.0
