# generated using pymatgen
data_YNiO3
_symmetry_space_group_name_H-M   'P 1'
_cell_length_a   5.20080206
_cell_length_b   5.57526485
_cell_length_c   9.06094400
_cell_angle_alpha   90.00000000
_cell_angle_beta   125.03476743
_cell_angle_gamma   90.00000000
_symmetry_Int_Tables_number   1
_chemical_formula_structural   YNiO3
_chemical_formula_sum   'Y4 Ni4 O12'
_cell_volume   215.12414027
_cell_formula_units_Z   4
loop_
 _symmetry_equiv_pos_site_id
 _symmetry_equiv_pos_as_xyz
  1  'x, y, z'
loop_
 _atom_site_type_symbol
 _atom_site_label
 _atom_site_symmetry_multiplicity
 _atom_site_fract_x
 _atom_site_fract_y
 _atom_site_fract_z
 _atom_site_occupancy
  Y  Y0  1  0.72941357  0.07652427  0.25000445  1.0
  Y  Y1  1  0.72941357  0.42347573  0.75000445  1.0
  Y  Y2  1  0.27058643  0.57652427  0.24999555  1.0
  Y  Y3  1  0.27058643  0.92347573  0.74999555  1.0
  Ni  Ni4  1  0.50000000  0.50000000  0.00000000  1.0
  Ni  Ni5  1  0.50000000  -0.00000000  0.50000000  1.0
  Ni  Ni6  1  0.00000000  0.50000000  0.50000000  1.0
  Ni  Ni7  1  0.00000000  0.00000000  0.00000000  1.0
  O  O8  1  0.85320343  0.46887769  0.25000497  1.0
  O  O9  1  0.85320343  0.03112231  0.75000497  1.0
  O  O10  1  0.14679657  0.96887769  0.24999503  1.0
  O  O11  1  0.14679657  0.53112231  0.74999503  1.0
  O  O12  1  0.75479880  0.80414167  0.44877834  1.0
  O  O13  1  0.75479880  0.69585833  0.94877834  1.0
  O  O14  1  0.24520120  0.30414167  0.05122166  1.0
  O  O15  1  0.24520120  0.19585833  0.55122166  1.0
  O  O16  1  0.64267410  0.30411294  0.44872653  1.0
  O  O17  1  0.64267410  0.19588706  0.94872653  1.0
  O  O18  1  0.35732590  0.80411294  0.05127347  1.0
  O  O19  1  0.35732590  0.69588706  0.55127347  1.0
