# generated using pymatgen
data_RbNaLi6(SiO4)2
_symmetry_space_group_name_H-M   'P 1'
_cell_length_a   8.55226785
_cell_length_b   8.55226785
_cell_length_c   7.88248881
_cell_angle_alpha   89.42255091
_cell_angle_beta   90.57744909
_cell_angle_gamma   136.35685364
_symmetry_Int_Tables_number   1
_chemical_formula_structural   RbNaLi6(SiO4)2
_chemical_formula_sum   'Rb2 Na2 Li12 Si4 O16'
_cell_volume   397.88089801
_cell_formula_units_Z   2
loop_
 _symmetry_equiv_pos_site_id
 _symmetry_equiv_pos_as_xyz
  1  'x, y, z'
loop_
 _atom_site_type_symbol
 _atom_site_label
 _atom_site_symmetry_multiplicity
 _atom_site_fract_x
 _atom_site_fract_y
 _atom_site_fract_z
 _atom_site_occupancy
  Rb  Rb0  1  0.74467749  -0.74467749  0.46861425  1.0
  Rb  Rb1  1  1.25532251  -0.25532251  0.53138575  1.0
  Na  Na2  1  0.75067859  0.75067859  -0.00000000  1.0
  Na  Na3  1  0.24932141  0.24932141  -0.00000000  1.0
  Li  Li4  1  1.57029721  -0.05539891  0.86723771  1.0
  Li  Li5  1  1.05539891  -0.57029721  0.86723771  1.0
  Li  Li6  1  0.94460109  -0.42970279  0.13276229  1.0
  Li  Li7  1  1.42970279  0.05539891  0.13276229  1.0
  Li  Li8  1  1.31611092  0.17667096  0.62697145  1.0
  Li  Li9  1  0.82332904  -0.31611092  0.62697145  1.0
  Li  Li10  1  1.17667096  -0.68388908  0.37302855  1.0
  Li  Li11  1  1.68388908  -0.17667096  0.37302855  1.0
  Li  Li12  1  1.43332931  -0.43332931  0.71664838  1.0
  Li  Li13  1  0.56667069  -0.56667069  0.28335162  1.0
  Li  Li14  1  1.14075530  -0.14075530  0.86616401  1.0
  Li  Li15  1  0.85924470  -0.85924470  0.13383599  1.0
  Si  Si16  1  0.92909955  -0.92909955  0.70699655  1.0
  Si  Si17  1  1.07090045  -0.07090045  0.29300345  1.0
  Si  Si18  1  0.64638223  -0.64638223  0.85976532  1.0
  Si  Si19  1  1.35361777  -0.35361777  0.14023468  1.0
  O  O20  1  1.68163359  -0.12016877  0.60839052  1.0
  O  O21  1  1.12016877  -0.68163359  0.60839052  1.0
  O  O22  1  0.87983123  -0.31836641  0.39160948  1.0
  O  O23  1  1.31836641  0.12016877  0.39160948  1.0
  O  O24  1  1.47564154  0.08497542  0.80544693  1.0
  O  O25  1  0.91502458  -0.47564154  0.80544693  1.0
  O  O26  1  1.08497542  -0.52435846  0.19455307  1.0
  O  O27  1  1.52435846  -0.08497542  0.19455307  1.0
  O  O28  1  0.96784925  -0.96784925  0.25588425  1.0
  O  O29  1  1.03215075  -0.03215075  0.74411575  1.0
  O  O30  1  0.88366496  -0.88366496  0.89624146  1.0
  O  O31  1  1.11633504  -0.11633504  0.10375854  1.0
  O  O32  1  0.55319119  -0.55319119  0.76118092  1.0
  O  O33  1  1.44680881  -0.44680881  0.23881908  1.0
  O  O34  1  1.36970917  -0.36970917  0.93235358  1.0
  O  O35  1  0.63029083  -0.63029083  0.06764642  1.0
