# generated using pymatgen
data_LiMgAsO4
_symmetry_space_group_name_H-M   'P 1'
_cell_length_a   10.59249219
_cell_length_b   6.05009372
_cell_length_c   4.95060941
_cell_angle_alpha   90.00000000
_cell_angle_beta   90.00000000
_cell_angle_gamma   90.00000000
_symmetry_Int_Tables_number   1
_chemical_formula_structural   LiMgAsO4
_chemical_formula_sum   'Li4 Mg4 As4 O16'
_cell_volume   317.26262837
_cell_formula_units_Z   4
loop_
 _symmetry_equiv_pos_site_id
 _symmetry_equiv_pos_as_xyz
  1  'x, y, z'
loop_
 _atom_site_type_symbol
 _atom_site_label
 _atom_site_symmetry_multiplicity
 _atom_site_fract_x
 _atom_site_fract_y
 _atom_site_fract_z
 _atom_site_occupancy
  Li  Li0  1  0.00000000  0.50000000  0.00000000  1.0
  Li  Li1  1  0.00000000  0.00000000  0.00000000  1.0
  Li  Li2  1  0.50000000  0.50000000  0.50000000  1.0
  Li  Li3  1  0.50000000  0.00000000  0.50000000  1.0
  Mg  Mg4  1  0.77457192  0.25000000  0.50503790  1.0
  Mg  Mg5  1  0.27457192  0.25000000  0.99496210  1.0
  Mg  Mg6  1  0.22542808  0.75000000  0.49496210  1.0
  Mg  Mg7  1  0.72542808  0.75000000  0.00503790  1.0
  As  As8  1  0.59411778  0.25000000  0.06459987  1.0
  As  As9  1  0.09411778  0.25000000  0.43540013  1.0
  As  As10  1  0.40588222  0.75000000  0.93540013  1.0
  As  As11  1  0.90588222  0.75000000  0.56459987  1.0
  O  O12  1  0.67177853  0.47061808  0.22253610  1.0
  O  O13  1  0.67177853  0.02938192  0.22253610  1.0
  O  O14  1  0.17177853  0.47061808  0.27746390  1.0
  O  O15  1  0.17177853  0.02938192  0.27746390  1.0
  O  O16  1  0.32822147  0.97061808  0.77746390  1.0
  O  O17  1  0.32822147  0.52938192  0.77746390  1.0
  O  O18  1  0.82822147  0.97061808  0.72253610  1.0
  O  O19  1  0.82822147  0.52938192  0.72253610  1.0
  O  O20  1  0.94397980  0.25000000  0.29427504  1.0
  O  O21  1  0.44397980  0.25000000  0.20572496  1.0
  O  O22  1  0.05602020  0.75000000  0.70572496  1.0
  O  O23  1  0.55602020  0.75000000  0.79427504  1.0
  O  O24  1  0.59743698  0.25000000  0.71669644  1.0
  O  O25  1  0.09743698  0.25000000  0.78330356  1.0
  O  O26  1  0.40256302  0.75000000  0.28330356  1.0
  O  O27  1  0.90256302  0.75000000  0.21669644  1.0
