# generated using pymatgen
data_LiV2O5
_symmetry_space_group_name_H-M   'P 1'
_cell_length_a   9.77507917
_cell_length_b   3.61424533
_cell_length_c   10.86122886
_cell_angle_alpha   90.00000000
_cell_angle_beta   90.00000000
_cell_angle_gamma   90.00000000
_symmetry_Int_Tables_number   1
_chemical_formula_structural   LiV2O5
_chemical_formula_sum   'Li4 V8 O20'
_cell_volume   383.72215739
_cell_formula_units_Z   4
loop_
 _symmetry_equiv_pos_site_id
 _symmetry_equiv_pos_as_xyz
  1  'x, y, z'
loop_
 _atom_site_type_symbol
 _atom_site_label
 _atom_site_symmetry_multiplicity
 _atom_site_fract_x
 _atom_site_fract_y
 _atom_site_fract_z
 _atom_site_occupancy
  Li  Li0  1  0.65924733  0.75000000  0.22654556  1.0
  Li  Li1  1  0.15924733  0.75000000  0.27345444  1.0
  Li  Li2  1  0.34075267  0.25000000  0.77345444  1.0
  Li  Li3  1  0.84075267  0.25000000  0.72654556  1.0
  V  V4  1  0.87280653  0.75000000  0.50020600  1.0
  V  V5  1  0.37280653  0.75000000  -0.00020600  1.0
  V  V6  1  0.12719347  0.25000000  0.49979400  1.0
  V  V7  1  0.62719347  0.25000000  1.00020600  1.0
  V  V8  1  0.56352759  0.75000000  0.59787760  1.0
  V  V9  1  0.06352759  0.75000000  0.90212240  1.0
  V  V10  1  0.43647241  0.25000000  0.40212240  1.0
  V  V11  1  0.93647241  0.25000000  0.09787760  1.0
  O  O12  1  0.97727351  0.75000000  0.77361404  1.0
  O  O13  1  0.47727351  0.75000000  0.72638596  1.0
  O  O14  1  0.02272649  0.25000000  0.22638596  1.0
  O  O15  1  0.52272649  0.25000000  0.27361404  1.0
  O  O16  1  0.93777394  0.75000000  0.04279042  1.0
  O  O17  1  0.43777394  0.75000000  0.45720958  1.0
  O  O18  1  0.06222606  0.25000000  0.95720958  1.0
  O  O19  1  0.56222606  0.25000000  0.54279042  1.0
  O  O20  1  0.78295475  0.75000000  0.37531899  1.0
  O  O21  1  0.28295475  0.75000000  0.12468101  1.0
  O  O22  1  0.21704525  0.25000000  0.62468101  1.0
  O  O23  1  0.71704525  0.25000000  0.87531899  1.0
  O  O24  1  0.74537811  0.75000000  0.62639114  1.0
  O  O25  1  0.24537811  0.75000000  0.87360886  1.0
  O  O26  1  0.25462189  0.25000000  0.37360886  1.0
  O  O27  1  0.75462189  0.25000000  0.12639114  1.0
  O  O28  1  0.57138542  0.75000000  0.04151967  1.0
  O  O29  1  0.07138542  0.75000000  0.45848033  1.0
  O  O30  1  0.42861458  0.25000000  0.95848033  1.0
  O  O31  1  0.92861458  0.25000000  0.54151967  1.0
