# generated using pymatgen
data_Al(IO3)3
_symmetry_space_group_name_H-M   'P 1'
_cell_length_a   9.10615219
_cell_length_b   9.10615219
_cell_length_c   5.30599374
_cell_angle_alpha   90.00000000
_cell_angle_beta   90.00000000
_cell_angle_gamma   120.00000000
_symmetry_Int_Tables_number   1
_chemical_formula_structural   Al(IO3)3
_chemical_formula_sum   'Al2 I6 O18'
_cell_volume   381.03702121
_cell_formula_units_Z   2
loop_
 _symmetry_equiv_pos_site_id
 _symmetry_equiv_pos_as_xyz
  1  'x, y, z'
loop_
 _atom_site_type_symbol
 _atom_site_label
 _atom_site_symmetry_multiplicity
 _atom_site_fract_x
 _atom_site_fract_y
 _atom_site_fract_z
 _atom_site_occupancy
  Al  Al0  1  0.33333333  0.66666667  -0.00779195  1.0
  Al  Al1  1  0.66666667  0.33333333  0.49220805  1.0
  I  I2  1  0.31658384  0.97553224  0.36893078  1.0
  I  I3  1  0.97553224  0.65894839  0.86893078  1.0
  I  I4  1  0.65894839  0.68341616  0.36893078  1.0
  I  I5  1  0.02446776  0.34105161  0.36893078  1.0
  I  I6  1  0.68341616  0.02446776  0.86893078  1.0
  I  I7  1  0.34105161  0.31658384  0.86893078  1.0
  O  O8  1  0.15520147  0.93824211  0.12493075  1.0
  O  O9  1  0.93824211  0.78304064  0.62493075  1.0
  O  O10  1  0.78304064  0.84479853  0.12493075  1.0
  O  O11  1  0.06175789  0.21695936  0.12493075  1.0
  O  O12  1  0.84479853  0.06175789  0.62493075  1.0
  O  O13  1  0.21695936  0.15520147  0.62493075  1.0
  O  O14  1  0.43014948  0.87069367  0.19472086  1.0
  O  O15  1  0.87069367  0.44054419  0.69472086  1.0
  O  O16  1  0.44054419  0.56985052  0.19472086  1.0
  O  O17  1  0.12930633  0.55945581  0.19472086  1.0
  O  O18  1  0.56985052  0.12930633  0.69472086  1.0
  O  O19  1  0.55945581  0.43014948  0.69472086  1.0
  O  O20  1  0.71933757  0.51918046  0.26721493  1.0
  O  O21  1  0.51918046  0.79984289  0.76721493  1.0
  O  O22  1  0.79984289  0.28066243  0.26721493  1.0
  O  O23  1  0.48081954  0.20015711  0.26721493  1.0
  O  O24  1  0.28066243  0.48081954  0.76721493  1.0
  O  O25  1  0.20015711  0.71933757  0.76721493  1.0
