# generated using pymatgen
data_Ba2Mn2ClF7
_symmetry_space_group_name_H-M   'P 1'
_cell_length_a   7.99038198
_cell_length_b   5.98078349
_cell_length_c   9.14875664
_cell_angle_alpha   90.00000000
_cell_angle_beta   107.30808435
_cell_angle_gamma   90.00000000
_symmetry_Int_Tables_number   1
_chemical_formula_structural   Ba2Mn2ClF7
_chemical_formula_sum   'Ba4 Mn4 Cl2 F14'
_cell_volume   417.41032319
_cell_formula_units_Z   2
loop_
 _symmetry_equiv_pos_site_id
 _symmetry_equiv_pos_as_xyz
  1  'x, y, z'
loop_
 _atom_site_type_symbol
 _atom_site_label
 _atom_site_symmetry_multiplicity
 _atom_site_fract_x
 _atom_site_fract_y
 _atom_site_fract_z
 _atom_site_occupancy
  Ba  Ba0  1  0.34252555  0.25000000  0.08973236  1.0
  Ba  Ba1  1  0.65747445  0.75000000  0.91026764  1.0
  Ba  Ba2  1  0.31342600  0.25000000  0.57392199  1.0
  Ba  Ba3  1  0.68657400  0.75000000  0.42607801  1.0
  Cl  Cl4  1  0.88449949  0.25000000  0.97159797  1.0
  Cl  Cl5  1  0.11550051  0.75000000  0.02840203  1.0
  F  F6  1  0.62594076  0.49702303  0.66146491  1.0
  F  F7  1  0.62594076  0.00297697  0.66146491  1.0
  F  F8  1  0.37405924  0.99702303  0.33853509  1.0
  F  F9  1  0.37405924  0.50297697  0.33853509  1.0
  F  F10  1  0.36353151  1.00359532  0.84638398  1.0
  F  F11  1  0.36353151  0.49640468  0.84638398  1.0
  F  F12  1  0.63646849  0.50359532  0.15361602  1.0
  F  F13  1  0.63646849  -0.00359532  0.15361602  1.0
  F  F14  1  0.73130447  0.25000000  0.42975672  1.0
  F  F15  1  0.26869553  0.75000000  0.57024328  1.0
  F  F16  1  0.98951212  0.99444181  0.66088594  1.0
  F  F17  1  0.98951212  0.50555819  0.66088594  1.0
  F  F18  1  0.01048788  0.49444181  0.33911406  1.0
  F  F19  1  0.01048788  0.00555819  0.33911406  1.0
  Mn  Mn20  1  0.82866275  0.25000000  0.23659065  1.0
  Mn  Mn21  1  0.17133725  0.75000000  0.76340935  1.0
  Mn  Mn22  1  0.81828319  0.25000000  0.67546099  1.0
  Mn  Mn23  1  0.18171681  0.75000000  0.32453901  1.0
