# generated using pymatgen
data_Mn2BiPO6
_symmetry_space_group_name_H-M   'P 1'
_cell_length_a   12.26384169
_cell_length_b   5.41712049
_cell_length_c   8.15021387
_cell_angle_alpha   90.00000000
_cell_angle_beta   90.00000000
_cell_angle_gamma   90.00000000
_symmetry_Int_Tables_number   1
_chemical_formula_structural   Mn2BiPO6
_chemical_formula_sum   'Mn8 Bi4 P4 O24'
_cell_volume   541.45707976
_cell_formula_units_Z   4
loop_
 _symmetry_equiv_pos_site_id
 _symmetry_equiv_pos_as_xyz
  1  'x, y, z'
loop_
 _atom_site_type_symbol
 _atom_site_label
 _atom_site_symmetry_multiplicity
 _atom_site_fract_x
 _atom_site_fract_y
 _atom_site_fract_z
 _atom_site_occupancy
  Mn  Mn0  1  0.40166179  0.75000000  0.20809105  1.0
  Mn  Mn1  1  0.90166179  0.75000000  0.29190895  1.0
  Mn  Mn2  1  0.59833821  0.25000000  0.79190895  1.0
  Mn  Mn3  1  0.09833821  0.25000000  0.70809105  1.0
  Mn  Mn4  1  0.39700757  0.75000000  0.80890839  1.0
  Mn  Mn5  1  0.89700757  0.75000000  0.69109161  1.0
  Mn  Mn6  1  0.60299243  0.25000000  0.19109161  1.0
  Mn  Mn7  1  0.10299243  0.25000000  0.30890839  1.0
  Bi  Bi8  1  0.09440988  0.75000000  0.98612504  1.0
  Bi  Bi9  1  0.59440988  0.75000000  0.51387496  1.0
  Bi  Bi10  1  0.90559012  0.25000000  0.01387496  1.0
  Bi  Bi11  1  0.40559012  0.25000000  0.48612504  1.0
  P  P12  1  0.19868873  0.75000000  0.53203083  1.0
  P  P13  1  0.69868873  0.75000000  0.96796917  1.0
  P  P14  1  0.80131127  0.25000000  0.46796917  1.0
  P  P15  1  0.30131127  0.25000000  0.03203083  1.0
  O  O16  1  0.49358739  0.99772728  0.66902138  1.0
  O  O17  1  0.49358739  0.50227272  0.66902138  1.0
  O  O18  1  0.99358739  0.99772728  0.83097862  1.0
  O  O19  1  0.99358739  0.50227272  0.83097862  1.0
  O  O20  1  0.50641261  0.49772728  0.33097862  1.0
  O  O21  1  0.50641261  0.00227272  0.33097862  1.0
  O  O22  1  0.00641261  0.49772728  0.16902138  1.0
  O  O23  1  0.00641261  0.00227272  0.16902138  1.0
  O  O24  1  0.12814487  0.98963797  0.50849578  1.0
  O  O25  1  0.12814487  0.51036203  0.50849578  1.0
  O  O26  1  0.62814487  0.98963797  0.99150422  1.0
  O  O27  1  0.62814487  0.51036203  0.99150422  1.0
  O  O28  1  0.87185513  0.48963797  0.49150422  1.0
  O  O29  1  0.87185513  0.01036203  0.49150422  1.0
  O  O30  1  0.37185513  0.48963797  0.00849578  1.0
  O  O31  1  0.37185513  0.01036203  0.00849578  1.0
  O  O32  1  0.24057787  0.75000000  0.71283222  1.0
  O  O33  1  0.74057787  0.75000000  0.78716778  1.0
  O  O34  1  0.75942213  0.25000000  0.28716778  1.0
  O  O35  1  0.25942213  0.25000000  0.21283222  1.0
  O  O36  1  0.79550317  0.75000000  0.08997349  1.0
  O  O37  1  0.29550317  0.75000000  0.41002651  1.0
  O  O38  1  0.20449683  0.25000000  0.91002651  1.0
  O  O39  1  0.70449683  0.25000000  0.58997349  1.0
