# generated using pymatgen
data_Sr2NbN3
_symmetry_space_group_name_H-M   'P 1'
_cell_length_a   6.40059916
_cell_length_b   6.40059916
_cell_length_c   12.61509294
_cell_angle_alpha   88.85420339
_cell_angle_beta   91.14579661
_cell_angle_gamma   56.53983289
_symmetry_Int_Tables_number   1
_chemical_formula_structural   Sr2NbN3
_chemical_formula_sum   'Sr8 Nb4 N12'
_cell_volume   430.77508300
_cell_formula_units_Z   4
loop_
 _symmetry_equiv_pos_site_id
 _symmetry_equiv_pos_as_xyz
  1  'x, y, z'
loop_
 _atom_site_type_symbol
 _atom_site_label
 _atom_site_symmetry_multiplicity
 _atom_site_fract_x
 _atom_site_fract_y
 _atom_site_fract_z
 _atom_site_occupancy
  Sr  Sr0  1  0.55533858  0.04207279  0.64101894  1.0
  Sr  Sr1  1  0.95792721  -0.55533858  0.14101894  1.0
  Sr  Sr2  1  1.04207279  -0.44466142  0.85898106  1.0
  Sr  Sr3  1  0.44466142  -0.04207279  0.35898106  1.0
  Sr  Sr4  1  0.34351268  -0.11238047  0.92254870  1.0
  Sr  Sr5  1  1.11238047  -0.34351268  0.42254870  1.0
  Sr  Sr6  1  0.88761953  -0.65648732  0.57745130  1.0
  Sr  Sr7  1  0.65648732  0.11238047  0.07745130  1.0
  Nb  Nb8  1  0.73140836  -0.73480885  0.83655918  1.0
  Nb  Nb9  1  0.73480885  0.26859164  0.33655918  1.0
  Nb  Nb10  1  0.26519115  -0.26859164  0.66344082  1.0
  Nb  Nb11  1  1.26859164  -0.26519115  0.16344082  1.0
  N  N12  1  0.69906979  0.11443349  0.45883683  1.0
  N  N13  1  0.88556651  -0.69906979  0.95883683  1.0
  N  N14  1  1.11443349  -0.30093021  0.04116317  1.0
  N  N15  1  0.30093021  -0.11443349  0.54116317  1.0
  N  N16  1  0.50271022  0.17350037  0.87642021  1.0
  N  N17  1  0.82649963  -0.50271022  0.37642021  1.0
  N  N18  1  1.17350037  -0.49728978  0.62357979  1.0
  N  N19  1  0.49728978  -0.17350037  0.12357979  1.0
  N  N20  1  0.99629726  -0.00370274  0.75000000  1.0
  N  N21  1  0.00370274  0.00370274  0.25000000  1.0
  N  N22  1  0.58687719  -0.41312281  0.75000000  1.0
  N  N23  1  0.41312281  0.41312281  0.25000000  1.0
