# generated using pymatgen
data_Na3FeS3
_symmetry_space_group_name_H-M   'P 1'
_cell_length_a   7.17239202
_cell_length_b   6.91724796
_cell_length_c   14.27137317
_cell_angle_alpha   90.00000000
_cell_angle_beta   118.46243080
_cell_angle_gamma   90.00000000
_symmetry_Int_Tables_number   1
_chemical_formula_structural   Na3FeS3
_chemical_formula_sum   'Na12 Fe4 S12'
_cell_volume   622.46670437
_cell_formula_units_Z   4
loop_
 _symmetry_equiv_pos_site_id
 _symmetry_equiv_pos_as_xyz
  1  'x, y, z'
loop_
 _atom_site_type_symbol
 _atom_site_label
 _atom_site_symmetry_multiplicity
 _atom_site_fract_x
 _atom_site_fract_y
 _atom_site_fract_z
 _atom_site_occupancy
  Na  Na0  1  0.98882391  0.49504551  0.21758870  1.0
  Na  Na1  1  0.98882391  0.00495449  0.71758870  1.0
  Na  Na2  1  0.01117609  0.99504551  0.28241130  1.0
  Na  Na3  1  0.01117609  0.50495449  0.78241130  1.0
  Na  Na4  1  0.61792140  0.02022265  0.40650290  1.0
  Na  Na5  1  0.61792140  0.47977735  0.90650290  1.0
  Na  Na6  1  0.38207860  0.52022265  0.09349710  1.0
  Na  Na7  1  0.38207860  0.97977735  0.59349710  1.0
  Na  Na8  1  0.46248637  0.02014209  0.11741125  1.0
  Na  Na9  1  0.46248637  0.47985791  0.61741125  1.0
  Na  Na10  1  0.53751363  0.52014209  0.38258875  1.0
  Na  Na11  1  0.53751363  0.97985791  0.88258875  1.0
  Fe  Fe12  1  0.99869995  0.87816295  0.07358600  1.0
  Fe  Fe13  1  0.99869995  0.62183705  0.57358600  1.0
  Fe  Fe14  1  0.00130005  0.37816295  0.42641400  1.0
  Fe  Fe15  1  0.00130005  0.12183705  0.92641400  1.0
  S  S16  1  0.98792444  0.20491261  0.07499843  1.0
  S  S17  1  0.98792444  0.29508739  0.57499843  1.0
  S  S18  1  0.01207556  0.70491261  0.42500157  1.0
  S  S19  1  0.01207556  0.79508739  0.92500157  1.0
  S  S20  1  0.70788578  0.28349025  0.27881647  1.0
  S  S21  1  0.70788578  0.21650975  0.77881647  1.0
  S  S22  1  0.29211422  0.78349025  0.22118353  1.0
  S  S23  1  0.29211422  0.71650975  0.72118353  1.0
  S  S24  1  0.29457458  0.25877123  0.42914510  1.0
  S  S25  1  0.29457458  0.24122877  0.92914510  1.0
  S  S26  1  0.70542542  0.75877123  0.07085490  1.0
  S  S27  1  0.70542542  0.74122877  0.57085490  1.0
