# generated using pymatgen
data_NaLa2C3O9F
_symmetry_space_group_name_H-M   'P 1'
_cell_length_a   5.14618079
_cell_length_b   5.14618079
_cell_length_c   8.75713422
_cell_angle_alpha   90.00000000
_cell_angle_beta   90.00000000
_cell_angle_gamma   120.00000000
_symmetry_Int_Tables_number   1
_chemical_formula_structural   NaLa2C3O9F
_chemical_formula_sum   'Na1 La2 C3 O9 F1'
_cell_volume   200.84578242
_cell_formula_units_Z   1
loop_
 _symmetry_equiv_pos_site_id
 _symmetry_equiv_pos_as_xyz
  1  'x, y, z'
loop_
 _atom_site_type_symbol
 _atom_site_label
 _atom_site_symmetry_multiplicity
 _atom_site_fract_x
 _atom_site_fract_y
 _atom_site_fract_z
 _atom_site_occupancy
  Na  Na0  1  0.33333333  0.66666667  0.00000000  1.0
  La  La1  1  0.00000000  0.00000000  0.72442368  1.0
  La  La2  1  0.00000000  0.00000000  0.27557632  1.0
  C  C3  1  0.66666667  0.33333333  0.80398987  1.0
  C  C4  1  0.66666667  0.33333333  0.19601013  1.0
  C  C5  1  0.33333333  0.66666667  0.50000000  1.0
  O  O6  1  0.95672727  0.47836363  0.80139851  1.0
  O  O7  1  0.95672727  0.47836363  0.19860149  1.0
  O  O8  1  0.52163637  0.47836363  0.80139851  1.0
  O  O9  1  0.52163637  0.47836363  0.19860149  1.0
  O  O10  1  0.52163637  0.04327273  0.80139851  1.0
  O  O11  1  0.52163637  0.04327273  0.19860149  1.0
  O  O12  1  0.62450051  0.81225025  0.50000000  1.0
  O  O13  1  0.18774975  0.81225025  0.50000000  1.0
  O  O14  1  0.18774975  0.37549949  0.50000000  1.0
  F  F15  1  0.00000000  0.00000000  0.00000000  1.0
