# generated using pymatgen
data_Zr7Ni10
_symmetry_space_group_name_H-M   'P 1'
_cell_length_a   7.72003518
_cell_length_b   7.72003518
_cell_length_c   9.18010373
_cell_angle_alpha   90.00000000
_cell_angle_beta   90.00000000
_cell_angle_gamma   72.92564450
_symmetry_Int_Tables_number   1
_chemical_formula_structural   Zr7Ni10
_chemical_formula_sum   'Zr14 Ni20'
_cell_volume   523.00970973
_cell_formula_units_Z   2
loop_
 _symmetry_equiv_pos_site_id
 _symmetry_equiv_pos_as_xyz
  1  'x, y, z'
loop_
 _atom_site_type_symbol
 _atom_site_label
 _atom_site_symmetry_multiplicity
 _atom_site_fract_x
 _atom_site_fract_y
 _atom_site_fract_z
 _atom_site_occupancy
  Zr  Zr0  1  -0.18602696  1.18602696  0.31370113  1.0
  Zr  Zr1  1  0.31397304  0.68602696  0.18629887  1.0
  Zr  Zr2  1  0.18602696  0.81397304  0.68629887  1.0
  Zr  Zr3  1  -0.31397304  1.31397304  0.81370113  1.0
  Zr  Zr4  1  -0.49802183  0.99802183  0.25000000  1.0
  Zr  Zr5  1  0.00197817  1.49802183  0.25000000  1.0
  Zr  Zr6  1  -0.00197817  0.50197817  0.75000000  1.0
  Zr  Zr7  1  0.49802183  1.00197817  0.75000000  1.0
  Zr  Zr8  1  0.19188009  1.19188009  0.50000000  1.0
  Zr  Zr9  1  -0.30811991  0.69188009  0.00000000  1.0
  Zr  Zr10  1  -0.19188009  0.80811991  0.50000000  1.0
  Zr  Zr11  1  0.30811991  1.30811991  0.00000000  1.0
  Zr  Zr12  1  -0.50000000  0.50000000  0.50000000  1.0
  Zr  Zr13  1  0.00000000  1.00000000  0.00000000  1.0
  Ni  Ni14  1  0.36267804  1.34686310  0.29243481  1.0
  Ni  Ni15  1  -0.13732196  0.84686310  0.20756519  1.0
  Ni  Ni16  1  0.34686310  1.36267804  0.70756519  1.0
  Ni  Ni17  1  -0.15313690  0.86267804  0.79243481  1.0
  Ni  Ni18  1  -0.34686310  0.63732196  0.29243481  1.0
  Ni  Ni19  1  0.15313690  1.13732196  0.20756519  1.0
  Ni  Ni20  1  -0.36267804  0.65313690  0.70756519  1.0
  Ni  Ni21  1  0.13732196  1.15313690  0.79243481  1.0
  Ni  Ni22  1  0.43728702  0.85338232  0.49278457  1.0
  Ni  Ni23  1  -0.06271298  1.35338232  0.00721543  1.0
  Ni  Ni24  1  -0.14661768  1.43728702  0.50721543  1.0
  Ni  Ni25  1  0.35338232  0.93728702  0.99278457  1.0
  Ni  Ni26  1  0.14661768  0.56271298  0.49278457  1.0
  Ni  Ni27  1  -0.35338232  1.06271298  0.00721543  1.0
  Ni  Ni28  1  -0.43728702  1.14661768  0.50721543  1.0
  Ni  Ni29  1  0.06271298  0.64661768  0.99278457  1.0
  Ni  Ni30  1  -0.39402344  1.39402344  0.10469976  1.0
  Ni  Ni31  1  0.10597656  0.89402344  0.39530024  1.0
  Ni  Ni32  1  0.39402344  0.60597656  0.89530024  1.0
  Ni  Ni33  1  -0.10597656  1.10597656  0.60469976  1.0
