# generated using pymatgen
data_H6PdC2(SO3)2
_symmetry_space_group_name_H-M   'P 1'
_cell_length_a   4.94190054
_cell_length_b   11.27468919
_cell_length_c   8.26557993
_cell_angle_alpha   90.00000000
_cell_angle_beta   112.16212421
_cell_angle_gamma   90.00000000
_symmetry_Int_Tables_number   1
_chemical_formula_structural   H6PdC2(SO3)2
_chemical_formula_sum   'H12 Pd2 C4 S4 O12'
_cell_volume   426.51984801
_cell_formula_units_Z   2
loop_
 _symmetry_equiv_pos_site_id
 _symmetry_equiv_pos_as_xyz
  1  'x, y, z'
loop_
 _atom_site_type_symbol
 _atom_site_label
 _atom_site_symmetry_multiplicity
 _atom_site_fract_x
 _atom_site_fract_y
 _atom_site_fract_z
 _atom_site_occupancy
  H  H0  1  0.49215355  0.15181297  0.55035165  1.0
  H  H1  1  0.49215355  0.34818703  0.05035165  1.0
  H  H2  1  0.50784645  0.84818703  0.44964835  1.0
  H  H3  1  0.50784645  0.65181297  0.94964835  1.0
  H  H4  1  0.33654645  0.25626211  0.65617980  1.0
  H  H5  1  0.33654645  0.24373789  0.15617980  1.0
  H  H6  1  0.66345355  0.74373789  0.34382020  1.0
  H  H7  1  0.66345355  0.75626211  0.84382020  1.0
  H  H8  1  0.10143540  0.15505036  0.49247571  1.0
  H  H9  1  0.10143540  0.34494964  0.99247571  1.0
  H  H10  1  0.89856460  0.84494964  0.50752429  1.0
  H  H11  1  0.89856460  0.65505036  0.00752429  1.0
  Pd  Pd12  1  0.00000000  0.00000000  0.00000000  1.0
  Pd  Pd13  1  -0.00000000  0.50000000  0.50000000  1.0
  C  C14  1  0.31561313  0.16800628  0.59739601  1.0
  C  C15  1  0.31561313  0.33199372  0.09739601  1.0
  C  C16  1  0.68438687  0.83199372  0.40260399  1.0
  C  C17  1  0.68438687  0.66800628  0.90260399  1.0
  S  S18  1  0.35395449  0.06018663  0.76019389  1.0
  S  S19  1  0.35395449  0.43981337  0.26019389  1.0
  S  S20  1  0.64604551  0.93981337  0.23980611  1.0
  S  S21  1  0.64604551  0.56018663  0.73980611  1.0
  O  O22  1  0.62410754  0.09526691  0.91693713  1.0
  O  O23  1  0.62410754  0.40473309  0.41693713  1.0
  O  O24  1  0.37589246  0.90473309  0.08306287  1.0
  O  O25  1  0.37589246  0.59526691  0.58306287  1.0
  O  O26  1  0.09121210  0.08460841  0.80748760  1.0
  O  O27  1  0.09121210  0.41539159  0.30748760  1.0
  O  O28  1  0.90878790  0.91539159  0.19251240  1.0
  O  O29  1  0.90878790  0.58460841  0.69251240  1.0
  O  O30  1  0.36692034  0.94187240  0.69380386  1.0
  O  O31  1  0.36692034  0.55812760  0.19380386  1.0
  O  O32  1  0.63307966  0.05812760  0.30619614  1.0
  O  O33  1  0.63307966  0.44187240  0.80619614  1.0
