# generated using pymatgen
data_Sr2MoO4
_symmetry_space_group_name_H-M   'P 1'
_cell_length_a   7.06835594
_cell_length_b   7.06835594
_cell_length_c   7.06835594
_cell_angle_alpha   147.79818192
_cell_angle_beta   147.79818192
_cell_angle_gamma   46.18337960
_symmetry_Int_Tables_number   1
_chemical_formula_structural   Sr2MoO4
_chemical_formula_sum   'Sr2 Mo1 O4'
_cell_volume   99.93992556
_cell_formula_units_Z   1
loop_
 _symmetry_equiv_pos_site_id
 _symmetry_equiv_pos_as_xyz
  1  'x, y, z'
loop_
 _atom_site_type_symbol
 _atom_site_label
 _atom_site_symmetry_multiplicity
 _atom_site_fract_x
 _atom_site_fract_y
 _atom_site_fract_z
 _atom_site_occupancy
  Sr  Sr0  1  0.64932167  0.64932167  1.00000000  1.0
  Sr  Sr1  1  0.35067833  0.35067833  -0.00000000  1.0
  Mo  Mo2  1  0.00000000  0.00000000  0.00000000  1.0
  O  O3  1  0.83649854  0.83649854  1.00000000  1.0
  O  O4  1  0.16350146  0.16350146  -0.00000000  1.0
  O  O5  1  0.50000000  0.00000000  0.50000000  1.0
  O  O6  1  -0.00000000  0.50000000  0.50000000  1.0
