# generated using pymatgen
data_GdMnGe
_symmetry_space_group_name_H-M   'P 1'
_cell_length_a   7.21589670
_cell_length_b   4.15710014
_cell_length_c   7.97986412
_cell_angle_alpha   90.00000000
_cell_angle_beta   90.00000000
_cell_angle_gamma   90.00000000
_symmetry_Int_Tables_number   1
_chemical_formula_structural   GdMnGe
_chemical_formula_sum   'Gd4 Mn4 Ge4'
_cell_volume   239.37362130
_cell_formula_units_Z   4
loop_
 _symmetry_equiv_pos_site_id
 _symmetry_equiv_pos_as_xyz
  1  'x, y, z'
loop_
 _atom_site_type_symbol
 _atom_site_label
 _atom_site_symmetry_multiplicity
 _atom_site_fract_x
 _atom_site_fract_y
 _atom_site_fract_z
 _atom_site_occupancy
  Gd  Gd0  1  0.98362439  0.75000000  0.68315638  1.0
  Gd  Gd1  1  0.48362439  0.75000000  0.81684362  1.0
  Gd  Gd2  1  0.01637561  0.25000000  0.31684362  1.0
  Gd  Gd3  1  0.51637561  0.25000000  0.18315638  1.0
  Mn  Mn4  1  0.87229776  0.75000000  0.05301951  1.0
  Mn  Mn5  1  0.37229776  0.75000000  0.44698049  1.0
  Mn  Mn6  1  0.12770224  0.25000000  0.94698049  1.0
  Mn  Mn7  1  0.62770224  0.25000000  0.55301951  1.0
  Ge  Ge8  1  0.72385838  0.75000000  0.38463500  1.0
  Ge  Ge9  1  0.22385838  0.75000000  0.11536500  1.0
  Ge  Ge10  1  0.27614162  0.25000000  0.61536500  1.0
  Ge  Ge11  1  0.77614162  0.25000000  0.88463500  1.0
