# generated using pymatgen
data_Ag2AsS2
_symmetry_space_group_name_H-M   'P 1'
_cell_length_a   9.83301609
_cell_length_b   13.09381129
_cell_length_c   6.95977725
_cell_angle_alpha   90.00000000
_cell_angle_beta   99.30244228
_cell_angle_gamma   90.00000000
_symmetry_Int_Tables_number   1
_chemical_formula_structural   Ag2AsS2
_chemical_formula_sum   'Ag16 As8 S16'
_cell_volume   884.29831344
_cell_formula_units_Z   8
loop_
 _symmetry_equiv_pos_site_id
 _symmetry_equiv_pos_as_xyz
  1  'x, y, z'
loop_
 _atom_site_type_symbol
 _atom_site_label
 _atom_site_symmetry_multiplicity
 _atom_site_fract_x
 _atom_site_fract_y
 _atom_site_fract_z
 _atom_site_occupancy
  Ag  Ag0  1  -0.00805102  0.82410114  0.57267536  1.0
  Ag  Ag1  1  -0.00805102  0.17589886  0.07267536  1.0
  Ag  Ag2  1  -0.00221452  0.70183501  0.96014749  1.0
  Ag  Ag3  1  -0.00221452  0.29816499  0.46014749  1.0
  Ag  Ag4  1  0.07421595  0.39591728  0.87118637  1.0
  Ag  Ag5  1  0.07421595  0.60408272  0.37118637  1.0
  Ag  Ag6  1  0.28214869  0.90300614  0.06442318  1.0
  Ag  Ag7  1  0.28214869  0.09699386  0.56442318  1.0
  Ag  Ag8  1  0.39963925  0.39346907  0.78163406  1.0
  Ag  Ag9  1  0.39963925  0.60653093  0.28163406  1.0
  Ag  Ag10  1  0.60765142  0.89560562  0.54410609  1.0
  Ag  Ag11  1  0.60765142  0.10439438  0.04410609  1.0
  Ag  Ag12  1  0.72871031  0.59323410  0.78011153  1.0
  Ag  Ag13  1  0.72871031  0.40676590  0.28011153  1.0
  Ag  Ag14  1  0.87926807  1.00109916  0.81123588  1.0
  Ag  Ag15  1  0.87926807  -0.00109916  0.31123588  1.0
  As  As16  1  0.34199832  0.66618333  0.82912584  1.0
  As  As17  1  0.34199832  0.33381667  0.32912584  1.0
  As  As18  1  0.35352148  0.81071782  0.58545796  1.0
  As  As19  1  0.35352148  0.18928218  0.08545796  1.0
  As  As20  1  0.65748220  0.81681929  -0.00098705  1.0
  As  As21  1  0.65748220  0.18318071  0.49901295  1.0
  As  As22  1  0.66756200  0.32360096  0.75412987  1.0
  As  As23  1  0.66756200  0.67639904  0.25412987  1.0
  S  S24  1  0.12599392  0.59882333  0.74624258  1.0
  S  S25  1  0.12599392  0.40117667  0.24624258  1.0
  S  S26  1  0.20081552  0.91990498  0.69517118  1.0
  S  S27  1  0.20081552  0.08009502  0.19517118  1.0
  S  S28  1  0.23693376  0.24720889  0.79522555  1.0
  S  S29  1  0.23693376  0.75279111  0.29522555  1.0
  S  S30  1  0.46765050  0.56379675  0.66255293  1.0
  S  S31  1  0.46765050  0.43620325  0.16255293  1.0
  S  S32  1  0.55244049  0.93229381  0.16630415  1.0
  S  S33  1  0.55244049  0.06770619  0.66630415  1.0
  S  S34  1  0.76693239  0.74503327  0.54356351  1.0
  S  S35  1  0.76693239  0.25496673  0.04356351  1.0
  S  S36  1  0.83392923  0.42076715  0.64819679  1.0
  S  S37  1  0.83392923  0.57923285  0.14819679  1.0
  S  S38  1  0.88567204  0.86897670  0.05859672  1.0
  S  S39  1  0.88567204  0.13102330  0.55859672  1.0
