# generated using pymatgen
data_K2P2H2O7
_symmetry_space_group_name_H-M   'P 1'
_cell_length_a   6.74600114
_cell_length_b   9.06223471
_cell_length_c   7.08606973
_cell_angle_alpha   107.17194953
_cell_angle_beta   105.00163368
_cell_angle_gamma   102.70899387
_symmetry_Int_Tables_number   1
_chemical_formula_structural   K2P2H2O7
_chemical_formula_sum   'K4 P4 H4 O14'
_cell_volume   378.59839057
_cell_formula_units_Z   2
loop_
 _symmetry_equiv_pos_site_id
 _symmetry_equiv_pos_as_xyz
  1  'x, y, z'
loop_
 _atom_site_type_symbol
 _atom_site_label
 _atom_site_symmetry_multiplicity
 _atom_site_fract_x
 _atom_site_fract_y
 _atom_site_fract_z
 _atom_site_occupancy
  K  K0  1  -0.26183472  -0.55390273  -0.76879999  1.0
  K  K1  1  -0.73816528  -0.44609727  -0.23120001  1.0
  K  K2  1  -0.24294292  -0.98465972  -0.73916652  1.0
  K  K3  1  -0.75705708  -0.01534028  -0.26083348  1.0
  P  P4  1  -0.70187035  -0.83267041  -0.69443112  1.0
  P  P5  1  -0.29812965  -0.16732959  -0.30556888  1.0
  P  P6  1  -0.68819663  -0.35593475  -0.69642293  1.0
  P  P7  1  -0.31180337  -0.64406525  -0.30357707  1.0
  H  H8  1  -0.83076781  -0.66746604  -0.82229167  1.0
  H  H9  1  -0.16923219  -0.33253396  -0.17770833  1.0
  H  H10  1  -0.73000773  -0.12988459  -0.74384680  1.0
  H  H11  1  -0.26999227  -0.87011541  -0.25615320  1.0
  O  O12  1  -0.88961172  -0.76321163  -0.77899534  1.0
  O  O13  1  -0.11038828  -0.23678837  -0.22100466  1.0
  O  O14  1  -0.84005909  -0.34547360  -0.57353871  1.0
  O  O15  1  -0.15994091  -0.65452640  -0.42646129  1.0
  O  O16  1  -0.80570955  -0.98280098  -0.65444057  1.0
  O  O17  1  -0.19429045  -0.01719902  -0.34555943  1.0
  O  O18  1  -0.72586690  -0.51843337  -0.86789884  1.0
  O  O19  1  -0.27413310  -0.48156663  -0.13210116  1.0
  O  O20  1  -0.66538079  -0.22024254  -0.79838568  1.0
  O  O21  1  -0.33461921  -0.77975746  -0.20161432  1.0
  O  O22  1  -0.56233795  -0.84987988  -0.82989745  1.0
  O  O23  1  -0.43766205  -0.15012012  -0.17010255  1.0
  O  O24  1  -0.56085704  -0.68497528  -0.46281356  1.0
  O  O25  1  -0.43914296  -0.31502472  -0.53718644  1.0
