# generated using pymatgen
data_Ta3Cr3N
_symmetry_space_group_name_H-M   'P 1'
_cell_length_a   8.09390858
_cell_length_b   8.09390858
_cell_length_c   8.09390858
_cell_angle_alpha   60.00000000
_cell_angle_beta   60.00000000
_cell_angle_gamma   60.00000000
_symmetry_Int_Tables_number   1
_chemical_formula_structural   Ta3Cr3N
_chemical_formula_sum   'Ta12 Cr12 N4'
_cell_volume   374.93836927
_cell_formula_units_Z   4
loop_
 _symmetry_equiv_pos_site_id
 _symmetry_equiv_pos_as_xyz
  1  'x, y, z'
loop_
 _atom_site_type_symbol
 _atom_site_label
 _atom_site_symmetry_multiplicity
 _atom_site_fract_x
 _atom_site_fract_y
 _atom_site_fract_z
 _atom_site_occupancy
  N  N0  1  0.62500000  1.12500000  0.12500000  1.0
  N  N1  1  0.12500000  1.62500000  0.12500000  1.0
  N  N2  1  0.12500000  0.12500000  1.62500000  1.0
  N  N3  1  0.12500000  0.12500000  0.12500000  1.0
  Ta  Ta4  1  0.80680480  0.80680480  -0.80680480  1.0
  Ta  Ta5  1  0.19319520  1.19319520  -0.19319520  1.0
  Ta  Ta6  1  0.80680480  -0.80680480  0.80680480  1.0
  Ta  Ta7  1  0.19319520  -0.19319520  0.19319520  1.0
  Ta  Ta8  1  -0.80680480  0.80680480  0.80680480  1.0
  Ta  Ta9  1  -0.19319520  0.19319520  0.19319520  1.0
  Ta  Ta10  1  0.44319520  1.44319520  0.05680480  1.0
  Ta  Ta11  1  0.05680480  0.05680480  0.44319520  1.0
  Ta  Ta12  1  0.44319520  1.05680480  0.44319520  1.0
  Ta  Ta13  1  0.05680480  1.44319520  0.05680480  1.0
  Ta  Ta14  1  0.05680480  1.44319520  0.44319520  1.0
  Ta  Ta15  1  0.44319520  1.05680480  0.05680480  1.0
  Cr  Cr16  1  1.12500000  0.62500000  0.62500000  1.0
  Cr  Cr17  1  0.62500000  1.12500000  -0.37500000  1.0
  Cr  Cr18  1  -0.37500000  0.62500000  1.12500000  1.0
  Cr  Cr19  1  -0.37500000  0.62500000  0.62500000  1.0
  Cr  Cr20  1  -0.26442695  0.42147565  0.42147565  1.0
  Cr  Cr21  1  0.42147565  -0.26442695  0.42147565  1.0
  Cr  Cr22  1  0.42147565  1.42147565  -0.26442695  1.0
  Cr  Cr23  1  0.42147565  1.42147565  0.42147565  1.0
  Cr  Cr24  1  0.51442695  0.82852435  -0.17147565  1.0
  Cr  Cr25  1  0.82852435  0.51442695  0.82852435  1.0
  Cr  Cr26  1  0.82852435  0.82852435  -0.48557305  1.0
  Cr  Cr27  1  0.82852435  0.82852435  0.82852435  1.0
