# generated using pymatgen
data_Ta2Zn3O8
_symmetry_space_group_name_H-M   'P 1'
_cell_length_a   6.17419589
_cell_length_b   6.17419589
_cell_length_c   9.62611143
_cell_angle_alpha   71.63025146
_cell_angle_beta   108.36974854
_cell_angle_gamma   92.89708725
_symmetry_Int_Tables_number   1
_chemical_formula_structural   Ta2Zn3O8
_chemical_formula_sum   'Ta4 Zn6 O16'
_cell_volume   330.02381680
_cell_formula_units_Z   2
loop_
 _symmetry_equiv_pos_site_id
 _symmetry_equiv_pos_as_xyz
  1  'x, y, z'
loop_
 _atom_site_type_symbol
 _atom_site_label
 _atom_site_symmetry_multiplicity
 _atom_site_fract_x
 _atom_site_fract_y
 _atom_site_fract_z
 _atom_site_occupancy
  Ta  Ta0  1  1.77876470  -0.06163241  0.37341875  1.0
  Ta  Ta1  1  1.06163241  -0.77876470  0.87341875  1.0
  Ta  Ta2  1  0.93836759  0.77876470  0.12658125  1.0
  Ta  Ta3  1  0.22123530  0.06163241  0.62658125  1.0
  Zn  Zn4  1  0.63852388  0.32041465  0.99713550  1.0
  Zn  Zn5  1  0.67958535  0.36147612  0.49713550  1.0
  Zn  Zn6  1  1.32041465  -0.36147612  0.50286450  1.0
  Zn  Zn7  1  1.36147612  -0.32041465  0.00286450  1.0
  Zn  Zn8  1  0.76193310  0.76193310  0.75000000  1.0
  Zn  Zn9  1  0.23806690  0.23806690  0.25000000  1.0
  O  O10  1  1.86107532  -0.06228704  0.89664623  1.0
  O  O11  1  1.06228704  -0.86107532  0.39664623  1.0
  O  O12  1  0.93771296  0.86107532  0.60335377  1.0
  O  O13  1  0.13892468  0.06228704  0.10335377  1.0
  O  O14  1  1.42576674  -0.17770055  0.64478007  1.0
  O  O15  1  1.17770055  -0.42576674  0.14478007  1.0
  O  O16  1  0.82229945  0.42576674  0.85521993  1.0
  O  O17  1  0.57423326  0.17770055  0.35521993  1.0
  O  O18  1  1.28228882  -0.01649423  0.85340304  1.0
  O  O19  1  1.01649423  -0.28228882  0.35340304  1.0
  O  O20  1  0.98350577  0.28228882  0.64659696  1.0
  O  O21  1  0.71771118  0.01649423  0.14659696  1.0
  O  O22  1  1.31056340  -0.58630950  0.91085018  1.0
  O  O23  1  1.58630950  -0.31056340  0.41085018  1.0
  O  O24  1  0.41369050  0.31056340  0.58914982  1.0
  O  O25  1  0.68943660  0.58630950  0.08914982  1.0
