# generated using pymatgen
data_SrP2PdO7
_symmetry_space_group_name_H-M   'P 1'
_cell_length_a   13.56448908
_cell_length_b   6.10779709
_cell_length_c   7.50061150
_cell_angle_alpha   90.00000000
_cell_angle_beta   90.00000000
_cell_angle_gamma   90.00000000
_symmetry_Int_Tables_number   1
_chemical_formula_structural   SrP2PdO7
_chemical_formula_sum   'Sr4 P8 Pd4 O28'
_cell_volume   621.41926354
_cell_formula_units_Z   4
loop_
 _symmetry_equiv_pos_site_id
 _symmetry_equiv_pos_as_xyz
  1  'x, y, z'
loop_
 _atom_site_type_symbol
 _atom_site_label
 _atom_site_symmetry_multiplicity
 _atom_site_fract_x
 _atom_site_fract_y
 _atom_site_fract_z
 _atom_site_occupancy
  Sr  Sr0  1  0.24995137  0.75000000  0.25000129  1.0
  Sr  Sr1  1  0.74995137  0.75000000  0.24999871  1.0
  Sr  Sr2  1  0.75004863  0.25000000  0.74999871  1.0
  Sr  Sr3  1  0.25004863  0.25000000  0.75000129  1.0
  P  P4  1  0.39363166  0.75000000  0.80210746  1.0
  P  P5  1  0.89363166  0.75000000  0.69789254  1.0
  P  P6  1  0.60636834  0.25000000  0.19789254  1.0
  P  P7  1  0.10636834  0.25000000  0.30210746  1.0
  P  P8  1  0.10639469  0.75000000  0.69793195  1.0
  P  P9  1  0.60639469  0.75000000  0.80206805  1.0
  P  P10  1  0.89360531  0.25000000  0.30206805  1.0
  P  P11  1  0.39360531  0.25000000  0.19793195  1.0
  Pd  Pd12  1  0.50000000  0.00000000  0.50000000  1.0
  Pd  Pd13  1  0.50000000  0.50000000  0.50000000  1.0
  Pd  Pd14  1  0.00000000  0.00000000  0.00000000  1.0
  Pd  Pd15  1  0.00000000  0.50000000  0.00000000  1.0
  O  O16  1  0.39082277  0.96333635  0.68647639  1.0
  O  O17  1  0.39082277  0.53666365  0.68647639  1.0
  O  O18  1  0.89082277  0.96333635  0.81352361  1.0
  O  O19  1  0.89082277  0.53666365  0.81352361  1.0
  O  O20  1  0.60917723  0.46333635  0.31352361  1.0
  O  O21  1  0.60917723  0.03666365  0.31352361  1.0
  O  O22  1  0.10917723  0.46333635  0.18647639  1.0
  O  O23  1  0.10917723  0.03666365  0.18647639  1.0
  O  O24  1  0.10919547  0.96334499  0.81355137  1.0
  O  O25  1  0.10919547  0.53665501  0.81355137  1.0
  O  O26  1  0.60919547  0.96334499  0.68644863  1.0
  O  O27  1  0.60919547  0.53665501  0.68644863  1.0
  O  O28  1  0.89080453  0.46334499  0.18644863  1.0
  O  O29  1  0.89080453  0.03665501  0.18644863  1.0
  O  O30  1  0.39080453  0.46334499  0.31355137  1.0
  O  O31  1  0.39080453  0.03665501  0.31355137  1.0
  O  O32  1  0.50001651  0.75000000  0.90306751  1.0
  O  O33  1  1.00001651  0.75000000  0.59693249  1.0
  O  O34  1  0.49998349  0.25000000  0.09693249  1.0
  O  O35  1  -0.00001651  0.25000000  0.40306751  1.0
  O  O36  1  0.31346527  0.75000000  0.94033912  1.0
  O  O37  1  0.81346527  0.75000000  0.55966088  1.0
  O  O38  1  0.68653473  0.25000000  0.05966088  1.0
  O  O39  1  0.18653473  0.25000000  0.44033912  1.0
  O  O40  1  0.18655235  0.75000000  0.55968200  1.0
  O  O41  1  0.68655235  0.75000000  0.94031800  1.0
  O  O42  1  0.81344765  0.25000000  0.44031800  1.0
  O  O43  1  0.31344765  0.25000000  0.05968200  1.0
