# generated using pymatgen
data_K2LiAlF6
_symmetry_space_group_name_H-M   'P 1'
_cell_length_a   5.64662613
_cell_length_b   5.64662613
_cell_length_c   5.64662613
_cell_angle_alpha   59.99420452
_cell_angle_beta   59.99420452
_cell_angle_gamma   59.99420452
_symmetry_Int_Tables_number   1
_chemical_formula_structural   K2LiAlF6
_chemical_formula_sum   'K2 Li1 Al1 F6'
_cell_volume   127.29021832
_cell_formula_units_Z   1
loop_
 _symmetry_equiv_pos_site_id
 _symmetry_equiv_pos_as_xyz
  1  'x, y, z'
loop_
 _atom_site_type_symbol
 _atom_site_label
 _atom_site_symmetry_multiplicity
 _atom_site_fract_x
 _atom_site_fract_y
 _atom_site_fract_z
 _atom_site_occupancy
  K  K0  1  0.75003584  0.75003584  -0.24996416  1.0
  K  K1  1  1.24996416  1.24996416  0.24996416  1.0
  Li  Li2  1  0.00000000  0.00000000  0.00000000  1.0
  Al  Al3  1  0.50000000  0.50000000  -0.50000000  1.0
  F  F4  1  0.26862209  0.26862209  -0.26857878  1.0
  F  F5  1  0.26862209  0.73142122  -0.73137791  1.0
  F  F6  1  0.26857878  0.73137791  -0.26862209  1.0
  F  F7  1  0.73137791  0.26857878  -0.26862209  1.0
  F  F8  1  0.73137791  0.73137791  -0.73142122  1.0
  F  F9  1  0.73142122  0.26862209  -0.73137791  1.0
