# generated using pymatgen
data_MgCr(SiO3)2
_symmetry_space_group_name_H-M   'P 1'
_cell_length_a   6.73206616
_cell_length_b   6.73206616
_cell_length_c   5.38772305
_cell_angle_alpha   74.35146838
_cell_angle_beta   105.64853162
_cell_angle_gamma   95.83033603
_symmetry_Int_Tables_number   1
_chemical_formula_structural   MgCr(SiO3)2
_chemical_formula_sum   'Mg2 Cr2 Si4 O12'
_cell_volume   226.30048757
_cell_formula_units_Z   2
loop_
 _symmetry_equiv_pos_site_id
 _symmetry_equiv_pos_as_xyz
  1  'x, y, z'
loop_
 _atom_site_type_symbol
 _atom_site_label
 _atom_site_symmetry_multiplicity
 _atom_site_fract_x
 _atom_site_fract_y
 _atom_site_fract_z
 _atom_site_occupancy
  Mg  Mg0  1  0.40223719  0.40223719  0.75000000  1.0
  Mg  Mg1  1  0.59776281  0.59776281  0.25000000  1.0
  Cr  Cr2  1  0.76412134  0.76412134  0.75000000  1.0
  Cr  Cr3  1  0.23587866  0.23587866  0.25000000  1.0
  Si  Si4  1  1.29387810  -0.11639236  0.72057058  1.0
  Si  Si5  1  1.11639236  -0.29387810  0.22057058  1.0
  Si  Si6  1  0.88360764  0.29387810  0.77942942  1.0
  Si  Si7  1  0.70612190  0.11639236  0.27942942  1.0
  O  O8  1  1.46798780  -0.29327732  0.84591468  1.0
  O  O9  1  1.29327732  -0.46798780  0.34591468  1.0
  O  O10  1  0.70672268  0.46798780  0.65408532  1.0
  O  O11  1  0.53201220  0.29327732  0.15408532  1.0
  O  O12  1  0.85581481  0.14828109  1.07191181  1.0
  O  O13  1  0.85171891  0.14418519  0.57191181  1.0
  O  O14  1  1.14828109  -0.14418519  0.42808819  1.0
  O  O15  1  1.14418519  -0.14828109  -0.07191181  1.0
  O  O16  1  0.37068689  0.12405021  0.64488003  1.0
  O  O17  1  0.87594979  0.62931311  0.14488003  1.0
  O  O18  1  1.12405021  -0.62931311  0.85511997  1.0
  O  O19  1  1.62931311  -0.12405021  0.35511997  1.0
