# generated using pymatgen
data_Sr3Ga3Ge2SbO14
_symmetry_space_group_name_H-M   'P 1'
_cell_length_a   8.47153300
_cell_length_b   8.47153300
_cell_length_c   5.19146478
_cell_angle_alpha   90.00000000
_cell_angle_beta   90.00000000
_cell_angle_gamma   120.00000000
_symmetry_Int_Tables_number   1
_chemical_formula_structural   Sr3Ga3Ge2SbO14
_chemical_formula_sum   'Sr3 Ga3 Ge2 Sb1 O14'
_cell_volume   322.65957488
_cell_formula_units_Z   1
loop_
 _symmetry_equiv_pos_site_id
 _symmetry_equiv_pos_as_xyz
  1  'x, y, z'
loop_
 _atom_site_type_symbol
 _atom_site_label
 _atom_site_symmetry_multiplicity
 _atom_site_fract_x
 _atom_site_fract_y
 _atom_site_fract_z
 _atom_site_occupancy
  Sr  Sr0  1  0.42772462  0.42772462  0.00000000  1.0
  Sr  Sr1  1  -0.00000000  0.57227538  -0.00000000  1.0
  Sr  Sr2  1  0.57227538  -0.00000000  0.00000000  1.0
  Ga  Ga3  1  0.75399460  0.75399460  0.50000000  1.0
  Ga  Ga4  1  0.00000000  0.24600540  0.50000000  1.0
  Ga  Ga5  1  0.24600540  0.00000000  0.50000000  1.0
  Ge  Ge6  1  0.33333333  0.66666667  0.52833922  1.0
  Ge  Ge7  1  0.66666667  0.33333333  0.47166078  1.0
  Sb  Sb8  1  0.00000000  -0.00000000  -0.00000000  1.0
  O  O9  1  0.08943772  0.86941538  0.23133634  1.0
  O  O10  1  0.86941538  0.08943772  0.76866366  1.0
  O  O11  1  0.77997766  0.91056228  0.23133634  1.0
  O  O12  1  0.13058462  0.22002234  0.23133634  1.0
  O  O13  1  0.91056228  0.77997766  0.76866366  1.0
  O  O14  1  0.22002234  0.13058462  0.76866366  1.0
  O  O15  1  0.69446894  0.53612887  0.32166147  1.0
  O  O16  1  0.53612887  0.69446894  0.67833853  1.0
  O  O17  1  0.84165992  0.30553106  0.32166147  1.0
  O  O18  1  0.46387113  0.15834008  0.32166147  1.0
  O  O19  1  0.30553106  0.84165992  0.67833853  1.0
  O  O20  1  0.15834008  0.46387113  0.67833853  1.0
  O  O21  1  0.33333333  0.66666667  0.19442466  1.0
  O  O22  1  0.66666667  0.33333333  0.80557534  1.0
