# generated using pymatgen
data_LaH3(SeO4)3
_symmetry_space_group_name_H-M   'P 1'
_cell_length_a   9.85179848
_cell_length_b   9.85179848
_cell_length_c   6.39405522
_cell_angle_alpha   90.00000000
_cell_angle_beta   90.00000000
_cell_angle_gamma   120.00000000
_symmetry_Int_Tables_number   1
_chemical_formula_structural   LaH3(SeO4)3
_chemical_formula_sum   'La2 H6 Se6 O24'
_cell_volume   537.44998343
_cell_formula_units_Z   2
loop_
 _symmetry_equiv_pos_site_id
 _symmetry_equiv_pos_as_xyz
  1  'x, y, z'
loop_
 _atom_site_type_symbol
 _atom_site_label
 _atom_site_symmetry_multiplicity
 _atom_site_fract_x
 _atom_site_fract_y
 _atom_site_fract_z
 _atom_site_occupancy
  La  La0  1  0.66666667  0.33333333  0.25000000  1.0
  La  La1  1  0.33333333  0.66666667  0.75000000  1.0
  H  H2  1  1.11054102  0.93751543  0.25000000  1.0
  H  H3  1  0.82697441  -0.11054102  0.25000000  1.0
  H  H4  1  0.06248457  0.17302559  0.25000000  1.0
  H  H5  1  -0.11054102  0.06248457  0.75000000  1.0
  H  H6  1  0.17302559  1.11054102  0.75000000  1.0
  H  H7  1  0.93751543  0.82697441  0.75000000  1.0
  Se  Se8  1  0.10425541  0.70388792  0.25000000  1.0
  Se  Se9  1  0.59963251  0.89574459  0.25000000  1.0
  Se  Se10  1  0.29611208  0.40036749  0.25000000  1.0
  Se  Se11  1  0.89574459  0.29611208  0.75000000  1.0
  Se  Se12  1  0.40036749  0.10425541  0.75000000  1.0
  Se  Se13  1  0.70388792  0.59963251  0.75000000  1.0
  O  O14  1  0.95650613  0.52487769  0.25000000  1.0
  O  O15  1  0.56837156  0.04349387  0.25000000  1.0
  O  O16  1  0.47512231  0.43162844  0.25000000  1.0
  O  O17  1  0.04349387  0.47512231  0.75000000  1.0
  O  O18  1  0.43162844  0.95650613  0.75000000  1.0
  O  O19  1  0.52487769  0.56837156  0.75000000  1.0
  O  O20  1  0.21101203  0.75432307  0.46368178  1.0
  O  O21  1  0.54331104  0.78898797  0.46368178  1.0
  O  O22  1  0.24567693  0.45668896  0.46368178  1.0
  O  O23  1  0.78898797  0.24567693  0.96368178  1.0
  O  O24  1  0.45668896  0.21101203  0.96368178  1.0
  O  O25  1  0.75432307  0.54331104  0.96368178  1.0
  O  O26  1  0.78898797  0.24567693  0.53631822  1.0
  O  O27  1  0.45668896  0.21101203  0.53631822  1.0
  O  O28  1  0.75432307  0.54331104  0.53631822  1.0
  O  O29  1  0.21101203  0.75432307  0.03631822  1.0
  O  O30  1  0.54331104  0.78898797  0.03631822  1.0
  O  O31  1  0.24567693  0.45668896  0.03631822  1.0
  O  O32  1  0.02063327  0.82966996  0.25000000  1.0
  O  O33  1  0.80903670  0.97936673  0.25000000  1.0
  O  O34  1  0.17033004  0.19096330  0.25000000  1.0
  O  O35  1  0.97936673  0.17033004  0.75000000  1.0
  O  O36  1  0.19096330  0.02063327  0.75000000  1.0
  O  O37  1  0.82966996  0.80903670  0.75000000  1.0
