# generated using pymatgen
data_CaClO
_symmetry_space_group_name_H-M   'P 1'
_cell_length_a   3.97460334
_cell_length_b   3.97460334
_cell_length_c   9.30872180
_cell_angle_alpha   90.00000000
_cell_angle_beta   90.00000000
_cell_angle_gamma   120.00000000
_symmetry_Int_Tables_number   1
_chemical_formula_structural   CaClO
_chemical_formula_sum   'Ca2 Cl2 O2'
_cell_volume   127.35273270
_cell_formula_units_Z   2
loop_
 _symmetry_equiv_pos_site_id
 _symmetry_equiv_pos_as_xyz
  1  'x, y, z'
loop_
 _atom_site_type_symbol
 _atom_site_label
 _atom_site_symmetry_multiplicity
 _atom_site_fract_x
 _atom_site_fract_y
 _atom_site_fract_z
 _atom_site_occupancy
  Ca  Ca0  1  0.33333333  0.66666667  0.54750552  1.0
  Ca  Ca1  1  0.66666667  0.33333333  0.04750552  1.0
  Cl  Cl2  1  0.33333333  0.66666667  0.24173197  1.0
  Cl  Cl3  1  0.66666667  0.33333333  0.74173197  1.0
  O  O4  1  0.00000000  0.00000000  0.00476251  1.0
  O  O5  1  0.00000000  0.00000000  0.50476251  1.0
