# generated using pymatgen
data_NaAuS
_symmetry_space_group_name_H-M   'P 1'
_cell_length_a   13.03884891
_cell_length_b   13.03884891
_cell_length_c   7.16505484
_cell_angle_alpha   90.00000000
_cell_angle_beta   90.00000000
_cell_angle_gamma   69.27672816
_symmetry_Int_Tables_number   1
_chemical_formula_structural   NaAuS
_chemical_formula_sum   'Na16 Au16 S16'
_cell_volume   1139.32896019
_cell_formula_units_Z   16
loop_
 _symmetry_equiv_pos_site_id
 _symmetry_equiv_pos_as_xyz
  1  'x, y, z'
loop_
 _atom_site_type_symbol
 _atom_site_label
 _atom_site_symmetry_multiplicity
 _atom_site_fract_x
 _atom_site_fract_y
 _atom_site_fract_z
 _atom_site_occupancy
  Na  Na0  1  0.24816015  0.75183985  0.50000000  1.0
  Na  Na1  1  -0.74816015  0.74816015  0.00000000  1.0
  Na  Na2  1  -0.25183985  0.25183985  0.00000000  1.0
  Na  Na3  1  -0.24816015  1.24816015  0.50000000  1.0
  Na  Na4  1  0.11333914  1.11333914  0.50000000  1.0
  Na  Na5  1  -0.38666086  0.61333914  0.00000000  1.0
  Na  Na6  1  0.38666086  1.38666086  0.00000000  1.0
  Na  Na7  1  -0.11333914  0.88666086  0.50000000  1.0
  Na  Na8  1  -0.12736656  1.49751479  0.84136000  1.0
  Na  Na9  1  -0.00248521  1.37263344  0.34136000  1.0
  Na  Na10  1  0.00248521  1.62736656  0.34136000  1.0
  Na  Na11  1  0.12736656  1.50248521  0.84136000  1.0
  Na  Na12  1  0.62736656  1.00248521  0.65864000  1.0
  Na  Na13  1  0.50248521  1.12736656  0.15864000  1.0
  Na  Na14  1  0.49751479  0.87263344  0.15864000  1.0
  Na  Na15  1  0.37263344  0.99751479  0.65864000  1.0
  Au  Au16  1  -0.00100812  0.75416690  0.97359561  1.0
  Au  Au17  1  0.25416690  1.49899188  0.47359561  1.0
  Au  Au18  1  -0.25416690  0.50100812  0.47359561  1.0
  Au  Au19  1  0.00100812  1.24583310  0.97359561  1.0
  Au  Au20  1  -0.49899188  0.74583310  0.52640439  1.0
  Au  Au21  1  0.24583310  1.00100812  0.02640439  1.0
  Au  Au22  1  -0.24583310  0.99899188  0.02640439  1.0
  Au  Au23  1  0.49899188  1.25416690  0.52640439  1.0
  Au  Au24  1  -0.00000000  1.00000000  0.22080593  1.0
  Au  Au25  1  -0.50000000  0.50000000  0.72080593  1.0
  Au  Au26  1  -0.50000000  0.50000000  0.27919407  1.0
  Au  Au27  1  -0.00000000  1.00000000  0.77919407  1.0
  Au  Au28  1  0.75000000  0.75000000  0.75000000  1.0
  Au  Au29  1  0.25000000  1.25000000  0.25000000  1.0
  Au  Au30  1  0.75000000  0.75000000  0.25000000  1.0
  Au  Au31  1  0.25000000  1.25000000  0.75000000  1.0
  S  S32  1  0.06688135  0.80917774  0.24159177  1.0
  S  S33  1  0.30917774  1.56688135  0.74159177  1.0
  S  S34  1  -0.30917774  0.43311865  0.74159177  1.0
  S  S35  1  -0.06688135  1.19082226  0.24159177  1.0
  S  S36  1  -0.56688135  0.69082226  0.25840823  1.0
  S  S37  1  0.19082226  0.93311865  0.75840823  1.0
  S  S38  1  -0.19082226  1.06688135  0.75840823  1.0
  S  S39  1  0.56688135  1.30917774  0.25840823  1.0
  S  S40  1  -0.06048478  1.68181627  0.71687737  1.0
  S  S41  1  0.18181627  1.43951522  0.21687737  1.0
  S  S42  1  -0.18181627  1.56048478  0.21687737  1.0
  S  S43  1  0.06048478  1.31818373  0.71687737  1.0
  S  S44  1  0.56048478  0.81818373  0.78312263  1.0
  S  S45  1  0.31818373  1.06048478  0.28312263  1.0
  S  S46  1  0.68181627  0.93951522  0.28312263  1.0
  S  S47  1  0.43951522  1.18181627  0.78312263  1.0
