# generated using pymatgen
data_H2WO4
_symmetry_space_group_name_H-M   'P 1'
_cell_length_a   11.40712973
_cell_length_b   5.37894222
_cell_length_c   5.24018242
_cell_angle_alpha   90.00000000
_cell_angle_beta   90.00000000
_cell_angle_gamma   90.00000000
_symmetry_Int_Tables_number   1
_chemical_formula_structural   H2WO4
_chemical_formula_sum   'H8 W4 O16'
_cell_volume   321.52864112
_cell_formula_units_Z   4
loop_
 _symmetry_equiv_pos_site_id
 _symmetry_equiv_pos_as_xyz
  1  'x, y, z'
loop_
 _atom_site_type_symbol
 _atom_site_label
 _atom_site_symmetry_multiplicity
 _atom_site_fract_x
 _atom_site_fract_y
 _atom_site_fract_z
 _atom_site_occupancy
  H  H0  1  0.51772815  0.25000000  0.62327537  1.0
  H  H1  1  0.01772815  0.25000000  0.87672463  1.0
  H  H2  1  0.48227185  0.75000000  0.37672463  1.0
  H  H3  1  0.98227185  0.75000000  0.12327537  1.0
  H  H4  1  0.53353566  0.25000000  0.31821332  1.0
  H  H5  1  0.03353566  0.25000000  0.18178668  1.0
  H  H6  1  0.46646434  0.75000000  0.68178668  1.0
  H  H7  1  0.96646434  0.75000000  0.81821332  1.0
  W  W8  1  0.77726215  0.25000000  0.53990409  1.0
  W  W9  1  0.27726215  0.25000000  0.96009591  1.0
  W  W10  1  0.22273785  0.75000000  0.46009591  1.0
  W  W11  1  0.72273785  0.75000000  0.03990409  1.0
  O  O12  1  0.77109044  0.50268613  0.29347998  1.0
  O  O13  1  0.77109044  -0.00268613  0.29347998  1.0
  O  O14  1  0.27109044  0.50268613  0.20652002  1.0
  O  O15  1  0.27109044  -0.00268613  0.20652002  1.0
  O  O16  1  0.22890956  1.00268613  0.70652002  1.0
  O  O17  1  0.22890956  0.49731387  0.70652002  1.0
  O  O18  1  0.72890956  1.00268613  0.79347998  1.0
  O  O19  1  0.72890956  0.49731387  0.79347998  1.0
  O  O20  1  0.92722492  0.25000000  0.60767573  1.0
  O  O21  1  0.42722492  0.25000000  0.89232427  1.0
  O  O22  1  0.07277508  0.75000000  0.39232427  1.0
  O  O23  1  0.57277508  0.75000000  0.10767573  1.0
  O  O24  1  0.57488431  0.25000000  0.48051534  1.0
  O  O25  1  0.07488431  0.25000000  0.01948466  1.0
  O  O26  1  0.42511569  0.75000000  0.51948466  1.0
  O  O27  1  0.92511569  0.75000000  0.98051534  1.0
