# generated using pymatgen
data_Ti4Si7Ni4
_symmetry_space_group_name_H-M   'P 1'
_cell_length_a   9.23960313
_cell_length_b   9.23960313
_cell_length_c   9.23960313
_cell_angle_alpha   94.12614108
_cell_angle_beta   94.12614108
_cell_angle_gamma   148.88091321
_symmetry_Int_Tables_number   1
_chemical_formula_structural   Ti4Si7Ni4
_chemical_formula_sum   'Ti8 Si14 Ni8'
_cell_volume   392.72010992
_cell_formula_units_Z   2
loop_
 _symmetry_equiv_pos_site_id
 _symmetry_equiv_pos_as_xyz
  1  'x, y, z'
loop_
 _atom_site_type_symbol
 _atom_site_label
 _atom_site_symmetry_multiplicity
 _atom_site_fract_x
 _atom_site_fract_y
 _atom_site_fract_z
 _atom_site_occupancy
  Ti  Ti0  1  0.00000000  0.81022898  0.81022898  1.0
  Ti  Ti1  1  0.81022898  1.00000000  0.81022898  1.0
  Ti  Ti2  1  1.18977102  1.00000000  1.18977102  1.0
  Ti  Ti3  1  0.00000000  0.18977102  0.18977102  1.0
  Ti  Ti4  1  0.63429284  0.63429284  0.26858567  1.0
  Ti  Ti5  1  1.36570716  0.63429284  1.00000000  1.0
  Ti  Ti6  1  0.63429284  0.36570716  1.00000000  1.0
  Ti  Ti7  1  0.36570716  0.36570716  0.73141433  1.0
  Si  Si8  1  0.50000000  0.78772813  0.28772813  1.0
  Si  Si9  1  0.78772813  0.50000000  1.28772813  1.0
  Si  Si10  1  0.21227187  0.50000000  0.71227187  1.0
  Si  Si11  1  0.50000000  1.21227187  0.71227187  1.0
  Si  Si12  1  0.00000000  0.59319908  0.59319908  1.0
  Si  Si13  1  0.59319908  1.00000000  0.59319908  1.0
  Si  Si14  1  1.40680092  1.00000000  1.40680092  1.0
  Si  Si15  1  0.00000000  0.40680092  0.40680092  1.0
  Si  Si16  1  0.79582858  0.79582858  0.59165715  1.0
  Si  Si17  1  1.20417142  0.79582858  1.00000000  1.0
  Si  Si18  1  0.79582858  0.20417142  1.00000000  1.0
  Si  Si19  1  0.20417142  0.20417142  0.40834285  1.0
  Si  Si20  1  0.74888950  0.74888950  0.00000000  1.0
  Si  Si21  1  0.25111050  0.25111050  0.00000000  1.0
  Ni  Ni22  1  1.10127402  0.60127402  1.20254804  1.0
  Ni  Ni23  1  1.60127402  1.10127402  1.20254804  1.0
  Ni  Ni24  1  0.39872598  0.60127402  0.50000000  1.0
  Ni  Ni25  1  0.89872598  1.10127402  0.50000000  1.0
  Ni  Ni26  1  1.10127402  0.89872598  1.50000000  1.0
  Ni  Ni27  1  1.60127402  1.39872598  1.50000000  1.0
  Ni  Ni28  1  0.39872598  0.89872598  0.79745196  1.0
  Ni  Ni29  1  0.89872598  1.39872598  0.79745196  1.0
