# generated using pymatgen
data_KLiZnO2
_symmetry_space_group_name_H-M   'P 1'
_cell_length_a   5.71851767
_cell_length_b   5.71851767
_cell_length_c   8.31373737
_cell_angle_alpha   61.60163891
_cell_angle_beta   118.39836109
_cell_angle_gamma   145.66489852
_symmetry_Int_Tables_number   1
_chemical_formula_structural   KLiZnO2
_chemical_formula_sum   'K2 Li2 Zn2 O4'
_cell_volume   132.99607978
_cell_formula_units_Z   2
loop_
 _symmetry_equiv_pos_site_id
 _symmetry_equiv_pos_as_xyz
  1  'x, y, z'
loop_
 _atom_site_type_symbol
 _atom_site_label
 _atom_site_symmetry_multiplicity
 _atom_site_fract_x
 _atom_site_fract_y
 _atom_site_fract_z
 _atom_site_occupancy
  K  K0  1  0.83632587  -0.83632587  0.36892749  1.0
  K  K1  1  0.16367413  -0.16367413  0.63107251  1.0
  Li  Li2  1  0.65850625  0.34149375  0.94650830  1.0
  Li  Li3  1  1.34149375  -0.34149375  0.05349170  1.0
  Zn  Zn4  1  0.95559776  -0.95559776  0.81775118  1.0
  Zn  Zn5  1  0.04440224  -0.04440224  0.18224882  1.0
  O  O6  1  0.83731664  0.16268336  0.93758201  1.0
  O  O7  1  1.16268336  -0.16268336  0.06241799  1.0
  O  O8  1  1.46328032  -0.46328032  0.69539217  1.0
  O  O9  1  0.53671968  0.46328032  0.30460783  1.0
