# generated using pymatgen
data_Ga8Cu3Mo2
_symmetry_space_group_name_H-M   'P 1'
_cell_length_a   10.40970452
_cell_length_b   10.40970452
_cell_length_c   10.40970452
_cell_angle_alpha   109.47122063
_cell_angle_beta   109.47122063
_cell_angle_gamma   109.47122063
_symmetry_Int_Tables_number   1
_chemical_formula_structural   Ga8Cu3Mo2
_chemical_formula_sum   'Ga32 Cu12 Mo8'
_cell_volume   868.34701488
_cell_formula_units_Z   4
loop_
 _symmetry_equiv_pos_site_id
 _symmetry_equiv_pos_as_xyz
  1  'x, y, z'
loop_
 _atom_site_type_symbol
 _atom_site_label
 _atom_site_symmetry_multiplicity
 _atom_site_fract_x
 _atom_site_fract_y
 _atom_site_fract_z
 _atom_site_occupancy
  Ga  Ga0  1  0.79023724  0.79023724  0.79023724  1.0
  Ga  Ga1  1  1.00000000  0.70976276  1.50000000  1.0
  Ga  Ga2  1  0.50000000  1.00000000  0.70976276  1.0
  Ga  Ga3  1  0.70976276  1.50000000  1.00000000  1.0
  Ga  Ga4  1  1.00000000  1.20976276  1.50000000  1.0
  Ga  Ga5  1  1.29023724  1.29023724  1.29023724  1.0
  Ga  Ga6  1  1.50000000  1.00000000  1.20976276  1.0
  Ga  Ga7  1  1.20976276  0.50000000  1.00000000  1.0
  Ga  Ga8  1  1.76752197  1.49947049  1.51119099  1.0
  Ga  Ga9  1  1.01172050  1.00052951  1.76805148  1.0
  Ga  Ga10  1  0.48827950  1.25633098  0.98880901  1.0
  Ga  Ga11  1  0.73247803  1.24366902  0.73194852  1.0
  Ga  Ga12  1  0.26805148  0.50052951  0.51172050  1.0
  Ga  Ga13  1  1.01119099  0.99947049  1.26752197  1.0
  Ga  Ga14  1  1.23194852  0.74366902  1.23247803  1.0
  Ga  Ga15  1  0.48880901  0.75633098  0.98827950  1.0
  Ga  Ga16  1  1.25633098  0.98880901  1.48827950  1.0
  Ga  Ga17  1  0.24366902  0.73194852  0.73247803  1.0
  Ga  Ga18  1  0.49947049  0.51119099  0.76752197  1.0
  Ga  Ga19  1  1.00052951  0.76805148  1.01172050  1.0
  Ga  Ga20  1  0.75633098  0.98827950  0.48880901  1.0
  Ga  Ga21  1  1.74366902  1.23247803  1.23194852  1.0
  Ga  Ga22  1  0.99947049  0.26752197  1.01119099  1.0
  Ga  Ga23  1  0.50052951  0.51172050  0.26805148  1.0
  Ga  Ga24  1  1.76805148  1.01172050  1.00052951  1.0
  Ga  Ga25  1  0.51119099  0.76752197  0.49947049  1.0
  Ga  Ga26  1  0.73194852  0.73247803  0.24366902  1.0
  Ga  Ga27  1  0.98880901  0.48827950  1.25633098  1.0
  Ga  Ga28  1  0.26752197  1.01119099  0.99947049  1.0
  Ga  Ga29  1  1.51172050  1.26805148  1.50052951  1.0
  Ga  Ga30  1  0.98827950  1.48880901  0.75633098  1.0
  Ga  Ga31  1  1.23247803  1.23194852  1.74366902  1.0
  Cu  Cu32  1  1.01942515  1.25000000  1.26942515  1.0
  Cu  Cu33  1  1.48057485  0.75000000  1.23057485  1.0
  Cu  Cu34  1  0.76942515  0.75000000  0.51942515  1.0
  Cu  Cu35  1  0.73057485  1.25000000  0.98057485  1.0
  Cu  Cu36  1  0.75000000  1.23057485  0.48057485  1.0
  Cu  Cu37  1  1.25000000  1.26942515  1.01942515  1.0
  Cu  Cu38  1  0.25000000  0.98057485  0.73057485  1.0
  Cu  Cu39  1  0.75000000  0.51942515  0.76942515  1.0
  Cu  Cu40  1  1.26942515  1.01942515  1.25000000  1.0
  Cu  Cu41  1  1.23057485  0.48057485  0.75000000  1.0
  Cu  Cu42  1  0.51942515  0.76942515  0.75000000  1.0
  Cu  Cu43  1  0.98057485  0.73057485  0.25000000  1.0
  Mo  Mo44  1  1.04224052  1.04224052  1.04224052  1.0
  Mo  Mo45  1  1.00000000  1.45775948  1.50000000  1.0
  Mo  Mo46  1  1.50000000  1.00000000  1.45775948  1.0
  Mo  Mo47  1  1.45775948  0.50000000  1.00000000  1.0
  Mo  Mo48  1  1.00000000  0.95775948  1.50000000  1.0
  Mo  Mo49  1  0.54224052  0.54224052  0.54224052  1.0
  Mo  Mo50  1  0.50000000  1.00000000  0.95775948  1.0
  Mo  Mo51  1  0.95775948  1.50000000  1.00000000  1.0
