# generated using pymatgen
data_LuZnSn
_symmetry_space_group_name_H-M   'P 1'
_cell_length_a   4.47226279
_cell_length_b   4.47226279
_cell_length_c   15.51454293
_cell_angle_alpha   90.00000000
_cell_angle_beta   90.00000000
_cell_angle_gamma   120.00000000
_symmetry_Int_Tables_number   1
_chemical_formula_structural   LuZnSn
_chemical_formula_sum   'Lu4 Zn4 Sn4'
_cell_volume   268.73500865
_cell_formula_units_Z   4
loop_
 _symmetry_equiv_pos_site_id
 _symmetry_equiv_pos_as_xyz
  1  'x, y, z'
loop_
 _atom_site_type_symbol
 _atom_site_label
 _atom_site_symmetry_multiplicity
 _atom_site_fract_x
 _atom_site_fract_y
 _atom_site_fract_z
 _atom_site_occupancy
  Lu  Lu0  1  0.00000000  0.00000000  0.25000000  1.0
  Lu  Lu1  1  0.00000000  0.00000000  0.75000000  1.0
  Lu  Lu2  1  0.00000000  0.00000000  0.50000000  1.0
  Lu  Lu3  1  0.00000000  0.00000000  0.00000000  1.0
  Zn  Zn4  1  0.33333333  0.66666667  0.33782128  1.0
  Zn  Zn5  1  0.33333333  0.66666667  0.16217872  1.0
  Zn  Zn6  1  0.66666667  0.33333333  0.83782128  1.0
  Zn  Zn7  1  0.66666667  0.33333333  0.66217872  1.0
  Sn  Sn8  1  0.33333333  0.66666667  0.88831733  1.0
  Sn  Sn9  1  0.33333333  0.66666667  0.61168267  1.0
  Sn  Sn10  1  0.66666667  0.33333333  0.38831733  1.0
  Sn  Sn11  1  0.66666667  0.33333333  0.11168267  1.0
