# generated using pymatgen
data_TlAs3PbS6
_symmetry_space_group_name_H-M   'P 1'
_cell_length_a   24.56313503
_cell_length_b   8.43566864
_cell_length_c   25.60701477
_cell_angle_alpha   73.38509344
_cell_angle_beta   19.21350780
_cell_angle_gamma   87.40139876
_symmetry_Int_Tables_number   1
_chemical_formula_structural   TlAs3PbS6
_chemical_formula_sum   'Tl4 As12 Pb4 S24'
_cell_volume   1174.13146834
_cell_formula_units_Z   4
loop_
 _symmetry_equiv_pos_site_id
 _symmetry_equiv_pos_as_xyz
  1  'x, y, z'
loop_
 _atom_site_type_symbol
 _atom_site_label
 _atom_site_symmetry_multiplicity
 _atom_site_fract_x
 _atom_site_fract_y
 _atom_site_fract_z
 _atom_site_occupancy
  Tl  Tl0  1  -0.19382578  0.27899858  0.62775113  1.0
  Tl  Tl1  1  0.62224887  0.96292393  -0.55617422  1.0
  Tl  Tl2  1  0.27899858  -0.19382578  0.28707607  1.0
  Tl  Tl3  1  0.96292393  0.62224887  -0.02899858  1.0
  As  As4  1  0.19011128  0.23106592  0.46416755  1.0
  As  As5  1  0.78583245  0.13534475  0.05988872  1.0
  As  As6  1  0.23106592  0.19011128  0.11465525  1.0
  As  As7  1  0.13534475  0.78583245  0.01893408  1.0
  As  As8  1  0.35507849  0.12524812  0.47859501  1.0
  As  As9  1  0.77140499  0.20892161  -0.10507849  1.0
  As  As10  1  0.12524812  0.35507849  0.04107839  1.0
  As  As11  1  0.20892161  0.77140499  0.12475188  1.0
  As  As12  1  0.65090594  0.60709031  -0.08373716  1.0
  As  As13  1  1.33373716  0.42425909  -0.40090594  1.0
  As  As14  1  0.60709031  0.65090594  -0.17425909  1.0
  As  As15  1  0.42425909  1.33373716  -0.35709031  1.0
  Pb  Pb16  1  -0.36620669  0.34226397  0.61198318  1.0
  Pb  Pb17  1  0.63801682  0.83804047  -0.38379331  1.0
  Pb  Pb18  1  0.34226397  -0.36620669  0.41195953  1.0
  Pb  Pb19  1  0.83804047  0.63801682  -0.09226397  1.0
  S  S20  1  -0.02537134  0.05444751  0.94188015  1.0
  S  S21  1  0.30811985  0.22095633  0.27537134  1.0
  S  S22  1  0.05444751  -0.02537134  0.02904367  1.0
  S  S23  1  0.22095633  0.30811985  0.19555249  1.0
  S  S24  1  -0.04501934  0.15290116  0.78717642  1.0
  S  S25  1  0.46282358  0.14505824  0.29501934  1.0
  S  S26  1  0.15290116  -0.04501934  0.10494176  1.0
  S  S27  1  0.14505824  0.46282358  0.09709884  1.0
  S  S28  1  -0.07270626  0.24271770  0.66905263  1.0
  S  S29  1  0.58094737  0.08906407  0.32270626  1.0
  S  S30  1  0.24271770  -0.07270626  0.16093593  1.0
  S  S31  1  0.08906407  0.58094737  0.00728230  1.0
  S  S32  1  0.48064987  0.27864577  0.51006084  1.0
  S  S33  1  0.73993916  0.51935648  -0.23064987  1.0
  S  S34  1  0.27864577  0.48064987  -0.26935648  1.0
  S  S35  1  0.51935648  0.73993916  -0.02864577  1.0
  S  S36  1  0.49927799  0.62083217  0.16345556  1.0
  S  S37  1  1.08654444  0.53356573  -0.24927799  1.0
  S  S38  1  0.62083217  0.49927799  -0.28356573  1.0
  S  S39  1  0.53356573  1.08654444  -0.37083217  1.0
  S  S40  1  0.57257189  0.50952271  0.26330940  1.0
  S  S41  1  0.98669060  0.59540401  -0.32257189  1.0
  S  S42  1  0.50952271  0.57257189  -0.34540401  1.0
  S  S43  1  0.59540401  0.98669060  -0.25952271  1.0
