# generated using pymatgen
data_La3ZrGa5O14
_symmetry_space_group_name_H-M   'P 1'
_cell_length_a   8.37183560
_cell_length_b   8.37183560
_cell_length_c   5.20946232
_cell_angle_alpha   90.00000000
_cell_angle_beta   90.00000000
_cell_angle_gamma   120.00000000
_symmetry_Int_Tables_number   1
_chemical_formula_structural   La3ZrGa5O14
_chemical_formula_sum   'La3 Zr1 Ga5 O14'
_cell_volume   316.20222049
_cell_formula_units_Z   1
loop_
 _symmetry_equiv_pos_site_id
 _symmetry_equiv_pos_as_xyz
  1  'x, y, z'
loop_
 _atom_site_type_symbol
 _atom_site_label
 _atom_site_symmetry_multiplicity
 _atom_site_fract_x
 _atom_site_fract_y
 _atom_site_fract_z
 _atom_site_occupancy
  La  La0  1  0.42546690  0.42546690  0.00000000  1.0
  La  La1  1  0.00000000  0.57453310  -0.00000000  1.0
  La  La2  1  0.57453310  -0.00000000  -0.00000000  1.0
  Zr  Zr3  1  0.00000000  -0.00000000  -0.00000000  1.0
  Ga  Ga4  1  0.75278886  0.75278886  0.50000000  1.0
  Ga  Ga5  1  -0.00000000  0.24721114  0.50000000  1.0
  Ga  Ga6  1  0.24721114  0.00000000  0.50000000  1.0
  Ga  Ga7  1  0.33333333  0.66666667  0.53079358  1.0
  Ga  Ga8  1  0.66666667  0.33333333  0.46920642  1.0
  O  O9  1  0.08184484  0.85292596  0.24345853  1.0
  O  O10  1  0.85292596  0.08184484  0.75654147  1.0
  O  O11  1  0.77108112  0.91815516  0.24345853  1.0
  O  O12  1  0.14707404  0.22891888  0.24345853  1.0
  O  O13  1  0.91815516  0.77108112  0.75654147  1.0
  O  O14  1  0.22891888  0.14707404  0.75654147  1.0
  O  O15  1  0.68485380  0.53999784  0.30051284  1.0
  O  O16  1  0.53999784  0.68485380  0.69948716  1.0
  O  O17  1  0.85514404  0.31514620  0.30051284  1.0
  O  O18  1  0.46000216  0.14485596  0.30051284  1.0
  O  O19  1  0.31514620  0.85514404  0.69948716  1.0
  O  O20  1  0.14485596  0.46000216  0.69948716  1.0
  O  O21  1  0.33333333  0.66666667  0.18075482  1.0
  O  O22  1  0.66666667  0.33333333  0.81924518  1.0
