# generated using pymatgen
data_NaCaAlH2OF6
_symmetry_space_group_name_H-M   'P 1'
_cell_length_a   8.09633712
_cell_length_b   8.09633712
_cell_length_c   10.00425282
_cell_angle_alpha   62.62686434
_cell_angle_beta   117.37313566
_cell_angle_gamma   98.44545543
_symmetry_Int_Tables_number   1
_chemical_formula_structural   NaCaAlH2OF6
_chemical_formula_sum   'Na4 Ca4 Al4 H8 O4 F24'
_cell_volume   515.41744094
_cell_formula_units_Z   4
loop_
 _symmetry_equiv_pos_site_id
 _symmetry_equiv_pos_as_xyz
  1  'x, y, z'
loop_
 _atom_site_type_symbol
 _atom_site_label
 _atom_site_symmetry_multiplicity
 _atom_site_fract_x
 _atom_site_fract_y
 _atom_site_fract_z
 _atom_site_occupancy
  Na  Na0  1  0.99475235  0.76342385  0.99406482  1.0
  Na  Na1  1  1.23657615  0.00524765  0.49406482  1.0
  Na  Na2  1  1.76342385  -0.00524765  0.50593518  1.0
  Na  Na3  1  1.00524765  0.23657615  0.00593518  1.0
  Ca  Ca4  1  0.57757677  0.57757677  0.75000000  1.0
  Ca  Ca5  1  1.42242323  0.42242323  0.25000000  1.0
  Ca  Ca6  1  1.18451634  0.18451634  0.75000000  1.0
  Ca  Ca7  1  0.81548366  0.81548366  0.25000000  1.0
  Al  Al8  1  1.10041593  0.65374573  0.75552919  1.0
  Al  Al9  1  0.34625427  -0.10041593  0.25552919  1.0
  Al  Al10  1  0.65374573  0.10041593  0.74447081  1.0
  Al  Al11  1  0.89958407  0.34625427  0.24447081  1.0
  H  H12  1  0.72789072  0.48254540  0.53380101  1.0
  H  H13  1  1.51745460  0.27210928  0.03380101  1.0
  H  H14  1  1.48254540  -0.27210928  -0.03380101  1.0
  H  H15  1  1.27210928  -0.48254540  0.46619899  1.0
  H  H16  1  1.18265724  -0.41483663  0.54333764  1.0
  H  H17  1  0.41483663  -0.18265724  0.04333764  1.0
  H  H18  1  0.58516337  0.18265724  0.95666236  1.0
  H  H19  1  0.81734276  -0.58516337  0.45666236  1.0
  O  O20  1  1.26950472  -0.51293712  0.57243247  1.0
  O  O21  1  0.51293712  -0.26950472  0.07243247  1.0
  O  O22  1  0.48706288  0.26950472  0.92756753  1.0
  O  O23  1  0.73049528  -0.48706288  0.42756753  1.0
  F  F24  1  0.85101600  0.67129856  0.70043043  1.0
  F  F25  1  1.32870144  0.14898400  0.20043043  1.0
  F  F26  1  1.67129856  -0.14898400  0.79956957  1.0
  F  F27  1  1.14898400  0.32870144  0.29956957  1.0
  F  F28  1  1.10108290  0.89726617  0.72022070  1.0
  F  F29  1  0.10273383  -0.10108290  0.22022070  1.0
  F  F30  1  0.89726617  0.10108290  0.77977930  1.0
  F  F31  1  0.89891710  0.10273383  0.27977930  1.0
  F  F32  1  1.04252774  -0.26082670  0.52956297  1.0
  F  F33  1  0.26082670  -0.04252774  0.02956297  1.0
  F  F34  1  0.73917330  0.04252774  0.97043703  1.0
  F  F35  1  0.95747226  -0.73917330  0.47043703  1.0
  F  F36  1  1.16740016  0.56646136  0.97960761  1.0
  F  F37  1  0.43353864  -0.16740016  0.47960761  1.0
  F  F38  1  0.56646136  0.16740016  0.52039239  1.0
  F  F39  1  0.83259984  0.43353864  0.02039239  1.0
  F  F40  1  1.09223508  0.41361637  0.78593838  1.0
  F  F41  1  0.58638363  -0.09223508  0.28593838  1.0
  F  F42  1  0.41361637  0.09223508  0.71406162  1.0
  F  F43  1  0.90776492  0.58638363  0.21406162  1.0
  F  F44  1  1.34781003  -0.34274874  0.79721556  1.0
  F  F45  1  0.34274874  -0.34781003  0.29721556  1.0
  F  F46  1  0.65725126  0.34781003  0.70278444  1.0
  F  F47  1  0.65218997  -0.65725126  0.20278444  1.0
