# generated using pymatgen
data_MgCl2
_symmetry_space_group_name_H-M   'P 1'
_cell_length_a   4.39735376
_cell_length_b   4.39735376
_cell_length_c   7.84089583
_cell_angle_alpha   90.00000000
_cell_angle_beta   90.00000000
_cell_angle_gamma   90.64953925
_symmetry_Int_Tables_number   1
_chemical_formula_structural   MgCl2
_chemical_formula_sum   'Mg2 Cl4'
_cell_volume   151.60746501
_cell_formula_units_Z   2
loop_
 _symmetry_equiv_pos_site_id
 _symmetry_equiv_pos_as_xyz
  1  'x, y, z'
loop_
 _atom_site_type_symbol
 _atom_site_label
 _atom_site_symmetry_multiplicity
 _atom_site_fract_x
 _atom_site_fract_y
 _atom_site_fract_z
 _atom_site_occupancy
  Mg  Mg0  1  -0.19834523  0.90977262  0.75000000  1.0
  Mg  Mg1  1  0.09022738  1.19834523  0.25000000  1.0
  Cl  Cl2  1  0.58951307  0.40462074  0.75000000  1.0
  Cl  Cl3  1  0.59537926  0.41048693  0.25000000  1.0
  Cl  Cl4  1  0.11361276  0.88638724  0.50000000  1.0
  Cl  Cl5  1  0.11361276  0.88638724  -0.00000000  1.0
