# generated using pymatgen
data_Mn6Ni16Ge7
_symmetry_space_group_name_H-M   'P 1'
_cell_length_a   8.02592179
_cell_length_b   8.02592179
_cell_length_c   8.02592179
_cell_angle_alpha   60.00000000
_cell_angle_beta   60.00000000
_cell_angle_gamma   60.00000000
_symmetry_Int_Tables_number   1
_chemical_formula_structural   Mn6Ni16Ge7
_chemical_formula_sum   'Mn6 Ni16 Ge7'
_cell_volume   365.56934700
_cell_formula_units_Z   1
loop_
 _symmetry_equiv_pos_site_id
 _symmetry_equiv_pos_as_xyz
  1  'x, y, z'
loop_
 _atom_site_type_symbol
 _atom_site_label
 _atom_site_symmetry_multiplicity
 _atom_site_fract_x
 _atom_site_fract_y
 _atom_site_fract_z
 _atom_site_occupancy
  Mn  Mn0  1  -0.69094670  0.69094670  0.69094670  1.0
  Mn  Mn1  1  -0.30905330  0.30905330  0.69094670  1.0
  Mn  Mn2  1  0.69094670  0.69094670  -0.69094670  1.0
  Mn  Mn3  1  0.30905330  1.30905330  -0.30905330  1.0
  Mn  Mn4  1  0.30905330  -0.30905330  1.30905330  1.0
  Mn  Mn5  1  -0.30905330  0.30905330  0.30905330  1.0
  Ni  Ni6  1  0.88176900  0.88176900  -0.11823100  1.0
  Ni  Ni7  1  1.11823100  0.11823100  0.64530701  1.0
  Ni  Ni8  1  1.11823100  0.64530701  0.11823100  1.0
  Ni  Ni9  1  0.35469299  0.88176900  -0.11823100  1.0
  Ni  Ni10  1  1.64530701  0.11823100  0.11823100  1.0
  Ni  Ni11  1  0.88176900  0.35469299  -0.11823100  1.0
  Ni  Ni12  1  0.88176900  0.88176900  -0.64530701  1.0
  Ni  Ni13  1  1.11823100  0.11823100  0.11823100  1.0
  Ni  Ni14  1  0.66552295  0.66552295  -0.33447705  1.0
  Ni  Ni15  1  1.33447705  0.33447705  -0.00343116  1.0
  Ni  Ni16  1  1.33447705  -0.00343116  0.33447705  1.0
  Ni  Ni17  1  1.00343116  0.66552295  -0.33447705  1.0
  Ni  Ni18  1  0.99656884  0.33447705  0.33447705  1.0
  Ni  Ni19  1  0.66552295  1.00343116  -0.33447705  1.0
  Ni  Ni20  1  0.66552295  0.66552295  0.00343116  1.0
  Ni  Ni21  1  1.33447705  0.33447705  0.33447705  1.0
  Ge  Ge22  1  1.50000000  -0.00000000  0.00000000  1.0
  Ge  Ge23  1  1.00000000  0.50000000  -0.50000000  1.0
  Ge  Ge24  1  -0.00000000  1.50000000  0.00000000  1.0
  Ge  Ge25  1  0.50000000  1.00000000  -0.50000000  1.0
  Ge  Ge26  1  -0.00000000  0.00000000  0.50000000  1.0
  Ge  Ge27  1  0.50000000  -0.50000000  1.00000000  1.0
  Ge  Ge28  1  0.00000000  0.00000000  0.00000000  1.0
