# generated using pymatgen
data_MgSeO4
_symmetry_space_group_name_H-M   'P 1'
_cell_length_a   4.99099639
_cell_length_b   4.99099639
_cell_length_c   6.66081351
_cell_angle_alpha   90.00000000
_cell_angle_beta   90.00000000
_cell_angle_gamma   113.25339367
_symmetry_Int_Tables_number   1
_chemical_formula_structural   MgSeO4
_chemical_formula_sum   'Mg2 Se2 O8'
_cell_volume   152.44302712
_cell_formula_units_Z   2
loop_
 _symmetry_equiv_pos_site_id
 _symmetry_equiv_pos_as_xyz
  1  'x, y, z'
loop_
 _atom_site_type_symbol
 _atom_site_label
 _atom_site_symmetry_multiplicity
 _atom_site_fract_x
 _atom_site_fract_y
 _atom_site_fract_z
 _atom_site_occupancy
  Mg  Mg0  1  0.00000000  0.00000000  0.50000000  1.0
  Mg  Mg1  1  0.00000000  0.00000000  0.00000000  1.0
  Se  Se2  1  0.34916700  0.65083300  0.25000000  1.0
  Se  Se3  1  -0.34916700  1.34916700  0.75000000  1.0
  O  O4  1  0.22065374  0.28245194  0.25000000  1.0
  O  O5  1  -0.71754806  1.22065374  0.75000000  1.0
  O  O6  1  0.71754806  0.77934626  0.25000000  1.0
  O  O7  1  -0.22065374  1.71754806  0.75000000  1.0
  O  O8  1  0.24222411  0.75777589  0.45735833  1.0
  O  O9  1  0.24222411  0.75777589  0.04264167  1.0
  O  O10  1  -0.24222411  1.24222411  0.95735833  1.0
  O  O11  1  -0.24222411  1.24222411  0.54264167  1.0
