# generated using pymatgen
data_Yb6Fe23
_symmetry_space_group_name_H-M   'P 1'
_cell_length_a   8.42484696
_cell_length_b   8.42484696
_cell_length_c   8.42484696
_cell_angle_alpha   60.00000000
_cell_angle_beta   60.00000000
_cell_angle_gamma   60.00000000
_symmetry_Int_Tables_number   1
_chemical_formula_structural   Yb6Fe23
_chemical_formula_sum   'Yb6 Fe23'
_cell_volume   422.83513212
_cell_formula_units_Z   1
loop_
 _symmetry_equiv_pos_site_id
 _symmetry_equiv_pos_as_xyz
  1  'x, y, z'
loop_
 _atom_site_type_symbol
 _atom_site_label
 _atom_site_symmetry_multiplicity
 _atom_site_fract_x
 _atom_site_fract_y
 _atom_site_fract_z
 _atom_site_occupancy
  Yb  Yb0  1  -0.70708686  0.70708686  0.70708686  1.0
  Yb  Yb1  1  -0.29291314  0.29291314  0.70708686  1.0
  Yb  Yb2  1  0.70708686  0.70708686  -0.70708686  1.0
  Yb  Yb3  1  0.29291314  1.29291314  -0.29291314  1.0
  Yb  Yb4  1  0.29291314  -0.29291314  1.29291314  1.0
  Yb  Yb5  1  -0.29291314  0.29291314  0.29291314  1.0
  Fe  Fe6  1  0.87912776  0.87912776  -0.12087224  1.0
  Fe  Fe7  1  1.12087224  0.12087224  0.63738327  1.0
  Fe  Fe8  1  1.12087224  0.63738327  0.12087224  1.0
  Fe  Fe9  1  0.36261673  0.87912776  -0.12087224  1.0
  Fe  Fe10  1  1.63738327  0.12087224  0.12087224  1.0
  Fe  Fe11  1  0.87912776  0.36261673  -0.12087224  1.0
  Fe  Fe12  1  0.87912776  0.87912776  -0.63738327  1.0
  Fe  Fe13  1  1.12087224  0.12087224  0.12087224  1.0
  Fe  Fe14  1  0.67520110  0.67520110  -0.32479890  1.0
  Fe  Fe15  1  1.32479890  0.32479890  0.02560329  1.0
  Fe  Fe16  1  1.32479890  0.02560329  0.32479890  1.0
  Fe  Fe17  1  0.97439671  0.67520110  -0.32479890  1.0
  Fe  Fe18  1  1.02560329  0.32479890  0.32479890  1.0
  Fe  Fe19  1  0.67520110  0.97439671  -0.32479890  1.0
  Fe  Fe20  1  0.67520110  0.67520110  -0.02560329  1.0
  Fe  Fe21  1  1.32479890  0.32479890  0.32479890  1.0
  Fe  Fe22  1  1.50000000  0.00000000  -0.00000000  1.0
  Fe  Fe23  1  1.00000000  0.50000000  -0.50000000  1.0
  Fe  Fe24  1  0.00000000  1.50000000  -0.00000000  1.0
  Fe  Fe25  1  0.50000000  1.00000000  -0.50000000  1.0
  Fe  Fe26  1  0.00000000  0.00000000  0.50000000  1.0
  Fe  Fe27  1  0.50000000  -0.50000000  1.00000000  1.0
  Fe  Fe28  1  0.00000000  0.00000000  0.00000000  1.0
