# generated using pymatgen
data_Cs2CuH12(SO7)2
_symmetry_space_group_name_H-M   'P 1'
_cell_length_a   6.38787781
_cell_length_b   12.90548976
_cell_length_c   9.52832731
_cell_angle_alpha   90.00000000
_cell_angle_beta   105.14156994
_cell_angle_gamma   90.00000000
_symmetry_Int_Tables_number   1
_chemical_formula_structural   Cs2CuH12(SO7)2
_chemical_formula_sum   'Cs4 Cu2 H24 S4 O28'
_cell_volume   758.23282831
_cell_formula_units_Z   2
loop_
 _symmetry_equiv_pos_site_id
 _symmetry_equiv_pos_as_xyz
  1  'x, y, z'
loop_
 _atom_site_type_symbol
 _atom_site_label
 _atom_site_symmetry_multiplicity
 _atom_site_fract_x
 _atom_site_fract_y
 _atom_site_fract_z
 _atom_site_occupancy
  Cs  Cs0  1  0.85176845  0.64498924  0.11209230  1.0
  Cs  Cs1  1  0.85176845  0.85501076  0.61209230  1.0
  Cs  Cs2  1  0.14823155  0.14498924  0.38790770  1.0
  Cs  Cs3  1  0.14823155  0.35501076  0.88790770  1.0
  Cu  Cu4  1  0.50000000  0.50000000  0.50000000  1.0
  Cu  Cu5  1  0.50000000  0.00000000  -0.00000000  1.0
  H  H6  1  0.81873205  0.43286525  0.40385622  1.0
  H  H7  1  0.81873205  0.06713475  0.90385622  1.0
  H  H8  1  0.18126795  0.93286525  0.09614378  1.0
  H  H9  1  0.18126795  0.56713475  0.59614378  1.0
  H  H10  1  0.79550469  0.13836752  0.03562287  1.0
  H  H11  1  0.79550469  0.36163248  0.53562287  1.0
  H  H12  1  0.20449531  0.63836752  0.46437713  1.0
  H  H13  1  0.20449531  0.86163248  0.96437713  1.0
  H  H14  1  0.81364459  0.90625769  0.18743308  1.0
  H  H15  1  0.81364459  0.59374231  0.68743308  1.0
  H  H16  1  0.18635541  0.40625769  0.31256692  1.0
  H  H17  1  0.18635541  0.09374231  0.81256692  1.0
  H  H18  1  0.58268805  0.10279037  0.30437903  1.0
  H  H19  1  0.58268805  0.39720963  0.80437903  1.0
  H  H20  1  0.41731195  0.60279037  0.19562097  1.0
  H  H21  1  0.41731195  0.89720963  0.69562097  1.0
  H  H22  1  0.51852763  0.18882495  0.18493873  1.0
  H  H23  1  0.51852763  0.31117505  0.68493873  1.0
  H  H24  1  0.48147237  0.68882495  0.31506127  1.0
  H  H25  1  0.48147237  0.81117505  0.81506127  1.0
  H  H26  1  0.41751549  0.37518794  0.28241471  1.0
  H  H27  1  0.41751549  0.12481206  0.78241471  1.0
  H  H28  1  0.58248451  0.87518794  0.21758529  1.0
  H  H29  1  0.58248451  0.62481206  0.71758529  1.0
  S  S30  1  0.76446852  0.35357640  0.12606947  1.0
  S  S31  1  0.76446852  0.14642360  0.62606947  1.0
  S  S32  1  0.23553148  0.85357640  0.37393053  1.0
  S  S33  1  0.23553148  0.64642360  0.87393053  1.0
  O  O34  1  0.88319777  0.25683307  0.10701085  1.0
  O  O35  1  0.88319777  0.24316693  0.60701085  1.0
  O  O36  1  0.11680223  0.75683307  0.39298915  1.0
  O  O37  1  0.11680223  0.74316693  0.89298915  1.0
  O  O38  1  0.90330985  0.41471203  0.25187644  1.0
  O  O39  1  0.90330985  0.08528797  0.75187644  1.0
  O  O40  1  0.09669015  0.91471203  0.24812356  1.0
  O  O41  1  0.09669015  0.58528797  0.74812356  1.0
  O  O42  1  0.78045561  0.43459635  0.49937320  1.0
  O  O43  1  0.78045561  0.06540365  0.99937320  1.0
  O  O44  1  0.21954439  0.93459635  0.00062680  1.0
  O  O45  1  0.21954439  0.56540365  0.50062680  1.0
  O  O46  1  0.72367708  0.08128958  0.49255859  1.0
  O  O47  1  0.72367708  0.41871042  0.99255859  1.0
  O  O48  1  0.27632292  0.58128958  0.00744141  1.0
  O  O49  1  0.27632292  0.91871042  0.50744141  1.0
  O  O50  1  0.55394938  0.32569351  0.15988850  1.0
  O  O51  1  0.55394938  0.17430649  0.65988850  1.0
  O  O52  1  0.44605062  0.82569351  0.34011150  1.0
  O  O53  1  0.44605062  0.67430649  0.84011150  1.0
  O  O54  1  0.49100367  0.11567306  0.20517629  1.0
  O  O55  1  0.49100367  0.38432694  0.70517629  1.0
  O  O56  1  0.50899633  0.61567306  0.29482371  1.0
  O  O57  1  0.50899633  0.88432694  0.79482371  1.0
  O  O58  1  0.34200296  0.39051446  0.35930748  1.0
  O  O59  1  0.34200296  0.10948554  0.85930748  1.0
  O  O60  1  0.65799704  0.89051446  0.14069252  1.0
  O  O61  1  0.65799704  0.60948554  0.64069252  1.0
