# generated using pymatgen
data_ErSiRu
_symmetry_space_group_name_H-M   'P 1'
_cell_length_a   7.02767146
_cell_length_b   4.31876834
_cell_length_c   7.01677893
_cell_angle_alpha   90.00000000
_cell_angle_beta   90.00000000
_cell_angle_gamma   90.00000000
_symmetry_Int_Tables_number   1
_chemical_formula_structural   ErSiRu
_chemical_formula_sum   'Er4 Si4 Ru4'
_cell_volume   212.96545049
_cell_formula_units_Z   4
loop_
 _symmetry_equiv_pos_site_id
 _symmetry_equiv_pos_as_xyz
  1  'x, y, z'
loop_
 _atom_site_type_symbol
 _atom_site_label
 _atom_site_symmetry_multiplicity
 _atom_site_fract_x
 _atom_site_fract_y
 _atom_site_fract_z
 _atom_site_occupancy
  Er  Er0  1  0.01453454  0.75000000  0.68404508  1.0
  Er  Er1  1  0.51453454  0.75000000  0.81595492  1.0
  Er  Er2  1  0.98546546  0.25000000  0.31595492  1.0
  Er  Er3  1  0.48546546  0.25000000  0.18404508  1.0
  Si  Si4  1  0.69494198  0.75000000  0.39306502  1.0
  Si  Si5  1  0.19494198  0.75000000  0.10693498  1.0
  Si  Si6  1  0.30505802  0.25000000  0.60693498  1.0
  Si  Si7  1  0.80505802  0.25000000  0.89306502  1.0
  Ru  Ru8  1  0.84858956  0.75000000  0.06712934  1.0
  Ru  Ru9  1  0.34858956  0.75000000  0.43287066  1.0
  Ru  Ru10  1  0.15141044  0.25000000  0.93287066  1.0
  Ru  Ru11  1  0.65141044  0.25000000  0.56712934  1.0
