# generated using pymatgen
data_YTaO2
_symmetry_space_group_name_H-M   'P 1'
_cell_length_a   7.23073955
_cell_length_b   7.23073955
_cell_length_c   7.23073955
_cell_angle_alpha   129.46678670
_cell_angle_beta   129.46678670
_cell_angle_gamma   74.26064479
_symmetry_Int_Tables_number   1
_chemical_formula_structural   YTaO2
_chemical_formula_sum   'Y4 Ta4 O8'
_cell_volume   219.64547620
_cell_formula_units_Z   4
loop_
 _symmetry_equiv_pos_site_id
 _symmetry_equiv_pos_as_xyz
  1  'x, y, z'
loop_
 _atom_site_type_symbol
 _atom_site_label
 _atom_site_symmetry_multiplicity
 _atom_site_fract_x
 _atom_site_fract_y
 _atom_site_fract_z
 _atom_site_occupancy
  Y  Y0  1  0.37500000  0.62500000  0.75000000  1.0
  Y  Y1  1  0.87500000  0.62500000  1.25000000  1.0
  Y  Y2  1  0.37500000  1.12500000  0.75000000  1.0
  Y  Y3  1  0.37500000  0.62500000  0.25000000  1.0
  Ta  Ta4  1  0.87500000  0.12500000  0.75000000  1.0
  Ta  Ta5  1  0.37500000  0.12500000  0.25000000  1.0
  Ta  Ta6  1  0.87500000  0.62500000  0.75000000  1.0
  Ta  Ta7  1  0.87500000  1.12500000  1.25000000  1.0
  O  O8  1  1.17398227  0.94780827  1.77379728  1.0
  O  O9  1  0.57598902  0.84981501  1.27379728  1.0
  O  O10  1  1.05219173  0.82598902  1.22617400  1.0
  O  O11  1  1.15018499  1.42398227  1.72617400  1.0
  O  O12  1  0.17401098  0.40018499  0.22620272  1.0
  O  O13  1  0.57601773  0.30219173  0.72620272  1.0
  O  O14  1  0.59981501  0.82601773  0.77382600  1.0
  O  O15  1  0.69780827  0.42401098  0.27382600  1.0
