# generated using pymatgen
data_RbSb2C2O4F5
_symmetry_space_group_name_H-M   'P 1'
_cell_length_a   6.25629252
_cell_length_b   6.64500612
_cell_length_c   23.25723047
_cell_angle_alpha   90.00000000
_cell_angle_beta   90.00000000
_cell_angle_gamma   90.00000000
_symmetry_Int_Tables_number   1
_chemical_formula_structural   RbSb2C2O4F5
_chemical_formula_sum   'Rb4 Sb8 C8 O16 F20'
_cell_volume   966.87521720
_cell_formula_units_Z   4
loop_
 _symmetry_equiv_pos_site_id
 _symmetry_equiv_pos_as_xyz
  1  'x, y, z'
loop_
 _atom_site_type_symbol
 _atom_site_label
 _atom_site_symmetry_multiplicity
 _atom_site_fract_x
 _atom_site_fract_y
 _atom_site_fract_z
 _atom_site_occupancy
  Rb  Rb0  1  0.51077114  0.00525696  0.50321166  1.0
  Rb  Rb1  1  1.01077114  0.49474304  0.49678834  1.0
  Rb  Rb2  1  0.48922886  0.50525696  0.99678834  1.0
  Rb  Rb3  1  -0.01077114  0.99474304  0.00321166  1.0
  Sb  Sb4  1  0.46089676  0.99217368  0.88609541  1.0
  Sb  Sb5  1  0.96089676  0.50782632  0.11390459  1.0
  Sb  Sb6  1  0.53910324  0.49217368  0.61390459  1.0
  Sb  Sb7  1  0.03910324  0.00782632  0.38609541  1.0
  Sb  Sb8  1  0.05847291  0.95114847  0.64106666  1.0
  Sb  Sb9  1  0.55847291  0.54885153  0.35893334  1.0
  Sb  Sb10  1  0.94152709  0.45114847  0.85893334  1.0
  Sb  Sb11  1  0.44152709  0.04885153  0.14106666  1.0
  C  C12  1  0.31586560  0.87692901  0.74665602  1.0
  C  C13  1  0.81586560  0.62307099  0.25334398  1.0
  C  C14  1  0.68413440  0.37692901  0.75334398  1.0
  C  C15  1  0.18413440  0.12307099  0.24665602  1.0
  C  C16  1  0.17547344  0.05902267  0.76409112  1.0
  C  C17  1  0.67547344  0.44097733  0.23590888  1.0
  C  C18  1  0.82452656  0.55902267  0.73590888  1.0
  C  C19  1  0.32452656  0.94097733  0.26409112  1.0
  O  O20  1  0.18554090  0.12283500  0.81495143  1.0
  O  O21  1  0.68554090  0.37716500  0.18504857  1.0
  O  O22  1  0.81445910  0.62283500  0.68504857  1.0
  O  O23  1  0.31445910  0.87716500  0.31495143  1.0
  O  O24  1  0.05627993  0.13193349  0.72495423  1.0
  O  O25  1  0.55627993  0.36806651  0.27504577  1.0
  O  O26  1  0.94372007  0.63193349  0.77504577  1.0
  O  O27  1  0.44372007  0.86806651  0.22495423  1.0
  O  O28  1  0.29398264  0.81795402  0.69324345  1.0
  O  O29  1  0.79398264  0.68204598  0.30675655  1.0
  O  O30  1  0.70601736  0.31795402  0.80675655  1.0
  O  O31  1  0.20601736  0.18204598  0.19324345  1.0
  O  O32  1  0.43796827  0.79786434  0.78134809  1.0
  O  O33  1  0.93796827  0.70213566  0.21865191  1.0
  O  O34  1  0.56203173  0.29786434  0.71865191  1.0
  O  O35  1  0.06203173  0.20213566  0.28134809  1.0
  F  F36  1  0.22736322  0.79519544  0.90262359  1.0
  F  F37  1  0.72736322  0.70480456  0.09737641  1.0
  F  F38  1  0.77263678  0.29519544  0.59737641  1.0
  F  F39  1  0.27263678  0.20480456  0.40262359  1.0
  F  F40  1  0.54834132  0.92453006  0.96878569  1.0
  F  F41  1  0.04834132  0.57546994  0.03121431  1.0
  F  F42  1  0.45165868  0.42453006  0.53121431  1.0
  F  F43  1  0.95165868  0.07546994  0.46878569  1.0
  F  F44  1  0.28742979  0.20699314  0.92577313  1.0
  F  F45  1  0.78742979  0.29300686  0.07422687  1.0
  F  F46  1  0.71257021  0.70699314  0.57422687  1.0
  F  F47  1  0.21257021  0.79300686  0.42577313  1.0
  F  F48  1  0.21322400  0.76452120  0.58318355  1.0
  F  F49  1  0.71322400  0.73547880  0.41681645  1.0
  F  F50  1  0.78677600  0.26452120  0.91681645  1.0
  F  F51  1  0.28677600  0.23547880  0.08318355  1.0
  F  F52  1  0.26800787  0.15668664  0.61302203  1.0
  F  F53  1  0.76800787  0.34331336  0.38697797  1.0
  F  F54  1  0.73199213  0.65668664  0.88697797  1.0
  F  F55  1  0.23199213  0.84331336  0.11302203  1.0
