# generated using pymatgen
data_RuXeF7
_symmetry_space_group_name_H-M   'P 1'
_cell_length_a   7.60044835
_cell_length_b   11.69697185
_cell_length_c   11.32502582
_cell_angle_alpha   90.00000000
_cell_angle_beta   131.96443708
_cell_angle_gamma   90.00000000
_symmetry_Int_Tables_number   1
_chemical_formula_structural   RuXeF7
_chemical_formula_sum   'Ru4 Xe4 F28'
_cell_volume   748.63112536
_cell_formula_units_Z   4
loop_
 _symmetry_equiv_pos_site_id
 _symmetry_equiv_pos_as_xyz
  1  'x, y, z'
loop_
 _atom_site_type_symbol
 _atom_site_label
 _atom_site_symmetry_multiplicity
 _atom_site_fract_x
 _atom_site_fract_y
 _atom_site_fract_z
 _atom_site_occupancy
  Xe  Xe0  1  0.90573063  0.21110780  0.25157278  1.0
  Xe  Xe1  1  0.90573063  0.28889220  0.75157278  1.0
  Xe  Xe2  1  0.09426937  0.71110780  0.24842722  1.0
  Xe  Xe3  1  0.09426937  0.78889220  0.74842722  1.0
  Ru  Ru4  1  0.46616218  0.04135430  0.24641466  1.0
  Ru  Ru5  1  0.46616218  0.45864570  0.74641466  1.0
  Ru  Ru6  1  0.53383782  0.54135430  0.25358534  1.0
  Ru  Ru7  1  0.53383782  0.95864570  0.75358534  1.0
  F  F8  1  0.96979437  0.83051312  0.29900977  1.0
  F  F9  1  0.96979437  0.66948688  0.79900977  1.0
  F  F10  1  0.03020563  0.33051312  0.20099023  1.0
  F  F11  1  0.03020563  0.16948688  0.70099023  1.0
  F  F12  1  0.78816333  0.07279919  0.31818705  1.0
  F  F13  1  0.78816333  0.42720081  0.81818705  1.0
  F  F14  1  0.21183667  0.57279919  0.18181295  1.0
  F  F15  1  0.21183667  0.92720081  0.68181295  1.0
  F  F16  1  0.61850372  0.93304142  0.40992905  1.0
  F  F17  1  0.61850372  0.56695858  0.90992905  1.0
  F  F18  1  0.38149628  0.43304142  0.09007095  1.0
  F  F19  1  0.38149628  0.06695858  0.59007095  1.0
  F  F20  1  0.34247833  0.15312826  0.08873708  1.0
  F  F21  1  0.34247833  0.34687174  0.58873708  1.0
  F  F22  1  0.65752167  0.65312826  0.41126292  1.0
  F  F23  1  0.65752167  0.84687174  0.91126292  1.0
  F  F24  1  0.58285424  0.43010303  0.39200858  1.0
  F  F25  1  0.58285424  0.06989697  0.89200858  1.0
  F  F26  1  0.41714576  0.93010303  0.10799142  1.0
  F  F27  1  0.41714576  0.56989697  0.60799142  1.0
  F  F28  1  0.52936062  0.15607546  0.38614472  1.0
  F  F29  1  0.52936062  0.34392454  0.88614472  1.0
  F  F30  1  0.47063938  0.65607546  0.11385528  1.0
  F  F31  1  0.47063938  0.84392454  0.61385528  1.0
  F  F32  1  0.82427193  0.51039908  0.31504233  1.0
  F  F33  1  0.82427193  -0.01039908  0.81504233  1.0
  F  F34  1  0.17572807  1.01039908  0.18495767  1.0
  F  F35  1  0.17572807  0.48960092  0.68495767  1.0
