# generated using pymatgen
data_GeH10(N2F3)2
_symmetry_space_group_name_H-M   'P 1'
_cell_length_a   6.13359992
_cell_length_b   5.52054614
_cell_length_c   12.07055019
_cell_angle_alpha   90.00000000
_cell_angle_beta   104.32000543
_cell_angle_gamma   90.00000000
_symmetry_Int_Tables_number   1
_chemical_formula_structural   GeH10(N2F3)2
_chemical_formula_sum   'Ge2 H20 N8 F12'
_cell_volume   396.01961964
_cell_formula_units_Z   2
loop_
 _symmetry_equiv_pos_site_id
 _symmetry_equiv_pos_as_xyz
  1  'x, y, z'
loop_
 _atom_site_type_symbol
 _atom_site_label
 _atom_site_symmetry_multiplicity
 _atom_site_fract_x
 _atom_site_fract_y
 _atom_site_fract_z
 _atom_site_occupancy
  Ge  Ge0  1  0.00000000  0.50000000  0.50000000  1.0
  Ge  Ge1  1  0.00000000  0.00000000  0.00000000  1.0
  H  H2  1  0.82239892  0.84747687  0.30969985  1.0
  H  H3  1  0.82239892  0.65252313  0.80969985  1.0
  H  H4  1  0.17760108  0.34747687  0.19030015  1.0
  H  H5  1  0.17760108  0.15252313  0.69030015  1.0
  H  H6  1  0.78549764  0.03461095  0.19614283  1.0
  H  H7  1  0.78549764  0.46538905  0.69614283  1.0
  H  H8  1  0.21450236  0.53461095  0.30385717  1.0
  H  H9  1  0.21450236  0.96538905  0.80385717  1.0
  H  H10  1  0.51936235  0.30435022  0.39713190  1.0
  H  H11  1  0.51936235  0.19564978  0.89713190  1.0
  H  H12  1  0.48063765  0.80435022  0.10286810  1.0
  H  H13  1  0.48063765  0.69564978  0.60286810  1.0
  H  H14  1  0.41682673  0.51796476  0.22867352  1.0
  H  H15  1  0.41682673  -0.01796476  0.72867352  1.0
  H  H16  1  0.58317327  1.01796476  0.27132648  1.0
  H  H17  1  0.58317327  0.48203524  0.77132648  1.0
  H  H18  1  0.28396021  0.14618041  0.36600748  1.0
  H  H19  1  0.28396021  0.35381959  0.86600748  1.0
  H  H20  1  0.71603979  0.64618041  0.13399252  1.0
  H  H21  1  0.71603979  0.85381959  0.63399252  1.0
  N  N22  1  0.70377340  0.91747268  0.24047536  1.0
  N  N23  1  0.70377340  0.58252732  0.74047536  1.0
  N  N24  1  0.29622660  0.41747268  0.25952464  1.0
  N  N25  1  0.29622660  0.08252732  0.75952464  1.0
  N  N26  1  0.40557757  0.22056060  0.33123008  1.0
  N  N27  1  0.40557757  0.27943940  0.83123008  1.0
  N  N28  1  0.59442243  0.72056060  0.16876992  1.0
  N  N29  1  0.59442243  0.77943940  0.66876992  1.0
  F  F30  1  0.95879610  0.25952746  0.39366252  1.0
  F  F31  1  0.95879610  0.24047254  0.89366252  1.0
  F  F32  1  0.04120390  0.75952746  0.10633748  1.0
  F  F33  1  0.04120390  0.74047254  0.60633748  1.0
  F  F34  1  0.91375762  0.20473842  0.10441209  1.0
  F  F35  1  0.91375762  0.29526158  0.60441209  1.0
  F  F36  1  0.08624238  0.70473842  0.39558791  1.0
  F  F37  1  0.08624238  0.79526158  0.89558791  1.0
  F  F38  1  0.70812624  0.90417430  0.94447033  1.0
  F  F39  1  0.70812624  0.59582570  0.44447033  1.0
  F  F40  1  0.29187376  0.40417430  0.55552967  1.0
  F  F41  1  0.29187376  0.09582570  0.05552967  1.0
