# generated using pymatgen
data_Ho3(SbPd2)4
_symmetry_space_group_name_H-M   'P 1'
_cell_length_a   9.39339088
_cell_length_b   9.39339088
_cell_length_c   9.39339088
_cell_angle_alpha   60.00000000
_cell_angle_beta   60.00000000
_cell_angle_gamma   60.00000000
_symmetry_Int_Tables_number   1
_chemical_formula_structural   Ho3(SbPd2)4
_chemical_formula_sum   'Ho6 Sb8 Pd16'
_cell_volume   586.07363652
_cell_formula_units_Z   2
loop_
 _symmetry_equiv_pos_site_id
 _symmetry_equiv_pos_as_xyz
  1  'x, y, z'
loop_
 _atom_site_type_symbol
 _atom_site_label
 _atom_site_symmetry_multiplicity
 _atom_site_fract_x
 _atom_site_fract_y
 _atom_site_fract_z
 _atom_site_occupancy
  Ho  Ho0  1  -0.72554515  0.72554515  0.72554515  1.0
  Ho  Ho1  1  -0.27445485  0.27445485  0.72554515  1.0
  Ho  Ho2  1  0.72554515  0.72554515  -0.72554515  1.0
  Ho  Ho3  1  0.27445485  1.27445485  -0.27445485  1.0
  Ho  Ho4  1  0.27445485  -0.27445485  1.27445485  1.0
  Ho  Ho5  1  -0.27445485  0.27445485  0.27445485  1.0
  Sb  Sb6  1  1.50000000  0.00000000  -0.00000000  1.0
  Sb  Sb7  1  1.00000000  0.50000000  -0.50000000  1.0
  Sb  Sb8  1  0.00000000  1.50000000  -0.00000000  1.0
  Sb  Sb9  1  0.50000000  1.00000000  -0.50000000  1.0
  Sb  Sb10  1  0.00000000  0.00000000  0.50000000  1.0
  Sb  Sb11  1  0.50000000  -0.50000000  1.00000000  1.0
  Sb  Sb12  1  -0.50000000  0.50000000  0.50000000  1.0
  Sb  Sb13  1  0.00000000  -0.00000000  -0.00000000  1.0
  Pd  Pd14  1  0.88059295  0.88059295  -0.11940705  1.0
  Pd  Pd15  1  1.11940705  0.11940705  0.64177886  1.0
  Pd  Pd16  1  1.11940705  0.64177886  0.11940705  1.0
  Pd  Pd17  1  0.35822114  0.88059295  -0.11940705  1.0
  Pd  Pd18  1  1.64177886  0.11940705  0.11940705  1.0
  Pd  Pd19  1  0.88059295  0.35822114  -0.11940705  1.0
  Pd  Pd20  1  0.88059295  0.88059295  -0.64177886  1.0
  Pd  Pd21  1  1.11940705  0.11940705  0.11940705  1.0
  Pd  Pd22  1  0.66785434  0.66785434  -0.33214566  1.0
  Pd  Pd23  1  0.33214566  1.33214566  0.00356301  1.0
  Pd  Pd24  1  1.33214566  0.00356301  0.33214566  1.0
  Pd  Pd25  1  0.99643699  0.66785434  0.66785434  1.0
  Pd  Pd26  1  0.00356301  1.33214566  0.33214566  1.0
  Pd  Pd27  1  0.66785434  0.99643699  -0.33214566  1.0
  Pd  Pd28  1  0.66785434  0.66785434  0.99643699  1.0
  Pd  Pd29  1  1.33214566  0.33214566  0.33214566  1.0
