# generated using pymatgen
data_K3NaFeCl6
_symmetry_space_group_name_H-M   'P 1'
_cell_length_a   8.42530188
_cell_length_b   8.42530188
_cell_length_c   8.42530188
_cell_angle_alpha   92.38515221
_cell_angle_beta   92.38515221
_cell_angle_gamma   92.38515221
_symmetry_Int_Tables_number   1
_chemical_formula_structural   K3NaFeCl6
_chemical_formula_sum   'K6 Na2 Fe2 Cl12'
_cell_volume   596.47704518
_cell_formula_units_Z   2
loop_
 _symmetry_equiv_pos_site_id
 _symmetry_equiv_pos_as_xyz
  1  'x, y, z'
loop_
 _atom_site_type_symbol
 _atom_site_label
 _atom_site_symmetry_multiplicity
 _atom_site_fract_x
 _atom_site_fract_y
 _atom_site_fract_z
 _atom_site_occupancy
  K  K0  1  0.87322485  1.25000000  -0.37322485  1.0
  K  K1  1  1.37322485  0.12677515  -0.25000000  1.0
  K  K2  1  0.75000000  0.37322485  0.12677515  1.0
  K  K3  1  1.25000000  0.62677515  -0.12677515  1.0
  K  K4  1  1.12677515  -0.25000000  0.37322485  1.0
  K  K5  1  0.62677515  0.87322485  0.25000000  1.0
  Na  Na6  1  0.25000000  0.25000000  0.25000000  1.0
  Na  Na7  1  0.75000000  0.75000000  0.75000000  1.0
  Fe  Fe8  1  0.50000000  0.50000000  0.50000000  1.0
  Fe  Fe9  1  0.00000000  0.00000000  0.00000000  1.0
  Cl  Cl10  1  1.21528277  0.42047178  -0.45569608  1.0
  Cl  Cl11  1  0.71528277  1.04430392  -0.07952822  1.0
  Cl  Cl12  1  0.95569608  0.07952822  0.28471723  1.0
  Cl  Cl13  1  1.45569608  -0.21528277  0.57952822  1.0
  Cl  Cl14  1  1.57952822  0.45569608  -0.21528277  1.0
  Cl  Cl15  1  1.07952822  0.28471723  -0.04430392  1.0
  Cl  Cl16  1  0.78471723  0.57952822  0.45569608  1.0
  Cl  Cl17  1  1.28471723  -0.04430392  0.07952822  1.0
  Cl  Cl18  1  0.54430392  1.21528277  -0.57952822  1.0
  Cl  Cl19  1  1.04430392  0.92047178  -0.28471723  1.0
  Cl  Cl20  1  0.92047178  0.71528277  0.04430392  1.0
  Cl  Cl21  1  0.42047178  0.54430392  0.21528277  1.0
