# generated using pymatgen
data_Rb2CdCl4
_symmetry_space_group_name_H-M   'P 1'
_cell_length_a   8.99815473
_cell_length_b   8.99815473
_cell_length_c   8.99815473
_cell_angle_alpha   145.65625650
_cell_angle_beta   145.65625650
_cell_angle_gamma   49.35762080
_symmetry_Int_Tables_number   1
_chemical_formula_structural   Rb2CdCl4
_chemical_formula_sum   'Rb2 Cd1 Cl4'
_cell_volume   230.81849616
_cell_formula_units_Z   1
loop_
 _symmetry_equiv_pos_site_id
 _symmetry_equiv_pos_as_xyz
  1  'x, y, z'
loop_
 _atom_site_type_symbol
 _atom_site_label
 _atom_site_symmetry_multiplicity
 _atom_site_fract_x
 _atom_site_fract_y
 _atom_site_fract_z
 _atom_site_occupancy
  Rb  Rb0  1  0.63940864  0.63940864  1.00000000  1.0
  Rb  Rb1  1  0.36059136  0.36059136  -0.00000000  1.0
  Cd  Cd2  1  0.00000000  0.00000000  0.00000000  1.0
  Cl  Cl3  1  0.84023383  0.84023383  1.00000000  1.0
  Cl  Cl4  1  0.15976617  0.15976617  -0.00000000  1.0
  Cl  Cl5  1  0.50000000  0.00000000  0.50000000  1.0
  Cl  Cl6  1  0.00000000  0.50000000  0.50000000  1.0
