# generated using pymatgen
data_Li3H3N2
_symmetry_space_group_name_H-M   'P 1'
_cell_length_a   3.71693203
_cell_length_b   3.42547195
_cell_length_c   5.23929918
_cell_angle_alpha   90.00000000
_cell_angle_beta   89.48682953
_cell_angle_gamma   90.00000000
_symmetry_Int_Tables_number   1
_chemical_formula_structural   Li3H3N2
_chemical_formula_sum   'Li3 H3 N2'
_cell_volume   66.70537258
_cell_formula_units_Z   1
loop_
 _symmetry_equiv_pos_site_id
 _symmetry_equiv_pos_as_xyz
  1  'x, y, z'
loop_
 _atom_site_type_symbol
 _atom_site_label
 _atom_site_symmetry_multiplicity
 _atom_site_fract_x
 _atom_site_fract_y
 _atom_site_fract_z
 _atom_site_occupancy
  Li  Li0  1  0.37715825  0.00000000  0.66582103  1.0
  Li  Li1  1  0.54382359  0.00000000  0.23410161  1.0
  Li  Li2  1  0.03758002  0.50000000  0.31991735  1.0
  H  H3  1  0.96720533  0.23208986  0.92373597  1.0
  H  H4  1  0.67764644  0.50000000  0.62399321  1.0
  H  H5  1  0.96720533  0.76791014  0.92373597  1.0
  N  N6  1  0.07681867  0.00000000  0.02040545  1.0
  N  N7  1  0.51456237  0.50000000  0.46428940  1.0
