# generated using pymatgen
data_Cs2RhCl5O
_symmetry_space_group_name_H-M   'P 1'
_cell_length_a   9.46555492
_cell_length_b   9.46555492
_cell_length_c   8.75467180
_cell_angle_alpha   90.00000000
_cell_angle_beta   90.00000000
_cell_angle_gamma   135.40320125
_symmetry_Int_Tables_number   1
_chemical_formula_structural   Cs2RhCl5O
_chemical_formula_sum   'Cs4 Rh2 Cl10 O2'
_cell_volume   550.73060284
_cell_formula_units_Z   2
loop_
 _symmetry_equiv_pos_site_id
 _symmetry_equiv_pos_as_xyz
  1  'x, y, z'
loop_
 _atom_site_type_symbol
 _atom_site_label
 _atom_site_symmetry_multiplicity
 _atom_site_fract_x
 _atom_site_fract_y
 _atom_site_fract_z
 _atom_site_occupancy
  Cs  Cs0  1  -0.97045193  0.97045193  0.25000000  1.0
  Cs  Cs1  1  -0.02954807  1.02954807  0.75000000  1.0
  Cs  Cs2  1  -0.26892550  1.26892550  0.25000000  1.0
  Cs  Cs3  1  -0.73107450  0.73107450  0.75000000  1.0
  Rh  Rh4  1  -0.61468396  0.61468396  0.25000000  1.0
  Rh  Rh5  1  -0.38531604  1.38531604  0.75000000  1.0
  Cl  Cl6  1  0.14719459  1.38411135  0.44108740  1.0
  Cl  Cl7  1  0.14719459  1.38411135  0.05891260  1.0
  Cl  Cl8  1  -0.61588865  1.14719459  0.94108740  1.0
  Cl  Cl9  1  -0.61588865  1.14719459  0.55891260  1.0
  Cl  Cl10  1  -0.38411135  0.85280541  0.44108740  1.0
  Cl  Cl11  1  -0.38411135  0.85280541  0.05891260  1.0
  Cl  Cl12  1  -0.14719459  1.61588865  0.94108740  1.0
  Cl  Cl13  1  -0.14719459  1.61588865  0.55891260  1.0
  Cl  Cl14  1  -0.75207381  0.75207381  0.25000000  1.0
  Cl  Cl15  1  -0.24792619  1.24792619  0.75000000  1.0
  O  O16  1  -0.51301813  1.51301813  0.25000000  1.0
  O  O17  1  -0.48698187  0.48698187  0.75000000  1.0
