# generated using pymatgen
data_LaSi10
_symmetry_space_group_name_H-M   'P 1'
_cell_length_a   9.60554717
_cell_length_b   9.60554717
_cell_length_c   4.75667865
_cell_angle_alpha   90.00000000
_cell_angle_beta   90.00000000
_cell_angle_gamma   120.00000000
_symmetry_Int_Tables_number   1
_chemical_formula_structural   LaSi10
_chemical_formula_sum   'La2 Si20'
_cell_volume   380.08318980
_cell_formula_units_Z   2
loop_
 _symmetry_equiv_pos_site_id
 _symmetry_equiv_pos_as_xyz
  1  'x, y, z'
loop_
 _atom_site_type_symbol
 _atom_site_label
 _atom_site_symmetry_multiplicity
 _atom_site_fract_x
 _atom_site_fract_y
 _atom_site_fract_z
 _atom_site_occupancy
  La  La0  1  0.33333333  0.66666667  0.25000000  1.0
  La  La1  1  0.66666667  0.33333333  0.75000000  1.0
  Si  Si2  1  0.14310283  0.85689717  0.25000000  1.0
  Si  Si3  1  0.14310283  0.28620565  0.25000000  1.0
  Si  Si4  1  0.85689717  0.14310283  0.75000000  1.0
  Si  Si5  1  0.85689717  0.71379435  0.75000000  1.0
  Si  Si6  1  0.71379435  0.85689717  0.25000000  1.0
  Si  Si7  1  0.28620565  0.14310283  0.75000000  1.0
  Si  Si8  1  0.52281143  0.47718857  0.25000000  1.0
  Si  Si9  1  0.52281143  0.04562285  0.25000000  1.0
  Si  Si10  1  0.47718857  0.52281143  0.75000000  1.0
  Si  Si11  1  0.47718857  0.95437715  0.75000000  1.0
  Si  Si12  1  0.95437715  0.47718857  0.25000000  1.0
  Si  Si13  1  0.04562285  0.52281143  0.75000000  1.0
  Si  Si14  1  0.81623995  0.18376005  0.25000000  1.0
  Si  Si15  1  0.81623995  0.63247989  0.25000000  1.0
  Si  Si16  1  0.18376005  0.81623995  0.75000000  1.0
  Si  Si17  1  0.18376005  0.36752011  0.75000000  1.0
  Si  Si18  1  0.36752011  0.18376005  0.25000000  1.0
  Si  Si19  1  0.63247989  0.81623995  0.75000000  1.0
  Si  Si20  1  0.00000000  0.00000000  0.25000000  1.0
  Si  Si21  1  0.00000000  0.00000000  0.75000000  1.0
