# generated using pymatgen
data_Zr4Ni2O
_symmetry_space_group_name_H-M   'P 1'
_cell_length_a   8.64802273
_cell_length_b   8.64802273
_cell_length_c   8.64802273
_cell_angle_alpha   60.00000000
_cell_angle_beta   60.00000000
_cell_angle_gamma   60.00000000
_symmetry_Int_Tables_number   1
_chemical_formula_structural   Zr4Ni2O
_chemical_formula_sum   'Zr16 Ni8 O4'
_cell_volume   457.33608547
_cell_formula_units_Z   4
loop_
 _symmetry_equiv_pos_site_id
 _symmetry_equiv_pos_as_xyz
  1  'x, y, z'
loop_
 _atom_site_type_symbol
 _atom_site_label
 _atom_site_symmetry_multiplicity
 _atom_site_fract_x
 _atom_site_fract_y
 _atom_site_fract_z
 _atom_site_occupancy
  Zr  Zr0  1  0.56557977  0.56557977  0.93442023  1.0
  Zr  Zr1  1  0.93442023  0.56557977  0.93442023  1.0
  Zr  Zr2  1  0.56557977  0.93442023  0.93442023  1.0
  Zr  Zr3  1  0.93442023  0.93442023  0.56557977  1.0
  Zr  Zr4  1  0.56557977  0.93442023  0.56557977  1.0
  Zr  Zr5  1  0.93442023  0.56557977  0.56557977  1.0
  Zr  Zr6  1  0.68442023  0.68442023  -0.68442023  1.0
  Zr  Zr7  1  1.31557977  -0.31557977  0.31557977  1.0
  Zr  Zr8  1  -0.31557977  0.31557977  0.31557977  1.0
  Zr  Zr9  1  0.31557977  0.31557977  -0.31557977  1.0
  Zr  Zr10  1  0.68442023  -0.68442023  0.68442023  1.0
  Zr  Zr11  1  -0.68442023  0.68442023  0.68442023  1.0
  Zr  Zr12  1  0.12500000  0.12500000  1.62500000  1.0
  Zr  Zr13  1  0.12500000  0.62500000  1.12500000  1.0
  Zr  Zr14  1  1.62500000  0.12500000  0.12500000  1.0
  Zr  Zr15  1  1.12500000  0.12500000  0.12500000  1.0
  Ni  Ni16  1  0.90757819  -0.09242181  0.27726544  1.0
  Ni  Ni17  1  0.90757819  -0.72273456  0.90757819  1.0
  Ni  Ni18  1  0.27726544  0.90757819  0.90757819  1.0
  Ni  Ni19  1  0.90757819  0.90757819  0.90757819  1.0
  Ni  Ni20  1  1.34242181  0.34242181  -0.02726544  1.0
  Ni  Ni21  1  1.34242181  -0.02726544  0.34242181  1.0
  Ni  Ni22  1  0.97273456  0.34242181  0.34242181  1.0
  Ni  Ni23  1  1.34242181  0.34242181  0.34242181  1.0
  O  O24  1  0.62500000  0.62500000  1.12500000  1.0
  O  O25  1  0.62500000  1.12500000  0.62500000  1.0
  O  O26  1  1.12500000  0.62500000  0.62500000  1.0
  O  O27  1  0.62500000  0.62500000  0.62500000  1.0
