# generated using pymatgen
data_Fe3Se4
_symmetry_space_group_name_H-M   'P 1'
_cell_length_a   6.40180744
_cell_length_b   6.40180744
_cell_length_c   6.09902612
_cell_angle_alpha   64.38769109
_cell_angle_beta   115.61230891
_cell_angle_gamma   149.13540350
_symmetry_Int_Tables_number   1
_chemical_formula_structural   Fe3Se4
_chemical_formula_sum   'Fe3 Se4'
_cell_volume   114.61382887
_cell_formula_units_Z   1
loop_
 _symmetry_equiv_pos_site_id
 _symmetry_equiv_pos_as_xyz
  1  'x, y, z'
loop_
 _atom_site_type_symbol
 _atom_site_label
 _atom_site_symmetry_multiplicity
 _atom_site_fract_x
 _atom_site_fract_y
 _atom_site_fract_z
 _atom_site_occupancy
  Fe  Fe0  1  0.73921641  -0.73921641  0.69027035  1.0
  Fe  Fe1  1  1.26078359  -0.26078359  0.30972965  1.0
  Fe  Fe2  1  0.00000000  0.00000000  0.00000000  1.0
  Se  Se3  1  0.89334153  -0.89334153  0.55961891  1.0
  Se  Se4  1  1.10665847  -0.10665847  0.44038109  1.0
  Se  Se5  1  0.63755736  -0.63755736  0.97906103  1.0
  Se  Se6  1  1.36244264  -0.36244264  0.02093897  1.0
