# generated using pymatgen
data_Y2Pt
_symmetry_space_group_name_H-M   'P 1'
_cell_length_a   7.17040272
_cell_length_b   4.80233366
_cell_length_c   8.81996930
_cell_angle_alpha   90.00000000
_cell_angle_beta   90.00000000
_cell_angle_gamma   90.00000000
_symmetry_Int_Tables_number   1
_chemical_formula_structural   Y2Pt
_chemical_formula_sum   'Y8 Pt4'
_cell_volume   303.71269992
_cell_formula_units_Z   4
loop_
 _symmetry_equiv_pos_site_id
 _symmetry_equiv_pos_as_xyz
  1  'x, y, z'
loop_
 _atom_site_type_symbol
 _atom_site_label
 _atom_site_symmetry_multiplicity
 _atom_site_fract_x
 _atom_site_fract_y
 _atom_site_fract_z
 _atom_site_occupancy
  Y  Y0  1  0.99018179  0.75000000  0.66691944  1.0
  Y  Y1  1  0.49018179  0.75000000  0.83308056  1.0
  Y  Y2  1  0.00981821  0.25000000  0.33308056  1.0
  Y  Y3  1  0.50981821  0.25000000  0.16691944  1.0
  Y  Y4  1  0.85662374  0.75000000  0.08128699  1.0
  Y  Y5  1  0.35662374  0.75000000  0.41871301  1.0
  Y  Y6  1  0.14337626  0.25000000  0.91871301  1.0
  Y  Y7  1  0.64337626  0.25000000  0.58128699  1.0
  Pt  Pt8  1  0.75905282  0.75000000  0.40704972  1.0
  Pt  Pt9  1  0.25905282  0.75000000  0.09295028  1.0
  Pt  Pt10  1  0.24094718  0.25000000  0.59295028  1.0
  Pt  Pt11  1  0.74094718  0.25000000  0.90704972  1.0
