# generated using pymatgen
data_CaV4(CuO4)3
_symmetry_space_group_name_H-M   'P 1'
_cell_length_a   6.33146446
_cell_length_b   6.33146446
_cell_length_c   6.33146446
_cell_angle_alpha   109.47122063
_cell_angle_beta   109.47122063
_cell_angle_gamma   109.47122063
_symmetry_Int_Tables_number   1
_chemical_formula_structural   CaV4(CuO4)3
_chemical_formula_sum   'Ca1 V4 Cu3 O12'
_cell_volume   195.38473507
_cell_formula_units_Z   1
loop_
 _symmetry_equiv_pos_site_id
 _symmetry_equiv_pos_as_xyz
  1  'x, y, z'
loop_
 _atom_site_type_symbol
 _atom_site_label
 _atom_site_symmetry_multiplicity
 _atom_site_fract_x
 _atom_site_fract_y
 _atom_site_fract_z
 _atom_site_occupancy
  Ca  Ca0  1  0.00000000  0.00000000  0.00000000  1.0
  V  V1  1  0.50000000  1.00000000  1.00000000  1.0
  V  V2  1  0.50000000  0.50000000  0.50000000  1.0
  V  V3  1  1.00000000  1.00000000  0.50000000  1.0
  V  V4  1  1.00000000  0.50000000  1.00000000  1.0
  Cu  Cu5  1  0.50000000  0.50000000  0.00000000  1.0
  Cu  Cu6  1  -0.00000000  0.50000000  0.50000000  1.0
  Cu  Cu7  1  0.50000000  0.00000000  0.50000000  1.0
  O  O8  1  0.81461419  1.29844713  1.11306132  1.0
  O  O9  1  0.81461419  0.70155287  0.51616706  1.0
  O  O10  1  0.18538581  0.29844713  0.48383294  1.0
  O  O11  1  0.18538581  0.70155287  0.88693868  1.0
  O  O12  1  0.51616706  0.81461419  0.70155287  1.0
  O  O13  1  1.11306132  0.81461419  1.29844713  1.0
  O  O14  1  0.70155287  0.88693868  0.18538581  1.0
  O  O15  1  0.70155287  0.51616706  0.81461419  1.0
  O  O16  1  0.88693868  0.18538581  0.70155287  1.0
  O  O17  1  0.48383294  0.18538581  0.29844713  1.0
  O  O18  1  0.29844713  0.48383294  0.18538581  1.0
  O  O19  1  1.29844713  1.11306132  0.81461419  1.0
