# generated using pymatgen
data_K
_symmetry_space_group_name_H-M   'P 1'
_cell_length_a   7.71564728
_cell_length_b   7.57669597
_cell_length_c   10.05972529
_cell_angle_alpha   90.00000000
_cell_angle_beta   90.00000000
_cell_angle_gamma   90.00000000
_symmetry_Int_Tables_number   1
_chemical_formula_structural   K
_chemical_formula_sum   K8
_cell_volume   588.08262364
_cell_formula_units_Z   8
loop_
 _symmetry_equiv_pos_site_id
 _symmetry_equiv_pos_as_xyz
  1  'x, y, z'
loop_
 _atom_site_type_symbol
 _atom_site_label
 _atom_site_symmetry_multiplicity
 _atom_site_fract_x
 _atom_site_fract_y
 _atom_site_fract_z
 _atom_site_occupancy
  K  K0  1  0.97169792  0.75000000  0.12512256  1.0
  K  K1  1  0.47169792  0.75000000  0.37487744  1.0
  K  K2  1  0.02830208  0.25000000  0.87487744  1.0
  K  K3  1  0.52830208  0.25000000  0.62512256  1.0
  K  K4  1  0.97163558  0.75000000  0.62494914  1.0
  K  K5  1  0.47163558  0.75000000  0.87505086  1.0
  K  K6  1  0.02836442  0.25000000  0.37505086  1.0
  K  K7  1  0.52836442  0.25000000  0.12494914  1.0
