# generated using pymatgen
data_CdH12C2(NCl2)2
_symmetry_space_group_name_H-M   'P 1'
_cell_length_a   10.62834168
_cell_length_b   10.62834168
_cell_length_c   7.47643974
_cell_angle_alpha   90.00000000
_cell_angle_beta   90.00000000
_cell_angle_gamma   137.19327409
_symmetry_Int_Tables_number   1
_chemical_formula_structural   CdH12C2(NCl2)2
_chemical_formula_sum   'Cd2 H24 C4 N4 Cl8'
_cell_volume   573.89553521
_cell_formula_units_Z   2
loop_
 _symmetry_equiv_pos_site_id
 _symmetry_equiv_pos_as_xyz
  1  'x, y, z'
loop_
 _atom_site_type_symbol
 _atom_site_label
 _atom_site_symmetry_multiplicity
 _atom_site_fract_x
 _atom_site_fract_y
 _atom_site_fract_z
 _atom_site_occupancy
  Cd  Cd0  1  -0.00000000  1.00000000  0.00000000  1.0
  Cd  Cd1  1  -0.50000000  0.50000000  0.50000000  1.0
  H  H2  1  0.47894247  1.30779951  0.03798754  1.0
  H  H3  1  0.30779951  0.47894247  0.96201246  1.0
  H  H4  1  0.80779951  0.97894247  0.53798754  1.0
  H  H5  1  -0.02105753  0.80779951  0.46201246  1.0
  H  H6  1  0.52105753  0.69220049  0.96201246  1.0
  H  H7  1  -0.30779951  0.52105753  0.03798754  1.0
  H  H8  1  0.19220049  1.02105753  0.46201246  1.0
  H  H9  1  0.02105753  0.19220049  0.53798754  1.0
  H  H10  1  -0.38936713  0.38936713  0.84984128  1.0
  H  H11  1  0.38936713  0.61063287  0.15015872  1.0
  H  H12  1  -0.11063287  0.11063287  0.34984128  1.0
  H  H13  1  0.11063287  0.88936713  0.65015872  1.0
  H  H14  1  0.59250835  1.17665419  1.00851730  1.0
  H  H15  1  0.17665419  0.59250835  -0.00851730  1.0
  H  H16  1  0.67665419  1.09250835  0.50851730  1.0
  H  H17  1  0.09250835  0.67665419  0.49148270  1.0
  H  H18  1  0.40749165  0.82334581  -0.00851730  1.0
  H  H19  1  -0.17665419  0.40749165  1.00851730  1.0
  H  H20  1  0.32334581  0.90749165  0.49148270  1.0
  H  H21  1  -0.09250835  0.32334581  0.50851730  1.0
  H  H22  1  -0.31889787  0.31889787  0.20419142  1.0
  H  H23  1  0.31889787  0.68110213  0.79580858  1.0
  H  H24  1  -0.18110213  0.18110213  0.70419142  1.0
  H  H25  1  0.18110213  0.81889787  0.29580858  1.0
  C  C26  1  -0.31776856  0.31776856  0.05773767  1.0
  C  C27  1  0.31776856  0.68223144  0.94226233  1.0
  C  C28  1  -0.18223144  0.18223144  0.55773767  1.0
  C  C29  1  0.18223144  0.81776856  0.44226233  1.0
  N  N30  1  -0.38835657  0.38835657  0.99017270  1.0
  N  N31  1  0.38835657  0.61164343  0.00982730  1.0
  N  N32  1  -0.11164343  0.11164343  0.49017270  1.0
  N  N33  1  0.11164343  0.88835657  0.50982730  1.0
  Cl  Cl34  1  -0.22694027  0.72694027  0.25000000  1.0
  Cl  Cl35  1  0.72694027  0.77305973  0.75000000  1.0
  Cl  Cl36  1  0.22694027  0.27305973  0.75000000  1.0
  Cl  Cl37  1  0.27305973  1.22694027  0.25000000  1.0
  Cl  Cl38  1  0.12596874  0.87403126  0.93317806  1.0
  Cl  Cl39  1  -0.12596874  0.12596874  0.06682194  1.0
  Cl  Cl40  1  0.37403126  0.62596874  0.43317806  1.0
  Cl  Cl41  1  -0.37403126  0.37403126  0.56682194  1.0
