# generated using pymatgen
data_SmSb2
_symmetry_space_group_name_H-M   'P 1'
_cell_length_a   4.46582552
_cell_length_b   4.46582552
_cell_length_c   17.63857595
_cell_angle_alpha   90.00000000
_cell_angle_beta   90.00000000
_cell_angle_gamma   89.73806037
_symmetry_Int_Tables_number   1
_chemical_formula_structural   SmSb2
_chemical_formula_sum   'Sm4 Sb8'
_cell_volume   351.77298377
_cell_formula_units_Z   4
loop_
 _symmetry_equiv_pos_site_id
 _symmetry_equiv_pos_as_xyz
  1  'x, y, z'
loop_
 _atom_site_type_symbol
 _atom_site_label
 _atom_site_symmetry_multiplicity
 _atom_site_fract_x
 _atom_site_fract_y
 _atom_site_fract_z
 _atom_site_occupancy
  Sm  Sm0  1  -0.36823953  1.36823953  0.10547117  1.0
  Sm  Sm1  1  0.13176047  0.86823953  0.39452883  1.0
  Sm  Sm2  1  0.36823953  0.63176047  0.89452883  1.0
  Sm  Sm3  1  -0.13176047  1.13176047  0.60547117  1.0
  Sb  Sb4  1  -0.37051813  1.37051813  0.43206539  1.0
  Sb  Sb5  1  0.12948187  0.87051813  0.06793461  1.0
  Sb  Sb6  1  0.37051813  0.62948187  0.56793461  1.0
  Sb  Sb7  1  -0.12948187  1.12948187  0.93206539  1.0
  Sb  Sb8  1  -0.38277661  0.88277661  0.25000000  1.0
  Sb  Sb9  1  0.11722339  1.38277661  0.25000000  1.0
  Sb  Sb10  1  -0.11722339  0.61722339  0.75000000  1.0
  Sb  Sb11  1  0.38277661  1.11722339  0.75000000  1.0
