# generated using pymatgen
data_K3Ga3As4
_symmetry_space_group_name_H-M   'P 1'
_cell_length_a   6.71923226
_cell_length_b   15.21086891
_cell_length_c   10.82569330
_cell_angle_alpha   90.00000000
_cell_angle_beta   90.00000000
_cell_angle_gamma   90.00000000
_symmetry_Int_Tables_number   1
_chemical_formula_structural   K3Ga3As4
_chemical_formula_sum   'K12 Ga12 As16'
_cell_volume   1106.44389344
_cell_formula_units_Z   4
loop_
 _symmetry_equiv_pos_site_id
 _symmetry_equiv_pos_as_xyz
  1  'x, y, z'
loop_
 _atom_site_type_symbol
 _atom_site_label
 _atom_site_symmetry_multiplicity
 _atom_site_fract_x
 _atom_site_fract_y
 _atom_site_fract_z
 _atom_site_occupancy
  K  K0  1  0.93933860  0.40377424  0.11982484  1.0
  K  K1  1  0.93933860  0.09622576  0.38017516  1.0
  K  K2  1  0.43933860  0.40377424  0.88017516  1.0
  K  K3  1  0.43933860  0.09622576  0.61982484  1.0
  K  K4  1  0.06066140  0.90377424  0.61982484  1.0
  K  K5  1  0.06066140  0.59622576  0.88017516  1.0
  K  K6  1  0.56066140  0.90377424  0.38017516  1.0
  K  K7  1  0.56066140  0.59622576  0.11982484  1.0
  K  K8  1  0.75000000  0.50000000  0.58168778  1.0
  K  K9  1  0.75000000  0.00000000  0.91831222  1.0
  K  K10  1  0.25000000  0.50000000  0.41831222  1.0
  K  K11  1  0.25000000  0.00000000  0.08168778  1.0
  Ga  Ga12  1  0.59877806  0.21710051  0.11092400  1.0
  Ga  Ga13  1  0.59877806  0.28289949  0.38907600  1.0
  Ga  Ga14  1  0.09877806  0.21710051  0.88907600  1.0
  Ga  Ga15  1  0.09877806  0.28289949  0.61092400  1.0
  Ga  Ga16  1  0.40122194  0.71710051  0.61092400  1.0
  Ga  Ga17  1  0.40122194  0.78289949  0.88907600  1.0
  Ga  Ga18  1  0.90122194  0.71710051  0.38907600  1.0
  Ga  Ga19  1  0.90122194  0.78289949  0.11092400  1.0
  Ga  Ga20  1  0.69357849  0.25000000  0.75000000  1.0
  Ga  Ga21  1  0.19357849  0.25000000  0.25000000  1.0
  Ga  Ga22  1  0.30642151  0.75000000  0.25000000  1.0
  Ga  Ga23  1  0.80642151  0.75000000  0.75000000  1.0
  As  As24  1  0.96097095  0.36294736  0.80561818  1.0
  As  As25  1  0.96097095  0.13705264  0.69438182  1.0
  As  As26  1  0.46097095  0.36294736  0.19438182  1.0
  As  As27  1  0.46097095  0.13705264  0.30561818  1.0
  As  As28  1  0.03902905  0.86294736  0.30561818  1.0
  As  As29  1  0.03902905  0.63705264  0.19438182  1.0
  As  As30  1  0.53902905  0.86294736  0.69438182  1.0
  As  As31  1  0.53902905  0.63705264  0.80561818  1.0
  As  As32  1  0.46073765  0.32452433  0.59493875  1.0
  As  As33  1  0.46073765  0.17547567  0.90506125  1.0
  As  As34  1  0.96073765  0.32452433  0.40506125  1.0
  As  As35  1  0.96073765  0.17547567  0.09493875  1.0
  As  As36  1  0.53926235  0.82452433  0.09493875  1.0
  As  As37  1  0.53926235  0.67547567  0.40506125  1.0
  As  As38  1  0.03926235  0.82452433  0.90506125  1.0
  As  As39  1  0.03926235  0.67547567  0.59493875  1.0
