# generated using pymatgen
data_ZnCu2SnSe4
_symmetry_space_group_name_H-M   'P 1'
_cell_length_a   7.05547741
_cell_length_b   7.05547741
_cell_length_c   7.05547741
_cell_angle_alpha   131.75280125
_cell_angle_beta   131.75280125
_cell_angle_gamma   70.61973175
_symmetry_Int_Tables_number   1
_chemical_formula_structural   ZnCu2SnSe4
_chemical_formula_sum   'Zn1 Cu2 Sn1 Se4'
_cell_volume   191.50165454
_cell_formula_units_Z   1
loop_
 _symmetry_equiv_pos_site_id
 _symmetry_equiv_pos_as_xyz
  1  'x, y, z'
loop_
 _atom_site_type_symbol
 _atom_site_label
 _atom_site_symmetry_multiplicity
 _atom_site_fract_x
 _atom_site_fract_y
 _atom_site_fract_z
 _atom_site_occupancy
  Zn  Zn0  1  0.75000000  0.25000000  0.50000000  1.0
  Cu  Cu1  1  0.25000000  0.75000000  0.50000000  1.0
  Cu  Cu2  1  0.00000000  0.00000000  0.00000000  1.0
  Sn  Sn3  1  0.50000000  0.50000000  1.00000000  1.0
  Se  Se4  1  0.36129813  0.88987273  0.99066144  1.0
  Se  Se5  1  1.11012727  1.10078871  1.47142540  1.0
  Se  Se6  1  0.89921129  0.37063669  1.00933856  1.0
  Se  Se7  1  0.62936331  0.63870187  0.52857460  1.0
