# generated using pymatgen
data_K3(FeO2)2
_symmetry_space_group_name_H-M   'P 1'
_cell_length_a   10.29472241
_cell_length_b   9.07449810
_cell_length_c   6.46808639
_cell_angle_alpha   81.08023433
_cell_angle_beta   60.55299250
_cell_angle_gamma   38.36677317
_symmetry_Int_Tables_number   1
_chemical_formula_structural   K3(FeO2)2
_chemical_formula_sum   'K6 Fe4 O8'
_cell_volume   295.43880358
_cell_formula_units_Z   2
loop_
 _symmetry_equiv_pos_site_id
 _symmetry_equiv_pos_as_xyz
  1  'x, y, z'
loop_
 _atom_site_type_symbol
 _atom_site_label
 _atom_site_symmetry_multiplicity
 _atom_site_fract_x
 _atom_site_fract_y
 _atom_site_fract_z
 _atom_site_occupancy
  K  K0  1  0.00000000  0.00000000  0.00000000  1.0
  K  K1  1  1.25000000  0.25000000  0.25000000  1.0
  K  K2  1  0.38953567  1.38953567  -0.38953567  1.0
  K  K3  1  -0.38953567  0.61046433  0.38953567  1.0
  K  K4  1  0.86046433  0.86046433  0.63953567  1.0
  K  K5  1  0.63953567  0.63953567  0.86046433  1.0
  Fe  Fe6  1  0.05889021  0.05889021  1.44110979  1.0
  Fe  Fe7  1  1.44110979  0.44110979  0.05889021  1.0
  Fe  Fe8  1  0.19110979  1.19110979  -0.19110979  1.0
  Fe  Fe9  1  0.80889021  0.80889021  -0.80889021  1.0
  O  O10  1  0.31569532  -0.31569532  1.31569532  1.0
  O  O11  1  0.68430468  -0.68430468  0.68430468  1.0
  O  O12  1  0.93430468  0.56569532  0.93430468  1.0
  O  O13  1  0.56569532  0.93430468  -0.43430468  1.0
  O  O14  1  0.12500000  1.62500000  0.12500000  1.0
  O  O15  1  0.12500000  0.12500000  1.62500000  1.0
  O  O16  1  0.12500000  0.12500000  0.12500000  1.0
  O  O17  1  1.62500000  0.12500000  0.12500000  1.0
