# generated using pymatgen
data_V3As2H4O13
_symmetry_space_group_name_H-M   'P 1'
_cell_length_a   7.93929498
_cell_length_b   5.21123483
_cell_length_c   12.49576440
_cell_angle_alpha   80.48150097
_cell_angle_beta   71.98079659
_cell_angle_gamma   85.98012134
_symmetry_Int_Tables_number   1
_chemical_formula_structural   V3As2H4O13
_chemical_formula_sum   'V6 As4 H8 O26'
_cell_volume   484.76913004
_cell_formula_units_Z   2
loop_
 _symmetry_equiv_pos_site_id
 _symmetry_equiv_pos_as_xyz
  1  'x, y, z'
loop_
 _atom_site_type_symbol
 _atom_site_label
 _atom_site_symmetry_multiplicity
 _atom_site_fract_x
 _atom_site_fract_y
 _atom_site_fract_z
 _atom_site_occupancy
  H  H0  1  -0.20002171  -0.75519321  -0.50512772  1.0
  H  H1  1  -0.79997829  -0.24480679  -0.49487228  1.0
  H  H2  1  -0.01370779  -0.69390373  -0.60310469  1.0
  H  H3  1  -0.98629221  -0.30609627  -0.39689531  1.0
  H  H4  1  -0.48667551  -0.80592772  -0.89710620  1.0
  H  H5  1  -0.51332449  -0.19407228  -0.10289380  1.0
  H  H6  1  -0.30035919  -0.74438290  -0.99512676  1.0
  H  H7  1  -0.69964081  -0.25561710  -0.00487324  1.0
  O  O8  1  -0.84619123  -0.68618427  -0.03103401  1.0
  O  O9  1  -0.15380877  -0.31381573  -0.96896599  1.0
  O  O10  1  -0.81905512  -0.37604597  -0.87141845  1.0
  O  O11  1  -0.18094488  -0.62395403  -0.12858155  1.0
  O  O12  1  -0.71708291  -0.90551086  -0.84851748  1.0
  O  O13  1  -0.28291709  -0.09448914  -0.15148252  1.0
  O  O14  1  -0.09247029  -0.74984218  -0.81325162  1.0
  O  O15  1  -0.90752971  -0.25015782  -0.18674838  1.0
  O  O16  1  -0.40774405  -0.75067056  -0.68692292  1.0
  O  O17  1  -0.59225595  -0.24932944  -0.31307708  1.0
  O  O18  1  -0.68119252  -0.12433449  -0.62845251  1.0
  O  O19  1  -0.31880748  -0.87566551  -0.37154749  1.0
  O  O20  1  -0.65375721  -0.81374615  -0.46904202  1.0
  O  O21  1  -0.34624279  -0.18625385  -0.53095798  1.0
  O  O22  1  -0.78313715  -0.59482176  -0.65148362  1.0
  O  O23  1  -0.21686285  -0.40517824  -0.34851638  1.0
  O  O24  1  -0.98630883  -0.16296537  -0.68005362  1.0
  O  O25  1  -0.01369117  -0.83703463  -0.31994638  1.0
  O  O26  1  -0.51390079  -0.33714448  -0.81989276  1.0
  O  O27  1  -0.48609921  -0.66285552  -0.18010724  1.0
  O  O28  1  -0.13843794  -0.73942973  -0.58844623  1.0
  O  O29  1  -0.86156206  -0.26057027  -0.41155377  1.0
  O  O30  1  -0.36197376  -0.76017837  -0.91181391  1.0
  O  O31  1  -0.63802624  -0.23982163  -0.08818609  1.0
  O  O32  1  -0.25011550  -0.25027672  -0.74993928  1.0
  O  O33  1  -0.74988450  -0.74972328  -0.25006072  1.0
  As  As34  1  -0.86983557  -0.68322381  -0.88837110  1.0
  As  As35  1  -0.13016443  -0.31677619  -0.11162890  1.0
  As  As36  1  -0.63035823  -0.81706778  -0.61164775  1.0
  As  As37  1  -0.36964177  -0.18293222  -0.38835225  1.0
  V  V38  1  -0.75012760  -0.25013478  -0.74996480  1.0
  V  V39  1  -0.24987240  -0.74986522  -0.25003520  1.0
  V  V40  1  -0.18990805  -0.03220276  -0.67387476  1.0
  V  V41  1  -0.81009195  -0.96779724  -0.32612524  1.0
  V  V42  1  -0.31032026  -0.46804995  -0.82614641  1.0
  V  V43  1  -0.68967974  -0.53195005  -0.17385359  1.0
