# generated using pymatgen
data_CaBiCO4F
_symmetry_space_group_name_H-M   'P 1'
_cell_length_a   4.76897076
_cell_length_b   3.14550506
_cell_length_c   14.95548421
_cell_angle_alpha   90.00000000
_cell_angle_beta   90.00000000
_cell_angle_gamma   90.00000000
_symmetry_Int_Tables_number   1
_chemical_formula_structural   CaBiCO4F
_chemical_formula_sum   'Ca2 Bi2 C2 O8 F2'
_cell_volume   224.34455154
_cell_formula_units_Z   2
loop_
 _symmetry_equiv_pos_site_id
 _symmetry_equiv_pos_as_xyz
  1  'x, y, z'
loop_
 _atom_site_type_symbol
 _atom_site_label
 _atom_site_symmetry_multiplicity
 _atom_site_fract_x
 _atom_site_fract_y
 _atom_site_fract_z
 _atom_site_occupancy
  Ca  Ca0  1  0.50000000  0.50000000  0.58464445  1.0
  Ca  Ca1  1  0.00000000  0.00000000  0.41535555  1.0
  Bi  Bi2  1  0.50000000  0.50000000  0.82198606  1.0
  Bi  Bi3  1  0.00000000  0.00000000  0.17801394  1.0
  C  C4  1  0.00000000  0.50000000  0.93080270  1.0
  C  C5  1  0.50000000  0.00000000  0.06919730  1.0
  O  O6  1  0.00000000  0.50000000  0.01086091  1.0
  O  O7  1  0.50000000  0.00000000  -0.01086091  1.0
  O  O8  1  0.00000000  0.00000000  0.88263058  1.0
  O  O9  1  0.50000000  0.50000000  0.11736942  1.0
  O  O10  1  0.83973336  0.50000000  0.31005615  1.0
  O  O11  1  0.16026664  0.50000000  0.31005615  1.0
  O  O12  1  0.66026664  0.00000000  0.68994385  1.0
  O  O13  1  0.33973336  0.00000000  0.68994385  1.0
  F  F14  1  0.00000000  0.50000000  0.52467758  1.0
  F  F15  1  0.50000000  0.00000000  0.47532242  1.0
