# generated using pymatgen
data_LiTaO3
_symmetry_space_group_name_H-M   'P 1'
_cell_length_a   5.11101774
_cell_length_b   8.85357204
_cell_length_c   4.73851361
_cell_angle_alpha   90.00000000
_cell_angle_beta   90.00000000
_cell_angle_gamma   90.00000000
_symmetry_Int_Tables_number   1
_chemical_formula_structural   LiTaO3
_chemical_formula_sum   'Li4 Ta4 O12'
_cell_volume   214.42135972
_cell_formula_units_Z   4
loop_
 _symmetry_equiv_pos_site_id
 _symmetry_equiv_pos_as_xyz
  1  'x, y, z'
loop_
 _atom_site_type_symbol
 _atom_site_label
 _atom_site_symmetry_multiplicity
 _atom_site_fract_x
 _atom_site_fract_y
 _atom_site_fract_z
 _atom_site_occupancy
  Li  Li0  1  0.50000000  0.00000000  0.00000000  1.0
  Li  Li1  1  0.00000000  0.50000000  0.50000000  1.0
  Li  Li2  1  0.50000000  0.50000000  0.00000000  1.0
  Li  Li3  1  0.00000000  0.00000000  0.50000000  1.0
  Ta  Ta4  1  0.54815072  0.25000000  0.55913251  1.0
  Ta  Ta5  1  0.04815072  0.25000000  0.94086749  1.0
  Ta  Ta6  1  0.45184928  0.75000000  0.44086749  1.0
  Ta  Ta7  1  0.95184928  0.75000000  0.05913251  1.0
  O  O8  1  0.87594030  0.25000000  0.30084858  1.0
  O  O9  1  0.37594030  0.25000000  0.19915142  1.0
  O  O10  1  0.12405970  0.75000000  0.69915142  1.0
  O  O11  1  0.62405970  0.75000000  0.80084858  1.0
  O  O12  1  0.79030252  0.10627210  0.78726800  1.0
  O  O13  1  0.29030252  0.39372790  0.71273200  1.0
  O  O14  1  0.20969748  0.60627210  0.21273200  1.0
  O  O15  1  0.70969748  0.89372790  0.28726800  1.0
  O  O16  1  0.20969748  0.89372790  0.21273200  1.0
  O  O17  1  0.70969748  0.60627210  0.28726800  1.0
  O  O18  1  0.79030252  0.39372790  0.78726800  1.0
  O  O19  1  0.29030252  0.10627210  0.71273200  1.0
