# generated using pymatgen
data_Cs2OsNO2F5
_symmetry_space_group_name_H-M   'P 1'
_cell_length_a   10.66440780
_cell_length_b   10.66440780
_cell_length_c   6.28403564
_cell_angle_alpha   90.00000000
_cell_angle_beta   90.00000000
_cell_angle_gamma   138.08944910
_symmetry_Int_Tables_number   1
_chemical_formula_structural   Cs2OsNO2F5
_chemical_formula_sum   'Cs4 Os2 N2 O4 F10'
_cell_volume   477.38506697
_cell_formula_units_Z   2
loop_
 _symmetry_equiv_pos_site_id
 _symmetry_equiv_pos_as_xyz
  1  'x, y, z'
loop_
 _atom_site_type_symbol
 _atom_site_label
 _atom_site_symmetry_multiplicity
 _atom_site_fract_x
 _atom_site_fract_y
 _atom_site_fract_z
 _atom_site_occupancy
  O  O0  1  -0.99778396  0.99778396  0.25000000  1.0
  O  O1  1  -0.00221604  1.00221604  0.75000000  1.0
  O  O2  1  -0.56922699  0.56922699  0.25000000  1.0
  O  O3  1  -0.43077301  1.43077301  0.75000000  1.0
  Os  Os4  1  -0.14396461  1.14396461  0.25000000  1.0
  Os  Os5  1  -0.85603539  0.85603539  0.75000000  1.0
  F  F6  1  -0.33306399  0.97345453  0.02979374  1.0
  F  F7  1  -0.33306399  0.97345453  0.47020626  1.0
  F  F8  1  -0.02654547  1.66693601  0.52979374  1.0
  F  F9  1  -0.02654547  1.66693601  0.97020626  1.0
  F  F10  1  0.02654547  1.33306399  0.02979374  1.0
  F  F11  1  0.02654547  1.33306399  0.47020626  1.0
  F  F12  1  -0.66693601  1.02654547  0.52979374  1.0
  F  F13  1  -0.66693601  1.02654547  0.97020626  1.0
  F  F14  1  -0.24215227  1.24215227  0.25000000  1.0
  F  F15  1  -0.75784773  0.75784773  0.75000000  1.0
  Cs  Cs16  1  -0.41499239  1.41499239  0.25000000  1.0
  Cs  Cs17  1  -0.58500761  0.58500761  0.75000000  1.0
  Cs  Cs18  1  -0.72971828  0.72971828  0.25000000  1.0
  Cs  Cs19  1  -0.27028172  1.27028172  0.75000000  1.0
  N  N20  1  -0.05672475  1.05672475  0.25000000  1.0
  N  N21  1  -0.94327525  0.94327525  0.75000000  1.0
