# generated using pymatgen
data_Fe2O2F5
_symmetry_space_group_name_H-M   'P 1'
_cell_length_a   7.35192019
_cell_length_b   7.35192019
_cell_length_c   7.35192019
_cell_angle_alpha   88.30413639
_cell_angle_beta   119.94118058
_cell_angle_gamma   122.03812208
_symmetry_Int_Tables_number   1
_chemical_formula_structural   Fe2O2F5
_chemical_formula_sum   'Fe4 O4 F10'
_cell_volume   276.53284990
_cell_formula_units_Z   2
loop_
 _symmetry_equiv_pos_site_id
 _symmetry_equiv_pos_as_xyz
  1  'x, y, z'
loop_
 _atom_site_type_symbol
 _atom_site_label
 _atom_site_symmetry_multiplicity
 _atom_site_fract_x
 _atom_site_fract_y
 _atom_site_fract_z
 _atom_site_occupancy
  Fe  Fe0  1  1.00000000  1.00000000  1.00000000  1.0
  Fe  Fe1  1  0.50000000  0.00000000  0.50000000  1.0
  Fe  Fe2  1  1.00000000  1.00000000  0.50000000  1.0
  Fe  Fe3  1  1.00000000  0.50000000  1.00000000  1.0
  F  F4  1  1.34377868  1.09377868  1.25000000  1.0
  F  F5  1  1.65622132  0.90622132  0.75000000  1.0
  F  F6  1  0.87920213  0.94557195  0.19247425  1.0
  F  F7  1  0.74690230  0.31327213  0.69247425  1.0
  F  F8  1  0.74690230  1.05442805  0.43363017  1.0
  F  F9  1  0.87920213  0.68672787  0.93363017  1.0
  F  F10  1  1.25309770  0.94557195  0.56636983  1.0
  F  F11  1  1.12079787  0.31327213  1.06636983  1.0
  F  F12  1  1.12079787  1.05442805  0.80752575  1.0
  F  F13  1  1.25309770  0.68672787  1.30752575  1.0
  O  O14  1  1.21171984  0.65671499  0.94499515  1.0
  O  O15  1  1.78828016  1.73327531  1.44499515  1.0
  O  O16  1  1.78828016  1.34328501  1.05500485  1.0
  O  O17  1  1.21171984  1.26672469  1.55500485  1.0
