# generated using pymatgen
data_NiC4NCl3
_symmetry_space_group_name_H-M   'P 1'
_cell_length_a   8.59061557
_cell_length_b   8.59061557
_cell_length_c   5.75264692
_cell_angle_alpha   90.00000000
_cell_angle_beta   90.00000000
_cell_angle_gamma   120.00000000
_symmetry_Int_Tables_number   1
_chemical_formula_structural   NiC4NCl3
_chemical_formula_sum   'Ni2 C8 N2 Cl6'
_cell_volume   367.66045509
_cell_formula_units_Z   2
loop_
 _symmetry_equiv_pos_site_id
 _symmetry_equiv_pos_as_xyz
  1  'x, y, z'
loop_
 _atom_site_type_symbol
 _atom_site_label
 _atom_site_symmetry_multiplicity
 _atom_site_fract_x
 _atom_site_fract_y
 _atom_site_fract_z
 _atom_site_occupancy
  Cl  Cl0  1  0.79340230  0.00533885  0.27286693  1.0
  Cl  Cl1  1  0.21193655  0.20659770  0.27286693  1.0
  Cl  Cl2  1  0.99466115  0.78806345  0.27286693  1.0
  Cl  Cl3  1  0.20659770  0.99466115  0.77286693  1.0
  Cl  Cl4  1  0.78806345  0.79340230  0.77286693  1.0
  Cl  Cl5  1  0.00533885  0.21193655  0.77286693  1.0
  Ni  Ni6  1  0.00000000  0.00000000  0.52275397  1.0
  Ni  Ni7  1  0.00000000  0.00000000  0.02275397  1.0
  N  N8  1  0.66666667  0.33333333  0.91698831  1.0
  N  N9  1  0.33333333  0.66666667  0.41698831  1.0
  C  C10  1  0.60786712  0.19115659  0.73744548  1.0
  C  C11  1  0.58328947  0.39213288  0.73744548  1.0
  C  C12  1  0.80884341  0.41671053  0.73744548  1.0
  C  C13  1  0.39213288  0.80884341  0.23744548  1.0
  C  C14  1  0.41671053  0.60786712  0.23744548  1.0
  C  C15  1  0.19115659  0.58328947  0.23744548  1.0
  C  C16  1  0.66666667  0.33333333  0.55512051  1.0
  C  C17  1  0.33333333  0.66666667  0.05512051  1.0
