# generated using pymatgen
data_Al17Mo4
_symmetry_space_group_name_H-M   'P 1'
_cell_length_a   5.21262831
_cell_length_b   5.21262831
_cell_length_c   28.94861969
_cell_angle_alpha   84.12491461
_cell_angle_beta   95.87508539
_cell_angle_gamma   123.46122700
_symmetry_Int_Tables_number   1
_chemical_formula_structural   Al17Mo4
_chemical_formula_sum   'Al34 Mo8'
_cell_volume   651.76231639
_cell_formula_units_Z   2
loop_
 _symmetry_equiv_pos_site_id
 _symmetry_equiv_pos_as_xyz
  1  'x, y, z'
loop_
 _atom_site_type_symbol
 _atom_site_label
 _atom_site_symmetry_multiplicity
 _atom_site_fract_x
 _atom_site_fract_y
 _atom_site_fract_z
 _atom_site_occupancy
  Al  Al0  1  1.30539607  -0.57376466  0.59396486  1.0
  Al  Al1  1  0.42623534  0.30539607  0.40603514  1.0
  Al  Al2  1  1.22960476  -0.51940725  0.69632306  1.0
  Al  Al3  1  0.48059275  0.22960476  0.30367694  1.0
  Al  Al4  1  0.84805806  -0.78477447  0.38003467  1.0
  Al  Al5  1  0.21522553  -0.15194194  0.61996533  1.0
  Al  Al6  1  1.17027080  0.53737947  0.88003854  1.0
  Al  Al7  1  1.53737947  0.17027080  0.11996146  1.0
  Al  Al8  1  1.12163711  0.57378551  0.97712532  1.0
  Al  Al9  1  1.57378551  0.12163711  0.02287468  1.0
  Al  Al10  1  0.81171094  -0.73612035  0.47713033  1.0
  Al  Al11  1  0.26387965  -0.18828906  0.52286967  1.0
  Al  Al12  1  0.67096090  0.40720059  0.66399807  1.0
  Al  Al13  1  1.40720059  -0.32903910  0.33600193  1.0
  Al  Al14  1  0.68135541  0.42768654  0.75686396  1.0
  Al  Al15  1  1.42768654  -0.31864459  0.24313604  1.0
  Al  Al16  1  0.15590345  -0.09510946  0.80369428  1.0
  Al  Al17  1  0.90489054  -0.84409655  0.19630572  1.0
  Al  Al18  1  0.60327405  0.40851874  0.85570976  1.0
  Al  Al19  1  1.40851874  -0.39672595  0.14429024  1.0
  Al  Al20  1  0.08013242  -0.04075717  0.90603975  1.0
  Al  Al21  1  0.95924283  -0.91986758  0.09396025  1.0
  Al  Al22  1  0.55005660  0.48664781  0.95055185  1.0
  Al  Al23  1  1.48664781  -0.44994340  0.04944815  1.0
  Al  Al24  1  1.83545321  -0.10117807  0.54944750  1.0
  Al  Al25  1  0.89882193  0.83545321  0.45055250  1.0
  Al  Al26  1  1.78229604  -0.02300315  0.64427173  1.0
  Al  Al27  1  0.97699685  0.78229604  0.35572827  1.0
  Al  Al28  1  0.71456037  -0.02174557  0.83600609  1.0
  Al  Al29  1  0.97825443  -0.28543963  0.16399391  1.0
  Al  Al30  1  0.70409186  -0.04210859  0.74315150  1.0
  Al  Al31  1  0.95789141  -0.29590814  0.25684850  1.0
  Al  Al32  1  0.38360988  0.38360988  0.50000000  1.0
  Al  Al33  1  0.00185565  0.00185565  -0.00000000  1.0
  Mo  Mo34  1  1.22128755  0.44589895  0.79051796  1.0
  Mo  Mo35  1  1.44589895  0.22128755  0.20948204  1.0
  Mo  Mo36  1  0.93959601  -0.83579629  0.29051308  1.0
  Mo  Mo37  1  0.16420371  -0.06040399  0.70948692  1.0
  Mo  Mo38  1  0.74325184  0.33466255  0.57044250  1.0
  Mo  Mo39  1  1.33466255  -0.25674816  0.42955750  1.0
  Mo  Mo40  1  0.64222538  0.05079649  0.92954865  1.0
  Mo  Mo41  1  1.05079649  -0.35777462  0.07045135  1.0
