# generated using pymatgen
data_CsMnP(OF)3
_symmetry_space_group_name_H-M   'P 1'
_cell_length_a   7.79521811
_cell_length_b   10.10366666
_cell_length_c   7.80908066
_cell_angle_alpha   90.00000000
_cell_angle_beta   101.30892318
_cell_angle_gamma   90.00000000
_symmetry_Int_Tables_number   1
_chemical_formula_structural   CsMnP(OF)3
_chemical_formula_sum   'Cs4 Mn4 P4 O12 F12'
_cell_volume   603.10377904
_cell_formula_units_Z   4
loop_
 _symmetry_equiv_pos_site_id
 _symmetry_equiv_pos_as_xyz
  1  'x, y, z'
loop_
 _atom_site_type_symbol
 _atom_site_label
 _atom_site_symmetry_multiplicity
 _atom_site_fract_x
 _atom_site_fract_y
 _atom_site_fract_z
 _atom_site_occupancy
  Cs  Cs0  1  0.76501050  0.02922712  0.28771937  1.0
  Cs  Cs1  1  0.23498950  0.52922712  0.71228063  1.0
  Cs  Cs2  1  0.72757408  0.77978029  0.79405801  1.0
  Cs  Cs3  1  0.27242592  0.27978029  0.20594199  1.0
  Mn  Mn4  1  0.76472717  0.41054209  0.96990016  1.0
  Mn  Mn5  1  0.23527283  0.91054209  0.03009984  1.0
  Mn  Mn6  1  0.47818439  0.15239507  0.73021988  1.0
  Mn  Mn7  1  0.52181561  0.65239507  0.26978012  1.0
  P  P8  1  0.89119206  0.13422779  0.86149993  1.0
  P  P9  1  0.10880794  0.63422779  0.13850007  1.0
  P  P10  1  0.65952440  0.41656773  0.55802351  1.0
  P  P11  1  0.34047560  0.91656773  0.44197649  1.0
  O  O12  1  0.90974394  0.28619680  0.87036413  1.0
  O  O13  1  0.09025606  0.78619680  0.12963587  1.0
  O  O14  1  0.70222590  0.08464265  0.85373551  1.0
  O  O15  1  0.29777410  0.58464265  0.14626449  1.0
  O  O16  1  0.67440208  0.48463187  0.73832668  1.0
  O  O17  1  0.32559792  0.98463187  0.26167332  1.0
  O  O18  1  0.60950614  0.27137841  0.55017458  1.0
  O  O19  1  0.39049386  0.77137841  0.44982542  1.0
  O  O20  1  0.46365684  -0.00180150  0.58138604  1.0
  O  O21  1  0.53634316  0.49819850  0.41861396  1.0
  O  O22  1  0.01812548  0.05828444  0.99837234  1.0
  O  O23  1  0.98187452  0.55828444  0.00162766  1.0
  F  F24  1  0.93546289  0.09635670  0.67648376  1.0
  F  F25  1  0.06453711  0.59635670  0.32351624  1.0
  F  F26  1  0.85030108  0.42893347  0.51534245  1.0
  F  F27  1  0.14969892  0.92893347  0.48465755  1.0
  F  F28  1  0.82246747  0.32060999  0.17573505  1.0
  F  F29  1  0.17753253  0.82060999  0.82426495  1.0
  F  F30  1  0.50201631  0.29044316  0.89508018  1.0
  F  F31  1  0.49798369  0.79044316  0.10491982  1.0
  F  F32  1  0.36804017  0.03495261  0.93467177  1.0
  F  F33  1  0.63195983  0.53495261  0.06532823  1.0
  F  F34  1  0.27064568  0.22033131  0.61732907  1.0
  F  F35  1  0.72935432  0.72033131  0.38267093  1.0
