# generated using pymatgen
data_Y2C(NO)2
_symmetry_space_group_name_H-M   'P 1'
_cell_length_a   3.72484025
_cell_length_b   3.72484025
_cell_length_c   16.41730871
_cell_angle_alpha   90.00000000
_cell_angle_beta   90.00000000
_cell_angle_gamma   120.00000000
_symmetry_Int_Tables_number   1
_chemical_formula_structural   Y2C(NO)2
_chemical_formula_sum   'Y4 C2 N4 O4'
_cell_volume   197.26402874
_cell_formula_units_Z   2
loop_
 _symmetry_equiv_pos_site_id
 _symmetry_equiv_pos_as_xyz
  1  'x, y, z'
loop_
 _atom_site_type_symbol
 _atom_site_label
 _atom_site_symmetry_multiplicity
 _atom_site_fract_x
 _atom_site_fract_y
 _atom_site_fract_z
 _atom_site_occupancy
  Y  Y0  1  0.33333333  0.66666667  0.41146129  1.0
  Y  Y1  1  0.33333333  0.66666667  0.08853871  1.0
  Y  Y2  1  0.66666667  0.33333333  0.91146129  1.0
  Y  Y3  1  0.66666667  0.33333333  0.58853871  1.0
  C  C4  1  0.00000000  0.00000000  0.25000000  1.0
  C  C5  1  0.00000000  0.00000000  0.75000000  1.0
  N  N6  1  0.00000000  0.00000000  0.32519265  1.0
  N  N7  1  0.00000000  0.00000000  0.17480735  1.0
  N  N8  1  0.00000000  0.00000000  0.82519265  1.0
  N  N9  1  0.00000000  0.00000000  0.67480735  1.0
  O  O10  1  0.33333333  0.66666667  0.94828796  1.0
  O  O11  1  0.33333333  0.66666667  0.55171204  1.0
  O  O12  1  0.66666667  0.33333333  0.44828796  1.0
  O  O13  1  0.66666667  0.33333333  0.05171204  1.0
