# generated using pymatgen
data_K2AlSO4F3
_symmetry_space_group_name_H-M   'P 1'
_cell_length_a   11.07653480
_cell_length_b   8.50900902
_cell_length_c   6.97579572
_cell_angle_alpha   90.00000000
_cell_angle_beta   90.00000000
_cell_angle_gamma   90.00000000
_symmetry_Int_Tables_number   1
_chemical_formula_structural   K2AlSO4F3
_chemical_formula_sum   'K8 Al4 S4 O16 F12'
_cell_volume   657.47108053
_cell_formula_units_Z   4
loop_
 _symmetry_equiv_pos_site_id
 _symmetry_equiv_pos_as_xyz
  1  'x, y, z'
loop_
 _atom_site_type_symbol
 _atom_site_label
 _atom_site_symmetry_multiplicity
 _atom_site_fract_x
 _atom_site_fract_y
 _atom_site_fract_z
 _atom_site_occupancy
  K  K0  1  0.69890163  0.83000181  0.80724669  1.0
  K  K1  1  0.69890163  0.16999819  0.30724669  1.0
  K  K2  1  0.19890163  0.33000181  0.69275331  1.0
  K  K3  1  0.19890163  0.66999819  0.19275331  1.0
  K  K4  1  0.30109837  0.83000181  0.69275331  1.0
  K  K5  1  0.30109837  0.16999819  0.19275331  1.0
  K  K6  1  0.80109837  0.33000181  0.80724669  1.0
  K  K7  1  0.80109837  0.66999819  0.30724669  1.0
  Al  Al8  1  0.00000000  0.00000000  0.50000000  1.0
  Al  Al9  1  0.00000000  0.00000000  0.00000000  1.0
  Al  Al10  1  0.50000000  0.50000000  0.00000000  1.0
  Al  Al11  1  0.50000000  0.50000000  0.50000000  1.0
  S  S12  1  0.00000000  0.69303467  0.75000000  1.0
  S  S13  1  0.00000000  0.30696533  0.25000000  1.0
  S  S14  1  0.50000000  0.19303467  0.75000000  1.0
  S  S15  1  0.50000000  0.80696533  0.25000000  1.0
  O  O16  1  0.94720668  0.79839061  0.90587232  1.0
  O  O17  1  0.94720668  0.20160939  0.40587232  1.0
  O  O18  1  0.44720668  0.29839061  0.59412768  1.0
  O  O19  1  0.44720668  0.70160939  0.09412768  1.0
  O  O20  1  0.05279332  0.79839061  0.59412768  1.0
  O  O21  1  0.05279332  0.20160939  0.09412768  1.0
  O  O22  1  0.55279332  0.29839061  0.90587232  1.0
  O  O23  1  0.55279332  0.70160939  0.40587232  1.0
  O  O24  1  0.90032768  0.59859587  0.67143596  1.0
  O  O25  1  0.90032768  0.40140413  0.17143596  1.0
  O  O26  1  0.40032768  0.09859587  0.82856404  1.0
  O  O27  1  0.40032768  0.90140413  0.32856404  1.0
  O  O28  1  0.09967232  0.59859587  0.82856404  1.0
  O  O29  1  0.09967232  0.40140413  0.32856404  1.0
  O  O30  1  0.59967232  0.09859587  0.67143596  1.0
  O  O31  1  0.59967232  0.90140413  0.17143596  1.0
  F  F32  1  0.00000000  0.08452106  0.75000000  1.0
  F  F33  1  0.00000000  0.91547894  0.25000000  1.0
  F  F34  1  0.50000000  0.58452106  0.75000000  1.0
  F  F35  1  0.50000000  0.41547894  0.25000000  1.0
  F  F36  1  0.84450011  0.94619723  0.52167368  1.0
  F  F37  1  0.84450011  0.05380277  0.02167368  1.0
  F  F38  1  0.34450011  0.44619723  0.97832632  1.0
  F  F39  1  0.34450011  0.55380277  0.47832632  1.0
  F  F40  1  0.15549989  0.94619723  0.97832632  1.0
  F  F41  1  0.15549989  0.05380277  0.47832632  1.0
  F  F42  1  0.65549989  0.44619723  0.52167368  1.0
  F  F43  1  0.65549989  0.55380277  0.02167368  1.0
