# generated using pymatgen
data_YPS
_symmetry_space_group_name_H-M   'P 1'
_cell_length_a   5.35918817
_cell_length_b   5.32697241
_cell_length_c   16.76995277
_cell_angle_alpha   90.00000000
_cell_angle_beta   90.00000000
_cell_angle_gamma   90.00000000
_symmetry_Int_Tables_number   1
_chemical_formula_structural   YPS
_chemical_formula_sum   'Y8 P8 S8'
_cell_volume   478.75276182
_cell_formula_units_Z   8
loop_
 _symmetry_equiv_pos_site_id
 _symmetry_equiv_pos_as_xyz
  1  'x, y, z'
loop_
 _atom_site_type_symbol
 _atom_site_label
 _atom_site_symmetry_multiplicity
 _atom_site_fract_x
 _atom_site_fract_y
 _atom_site_fract_z
 _atom_site_occupancy
  Y  Y0  1  0.48634478  0.75000000  0.85388313  1.0
  Y  Y1  1  0.98634478  0.75000000  0.64611687  1.0
  Y  Y2  1  0.51365522  0.25000000  0.14611687  1.0
  Y  Y3  1  0.01365522  0.25000000  0.35388313  1.0
  Y  Y4  1  0.01582217  0.75000000  0.13845936  1.0
  Y  Y5  1  0.51582217  0.75000000  0.36154064  1.0
  Y  Y6  1  0.98417783  0.25000000  0.86154064  1.0
  Y  Y7  1  0.48417783  0.25000000  0.63845936  1.0
  P  P8  1  0.20799203  0.96374347  0.50275087  1.0
  P  P9  1  0.20799203  0.53625653  0.50275087  1.0
  P  P10  1  0.70799203  0.96374347  0.99724913  1.0
  P  P11  1  0.70799203  0.53625653  0.99724913  1.0
  P  P12  1  0.79200797  0.46374347  0.49724913  1.0
  P  P13  1  0.79200797  0.03625653  0.49724913  1.0
  P  P14  1  0.29200797  0.46374347  0.00275087  1.0
  P  P15  1  0.29200797  0.03625653  0.00275087  1.0
  S  S16  1  0.48942413  0.75000000  0.68436002  1.0
  S  S17  1  0.98942413  0.75000000  0.81563998  1.0
  S  S18  1  0.51057587  0.25000000  0.31563998  1.0
  S  S19  1  0.01057587  0.25000000  0.18436002  1.0
  S  S20  1  0.01475379  0.75000000  0.31130925  1.0
  S  S21  1  0.51475379  0.75000000  0.18869075  1.0
  S  S22  1  0.98524621  0.25000000  0.68869075  1.0
  S  S23  1  0.48524621  0.25000000  0.81130925  1.0
