# generated using pymatgen
data_Hf3Ge2
_symmetry_space_group_name_H-M   'P 1'
_cell_length_a   7.15891053
_cell_length_b   7.15891053
_cell_length_c   3.70173233
_cell_angle_alpha   90.00000000
_cell_angle_beta   90.00000000
_cell_angle_gamma   90.00000000
_symmetry_Int_Tables_number   1
_chemical_formula_structural   Hf3Ge2
_chemical_formula_sum   'Hf6 Ge4'
_cell_volume   189.71378180
_cell_formula_units_Z   2
loop_
 _symmetry_equiv_pos_site_id
 _symmetry_equiv_pos_as_xyz
  1  'x, y, z'
loop_
 _atom_site_type_symbol
 _atom_site_label
 _atom_site_symmetry_multiplicity
 _atom_site_fract_x
 _atom_site_fract_y
 _atom_site_fract_z
 _atom_site_occupancy
  Hf  Hf0  1  0.33003740  0.16996260  0.50000000  1.0
  Hf  Hf1  1  0.83003740  0.33003740  0.50000000  1.0
  Hf  Hf2  1  0.66996260  0.83003740  0.50000000  1.0
  Hf  Hf3  1  0.16996260  0.66996260  0.50000000  1.0
  Hf  Hf4  1  0.50000000  0.50000000  0.00000000  1.0
  Hf  Hf5  1  0.00000000  0.00000000  0.00000000  1.0
  Ge  Ge6  1  0.86905964  0.63094036  0.00000000  1.0
  Ge  Ge7  1  0.36905964  0.86905964  0.00000000  1.0
  Ge  Ge8  1  0.13094036  0.36905964  0.00000000  1.0
  Ge  Ge9  1  0.63094036  0.13094036  0.00000000  1.0
