# generated using pymatgen
data_SrZnPt
_symmetry_space_group_name_H-M   'P 1'
_cell_length_a   7.48335285
_cell_length_b   4.54762077
_cell_length_c   7.84673876
_cell_angle_alpha   90.00000000
_cell_angle_beta   90.00000000
_cell_angle_gamma   90.00000000
_symmetry_Int_Tables_number   1
_chemical_formula_structural   SrZnPt
_chemical_formula_sum   'Sr4 Zn4 Pt4'
_cell_volume   267.03590457
_cell_formula_units_Z   4
loop_
 _symmetry_equiv_pos_site_id
 _symmetry_equiv_pos_as_xyz
  1  'x, y, z'
loop_
 _atom_site_type_symbol
 _atom_site_label
 _atom_site_symmetry_multiplicity
 _atom_site_fract_x
 _atom_site_fract_y
 _atom_site_fract_z
 _atom_site_occupancy
  Sr  Sr0  1  0.99174124  0.75000000  0.69428615  1.0
  Sr  Sr1  1  0.49174124  0.75000000  0.80571385  1.0
  Sr  Sr2  1  0.00825876  0.25000000  0.30571385  1.0
  Sr  Sr3  1  0.50825876  0.25000000  0.19428615  1.0
  Zn  Zn4  1  0.83392186  0.75000000  0.08011602  1.0
  Zn  Zn5  1  0.33392186  0.75000000  0.41988398  1.0
  Zn  Zn6  1  0.16607814  0.25000000  0.91988398  1.0
  Zn  Zn7  1  0.66607814  0.25000000  0.58011602  1.0
  Pt  Pt8  1  0.70264992  0.75000000  0.40278137  1.0
  Pt  Pt9  1  0.20264992  0.75000000  0.09721863  1.0
  Pt  Pt10  1  0.29735008  0.25000000  0.59721863  1.0
  Pt  Pt11  1  0.79735008  0.25000000  0.90278137  1.0
