# generated using pymatgen
data_SrMgP2O7
_symmetry_space_group_name_H-M   'P 1'
_cell_length_a   5.29008975
_cell_length_b   8.40779072
_cell_length_c   14.12181365
_cell_angle_alpha   90.00000000
_cell_angle_beta   111.78319350
_cell_angle_gamma   90.00000000
_symmetry_Int_Tables_number   1
_chemical_formula_structural   SrMgP2O7
_chemical_formula_sum   'Sr4 Mg4 P8 O28'
_cell_volume   583.25922862
_cell_formula_units_Z   4
loop_
 _symmetry_equiv_pos_site_id
 _symmetry_equiv_pos_as_xyz
  1  'x, y, z'
loop_
 _atom_site_type_symbol
 _atom_site_label
 _atom_site_symmetry_multiplicity
 _atom_site_fract_x
 _atom_site_fract_y
 _atom_site_fract_z
 _atom_site_occupancy
  Sr  Sr0  1  0.93307430  0.61200011  0.19611366  1.0
  Sr  Sr1  1  0.93307430  0.88799989  0.69611366  1.0
  Sr  Sr2  1  0.06692570  0.11200011  0.30388634  1.0
  Sr  Sr3  1  0.06692570  0.38799989  0.80388634  1.0
  Mg  Mg4  1  0.67163289  0.82429724  0.37782867  1.0
  Mg  Mg5  1  0.67163289  0.67570276  0.87782867  1.0
  Mg  Mg6  1  0.32836711  0.32429724  0.12217133  1.0
  Mg  Mg7  1  0.32836711  0.17570276  0.62217133  1.0
  P  P8  1  0.67615638  0.18254354  0.47668160  1.0
  P  P9  1  0.67615638  0.31745646  0.97668160  1.0
  P  P10  1  0.32384362  0.68254354  0.02331840  1.0
  P  P11  1  0.32384362  0.81745646  0.52331840  1.0
  P  P12  1  0.61554739  0.42990968  0.32639345  1.0
  P  P13  1  0.61554739  0.07009032  0.82639345  1.0
  P  P14  1  0.38445261  0.92990968  0.17360655  1.0
  P  P15  1  0.38445261  0.57009032  0.67360655  1.0
  O  O16  1  0.91630151  0.36046395  0.07398640  1.0
  O  O17  1  0.91630151  0.13953605  0.57398640  1.0
  O  O18  1  0.08369849  0.86046395  0.42601360  1.0
  O  O19  1  0.08369849  0.63953605  0.92601360  1.0
  O  O20  1  0.75784341  0.35300781  0.43975622  1.0
  O  O21  1  0.75784341  0.14699219  0.93975622  1.0
  O  O22  1  0.24215659  0.85300781  0.06024378  1.0
  O  O23  1  0.24215659  0.64699219  0.56024378  1.0
  O  O24  1  0.71867099  0.34099326  0.25080721  1.0
  O  O25  1  0.71867099  0.15900674  0.75080721  1.0
  O  O26  1  0.28132901  0.84099326  0.24919279  1.0
  O  O27  1  0.28132901  0.65900674  0.74919279  1.0
  O  O28  1  0.63310317  0.06981448  0.38583768  1.0
  O  O29  1  0.63310317  0.43018552  0.88583768  1.0
  O  O30  1  0.36689683  0.56981448  0.11416232  1.0
  O  O31  1  0.36689683  0.93018552  0.61416232  1.0
  O  O32  1  0.40680116  0.20459603  0.49326665  1.0
  O  O33  1  0.40680116  0.29540397  0.99326665  1.0
  O  O34  1  0.59319884  0.70459603  0.00673335  1.0
  O  O35  1  0.59319884  0.79540397  0.50673335  1.0
  O  O36  1  0.28045229  0.10103526  0.16162299  1.0
  O  O37  1  0.28045229  0.39896474  0.66162299  1.0
  O  O38  1  0.71954771  0.60103526  0.33837701  1.0
  O  O39  1  0.71954771  0.89896474  0.83837701  1.0
  O  O40  1  0.30487736  0.40682372  0.28863736  1.0
  O  O41  1  0.30487736  0.09317628  0.78863736  1.0
  O  O42  1  0.69512264  0.90682372  0.21136264  1.0
  O  O43  1  0.69512264  0.59317628  0.71136264  1.0
