# generated using pymatgen
data_Ba5(RuO5)2
_symmetry_space_group_name_H-M   'P 1'
_cell_length_a   6.05754311
_cell_length_b   6.05754311
_cell_length_c   17.96434848
_cell_angle_alpha   90.00000000
_cell_angle_beta   90.00000000
_cell_angle_gamma   120.00000000
_symmetry_Int_Tables_number   1
_chemical_formula_structural   Ba5(RuO5)2
_chemical_formula_sum   'Ba10 Ru4 O20'
_cell_volume   570.86725125
_cell_formula_units_Z   2
loop_
 _symmetry_equiv_pos_site_id
 _symmetry_equiv_pos_as_xyz
  1  'x, y, z'
loop_
 _atom_site_type_symbol
 _atom_site_label
 _atom_site_symmetry_multiplicity
 _atom_site_fract_x
 _atom_site_fract_y
 _atom_site_fract_z
 _atom_site_occupancy
  Ba  Ba0  1  0.33333333  0.66666667  0.98390939  1.0
  Ba  Ba1  1  0.33333333  0.66666667  0.51609061  1.0
  Ba  Ba2  1  0.66666667  0.33333333  0.48390939  1.0
  Ba  Ba3  1  0.66666667  0.33333333  0.01609061  1.0
  Ba  Ba4  1  -0.00000000  -0.00000000  0.36397933  1.0
  Ba  Ba5  1  0.00000000  0.00000000  0.13602067  1.0
  Ba  Ba6  1  -0.00000000  -0.00000000  0.86397933  1.0
  Ba  Ba7  1  0.00000000  0.00000000  0.63602067  1.0
  Ba  Ba8  1  0.33333333  0.66666667  0.75000000  1.0
  Ba  Ba9  1  0.66666667  0.33333333  0.25000000  1.0
  Ru  Ru10  1  0.33333333  0.66666667  0.32737952  1.0
  Ru  Ru11  1  0.33333333  0.66666667  0.17262048  1.0
  Ru  Ru12  1  0.66666667  0.33333333  0.82737952  1.0
  Ru  Ru13  1  0.66666667  0.33333333  0.67262048  1.0
  O  O14  1  0.51244097  0.48755903  0.88404639  1.0
  O  O15  1  0.51244097  0.48755903  0.61595361  1.0
  O  O16  1  0.51244097  0.02488195  0.88404639  1.0
  O  O17  1  0.51244097  0.02488195  0.61595361  1.0
  O  O18  1  0.48755903  0.51244097  0.38404639  1.0
  O  O19  1  0.48755903  0.51244097  0.11595361  1.0
  O  O20  1  0.48755903  0.97511805  0.38404639  1.0
  O  O21  1  0.48755903  0.97511805  0.11595361  1.0
  O  O22  1  0.97511805  0.48755903  0.88404639  1.0
  O  O23  1  0.97511805  0.48755903  0.61595361  1.0
  O  O24  1  0.02488195  0.51244097  0.38404639  1.0
  O  O25  1  0.02488195  0.51244097  0.11595361  1.0
  O  O26  1  0.18721864  0.81278136  0.25000000  1.0
  O  O27  1  0.18721864  0.37443727  0.25000000  1.0
  O  O28  1  0.81278136  0.18721864  0.75000000  1.0
  O  O29  1  0.81278136  0.62556273  0.75000000  1.0
  O  O30  1  0.62556273  0.81278136  0.25000000  1.0
  O  O31  1  0.37443727  0.18721864  0.75000000  1.0
  O  O32  1  -0.00000000  -0.00000000  0.50000000  1.0
  O  O33  1  0.00000000  -0.00000000  0.00000000  1.0
