# generated using pymatgen
data_Li3GaN2
_symmetry_space_group_name_H-M   'P 1'
_cell_length_a   8.35103403
_cell_length_b   8.35103403
_cell_length_c   8.35103403
_cell_angle_alpha   109.47122063
_cell_angle_beta   109.47122063
_cell_angle_gamma   109.47122063
_symmetry_Int_Tables_number   1
_chemical_formula_structural   Li3GaN2
_chemical_formula_sum   'Li24 Ga8 N16'
_cell_volume   448.33110355
_cell_formula_units_Z   8
loop_
 _symmetry_equiv_pos_site_id
 _symmetry_equiv_pos_as_xyz
  1  'x, y, z'
loop_
 _atom_site_type_symbol
 _atom_site_label
 _atom_site_symmetry_multiplicity
 _atom_site_fract_x
 _atom_site_fract_y
 _atom_site_fract_z
 _atom_site_occupancy
  Li  Li0  1  0.73908562  0.76314611  0.23166111  1.0
  Li  Li1  1  0.23908562  1.00742451  0.97593951  1.0
  Li  Li2  1  1.03148500  0.50742451  1.26833889  1.0
  Li  Li3  1  1.53148500  1.26314611  1.52406049  1.0
  Li  Li4  1  1.47593951  1.46851500  1.73685389  1.0
  Li  Li5  1  0.97593951  0.23908562  1.00742451  1.0
  Li  Li6  1  0.23166111  0.73908562  0.76314611  1.0
  Li  Li7  1  0.73166111  0.96851500  0.49257549  1.0
  Li  Li8  1  1.50742451  1.26833889  1.03148500  1.0
  Li  Li9  1  1.00742451  0.97593951  1.23908562  1.0
  Li  Li10  1  1.73685389  1.47593951  1.46851500  1.0
  Li  Li11  1  1.23685389  0.76833889  1.26091438  1.0
  Li  Li12  1  0.96851500  1.49257549  0.73166111  1.0
  Li  Li13  1  0.46851500  0.73685389  0.47593951  1.0
  Li  Li14  1  1.26091438  1.23685389  1.76833889  1.0
  Li  Li15  1  1.76091438  0.99257549  1.02406049  1.0
  Li  Li16  1  1.76833889  1.26091438  1.23685389  1.0
  Li  Li17  1  1.26833889  1.03148500  1.50742451  1.0
  Li  Li18  1  0.52406049  0.53148500  0.26314611  1.0
  Li  Li19  1  1.02406049  1.76091438  0.99257549  1.0
  Li  Li20  1  0.26314611  0.52406049  0.53148500  1.0
  Li  Li21  1  0.76314611  1.23166111  0.73908562  1.0
  Li  Li22  1  0.49257549  0.73166111  0.96851500  1.0
  Li  Li23  1  0.99257549  1.02406049  0.76091438  1.0
  Ga  Ga24  1  0.76343598  1.50000000  1.00000000  1.0
  Ga  Ga25  1  1.26343598  1.26343598  1.26343598  1.0
  Ga  Ga26  1  1.00000000  0.76343598  1.50000000  1.0
  Ga  Ga27  1  1.50000000  1.00000000  1.23656402  1.0
  Ga  Ga28  1  1.00000000  1.23656402  1.50000000  1.0
  Ga  Ga29  1  0.50000000  1.00000000  0.76343598  1.0
  Ga  Ga30  1  1.23656402  0.50000000  1.00000000  1.0
  Ga  Ga31  1  0.73656402  0.73656402  0.73656402  1.0
  N  N32  1  0.77154159  0.52154159  0.25000000  1.0
  N  N33  1  1.27154159  1.02154159  1.25000000  1.0
  N  N34  1  0.75000000  0.72845841  0.97845841  1.0
  N  N35  1  1.25000000  1.27154159  1.02154159  1.0
  N  N36  1  0.25000000  0.77154159  0.52154159  1.0
  N  N37  1  0.75000000  1.22845841  0.47845841  1.0
  N  N38  1  0.52154159  1.25000000  0.77154159  1.0
  N  N39  1  1.02154159  1.25000000  1.27154159  1.0
  N  N40  1  0.97845841  0.75000000  0.72845841  1.0
  N  N41  1  1.47845841  0.75000000  1.22845841  1.0
  N  N42  1  1.22845841  0.47845841  0.75000000  1.0
  N  N43  1  0.72845841  0.97845841  0.75000000  1.0
  N  N44  1  1.00000000  0.50000000  1.00000000  1.0
  N  N45  1  0.50000000  0.50000000  0.50000000  1.0
  N  N46  1  1.00000000  1.00000000  1.50000000  1.0
  N  N47  1  1.50000000  1.00000000  1.00000000  1.0
