# generated using pymatgen
data_TlCl3
_symmetry_space_group_name_H-M   'P 1'
_cell_length_a   6.79290176
_cell_length_b   6.79290176
_cell_length_c   7.13646088
_cell_angle_alpha   81.18911554
_cell_angle_beta   98.81088446
_cell_angle_gamma   60.04406645
_symmetry_Int_Tables_number   1
_chemical_formula_structural   TlCl3
_chemical_formula_sum   'Tl2 Cl6'
_cell_volume   271.61088927
_cell_formula_units_Z   2
loop_
 _symmetry_equiv_pos_site_id
 _symmetry_equiv_pos_as_xyz
  1  'x, y, z'
loop_
 _atom_site_type_symbol
 _atom_site_label
 _atom_site_symmetry_multiplicity
 _atom_site_fract_x
 _atom_site_fract_y
 _atom_site_fract_z
 _atom_site_occupancy
  Tl  Tl0  1  0.83339516  -0.16660484  -0.00000000  1.0
  Tl  Tl1  1  0.16660484  0.16660484  0.00000000  1.0
  Cl  Cl2  1  0.42875300  -0.06716127  0.77799757  1.0
  Cl  Cl3  1  1.06716127  -0.42875300  0.77799757  1.0
  Cl  Cl4  1  0.93283873  -0.57124700  0.22200243  1.0
  Cl  Cl5  1  0.57124700  0.06716127  0.22200243  1.0
  Cl  Cl6  1  0.79089395  -0.79089395  0.77702978  1.0
  Cl  Cl7  1  0.20910605  -0.20910605  0.22297022  1.0
