# generated using pymatgen
data_Gd4Ti(SeO)4
_symmetry_space_group_name_H-M   'P 1'
_cell_length_a   8.21943979
_cell_length_b   8.21943979
_cell_length_c   9.78285874
_cell_angle_alpha   62.73226642
_cell_angle_beta   117.26773358
_cell_angle_gamma   153.45524119
_symmetry_Int_Tables_number   1
_chemical_formula_structural   Gd4Ti(SeO)4
_chemical_formula_sum   'Gd4 Ti1 Se4 O4'
_cell_volume   260.59412238
_cell_formula_units_Z   1
loop_
 _symmetry_equiv_pos_site_id
 _symmetry_equiv_pos_as_xyz
  1  'x, y, z'
loop_
 _atom_site_type_symbol
 _atom_site_label
 _atom_site_symmetry_multiplicity
 _atom_site_fract_x
 _atom_site_fract_y
 _atom_site_fract_z
 _atom_site_occupancy
  Gd  Gd0  1  0.77693978  0.22306022  0.67432773  1.0
  Gd  Gd1  1  1.22306022  -0.22306022  0.32567227  1.0
  Gd  Gd2  1  1.47557642  -0.47557642  0.66944871  1.0
  Gd  Gd3  1  0.52442358  0.47557642  0.33055129  1.0
  Ti  Ti4  1  0.00000000  0.00000000  0.00000000  1.0
  Se  Se5  1  0.88409606  -0.88409606  0.36844399  1.0
  Se  Se6  1  0.11590394  -0.11590394  0.63155601  1.0
  Se  Se7  1  0.37873111  -0.37873111  0.98266287  1.0
  Se  Se8  1  0.62126889  -0.62126889  0.01733713  1.0
  O  O9  1  0.94916437  -0.94916437  0.78026701  1.0
  O  O10  1  0.05083563  -0.05083563  0.21973299  1.0
  O  O11  1  0.68242654  0.31757346  0.40999537  1.0
  O  O12  1  1.31757346  -0.31757346  0.59000463  1.0
