# generated using pymatgen
data_CdI2
_symmetry_space_group_name_H-M   'P 1'
_cell_length_a   4.32780872
_cell_length_b   4.32780872
_cell_length_c   37.92597864
_cell_angle_alpha   90.00000000
_cell_angle_beta   90.00000000
_cell_angle_gamma   120.00000000
_symmetry_Int_Tables_number   1
_chemical_formula_structural   CdI2
_chemical_formula_sum   'Cd5 I10'
_cell_volume   615.18189173
_cell_formula_units_Z   5
loop_
 _symmetry_equiv_pos_site_id
 _symmetry_equiv_pos_as_xyz
  1  'x, y, z'
loop_
 _atom_site_type_symbol
 _atom_site_label
 _atom_site_symmetry_multiplicity
 _atom_site_fract_x
 _atom_site_fract_y
 _atom_site_fract_z
 _atom_site_occupancy
  Cd  Cd0  1  0.00000000  0.00000000  0.05002410  1.0
  Cd  Cd1  1  0.00000000  0.00000000  0.24999122  1.0
  Cd  Cd2  1  0.00000000  0.00000000  0.44996663  1.0
  Cd  Cd3  1  0.66666667  0.33333333  0.65002222  1.0
  Cd  Cd4  1  0.66666667  0.33333333  0.84996620  1.0
  I  I5  1  0.00000000  0.00000000  0.69535921  1.0
  I  I6  1  0.00000000  0.00000000  0.89530802  1.0
  I  I7  1  0.66666667  0.33333333  0.09536182  1.0
  I  I8  1  0.66666667  0.33333333  0.29533153  1.0
  I  I9  1  0.66666667  0.33333333  0.49530816  1.0
  I  I10  1  0.33333333  0.66666667  0.00470816  1.0
  I  I11  1  0.33333333  0.66666667  0.20466769  1.0
  I  I12  1  0.33333333  0.66666667  0.40463859  1.0
  I  I13  1  0.33333333  0.66666667  0.60470585  1.0
  I  I14  1  0.33333333  0.66666667  0.80464061  1.0
