# generated using pymatgen
data_GaSe3N2Cl5
_symmetry_space_group_name_H-M   'P 1'
_cell_length_a   9.78425820
_cell_length_b   11.32552264
_cell_length_c   15.35048730
_cell_angle_alpha   90.00000000
_cell_angle_beta   128.80911535
_cell_angle_gamma   90.00000000
_symmetry_Int_Tables_number   1
_chemical_formula_structural   GaSe3N2Cl5
_chemical_formula_sum   'Ga4 Se12 N8 Cl20'
_cell_volume   1325.49653160
_cell_formula_units_Z   4
loop_
 _symmetry_equiv_pos_site_id
 _symmetry_equiv_pos_as_xyz
  1  'x, y, z'
loop_
 _atom_site_type_symbol
 _atom_site_label
 _atom_site_symmetry_multiplicity
 _atom_site_fract_x
 _atom_site_fract_y
 _atom_site_fract_z
 _atom_site_occupancy
  Ga  Ga0  1  0.78957686  0.36766526  0.30817251  1.0
  Ga  Ga1  1  0.78957686  0.13233474  0.80817251  1.0
  Ga  Ga2  1  0.21042314  0.86766526  0.19182749  1.0
  Ga  Ga3  1  0.21042314  0.63233474  0.69182749  1.0
  Se  Se4  1  0.84907198  0.74738112  0.31306422  1.0
  Se  Se5  1  0.84907198  0.75261888  0.81306422  1.0
  Se  Se6  1  0.15092802  0.24738112  0.18693578  1.0
  Se  Se7  1  0.15092802  0.25261888  0.68693578  1.0
  Se  Se8  1  0.66438294  0.97666537  0.18662801  1.0
  Se  Se9  1  0.66438294  0.52333463  0.68662801  1.0
  Se  Se10  1  0.33561706  0.47666537  0.31337199  1.0
  Se  Se11  1  0.33561706  0.02333463  0.81337199  1.0
  Se  Se12  1  0.33943948  0.22736423  0.39381185  1.0
  Se  Se13  1  0.33943948  0.27263577  0.89381185  1.0
  Se  Se14  1  0.66056052  0.72736423  0.10618815  1.0
  Se  Se15  1  0.66056052  0.77263577  0.60618815  1.0
  N  N16  1  0.79872696  0.89704038  0.30954683  1.0
  N  N17  1  0.79872696  0.60295962  0.80954683  1.0
  N  N18  1  0.20127304  0.39704038  0.19045317  1.0
  N  N19  1  0.20127304  0.10295962  0.69045317  1.0
  N  N20  1  0.38665211  0.37774609  0.42116439  1.0
  N  N21  1  0.38665211  0.12225391  0.92116439  1.0
  N  N22  1  0.61334789  0.87774609  0.07883561  1.0
  N  N23  1  0.61334789  0.62225391  0.57883561  1.0
  Cl  Cl24  1  0.98243117  0.22373965  0.40070359  1.0
  Cl  Cl25  1  0.98243117  0.27626035  0.90070359  1.0
  Cl  Cl26  1  0.01756883  0.72373965  0.09929641  1.0
  Cl  Cl27  1  0.01756883  0.77626035  0.59929641  1.0
  Cl  Cl28  1  0.89090048  0.49104048  0.24684395  1.0
  Cl  Cl29  1  0.89090048  0.00895952  0.74684395  1.0
  Cl  Cl30  1  0.10909952  0.99104048  0.25315605  1.0
  Cl  Cl31  1  0.10909952  0.50895952  0.75315605  1.0
  Cl  Cl32  1  0.75418175  0.46777974  0.41558888  1.0
  Cl  Cl33  1  0.75418175  0.03222026  0.91558888  1.0
  Cl  Cl34  1  0.24581825  0.96777974  0.08441112  1.0
  Cl  Cl35  1  0.24581825  0.53222026  0.58441112  1.0
  Cl  Cl36  1  0.57761784  0.13912720  0.42574529  1.0
  Cl  Cl37  1  0.57761784  0.36087280  0.92574529  1.0
  Cl  Cl38  1  0.42238216  0.63912720  0.07425471  1.0
  Cl  Cl39  1  0.42238216  0.86087280  0.57425471  1.0
  Cl  Cl40  1  0.53740185  0.29059478  0.16679106  1.0
  Cl  Cl41  1  0.53740185  0.20940522  0.66679106  1.0
  Cl  Cl42  1  0.46259815  0.79059478  0.33320894  1.0
  Cl  Cl43  1  0.46259815  0.70940522  0.83320894  1.0
