# generated using pymatgen
data_Y5Pb3
_symmetry_space_group_name_H-M   'P 1'
_cell_length_a   9.05968569
_cell_length_b   9.05968569
_cell_length_c   6.64659680
_cell_angle_alpha   90.00000000
_cell_angle_beta   90.00000000
_cell_angle_gamma   120.00000000
_symmetry_Int_Tables_number   1
_chemical_formula_structural   Y5Pb3
_chemical_formula_sum   'Y10 Pb6'
_cell_volume   472.45040666
_cell_formula_units_Z   2
loop_
 _symmetry_equiv_pos_site_id
 _symmetry_equiv_pos_as_xyz
  1  'x, y, z'
loop_
 _atom_site_type_symbol
 _atom_site_label
 _atom_site_symmetry_multiplicity
 _atom_site_fract_x
 _atom_site_fract_y
 _atom_site_fract_z
 _atom_site_occupancy
  Y  Y0  1  0.76255168  0.76255168  0.25000000  1.0
  Y  Y1  1  0.76255168  0.00000000  0.75000000  1.0
  Y  Y2  1  -0.00000000  0.76255168  0.75000000  1.0
  Y  Y3  1  -0.00000000  0.23744832  0.25000000  1.0
  Y  Y4  1  0.23744832  0.23744832  0.75000000  1.0
  Y  Y5  1  0.23744832  -0.00000000  0.25000000  1.0
  Y  Y6  1  0.33333333  0.66666667  0.50000000  1.0
  Y  Y7  1  0.33333333  0.66666667  -0.00000000  1.0
  Y  Y8  1  0.66666667  0.33333333  0.50000000  1.0
  Y  Y9  1  0.66666667  0.33333333  -0.00000000  1.0
  Pb  Pb10  1  0.39460770  0.39460770  0.25000000  1.0
  Pb  Pb11  1  0.39460770  -0.00000000  0.75000000  1.0
  Pb  Pb12  1  -0.00000000  0.39460770  0.75000000  1.0
  Pb  Pb13  1  -0.00000000  0.60539230  0.25000000  1.0
  Pb  Pb14  1  0.60539230  0.60539230  0.75000000  1.0
  Pb  Pb15  1  0.60539230  0.00000000  0.25000000  1.0
