# generated using pymatgen
data_Ba3Mg(SiO4)2
_symmetry_space_group_name_H-M   'P 1'
_cell_length_a   9.82583795
_cell_length_b   9.82583795
_cell_length_c   7.35466627
_cell_angle_alpha   90.00000000
_cell_angle_beta   90.00000000
_cell_angle_gamma   120.00000000
_symmetry_Int_Tables_number   1
_chemical_formula_structural   Ba3Mg(SiO4)2
_chemical_formula_sum   'Ba9 Mg3 Si6 O24'
_cell_volume   614.94007626
_cell_formula_units_Z   3
loop_
 _symmetry_equiv_pos_site_id
 _symmetry_equiv_pos_as_xyz
  1  'x, y, z'
loop_
 _atom_site_type_symbol
 _atom_site_label
 _atom_site_symmetry_multiplicity
 _atom_site_fract_x
 _atom_site_fract_y
 _atom_site_fract_z
 _atom_site_occupancy
  Ba  Ba0  1  0.00320304  0.66851550  0.18156013  1.0
  Ba  Ba1  1  0.66851550  0.66531246  0.81843987  1.0
  Ba  Ba2  1  0.66531246  0.99679696  0.18156013  1.0
  Ba  Ba3  1  0.33148450  0.33468754  0.18156013  1.0
  Ba  Ba4  1  0.99679696  0.33148450  0.81843987  1.0
  Ba  Ba5  1  0.33468754  0.00320304  0.81843987  1.0
  Ba  Ba6  1  0.33333333  0.66666667  0.50660231  1.0
  Ba  Ba7  1  0.66666667  0.33333333  0.49339769  1.0
  Ba  Ba8  1  0.00000000  0.00000000  0.50000000  1.0
  Mg  Mg9  1  0.33333333  0.66666667  0.01640755  1.0
  Mg  Mg10  1  0.66666667  0.33333333  0.98359245  1.0
  Mg  Mg11  1  0.00000000  0.00000000  0.00000000  1.0
  Si  Si12  1  0.67157033  0.66171475  0.25745845  1.0
  Si  Si13  1  0.66171475  0.99014442  0.74254155  1.0
  Si  Si14  1  0.99014442  0.32842967  0.25745845  1.0
  Si  Si15  1  0.33828525  0.00985558  0.25745845  1.0
  Si  Si16  1  0.32842967  0.33828525  0.74254155  1.0
  Si  Si17  1  0.00985558  0.67157033  0.74254155  1.0
  O  O18  1  0.17444776  0.99891679  0.17625462  1.0
  O  O19  1  0.99891679  0.82446903  0.82374538  1.0
  O  O20  1  0.82446903  0.82555224  0.17625462  1.0
  O  O21  1  0.00108321  0.17553097  0.17625462  1.0
  O  O22  1  0.82555224  0.00108321  0.82374538  1.0
  O  O23  1  0.17553097  0.17444776  0.82374538  1.0
  O  O24  1  0.33462041  0.84386391  0.20162020  1.0
  O  O25  1  0.84386391  0.50924350  0.79837980  1.0
  O  O26  1  0.50924350  0.66537959  0.20162020  1.0
  O  O27  1  0.15613609  0.49075650  0.20162020  1.0
  O  O28  1  0.66537959  0.15613609  0.79837980  1.0
  O  O29  1  0.49075650  0.33462041  0.79837980  1.0
  O  O30  1  0.69417661  0.64188232  0.47260749  1.0
  O  O31  1  0.64188232  0.94770571  0.52739251  1.0
  O  O32  1  0.94770571  0.30582339  0.47260749  1.0
  O  O33  1  0.35811768  0.05229429  0.47260749  1.0
  O  O34  1  0.30582339  0.35811768  0.52739251  1.0
  O  O35  1  0.05229429  0.69417661  0.52739251  1.0
  O  O36  1  0.66561736  0.50957273  0.14795989  1.0
  O  O37  1  0.50957273  0.84395537  0.85204011  1.0
  O  O38  1  0.84395537  0.33438264  0.14795989  1.0
  O  O39  1  0.49042727  0.15604463  0.14795989  1.0
  O  O40  1  0.33438264  0.49042727  0.85204011  1.0
  O  O41  1  0.15604463  0.66561736  0.85204011  1.0
