# generated using pymatgen
data_Fe3Pt
_symmetry_space_group_name_H-M   'P 1'
_cell_length_a   5.19600496
_cell_length_b   5.19600496
_cell_length_c   5.19600496
_cell_angle_alpha   115.06308195
_cell_angle_beta   115.06308195
_cell_angle_gamma   98.78738909
_symmetry_Int_Tables_number   1
_chemical_formula_structural   Fe3Pt
_chemical_formula_sum   'Fe6 Pt2'
_cell_volume   105.25356156
_cell_formula_units_Z   2
loop_
 _symmetry_equiv_pos_site_id
 _symmetry_equiv_pos_as_xyz
  1  'x, y, z'
loop_
 _atom_site_type_symbol
 _atom_site_label
 _atom_site_symmetry_multiplicity
 _atom_site_fract_x
 _atom_site_fract_y
 _atom_site_fract_z
 _atom_site_occupancy
  Fe  Fe0  1  0.24993993  0.24993993  0.00000000  1.0
  Fe  Fe1  1  0.75006007  0.75006007  -0.00000000  1.0
  Fe  Fe2  1  0.74997290  0.74997290  0.49994579  1.0
  Fe  Fe3  1  0.25002710  0.25002710  0.50005421  1.0
  Fe  Fe4  1  0.74997290  1.25002710  1.00000000  1.0
  Fe  Fe5  1  1.25002710  0.74997290  1.00000000  1.0
  Pt  Pt6  1  0.75000000  1.25000000  0.50000000  1.0
  Pt  Pt7  1  1.25000000  0.75000000  0.50000000  1.0
