# generated using pymatgen
data_Sc5Re2C7
_symmetry_space_group_name_H-M   'P 1'
_cell_length_a   7.88062335
_cell_length_b   7.88062335
_cell_length_c   3.21944690
_cell_angle_alpha   90.00000000
_cell_angle_beta   90.00000000
_cell_angle_gamma   120.66064914
_symmetry_Int_Tables_number   1
_chemical_formula_structural   Sc5Re2C7
_chemical_formula_sum   'Sc5 Re2 C7'
_cell_volume   171.99000746
_cell_formula_units_Z   1
loop_
 _symmetry_equiv_pos_site_id
 _symmetry_equiv_pos_as_xyz
  1  'x, y, z'
loop_
 _atom_site_type_symbol
 _atom_site_label
 _atom_site_symmetry_multiplicity
 _atom_site_fract_x
 _atom_site_fract_y
 _atom_site_fract_z
 _atom_site_occupancy
  Sc  Sc0  1  -0.08295317  0.66101369  0.50000000  1.0
  Sc  Sc1  1  0.66101369  0.91704683  0.50000000  1.0
  Sc  Sc2  1  0.33898631  1.08295317  0.50000000  1.0
  Sc  Sc3  1  0.08295317  0.33898631  0.50000000  1.0
  Sc  Sc4  1  0.50000000  0.50000000  0.00000000  1.0
  Re  Re5  1  0.28492159  0.71507841  0.00000000  1.0
  Re  Re6  1  -0.28492159  0.28492159  0.00000000  1.0
  C  C7  1  0.38102336  0.61897664  0.50000000  1.0
  C  C8  1  -0.38102336  0.38102336  0.50000000  1.0
  C  C9  1  0.82655358  0.82655358  0.00000000  1.0
  C  C10  1  0.17344642  0.17344642  0.00000000  1.0
  C  C11  1  0.00000000  0.50000000  0.00000000  1.0
  C  C12  1  0.50000000  1.00000000  0.00000000  1.0
  C  C13  1  0.00000000  0.00000000  0.00000000  1.0
