# generated using pymatgen
data_SrV2(PO5)2
_symmetry_space_group_name_H-M   'P 1'
_cell_length_a   8.85559430
_cell_length_b   7.07345921
_cell_length_c   10.09112611
_cell_angle_alpha   59.03879796
_cell_angle_beta   43.23135687
_cell_angle_gamma   77.72984518
_symmetry_Int_Tables_number   1
_chemical_formula_structural   SrV2(PO5)2
_chemical_formula_sum   'Sr2 V4 P4 O20'
_cell_volume   356.81086302
_cell_formula_units_Z   2
loop_
 _symmetry_equiv_pos_site_id
 _symmetry_equiv_pos_as_xyz
  1  'x, y, z'
loop_
 _atom_site_type_symbol
 _atom_site_label
 _atom_site_symmetry_multiplicity
 _atom_site_fract_x
 _atom_site_fract_y
 _atom_site_fract_z
 _atom_site_occupancy
  Sr  Sr0  1  0.99687329  -0.00312671  0.00312671  1.0
  Sr  Sr1  1  0.24687329  0.24687329  1.25312671  1.0
  V  V2  1  0.62272248  1.08143628  0.64029067  1.0
  V  V3  1  0.60970933  -0.40555057  0.62727752  1.0
  V  V4  1  1.08143628  -0.37727752  0.65555057  1.0
  V  V5  1  0.59444943  0.60970933  1.16856372  1.0
  P  P6  1  0.03234140  0.45241803  1.04762142  1.0
  P  P7  1  1.20237858  -0.21761916  0.21765860  1.0
  P  P8  1  0.45241803  0.03234140  1.46761916  1.0
  P  P9  1  0.78238084  1.20237858  0.79758197  1.0
  O  O10  1  0.41114318  0.57184785  1.42073439  1.0
  O  O11  1  0.82926561  -0.34627458  0.83885682  1.0
  O  O12  1  1.57184785  0.41114318  -0.40372542  1.0
  O  O13  1  0.65372542  -0.17073439  0.67815215  1.0
  O  O14  1  0.35060994  0.60876173  1.18551796  1.0
  O  O15  1  1.06448204  -0.60511036  0.89939006  1.0
  O  O16  1  1.60876173  0.35060994  -0.14488964  1.0
  O  O17  1  0.39488964  1.06448204  0.64123827  1.0
  O  O18  1  -0.15618781  0.16729337  1.62353469  1.0
  O  O19  1  0.62646531  -0.11535975  0.40618781  1.0
  O  O20  1  1.16729337  -0.15618781  0.36535975  1.0
  O  O21  1  0.88464025  0.62646531  1.08270663  1.0
  O  O22  1  -0.08786222  0.23882920  1.28607528  1.0
  O  O23  1  0.96392472  -0.31295774  0.33786222  1.0
  O  O24  1  1.23882920  -0.08786222  0.56295774  1.0
  O  O25  1  0.68704226  0.96392472  1.01117080  1.0
  O  O26  1  1.27549732  0.55167595  -0.08193068  1.0
  O  O27  1  0.33193068  0.99524259  0.97450268  1.0
  O  O28  1  0.55167595  0.27549732  1.25475741  1.0
  O  O29  1  0.99524259  -0.66806932  0.69832405  1.0
