# generated using pymatgen
data_SrMgAu
_symmetry_space_group_name_H-M   'P 1'
_cell_length_a   7.78952703
_cell_length_b   4.57579906
_cell_length_c   8.97097834
_cell_angle_alpha   90.00000000
_cell_angle_beta   90.00000000
_cell_angle_gamma   90.00000000
_symmetry_Int_Tables_number   1
_chemical_formula_structural   SrMgAu
_chemical_formula_sum   'Sr4 Mg4 Au4'
_cell_volume   319.75536581
_cell_formula_units_Z   4
loop_
 _symmetry_equiv_pos_site_id
 _symmetry_equiv_pos_as_xyz
  1  'x, y, z'
loop_
 _atom_site_type_symbol
 _atom_site_label
 _atom_site_symmetry_multiplicity
 _atom_site_fract_x
 _atom_site_fract_y
 _atom_site_fract_z
 _atom_site_occupancy
  Sr  Sr0  1  0.96707001  0.75000000  0.67728208  1.0
  Sr  Sr1  1  0.46707001  0.75000000  0.82271792  1.0
  Sr  Sr2  1  0.03292999  0.25000000  0.32271792  1.0
  Sr  Sr3  1  0.53292999  0.25000000  0.17728208  1.0
  Mg  Mg4  1  0.86341990  0.75000000  0.06019783  1.0
  Mg  Mg5  1  0.36341990  0.75000000  0.43980217  1.0
  Mg  Mg6  1  0.13658010  0.25000000  0.93980217  1.0
  Mg  Mg7  1  0.63658010  0.25000000  0.56019783  1.0
  Au  Au8  1  0.72456630  0.75000000  0.37835379  1.0
  Au  Au9  1  0.22456630  0.75000000  0.12164621  1.0
  Au  Au10  1  0.27543370  0.25000000  0.62164621  1.0
  Au  Au11  1  0.77543370  0.25000000  0.87835379  1.0
