# generated using pymatgen
data_Rb4CaBr6
_symmetry_space_group_name_H-M   'P 1'
_cell_length_a   9.53897288
_cell_length_b   9.53897288
_cell_length_c   9.53897288
_cell_angle_alpha   89.44215940
_cell_angle_beta   89.44215940
_cell_angle_gamma   89.44215940
_symmetry_Int_Tables_number   1
_chemical_formula_structural   Rb4CaBr6
_chemical_formula_sum   'Rb8 Ca2 Br12'
_cell_volume   867.84763602
_cell_formula_units_Z   2
loop_
 _symmetry_equiv_pos_site_id
 _symmetry_equiv_pos_as_xyz
  1  'x, y, z'
loop_
 _atom_site_type_symbol
 _atom_site_label
 _atom_site_symmetry_multiplicity
 _atom_site_fract_x
 _atom_site_fract_y
 _atom_site_fract_z
 _atom_site_occupancy
  Rb  Rb0  1  0.87539057  0.25000000  -0.37539057  1.0
  Rb  Rb1  1  0.37539057  0.12460943  -0.25000000  1.0
  Rb  Rb2  1  0.75000000  0.37539057  -0.87539057  1.0
  Rb  Rb3  1  0.25000000  0.62460943  -0.12460943  1.0
  Rb  Rb4  1  0.12460943  0.75000000  -0.62460943  1.0
  Rb  Rb5  1  0.62460943  -0.12460943  0.25000000  1.0
  Rb  Rb6  1  1.25000000  1.25000000  0.25000000  1.0
  Rb  Rb7  1  0.75000000  0.75000000  -0.25000000  1.0
  Ca  Ca8  1  0.50000000  0.50000000  -0.50000000  1.0
  Ca  Ca9  1  0.00000000  0.00000000  0.00000000  1.0
  Br  Br10  1  0.20830535  0.42844317  -0.44126168  1.0
  Br  Br11  1  0.70830535  0.05873832  -0.07155683  1.0
  Br  Br12  1  0.94126168  0.07155683  -0.70830535  1.0
  Br  Br13  1  0.44126168  0.79169465  -0.42844317  1.0
  Br  Br14  1  0.57155683  0.44126168  -0.20830535  1.0
  Br  Br15  1  1.07155683  -0.70830535  -0.05873832  1.0
  Br  Br16  1  0.79169465  0.57155683  -0.55873832  1.0
  Br  Br17  1  0.29169465  -0.05873832  0.07155683  1.0
  Br  Br18  1  0.55873832  0.20830535  -0.57155683  1.0
  Br  Br19  1  1.05873832  -0.07155683  -0.29169465  1.0
  Br  Br20  1  0.92844317  -0.29169465  0.05873832  1.0
  Br  Br21  1  0.42844317  0.55873832  -0.79169465  1.0
