# generated using pymatgen
data_La2AsI2
_symmetry_space_group_name_H-M   'P 1'
_cell_length_a   4.42149594
_cell_length_b   4.42149594
_cell_length_c   11.67620552
_cell_angle_alpha   90.00000000
_cell_angle_beta   90.00000000
_cell_angle_gamma   120.00000000
_symmetry_Int_Tables_number   1
_chemical_formula_structural   La2AsI2
_chemical_formula_sum   'La2 As1 I2'
_cell_volume   197.68368296
_cell_formula_units_Z   1
loop_
 _symmetry_equiv_pos_site_id
 _symmetry_equiv_pos_as_xyz
  1  'x, y, z'
loop_
 _atom_site_type_symbol
 _atom_site_label
 _atom_site_symmetry_multiplicity
 _atom_site_fract_x
 _atom_site_fract_y
 _atom_site_fract_z
 _atom_site_occupancy
  La  La0  1  0.33333333  0.66666667  0.14206387  1.0
  La  La1  1  0.66666667  0.33333333  0.85793613  1.0
  As  As2  1  0.00000000  0.00000000  -0.00000000  1.0
  I  I3  1  0.33333333  0.66666667  0.67838097  1.0
  I  I4  1  0.66666667  0.33333333  0.32161903  1.0
