# generated using pymatgen
data_Na4CoTeO6
_symmetry_space_group_name_H-M   'P 1'
_cell_length_a   5.77964016
_cell_length_b   9.72071192
_cell_length_c   5.59597885
_cell_angle_alpha   90.00000000
_cell_angle_beta   109.63158057
_cell_angle_gamma   90.00000000
_symmetry_Int_Tables_number   1
_chemical_formula_structural   Na4CoTeO6
_chemical_formula_sum   'Na8 Co2 Te2 O12'
_cell_volume   296.11950469
_cell_formula_units_Z   2
loop_
 _symmetry_equiv_pos_site_id
 _symmetry_equiv_pos_as_xyz
  1  'x, y, z'
loop_
 _atom_site_type_symbol
 _atom_site_label
 _atom_site_symmetry_multiplicity
 _atom_site_fract_x
 _atom_site_fract_y
 _atom_site_fract_z
 _atom_site_occupancy
  Te  Te0  1  0.50000000  0.74261899  0.25000000  1.0
  Te  Te1  1  0.50000000  0.25738101  0.75000000  1.0
  O  O2  1  0.69917068  0.72653549  0.00720648  1.0
  O  O3  1  0.30082932  0.72653549  0.49279352  1.0
  O  O4  1  0.30082932  0.27346451  0.99279352  1.0
  O  O5  1  0.69917068  0.27346451  0.50720648  1.0
  O  O6  1  0.27310983  0.88548471  0.03736475  1.0
  O  O7  1  0.72689017  0.88548471  0.46263525  1.0
  O  O8  1  0.72689017  0.11451529  0.96263525  1.0
  O  O9  1  0.27310983  0.11451529  0.53736475  1.0
  O  O10  1  0.29993472  0.58429453  0.02404011  1.0
  O  O11  1  0.70006528  0.58429453  0.47595989  1.0
  O  O12  1  0.70006528  0.41570547  0.97595989  1.0
  O  O13  1  0.29993472  0.41570547  0.52404011  1.0
  Co  Co14  1  0.50000000  0.41150486  0.25000000  1.0
  Co  Co15  1  0.50000000  0.58849514  0.75000000  1.0
  Na  Na16  1  0.50000000  0.91829267  0.75000000  1.0
  Na  Na17  1  0.50000000  0.08170733  0.25000000  1.0
  Na  Na18  1  -0.00000000  0.42914984  0.75000000  1.0
  Na  Na19  1  0.00000000  0.57085016  0.25000000  1.0
  Na  Na20  1  -0.00000000  0.73974966  0.75000000  1.0
  Na  Na21  1  0.00000000  0.26025034  0.25000000  1.0
  Na  Na22  1  0.00000000  0.91813740  0.25000000  1.0
  Na  Na23  1  -0.00000000  0.08186260  0.75000000  1.0
