# generated using pymatgen
data_Sm2(Al3Rh)3
_symmetry_space_group_name_H-M   'P 1'
_cell_length_a   7.57839768
_cell_length_b   7.57839768
_cell_length_c   9.64099216
_cell_angle_alpha   90.00000000
_cell_angle_beta   90.00000000
_cell_angle_gamma   60.82537388
_symmetry_Int_Tables_number   1
_chemical_formula_structural   Sm2(Al3Rh)3
_chemical_formula_sum   'Sm4 Al18 Rh6'
_cell_volume   483.45874884
_cell_formula_units_Z   2
loop_
 _symmetry_equiv_pos_site_id
 _symmetry_equiv_pos_as_xyz
  1  'x, y, z'
loop_
 _atom_site_type_symbol
 _atom_site_label
 _atom_site_symmetry_multiplicity
 _atom_site_fract_x
 _atom_site_fract_y
 _atom_site_fract_z
 _atom_site_occupancy
  Sm  Sm0  1  -0.00531206  0.32765920  0.75000000  1.0
  Sm  Sm1  1  -0.67234080  0.99468794  0.25000000  1.0
  Sm  Sm2  1  -0.32765920  1.00531206  0.75000000  1.0
  Sm  Sm3  1  0.00531206  0.67234080  0.25000000  1.0
  Al  Al4  1  0.00209834  0.66403168  0.92730529  1.0
  Al  Al5  1  0.00209834  0.66403168  0.57269471  1.0
  Al  Al6  1  -0.33596832  1.00209834  0.42730529  1.0
  Al  Al7  1  -0.33596832  1.00209834  0.07269471  1.0
  Al  Al8  1  -0.66403168  0.99790166  0.92730529  1.0
  Al  Al9  1  -0.66403168  0.99790166  0.57269471  1.0
  Al  Al10  1  -0.00209834  0.33596832  0.42730529  1.0
  Al  Al11  1  -0.00209834  0.33596832  0.07269471  1.0
  Al  Al12  1  0.33915002  0.45148640  0.75000000  1.0
  Al  Al13  1  -0.54851360  1.33915002  0.25000000  1.0
  Al  Al14  1  -0.45148640  0.66084998  0.75000000  1.0
  Al  Al15  1  -0.33915002  0.54851360  0.25000000  1.0
  Al  Al16  1  -0.66615185  0.66615185  0.45412104  1.0
  Al  Al17  1  -0.66615185  0.66615185  0.04587896  1.0
  Al  Al18  1  -0.33384815  0.33384815  0.95412104  1.0
  Al  Al19  1  -0.33384815  0.33384815  0.54587896  1.0
  Al  Al20  1  -0.86816662  0.86816662  0.75000000  1.0
  Al  Al21  1  -0.13183338  0.13183338  0.25000000  1.0
  Rh  Rh22  1  -0.32917700  0.67082300  0.00000000  1.0
  Rh  Rh23  1  -0.32917700  0.67082300  0.50000000  1.0
  Rh  Rh24  1  0.32917700  0.32917700  0.00000000  1.0
  Rh  Rh25  1  0.32917700  0.32917700  0.50000000  1.0
  Rh  Rh26  1  0.00000000  0.00000000  0.00000000  1.0
  Rh  Rh27  1  0.00000000  0.00000000  0.50000000  1.0
