# generated using pymatgen
data_H4CN5O
_symmetry_space_group_name_H-M   'P 1'
_cell_length_a   7.68134766
_cell_length_b   7.38584521
_cell_length_c   4.02648840
_cell_angle_alpha   95.78321330
_cell_angle_beta   99.81249658
_cell_angle_gamma   101.38852287
_symmetry_Int_Tables_number   1
_chemical_formula_structural   H4CN5O
_chemical_formula_sum   'H8 C2 N10 O2'
_cell_volume   218.51515230
_cell_formula_units_Z   2
loop_
 _symmetry_equiv_pos_site_id
 _symmetry_equiv_pos_as_xyz
  1  'x, y, z'
loop_
 _atom_site_type_symbol
 _atom_site_label
 _atom_site_symmetry_multiplicity
 _atom_site_fract_x
 _atom_site_fract_y
 _atom_site_fract_z
 _atom_site_occupancy
  H  H0  1  -0.68758119  -0.40930078  -0.83982330  1.0
  H  H1  1  -0.31241881  -0.59069922  -0.16017670  1.0
  H  H2  1  -0.69252573  -0.17089137  -0.76101832  1.0
  H  H3  1  -0.30747427  -0.82910863  -0.23898168  1.0
  H  H4  1  -0.93780061  -0.31514546  -0.64992068  1.0
  H  H5  1  -0.06219939  -0.68485454  -0.35007932  1.0
  H  H6  1  -0.43483703  -0.72771900  -0.53073174  1.0
  H  H7  1  -0.56516297  -0.27228100  -0.46926826  1.0
  C  C8  1  -0.91708950  -0.92966594  -0.98170083  1.0
  C  C9  1  -0.08291050  -0.07033406  -0.01829917  1.0
  N  N10  1  -0.26704094  -0.32595118  -1.00638536  1.0
  N  N11  1  -0.73295906  -0.67404882  0.00638536  1.0
  N  N12  1  -0.64053904  -0.78724897  -0.84703773  1.0
  N  N13  1  -0.35946096  -0.21275103  -0.15296227  1.0
  N  N14  1  -0.75216132  -0.94954563  -0.83685043  1.0
  N  N15  1  -0.24783868  -0.05045437  -0.16314957  1.0
  N  N16  1  -0.68420465  -0.29597230  -0.65824029  1.0
  N  N17  1  -0.31579535  -0.70402770  -0.34175971  1.0
  N  N18  1  -0.90738637  -0.76014876  -0.08254000  1.0
  N  N19  1  -0.09261363  -0.23985124  -0.91746000  1.0
  O  O20  1  -0.83055834  -0.34140203  -0.48806602  1.0
  O  O21  1  -0.16944166  -0.65859797  -0.51193398  1.0
