# generated using pymatgen
data_MgSeO3
_symmetry_space_group_name_H-M   'P 1'
_cell_length_a   5.98364625
_cell_length_b   7.77025579
_cell_length_c   5.06267334
_cell_angle_alpha   90.00000000
_cell_angle_beta   90.00000000
_cell_angle_gamma   90.00000000
_symmetry_Int_Tables_number   1
_chemical_formula_structural   MgSeO3
_chemical_formula_sum   'Mg4 Se4 O12'
_cell_volume   235.38627326
_cell_formula_units_Z   4
loop_
 _symmetry_equiv_pos_site_id
 _symmetry_equiv_pos_as_xyz
  1  'x, y, z'
loop_
 _atom_site_type_symbol
 _atom_site_label
 _atom_site_symmetry_multiplicity
 _atom_site_fract_x
 _atom_site_fract_y
 _atom_site_fract_z
 _atom_site_occupancy
  Mg  Mg0  1  0.50000000  0.00000000  0.50000000  1.0
  Mg  Mg1  1  0.50000000  0.50000000  0.50000000  1.0
  Mg  Mg2  1  0.00000000  0.00000000  0.00000000  1.0
  Mg  Mg3  1  0.00000000  0.50000000  0.00000000  1.0
  Se  Se4  1  0.47702303  0.75000000  0.01785344  1.0
  Se  Se5  1  0.97702303  0.75000000  0.48214656  1.0
  Se  Se6  1  0.52297697  0.25000000  0.98214656  1.0
  Se  Se7  1  0.02297697  0.25000000  0.51785344  1.0
  O  O8  1  0.31650990  0.92114775  0.14018574  1.0
  O  O9  1  0.31650990  0.57885225  0.14018574  1.0
  O  O10  1  0.81650990  0.92114775  0.35981426  1.0
  O  O11  1  0.81650990  0.57885225  0.35981426  1.0
  O  O12  1  0.68349010  0.42114775  0.85981426  1.0
  O  O13  1  0.68349010  0.07885225  0.85981426  1.0
  O  O14  1  0.18349010  0.42114775  0.64018574  1.0
  O  O15  1  0.18349010  0.07885225  0.64018574  1.0
  O  O16  1  0.42875558  0.75000000  0.67862871  1.0
  O  O17  1  0.92875558  0.75000000  0.82137129  1.0
  O  O18  1  0.57124442  0.25000000  0.32137129  1.0
  O  O19  1  0.07124442  0.25000000  0.17862871  1.0
