# generated using pymatgen
data_Sc2SiB2Rh5
_symmetry_space_group_name_H-M   'P 1'
_cell_length_a   9.15756141
_cell_length_b   9.15756141
_cell_length_c   3.11704215
_cell_angle_alpha   90.00000000
_cell_angle_beta   90.00000000
_cell_angle_gamma   90.00000000
_symmetry_Int_Tables_number   1
_chemical_formula_structural   Sc2SiB2Rh5
_chemical_formula_sum   'Sc4 Si2 B4 Rh10'
_cell_volume   261.39805689
_cell_formula_units_Z   2
loop_
 _symmetry_equiv_pos_site_id
 _symmetry_equiv_pos_as_xyz
  1  'x, y, z'
loop_
 _atom_site_type_symbol
 _atom_site_label
 _atom_site_symmetry_multiplicity
 _atom_site_fract_x
 _atom_site_fract_y
 _atom_site_fract_z
 _atom_site_occupancy
  Sc  Sc0  1  0.32542728  0.17457272  0.00000000  1.0
  Sc  Sc1  1  0.82542728  0.32542728  0.00000000  1.0
  Sc  Sc2  1  0.67457272  0.82542728  0.00000000  1.0
  Sc  Sc3  1  0.17457272  0.67457272  0.00000000  1.0
  Si  Si4  1  0.50000000  0.50000000  0.00000000  1.0
  Si  Si5  1  0.00000000  0.00000000  0.00000000  1.0
  B  B6  1  0.87589794  0.62410206  0.00000000  1.0
  B  B7  1  0.37589794  0.87589794  0.00000000  1.0
  B  B8  1  0.12410206  0.37589794  0.00000000  1.0
  B  B9  1  0.62410206  0.12410206  0.00000000  1.0
  Rh  Rh10  1  0.42913782  0.71245182  0.50000000  1.0
  Rh  Rh11  1  0.92913782  0.78754818  0.50000000  1.0
  Rh  Rh12  1  0.28754818  0.42913782  0.50000000  1.0
  Rh  Rh13  1  0.78754818  0.07086218  0.50000000  1.0
  Rh  Rh14  1  0.57086218  0.28754818  0.50000000  1.0
  Rh  Rh15  1  0.07086218  0.21245182  0.50000000  1.0
  Rh  Rh16  1  0.71245182  0.57086218  0.50000000  1.0
  Rh  Rh17  1  0.21245182  0.92913782  0.50000000  1.0
  Rh  Rh18  1  0.50000000  0.00000000  0.50000000  1.0
  Rh  Rh19  1  0.00000000  0.50000000  0.50000000  1.0
