# generated using pymatgen
data_Si3Tc5
_symmetry_space_group_name_H-M   'P 1'
_cell_length_a   7.09233254
_cell_length_b   7.09233254
_cell_length_c   7.09233254
_cell_angle_alpha   96.69427180
_cell_angle_beta   96.69427180
_cell_angle_gamma   140.07249317
_symmetry_Int_Tables_number   1
_chemical_formula_structural   Si3Tc5
_chemical_formula_sum   'Si6 Tc10'
_cell_volume   215.21115910
_cell_formula_units_Z   2
loop_
 _symmetry_equiv_pos_site_id
 _symmetry_equiv_pos_as_xyz
  1  'x, y, z'
loop_
 _atom_site_type_symbol
 _atom_site_label
 _atom_site_symmetry_multiplicity
 _atom_site_fract_x
 _atom_site_fract_y
 _atom_site_fract_z
 _atom_site_occupancy
  Si  Si0  1  0.82998471  0.32998471  1.15996941  1.0
  Si  Si1  1  0.67001529  0.82998471  0.50000000  1.0
  Si  Si2  1  1.32998471  1.17001529  1.50000000  1.0
  Si  Si3  1  0.17001529  0.67001529  0.84003059  1.0
  Si  Si4  1  0.25000000  0.25000000  -0.00000000  1.0
  Si  Si5  1  0.75000000  0.75000000  -0.00000000  1.0
  Tc  Tc6  1  0.27745008  0.42515201  0.70260209  1.0
  Tc  Tc7  1  1.22254992  0.92515201  1.14770193  1.0
  Tc  Tc8  1  0.92515201  0.77745008  1.70260209  1.0
  Tc  Tc9  1  0.57484799  1.27745008  0.85229807  1.0
  Tc  Tc10  1  0.77745008  1.07484799  0.85229807  1.0
  Tc  Tc11  1  0.72254992  0.57484799  1.29739791  1.0
  Tc  Tc12  1  1.42515201  0.72254992  1.14770193  1.0
  Tc  Tc13  1  0.07484799  0.22254992  0.29739791  1.0
  Tc  Tc14  1  0.75000000  1.25000000  0.50000000  1.0
  Tc  Tc15  1  0.25000000  0.75000000  0.50000000  1.0
