# generated using pymatgen
data_ZrSb2
_symmetry_space_group_name_H-M   'P 1'
_cell_length_a   7.49898805
_cell_length_b   4.03699623
_cell_length_c   9.69081780
_cell_angle_alpha   90.00000000
_cell_angle_beta   90.00000000
_cell_angle_gamma   90.00000000
_symmetry_Int_Tables_number   1
_chemical_formula_structural   ZrSb2
_chemical_formula_sum   'Zr4 Sb8'
_cell_volume   293.37387262
_cell_formula_units_Z   4
loop_
 _symmetry_equiv_pos_site_id
 _symmetry_equiv_pos_as_xyz
  1  'x, y, z'
loop_
 _atom_site_type_symbol
 _atom_site_label
 _atom_site_symmetry_multiplicity
 _atom_site_fract_x
 _atom_site_fract_y
 _atom_site_fract_z
 _atom_site_occupancy
  Zr  Zr0  1  0.75938174  0.75000000  0.33825237  1.0
  Zr  Zr1  1  0.25938174  0.75000000  0.16174763  1.0
  Zr  Zr2  1  0.24061826  0.25000000  0.66174763  1.0
  Zr  Zr3  1  0.74061826  0.25000000  0.83825237  1.0
  Sb  Sb4  1  0.93393820  0.75000000  0.64657520  1.0
  Sb  Sb5  1  0.43393820  0.75000000  0.85342480  1.0
  Sb  Sb6  1  0.06606180  0.25000000  0.35342480  1.0
  Sb  Sb7  1  0.56606180  0.25000000  0.14657520  1.0
  Sb  Sb8  1  0.86839414  0.75000000  0.04548536  1.0
  Sb  Sb9  1  0.36839414  0.75000000  0.45451464  1.0
  Sb  Sb10  1  0.13160586  0.25000000  0.95451464  1.0
  Sb  Sb11  1  0.63160586  0.25000000  0.54548536  1.0
