# generated using pymatgen
data_Sr2SnO4
_symmetry_space_group_name_H-M   'P 1'
_cell_length_a   6.96677797
_cell_length_b   6.96677797
_cell_length_c   6.96677797
_cell_angle_alpha   145.64277874
_cell_angle_beta   145.64277874
_cell_angle_gamma   49.37766254
_symmetry_Int_Tables_number   1
_chemical_formula_structural   Sr2SnO4
_chemical_formula_sum   'Sr2 Sn1 O4'
_cell_volume   107.20172305
_cell_formula_units_Z   1
loop_
 _symmetry_equiv_pos_site_id
 _symmetry_equiv_pos_as_xyz
  1  'x, y, z'
loop_
 _atom_site_type_symbol
 _atom_site_label
 _atom_site_symmetry_multiplicity
 _atom_site_fract_x
 _atom_site_fract_y
 _atom_site_fract_z
 _atom_site_occupancy
  Sr  Sr0  1  0.64619921  0.64619921  1.00000000  1.0
  Sr  Sr1  1  0.35380079  0.35380079  0.00000000  1.0
  Sn  Sn2  1  0.00000000  0.00000000  0.00000000  1.0
  O  O3  1  0.50000000  0.00000000  0.50000000  1.0
  O  O4  1  0.00000000  0.50000000  0.50000000  1.0
  O  O5  1  0.83545081  0.83545081  1.00000000  1.0
  O  O6  1  0.16454919  0.16454919  0.00000000  1.0
