# generated using pymatgen
data_Li6C
_symmetry_space_group_name_H-M   'P 1'
_cell_length_a   6.60171281
_cell_length_b   6.60171281
_cell_length_c   6.60171281
_cell_angle_alpha   35.64558557
_cell_angle_beta   35.64558557
_cell_angle_gamma   35.64558557
_symmetry_Int_Tables_number   1
_chemical_formula_structural   Li6C
_chemical_formula_sum   'Li6 C1'
_cell_volume   87.34544602
_cell_formula_units_Z   1
loop_
 _symmetry_equiv_pos_site_id
 _symmetry_equiv_pos_as_xyz
  1  'x, y, z'
loop_
 _atom_site_type_symbol
 _atom_site_label
 _atom_site_symmetry_multiplicity
 _atom_site_fract_x
 _atom_site_fract_y
 _atom_site_fract_z
 _atom_site_occupancy
  Li  Li0  1  0.79902428  -0.20097572  -0.20097572  1.0
  Li  Li1  1  0.20097572  0.20097572  0.20097572  1.0
  Li  Li2  1  0.61778044  0.61778044  -0.38221956  1.0
  Li  Li3  1  0.38221956  0.38221956  -0.61778044  1.0
  Li  Li4  1  0.91691613  -0.08308387  -0.08308387  1.0
  Li  Li5  1  0.08308387  0.08308387  0.08308387  1.0
  C  C6  1  0.50000000  0.50000000  -0.50000000  1.0
