# generated using pymatgen
data_Dy2Re3Si5
_symmetry_space_group_name_H-M   'P 1'
_cell_length_a   11.02403491
_cell_length_b   11.02403491
_cell_length_c   5.47996944
_cell_angle_alpha   90.00000000
_cell_angle_beta   90.00000000
_cell_angle_gamma   90.00000000
_symmetry_Int_Tables_number   1
_chemical_formula_structural   Dy2Re3Si5
_chemical_formula_sum   'Dy8 Re12 Si20'
_cell_volume   665.97710000
_cell_formula_units_Z   4
loop_
 _symmetry_equiv_pos_site_id
 _symmetry_equiv_pos_as_xyz
  1  'x, y, z'
loop_
 _atom_site_type_symbol
 _atom_site_label
 _atom_site_symmetry_multiplicity
 _atom_site_fract_x
 _atom_site_fract_y
 _atom_site_fract_z
 _atom_site_occupancy
  Dy  Dy0  1  0.23623910  0.92241972  0.50000000  1.0
  Dy  Dy1  1  0.73623910  0.57758028  0.00000000  1.0
  Dy  Dy2  1  0.07758028  0.23623910  0.50000000  1.0
  Dy  Dy3  1  0.57758028  0.26376090  0.00000000  1.0
  Dy  Dy4  1  0.76376090  0.07758028  0.50000000  1.0
  Dy  Dy5  1  0.26376090  0.42241972  0.00000000  1.0
  Dy  Dy6  1  0.92241972  0.76376090  0.50000000  1.0
  Dy  Dy7  1  0.42241972  0.73623910  0.00000000  1.0
  Re  Re8  1  0.35313577  0.62142581  0.50000000  1.0
  Re  Re9  1  0.85313577  0.87857419  0.00000000  1.0
  Re  Re10  1  0.37857419  0.35313577  0.50000000  1.0
  Re  Re11  1  0.87857419  0.14686423  0.00000000  1.0
  Re  Re12  1  0.64686423  0.37857419  0.50000000  1.0
  Re  Re13  1  0.14686423  0.12142581  0.00000000  1.0
  Re  Re14  1  0.62142581  0.64686423  0.50000000  1.0
  Re  Re15  1  0.12142581  0.85313577  0.00000000  1.0
  Re  Re16  1  0.50000000  0.00000000  0.25000000  1.0
  Re  Re17  1  0.50000000  0.00000000  0.75000000  1.0
  Re  Re18  1  0.00000000  0.50000000  0.75000000  1.0
  Re  Re19  1  0.00000000  0.50000000  0.25000000  1.0
  Si  Si20  1  0.47050551  0.81303362  0.50000000  1.0
  Si  Si21  1  0.97050551  0.68696638  0.00000000  1.0
  Si  Si22  1  0.18696638  0.47050551  0.50000000  1.0
  Si  Si23  1  0.68696638  0.02949449  0.00000000  1.0
  Si  Si24  1  0.52949449  0.18696638  0.50000000  1.0
  Si  Si25  1  0.02949449  0.31303362  0.00000000  1.0
  Si  Si26  1  0.81303362  0.52949449  0.50000000  1.0
  Si  Si27  1  0.31303362  0.97050551  0.00000000  1.0
  Si  Si28  1  0.32800496  0.17199504  0.25000000  1.0
  Si  Si29  1  0.32800496  0.17199504  0.75000000  1.0
  Si  Si30  1  0.82800496  0.32800496  0.75000000  1.0
  Si  Si31  1  0.82800496  0.32800496  0.25000000  1.0
  Si  Si32  1  0.67199504  0.82800496  0.25000000  1.0
  Si  Si33  1  0.67199504  0.82800496  0.75000000  1.0
  Si  Si34  1  0.17199504  0.67199504  0.75000000  1.0
  Si  Si35  1  0.17199504  0.67199504  0.25000000  1.0
  Si  Si36  1  0.50000000  0.50000000  0.23940965  1.0
  Si  Si37  1  0.50000000  0.50000000  0.76059035  1.0
  Si  Si38  1  0.00000000  0.00000000  0.73940965  1.0
  Si  Si39  1  0.00000000  0.00000000  0.26059035  1.0
