# generated using pymatgen
data_KBaPS4
_symmetry_space_group_name_H-M   'P 1'
_cell_length_a   12.36761041
_cell_length_b   6.78399995
_cell_length_c   9.80320423
_cell_angle_alpha   90.00000000
_cell_angle_beta   90.00000000
_cell_angle_gamma   90.00000000
_symmetry_Int_Tables_number   1
_chemical_formula_structural   KBaPS4
_chemical_formula_sum   'K4 Ba4 P4 S16'
_cell_volume   822.50715051
_cell_formula_units_Z   4
loop_
 _symmetry_equiv_pos_site_id
 _symmetry_equiv_pos_as_xyz
  1  'x, y, z'
loop_
 _atom_site_type_symbol
 _atom_site_label
 _atom_site_symmetry_multiplicity
 _atom_site_fract_x
 _atom_site_fract_y
 _atom_site_fract_z
 _atom_site_occupancy
  K  K0  1  0.12175619  0.75000000  0.16290551  1.0
  K  K1  1  0.62175619  0.75000000  0.33709449  1.0
  K  K2  1  0.87824381  0.25000000  0.83709449  1.0
  K  K3  1  0.37824381  0.25000000  0.66290551  1.0
  Ba  Ba4  1  0.14122477  0.75000000  0.61916867  1.0
  Ba  Ba5  1  0.64122477  0.75000000  0.88083133  1.0
  Ba  Ba6  1  0.85877523  0.25000000  0.38083133  1.0
  Ba  Ba7  1  0.35877523  0.25000000  0.11916867  1.0
  P  P8  1  0.32954910  0.75000000  0.89472806  1.0
  P  P9  1  0.82954910  0.75000000  0.60527194  1.0
  P  P10  1  0.67045090  0.25000000  0.10527194  1.0
  P  P11  1  0.17045090  0.25000000  0.39472806  1.0
  S  S12  1  0.23119036  0.99463874  0.89259148  1.0
  S  S13  1  0.23119036  0.50536126  0.89259148  1.0
  S  S14  1  0.73119036  0.99463874  0.60740852  1.0
  S  S15  1  0.73119036  0.50536126  0.60740852  1.0
  S  S16  1  0.76880964  0.49463874  0.10740852  1.0
  S  S17  1  0.76880964  0.00536126  0.10740852  1.0
  S  S18  1  0.26880964  0.49463874  0.39259148  1.0
  S  S19  1  0.26880964  0.00536126  0.39259148  1.0
  S  S20  1  0.41928127  0.75000000  0.71764300  1.0
  S  S21  1  0.91928127  0.75000000  0.78235700  1.0
  S  S22  1  0.58071873  0.25000000  0.28235700  1.0
  S  S23  1  0.08071873  0.25000000  0.21764300  1.0
  S  S24  1  0.42282283  0.75000000  0.06959711  1.0
  S  S25  1  0.92282283  0.75000000  0.43040289  1.0
  S  S26  1  0.57717717  0.25000000  0.93040289  1.0
  S  S27  1  0.07717717  0.25000000  0.56959711  1.0
