# generated using pymatgen
data_La2TiO5
_symmetry_space_group_name_H-M   'P 1'
_cell_length_a   11.07510503
_cell_length_b   3.93953208
_cell_length_c   11.55378720
_cell_angle_alpha   90.00000000
_cell_angle_beta   90.00000000
_cell_angle_gamma   90.00000000
_symmetry_Int_Tables_number   1
_chemical_formula_structural   La2TiO5
_chemical_formula_sum   'La8 Ti4 O20'
_cell_volume   504.10018811
_cell_formula_units_Z   4
loop_
 _symmetry_equiv_pos_site_id
 _symmetry_equiv_pos_as_xyz
  1  'x, y, z'
loop_
 _atom_site_type_symbol
 _atom_site_label
 _atom_site_symmetry_multiplicity
 _atom_site_fract_x
 _atom_site_fract_y
 _atom_site_fract_z
 _atom_site_occupancy
  La  La0  1  0.90195983  0.75000000  0.71701326  1.0
  La  La1  1  0.40195983  0.75000000  0.78298674  1.0
  La  La2  1  0.09804017  0.25000000  0.28298674  1.0
  La  La3  1  0.59804017  0.25000000  0.21701326  1.0
  La  La4  1  0.86295265  0.75000000  0.05877844  1.0
  La  La5  1  0.36295265  0.75000000  0.44122156  1.0
  La  La6  1  0.13704735  0.25000000  0.94122156  1.0
  La  La7  1  0.63704735  0.25000000  0.55877844  1.0
  Ti  Ti8  1  0.80865050  0.75000000  0.37263451  1.0
  Ti  Ti9  1  0.30865050  0.75000000  0.12736549  1.0
  Ti  Ti10  1  0.19134950  0.25000000  0.62736549  1.0
  Ti  Ti11  1  0.69134950  0.25000000  0.87263451  1.0
  O  O12  1  0.96442636  0.75000000  0.33339872  1.0
  O  O13  1  0.46442636  0.75000000  0.16660128  1.0
  O  O14  1  0.03557364  0.25000000  0.66660128  1.0
  O  O15  1  0.53557364  0.25000000  0.83339872  1.0
  O  O16  1  0.77425299  0.75000000  0.53324198  1.0
  O  O17  1  0.27425299  0.75000000  0.96675802  1.0
  O  O18  1  0.22574701  0.25000000  0.46675802  1.0
  O  O19  1  0.72574701  0.25000000  0.03324198  1.0
  O  O20  1  0.73815637  0.75000000  0.87603737  1.0
  O  O21  1  0.23815637  0.75000000  0.62396263  1.0
  O  O22  1  0.26184363  0.25000000  0.12396263  1.0
  O  O23  1  0.76184363  0.25000000  0.37603737  1.0
  O  O24  1  0.72179472  0.75000000  0.22964755  1.0
  O  O25  1  0.22179472  0.75000000  0.27035245  1.0
  O  O26  1  0.27820528  0.25000000  0.77035245  1.0
  O  O27  1  0.77820528  0.25000000  0.72964755  1.0
  O  O28  1  0.50840597  0.75000000  0.60233691  1.0
  O  O29  1  0.00840597  0.75000000  0.89766309  1.0
  O  O30  1  0.49159403  0.25000000  0.39766309  1.0
  O  O31  1  0.99159403  0.25000000  0.10233691  1.0
