# generated using pymatgen
data_Ag2SnHgSe4
_symmetry_space_group_name_H-M   'P 1'
_cell_length_a   8.59641584
_cell_length_b   7.55767453
_cell_length_c   7.15881011
_cell_angle_alpha   90.00000000
_cell_angle_beta   90.00000000
_cell_angle_gamma   90.00000000
_symmetry_Int_Tables_number   1
_chemical_formula_structural   Ag2SnHgSe4
_chemical_formula_sum   'Ag4 Sn2 Hg2 Se8'
_cell_volume   465.10011149
_cell_formula_units_Z   2
loop_
 _symmetry_equiv_pos_site_id
 _symmetry_equiv_pos_as_xyz
  1  'x, y, z'
loop_
 _atom_site_type_symbol
 _atom_site_label
 _atom_site_symmetry_multiplicity
 _atom_site_fract_x
 _atom_site_fract_y
 _atom_site_fract_z
 _atom_site_occupancy
  Ag  Ag0  1  0.24657744  0.17417400  0.01574204  1.0
  Ag  Ag1  1  0.74657744  0.82582600  0.51574204  1.0
  Ag  Ag2  1  0.75342256  0.17417400  0.01574204  1.0
  Ag  Ag3  1  0.25342256  0.82582600  0.51574204  1.0
  Sn  Sn4  1  0.50000000  0.33364270  0.50274006  1.0
  Sn  Sn5  1  0.00000000  0.66635730  0.00274006  1.0
  Hg  Hg6  1  0.50000000  0.65016348  -0.00159331  1.0
  Hg  Hg7  1  0.00000000  0.34983652  0.49840669  1.0
  Se  Se8  1  0.25619057  0.16084442  0.38605097  1.0
  Se  Se9  1  0.75619057  0.83915558  0.88605097  1.0
  Se  Se10  1  0.74380943  0.16084442  0.38605097  1.0
  Se  Se11  1  0.24380943  0.83915558  0.88605097  1.0
  Se  Se12  1  0.50000000  0.31823506  0.86642761  1.0
  Se  Se13  1  0.00000000  0.68176494  0.36642761  1.0
  Se  Se14  1  0.50000000  0.65608227  0.38133962  1.0
  Se  Se15  1  0.00000000  0.34391773  0.88133962  1.0
