# generated using pymatgen
data_KMnPO4
_symmetry_space_group_name_H-M   'P 1'
_cell_length_a   5.57284334
_cell_length_b   9.06145489
_cell_length_c   8.71466871
_cell_angle_alpha   88.70263323
_cell_angle_beta   88.12553178
_cell_angle_gamma   89.60060558
_symmetry_Int_Tables_number   1
_chemical_formula_structural   KMnPO4
_chemical_formula_sum   'K4 Mn4 P4 O16'
_cell_volume   439.71715016
_cell_formula_units_Z   4
loop_
 _symmetry_equiv_pos_site_id
 _symmetry_equiv_pos_as_xyz
  1  'x, y, z'
loop_
 _atom_site_type_symbol
 _atom_site_label
 _atom_site_symmetry_multiplicity
 _atom_site_fract_x
 _atom_site_fract_y
 _atom_site_fract_z
 _atom_site_occupancy
  K  K0  1  -0.77629639  -0.81698750  -0.49034296  1.0
  K  K1  1  -0.22370361  -0.18301250  -0.50965704  1.0
  K  K2  1  -0.75905626  -0.68207698  -1.00098779  1.0
  K  K3  1  -0.24094374  -0.31792302  0.00098779  1.0
  Mn  Mn4  1  -0.73516631  -0.09759969  -0.82020481  1.0
  Mn  Mn5  1  -0.26483369  -0.90240031  -0.17979519  1.0
  Mn  Mn6  1  -0.29922636  -0.57830292  -0.66361447  1.0
  Mn  Mn7  1  -0.70077364  -0.42169708  -0.33638553  1.0
  P  P8  1  -0.77808234  -0.44057130  -0.70294932  1.0
  P  P9  1  -0.22191766  -0.55942870  -0.29705068  1.0
  P  P10  1  -0.23531784  -0.90803380  -0.79711304  1.0
  P  P11  1  -0.76468216  -0.09196620  -0.20288696  1.0
  O  O12  1  -0.99410506  -0.51045259  -0.78417981  1.0
  O  O13  1  -0.00589494  -0.48954741  -0.21582019  1.0
  O  O14  1  -0.97433931  -0.94230440  -0.74321444  1.0
  O  O15  1  -0.02566069  -0.05769560  -0.25678556  1.0
  O  O16  1  -0.82445329  -0.27248335  -0.68009420  1.0
  O  O17  1  -0.17554671  -0.72751665  -0.31990580  1.0
  O  O18  1  -0.74239707  -0.52005775  -0.54377344  1.0
  O  O19  1  -0.25760293  -0.47994225  -0.45622656  1.0
  O  O20  1  -0.62010635  -0.94404052  -0.20729171  1.0
  O  O21  1  -0.37989365  -0.05595948  -0.79270829  1.0
  O  O22  1  -0.54356077  -0.46699921  -0.80206115  1.0
  O  O23  1  -0.45643923  -0.53300079  -0.19793885  1.0
  O  O24  1  -0.35898314  -0.79854771  -0.68333056  1.0
  O  O25  1  -0.64101686  -0.20145229  -0.31666944  1.0
  O  O26  1  -0.22375346  -0.83800746  -0.96201298  1.0
  O  O27  1  -0.77624654  -0.16199254  -0.03798702  1.0
