# generated using pymatgen
data_Rb2WSe4
_symmetry_space_group_name_H-M   'P 1'
_cell_length_a   10.35843249
_cell_length_b   7.41406674
_cell_length_c   13.15087388
_cell_angle_alpha   90.00000000
_cell_angle_beta   90.00000000
_cell_angle_gamma   90.00000000
_symmetry_Int_Tables_number   1
_chemical_formula_structural   Rb2WSe4
_chemical_formula_sum   'Rb8 W4 Se16'
_cell_volume   1009.96225630
_cell_formula_units_Z   4
loop_
 _symmetry_equiv_pos_site_id
 _symmetry_equiv_pos_as_xyz
  1  'x, y, z'
loop_
 _atom_site_type_symbol
 _atom_site_label
 _atom_site_symmetry_multiplicity
 _atom_site_fract_x
 _atom_site_fract_y
 _atom_site_fract_z
 _atom_site_occupancy
  Rb  Rb0  1  0.84597362  0.75000000  0.39052182  1.0
  Rb  Rb1  1  0.34597362  0.75000000  0.10947818  1.0
  Rb  Rb2  1  0.15402638  0.25000000  0.60947818  1.0
  Rb  Rb3  1  0.65402638  0.25000000  0.89052182  1.0
  Rb  Rb4  1  0.54405585  0.75000000  0.65958263  1.0
  Rb  Rb5  1  0.04405585  0.75000000  0.84041737  1.0
  Rb  Rb6  1  0.45594415  0.25000000  0.34041737  1.0
  Rb  Rb7  1  0.95594415  0.25000000  0.15958263  1.0
  W  W8  1  0.75142232  0.75000000  0.07137418  1.0
  W  W9  1  0.25142232  0.75000000  0.42862582  1.0
  W  W10  1  0.24857768  0.25000000  0.92862582  1.0
  W  W11  1  0.74857768  0.25000000  0.57137418  1.0
  Se  Se12  1  0.65376430  1.00448062  0.14149357  1.0
  Se  Se13  1  0.65376430  0.49551938  0.14149357  1.0
  Se  Se14  1  0.15376430  1.00448062  0.35850643  1.0
  Se  Se15  1  0.15376430  0.49551938  0.35850643  1.0
  Se  Se16  1  0.34623570  0.50448062  0.85850643  1.0
  Se  Se17  1  0.34623570  -0.00448062  0.85850643  1.0
  Se  Se18  1  0.84623570  0.50448062  0.64149357  1.0
  Se  Se19  1  0.84623570  -0.00448062  0.64149357  1.0
  Se  Se20  1  0.97266514  0.75000000  0.11055168  1.0
  Se  Se21  1  0.47266514  0.75000000  0.38944832  1.0
  Se  Se22  1  0.02733486  0.25000000  0.88944832  1.0
  Se  Se23  1  0.52733486  0.25000000  0.61055168  1.0
  Se  Se24  1  0.21795756  0.75000000  0.60459081  1.0
  Se  Se25  1  0.71795756  0.75000000  0.89540919  1.0
  Se  Se26  1  0.78204244  0.25000000  0.39540919  1.0
  Se  Se27  1  0.28204244  0.25000000  0.10459081  1.0
