# generated using pymatgen
data_CoO2
_symmetry_space_group_name_H-M   'P 1'
_cell_length_a   2.81465164
_cell_length_b   2.81465164
_cell_length_c   10.08796158
_cell_angle_alpha   90.00000000
_cell_angle_beta   90.00000000
_cell_angle_gamma   119.97632148
_symmetry_Int_Tables_number   1
_chemical_formula_structural   CoO2
_chemical_formula_sum   'Co2 O4'
_cell_volume   69.22881961
_cell_formula_units_Z   2
loop_
 _symmetry_equiv_pos_site_id
 _symmetry_equiv_pos_as_xyz
  1  'x, y, z'
loop_
 _atom_site_type_symbol
 _atom_site_label
 _atom_site_symmetry_multiplicity
 _atom_site_fract_x
 _atom_site_fract_y
 _atom_site_fract_z
 _atom_site_occupancy
  Co  Co0  1  0.50000000  0.50000000  0.50000000  1.0
  Co  Co1  1  0.00000000  0.00000000  0.00000000  1.0
  O  O2  1  -0.16663210  0.16663210  0.59245659  1.0
  O  O3  1  0.16663210  0.83336790  0.40754341  1.0
  O  O4  1  -0.33336790  0.33336790  0.09245659  1.0
  O  O5  1  0.33336790  0.66663210  0.90754341  1.0
