# generated using pymatgen
data_CsNb4Cl11
_symmetry_space_group_name_H-M   'P 1'
_cell_length_a   16.26626223
_cell_length_b   7.02755564
_cell_length_c   7.24199106
_cell_angle_alpha   90.00000000
_cell_angle_beta   90.00000000
_cell_angle_gamma   90.00000000
_symmetry_Int_Tables_number   1
_chemical_formula_structural   CsNb4Cl11
_chemical_formula_sum   'Cs2 Nb8 Cl22'
_cell_volume   827.84693749
_cell_formula_units_Z   2
loop_
 _symmetry_equiv_pos_site_id
 _symmetry_equiv_pos_as_xyz
  1  'x, y, z'
loop_
 _atom_site_type_symbol
 _atom_site_label
 _atom_site_symmetry_multiplicity
 _atom_site_fract_x
 _atom_site_fract_y
 _atom_site_fract_z
 _atom_site_occupancy
  Cs  Cs0  1  0.75000000  0.50000000  0.47376682  1.0
  Cs  Cs1  1  0.25000000  0.50000000  0.52623318  1.0
  Nb  Nb2  1  0.35880300  0.00000000  0.11531574  1.0
  Nb  Nb3  1  0.85880300  0.00000000  0.88468426  1.0
  Nb  Nb4  1  0.64119700  0.00000000  0.88468426  1.0
  Nb  Nb5  1  0.14119700  0.00000000  0.11531574  1.0
  Nb  Nb6  1  0.00000000  0.78676610  0.00000000  1.0
  Nb  Nb7  1  0.00000000  0.21323390  0.00000000  1.0
  Nb  Nb8  1  0.50000000  0.78676610  0.00000000  1.0
  Nb  Nb9  1  0.50000000  0.21323390  0.00000000  1.0
  Cl  Cl10  1  0.42252706  0.75048894  0.29714132  1.0
  Cl  Cl11  1  0.42252706  0.24951106  0.29714132  1.0
  Cl  Cl12  1  0.92252706  0.75048894  0.70285868  1.0
  Cl  Cl13  1  0.92252706  0.24951106  0.70285868  1.0
  Cl  Cl14  1  0.57747294  0.75048894  0.70285868  1.0
  Cl  Cl15  1  0.57747294  0.24951106  0.70285868  1.0
  Cl  Cl16  1  0.07747294  0.75048894  0.29714132  1.0
  Cl  Cl17  1  0.07747294  0.24951106  0.29714132  1.0
  Cl  Cl18  1  0.75000000  0.76973442  0.01283809  1.0
  Cl  Cl19  1  0.75000000  0.23026558  0.01283809  1.0
  Cl  Cl20  1  0.25000000  0.76973442  0.98716191  1.0
  Cl  Cl21  1  0.25000000  0.23026558  0.98716191  1.0
  Cl  Cl22  1  0.91737991  0.50000000  0.12770367  1.0
  Cl  Cl23  1  0.41737991  0.50000000  0.87229633  1.0
  Cl  Cl24  1  0.08262009  0.50000000  0.87229633  1.0
  Cl  Cl25  1  0.58262009  0.50000000  0.12770367  1.0
  Cl  Cl26  1  0.91446514  0.00000000  0.19820837  1.0
  Cl  Cl27  1  0.41446514  0.00000000  0.80179163  1.0
  Cl  Cl28  1  0.08553486  0.00000000  0.80179163  1.0
  Cl  Cl29  1  0.58553486  0.00000000  0.19820837  1.0
  Cl  Cl30  1  0.75000000  0.00000000  0.61693677  1.0
  Cl  Cl31  1  0.25000000  0.00000000  0.38306323  1.0
