# generated using pymatgen
data_AlFePO5
_symmetry_space_group_name_H-M   'P 1'
_cell_length_a   7.22889131
_cell_length_b   10.65164523
_cell_length_c   5.53951653
_cell_angle_alpha   90.00000000
_cell_angle_beta   98.50619261
_cell_angle_gamma   90.00000000
_symmetry_Int_Tables_number   1
_chemical_formula_structural   AlFePO5
_chemical_formula_sum   'Al4 Fe4 P4 O20'
_cell_volume   421.84848197
_cell_formula_units_Z   4
loop_
 _symmetry_equiv_pos_site_id
 _symmetry_equiv_pos_as_xyz
  1  'x, y, z'
loop_
 _atom_site_type_symbol
 _atom_site_label
 _atom_site_symmetry_multiplicity
 _atom_site_fract_x
 _atom_site_fract_y
 _atom_site_fract_z
 _atom_site_occupancy
  Al  Al0  1  0.64284287  0.82596316  0.95609299  1.0
  Al  Al1  1  0.64284287  0.67403684  0.45609299  1.0
  Al  Al2  1  0.35715713  0.32596316  0.54390701  1.0
  Al  Al3  1  0.35715713  0.17403684  0.04390701  1.0
  Fe  Fe4  1  0.98332668  0.64534733  0.89444834  1.0
  Fe  Fe5  1  0.98332668  0.85465267  0.39444834  1.0
  Fe  Fe6  1  0.01667332  0.14534733  0.60555166  1.0
  Fe  Fe7  1  0.01667332  0.35465267  0.10555166  1.0
  P  P8  1  0.77805645  0.40247409  0.56669505  1.0
  P  P9  1  0.77805645  0.09752591  0.06669505  1.0
  P  P10  1  0.22194355  0.90247409  0.93330495  1.0
  P  P11  1  0.22194355  0.59752591  0.43330495  1.0
  O  O12  1  0.91046127  0.18043689  0.93631008  1.0
  O  O13  1  0.91046127  0.31956311  0.43631008  1.0
  O  O14  1  0.08953873  0.68043689  0.56368992  1.0
  O  O15  1  0.08953873  0.81956311  0.06368992  1.0
  O  O16  1  0.88048331  0.44915564  0.81878105  1.0
  O  O17  1  0.88048331  0.05084436  0.31878105  1.0
  O  O18  1  0.11951669  0.94915564  0.68121895  1.0
  O  O19  1  0.11951669  0.55084436  0.18121895  1.0
  O  O20  1  0.73061472  0.71826800  0.75915413  1.0
  O  O21  1  0.73061472  0.78173200  0.25915413  1.0
  O  O22  1  0.26938528  0.21826800  0.74084587  1.0
  O  O23  1  0.26938528  0.28173200  0.24084587  1.0
  O  O24  1  0.71762437  0.98125707  0.90423977  1.0
  O  O25  1  0.71762437  0.51874293  0.40423977  1.0
  O  O26  1  0.28237563  0.48125707  0.59576023  1.0
  O  O27  1  0.28237563  0.01874293  0.09576023  1.0
  O  O28  1  0.39646998  0.82477477  0.89515457  1.0
  O  O29  1  0.39646998  0.67522523  0.39515457  1.0
  O  O30  1  0.60353002  0.32477477  0.60484543  1.0
  O  O31  1  0.60353002  0.17522523  0.10484543  1.0
