# generated using pymatgen
data_Cr20(WC2)3
_symmetry_space_group_name_H-M   'P 1'
_cell_length_a   7.55208098
_cell_length_b   7.55208098
_cell_length_c   7.55208098
_cell_angle_alpha   60.00000000
_cell_angle_beta   60.00000000
_cell_angle_gamma   60.00000000
_symmetry_Int_Tables_number   1
_chemical_formula_structural   Cr20(WC2)3
_chemical_formula_sum   'Cr20 W3 C6'
_cell_volume   304.56845226
_cell_formula_units_Z   1
loop_
 _symmetry_equiv_pos_site_id
 _symmetry_equiv_pos_as_xyz
  1  'x, y, z'
loop_
 _atom_site_type_symbol
 _atom_site_label
 _atom_site_symmetry_multiplicity
 _atom_site_fract_x
 _atom_site_fract_y
 _atom_site_fract_z
 _atom_site_occupancy
  Cr  Cr0  1  0.61506105  0.61506105  1.15481684  1.0
  Cr  Cr1  1  0.61506105  1.15481684  -0.38493895  1.0
  Cr  Cr2  1  1.15481684  0.61506105  0.61506105  1.0
  Cr  Cr3  1  0.61506105  0.61506105  -0.38493895  1.0
  Cr  Cr4  1  0.38493895  1.38493895  -0.15481684  1.0
  Cr  Cr5  1  1.38493895  -0.15481684  0.38493895  1.0
  Cr  Cr6  1  -0.15481684  1.38493895  0.38493895  1.0
  Cr  Cr7  1  1.38493895  0.38493895  0.38493895  1.0
  Cr  Cr8  1  -0.00000000  0.00000000  0.34449026  1.0
  Cr  Cr9  1  0.65550974  1.00000000  -0.65550974  1.0
  Cr  Cr10  1  1.00000000  0.65550974  -0.65550974  1.0
  Cr  Cr11  1  0.65550974  -0.65550974  1.00000000  1.0
  Cr  Cr12  1  0.00000000  1.34449026  -0.00000000  1.0
  Cr  Cr13  1  1.00000000  0.34449026  -0.34449026  1.0
  Cr  Cr14  1  0.34449026  -0.34449026  1.00000000  1.0
  Cr  Cr15  1  0.34449026  1.00000000  -0.34449026  1.0
  Cr  Cr16  1  1.34449026  0.00000000  -0.00000000  1.0
  Cr  Cr17  1  -0.00000000  0.00000000  0.65550974  1.0
  Cr  Cr18  1  -0.00000000  1.65550974  0.00000000  1.0
  Cr  Cr19  1  1.65550974  -0.00000000  0.00000000  1.0
  W  W20  1  0.00000000  0.00000000  0.00000000  1.0
  W  W21  1  0.75000000  0.75000000  -0.25000000  1.0
  W  W22  1  1.25000000  0.25000000  0.25000000  1.0
  C  C23  1  0.72528960  0.72528960  -0.72528960  1.0
  C  C24  1  0.27471040  -0.27471040  1.27471040  1.0
  C  C25  1  -0.27471040  0.27471040  0.27471040  1.0
  C  C26  1  0.27471040  1.27471040  -0.27471040  1.0
  C  C27  1  -0.27471040  0.27471040  0.72528960  1.0
  C  C28  1  -0.72528960  0.72528960  0.72528960  1.0
