# generated using pymatgen
data_KMnO4
_symmetry_space_group_name_H-M   'P 1'
_cell_length_a   9.18267328
_cell_length_b   5.93167502
_cell_length_c   7.55219363
_cell_angle_alpha   90.00000000
_cell_angle_beta   90.00000000
_cell_angle_gamma   90.00000000
_symmetry_Int_Tables_number   1
_chemical_formula_structural   KMnO4
_chemical_formula_sum   'K4 Mn4 O16'
_cell_volume   411.35766798
_cell_formula_units_Z   4
loop_
 _symmetry_equiv_pos_site_id
 _symmetry_equiv_pos_as_xyz
  1  'x, y, z'
loop_
 _atom_site_type_symbol
 _atom_site_label
 _atom_site_symmetry_multiplicity
 _atom_site_fract_x
 _atom_site_fract_y
 _atom_site_fract_z
 _atom_site_occupancy
  K  K0  1  0.31969119  0.75000000  0.15633851  1.0
  K  K1  1  0.81969119  0.75000000  0.34366149  1.0
  K  K2  1  0.68030881  0.25000000  0.84366149  1.0
  K  K3  1  0.18030881  0.25000000  0.65633851  1.0
  Mn  Mn4  1  0.44038664  0.75000000  0.68774339  1.0
  Mn  Mn5  1  0.94038664  0.75000000  0.81225661  1.0
  Mn  Mn6  1  0.55961336  0.25000000  0.31225661  1.0
  Mn  Mn7  1  0.05961336  0.25000000  0.18774339  1.0
  O  O8  1  0.42175106  0.97245374  0.80937936  1.0
  O  O9  1  0.42175106  0.52754626  0.80937936  1.0
  O  O10  1  0.92175106  0.97245374  0.69062064  1.0
  O  O11  1  0.92175106  0.52754626  0.69062064  1.0
  O  O12  1  0.57824894  0.47245374  0.19062064  1.0
  O  O13  1  0.57824894  0.02754626  0.19062064  1.0
  O  O14  1  0.07824894  0.47245374  0.30937936  1.0
  O  O15  1  0.07824894  0.02754626  0.30937936  1.0
  O  O16  1  0.31795567  0.75000000  0.53547272  1.0
  O  O17  1  0.81795567  0.75000000  0.96452728  1.0
  O  O18  1  0.68204433  0.25000000  0.46452728  1.0
  O  O19  1  0.18204433  0.25000000  0.03547272  1.0
  O  O20  1  0.09961513  0.75000000  0.90001731  1.0
  O  O21  1  0.59961513  0.75000000  0.59998269  1.0
  O  O22  1  0.90038487  0.25000000  0.09998269  1.0
  O  O23  1  0.40038487  0.25000000  0.40001731  1.0
