# generated using pymatgen
data_BaMg2Si2O7
_symmetry_space_group_name_H-M   'P 1'
_cell_length_a   7.44462656
_cell_length_b   7.44462656
_cell_length_c   13.81095067
_cell_angle_alpha   89.93202615
_cell_angle_beta   90.06797385
_cell_angle_gamma   59.63555710
_symmetry_Int_Tables_number   1
_chemical_formula_structural   BaMg2Si2O7
_chemical_formula_sum   'Ba4 Mg8 Si8 O28'
_cell_volume   660.43818114
_cell_formula_units_Z   4
loop_
 _symmetry_equiv_pos_site_id
 _symmetry_equiv_pos_as_xyz
  1  'x, y, z'
loop_
 _atom_site_type_symbol
 _atom_site_label
 _atom_site_symmetry_multiplicity
 _atom_site_fract_x
 _atom_site_fract_y
 _atom_site_fract_z
 _atom_site_occupancy
  Ba  Ba0  1  0.30661907  -0.27652575  0.87901976  1.0
  Ba  Ba1  1  1.27652575  -0.30661907  0.37901976  1.0
  Ba  Ba2  1  0.72347425  -0.69338093  0.62098024  1.0
  Ba  Ba3  1  0.69338093  0.27652575  0.12098024  1.0
  Mg  Mg4  1  0.69827405  -0.22829067  0.49255390  1.0
  Mg  Mg5  1  1.22829067  -0.69827405  0.99255390  1.0
  Mg  Mg6  1  0.77170933  -0.30172595  0.00744610  1.0
  Mg  Mg7  1  0.30172595  0.22829067  0.50744610  1.0
  Mg  Mg8  1  0.72821549  -0.27178451  0.75000000  1.0
  Mg  Mg9  1  0.27178451  0.27178451  0.25000000  1.0
  Mg  Mg10  1  0.26970159  0.26970159  0.75000000  1.0
  Mg  Mg11  1  0.73029841  -0.26970159  0.25000000  1.0
  Si  Si12  1  0.65979493  0.09037052  0.86738932  1.0
  Si  Si13  1  0.90962948  -0.65979493  0.36738932  1.0
  Si  Si14  1  1.09037052  -0.34020507  0.63261068  1.0
  Si  Si15  1  0.34020507  -0.09037052  0.13261068  1.0
  Si  Si16  1  0.28562342  -0.07264576  0.62083623  1.0
  Si  Si17  1  1.07264576  -0.28562342  0.12083623  1.0
  Si  Si18  1  0.92735424  -0.71437658  0.87916377  1.0
  Si  Si19  1  0.71437658  0.07264576  0.37916377  1.0
  O  O20  1  0.70823470  -0.14903960  0.88350634  1.0
  O  O21  1  1.14903960  -0.70823470  0.38350634  1.0
  O  O22  1  0.85096040  -0.29176530  0.61649366  1.0
  O  O23  1  0.29176530  0.14903960  0.11649366  1.0
  O  O24  1  0.89024344  0.08128040  0.87911695  1.0
  O  O25  1  0.91871960  -0.89024344  0.37911695  1.0
  O  O26  1  1.08128040  -0.10975656  0.62088305  1.0
  O  O27  1  0.10975656  -0.08128040  0.12088305  1.0
  O  O28  1  0.44572275  -0.21006643  0.70626542  1.0
  O  O29  1  1.21006643  -0.44572275  0.20626542  1.0
  O  O30  1  0.78993357  -0.55427725  0.79373458  1.0
  O  O31  1  0.55427725  0.21006643  0.29373458  1.0
  O  O32  1  0.60720735  0.11237314  0.48651917  1.0
  O  O33  1  0.88762686  -0.60720735  0.98651917  1.0
  O  O34  1  1.11237314  -0.39279265  0.01348083  1.0
  O  O35  1  0.39279265  -0.11237314  0.51348083  1.0
  O  O36  1  0.57494314  0.14882793  0.75557496  1.0
  O  O37  1  0.85117207  -0.57494314  0.25557496  1.0
  O  O38  1  1.14882793  -0.42505686  0.74442504  1.0
  O  O39  1  0.42505686  -0.14882793  0.24442504  1.0
  O  O40  1  0.50449564  0.26026152  0.94682407  1.0
  O  O41  1  0.73973848  -0.50449564  0.44682407  1.0
  O  O42  1  1.26026152  -0.49550436  0.55317593  1.0
  O  O43  1  0.49550436  -0.26026152  0.05317593  1.0
  O  O44  1  0.18185337  0.18009958  0.86642257  1.0
  O  O45  1  0.81990042  -0.18185337  0.36642257  1.0
  O  O46  1  1.18009958  -0.81814663  0.63357743  1.0
  O  O47  1  0.81814663  -0.18009958  0.13357743  1.0
