# generated using pymatgen
data_Ba(GaO2)2
_symmetry_space_group_name_H-M   'P 1'
_cell_length_a   5.37378967
_cell_length_b   5.37378968
_cell_length_c   9.20681888
_cell_angle_alpha   90.00000000
_cell_angle_beta   90.00000000
_cell_angle_gamma   120.00000000
_symmetry_Int_Tables_number   1
_chemical_formula_structural   Ba(GaO2)2
_chemical_formula_sum   'Ba2 Ga4 O8'
_cell_volume   230.25101883
_cell_formula_units_Z   2
loop_
 _symmetry_equiv_pos_site_id
 _symmetry_equiv_pos_as_xyz
  1  'x, y, z'
loop_
 _atom_site_type_symbol
 _atom_site_label
 _atom_site_symmetry_multiplicity
 _atom_site_fract_x
 _atom_site_fract_y
 _atom_site_fract_z
 _atom_site_occupancy
  Ba  Ba0  1  -0.00000000  0.00000000  0.25000000  1.0
  Ba  Ba1  1  -0.00000000  -0.00000000  0.75000000  1.0
  Ga  Ga2  1  0.33333333  0.66666667  0.04965362  1.0
  Ga  Ga3  1  0.33333333  0.66666667  0.45034638  1.0
  Ga  Ga4  1  0.66666667  0.33333333  0.95034638  1.0
  Ga  Ga5  1  0.66666667  0.33333333  0.54965362  1.0
  O  O6  1  0.67024636  0.67024636  0.00000000  1.0
  O  O7  1  0.67024636  0.00000000  0.50000000  1.0
  O  O8  1  -0.00000000  0.67024636  0.50000000  1.0
  O  O9  1  -0.00000000  0.32975364  0.00000000  1.0
  O  O10  1  0.32975364  0.32975364  0.50000000  1.0
  O  O11  1  0.32975364  -0.00000000  0.00000000  1.0
  O  O12  1  0.33333333  0.66666667  0.25000000  1.0
  O  O13  1  0.66666667  0.33333333  0.75000000  1.0
