# generated using pymatgen
data_Cs2Ti4O9
_symmetry_space_group_name_H-M   'P 1'
_cell_length_a   10.65619865
_cell_length_b   10.65619865
_cell_length_c   12.17466895
_cell_angle_alpha   71.54693988
_cell_angle_beta   108.45306012
_cell_angle_gamma   159.19614545
_symmetry_Int_Tables_number   1
_chemical_formula_structural   Cs2Ti4O9
_chemical_formula_sum   'Cs4 Ti8 O18'
_cell_volume   464.89733363
_cell_formula_units_Z   2
loop_
 _symmetry_equiv_pos_site_id
 _symmetry_equiv_pos_as_xyz
  1  'x, y, z'
loop_
 _atom_site_type_symbol
 _atom_site_label
 _atom_site_symmetry_multiplicity
 _atom_site_fract_x
 _atom_site_fract_y
 _atom_site_fract_z
 _atom_site_occupancy
  Cs  Cs0  1  0.51366128  0.48633872  0.83987216  1.0
  Cs  Cs1  1  0.48633872  -0.48633872  0.16012784  1.0
  Cs  Cs2  1  0.58957382  0.41042618  0.57545669  1.0
  Cs  Cs3  1  0.41042618  -0.41042618  0.42454331  1.0
  Ti  Ti4  1  0.20829473  -0.20829473  0.89537317  1.0
  Ti  Ti5  1  0.79170527  0.20829473  0.10462683  1.0
  Ti  Ti6  1  0.75288977  0.24711023  0.33363910  1.0
  Ti  Ti7  1  0.24711023  -0.24711023  0.66636090  1.0
  Ti  Ti8  1  0.82882339  0.17117661  0.88077250  1.0
  Ti  Ti9  1  0.17117661  -0.17117661  0.11922750  1.0
  Ti  Ti10  1  0.86347367  0.13652633  0.64734341  1.0
  Ti  Ti11  1  0.13652633  -0.13652633  0.35265659  1.0
  O  O12  1  0.82690536  0.17309464  0.26013048  1.0
  O  O13  1  0.17309464  -0.17309464  0.73986952  1.0
  O  O14  1  0.13601731  -0.13601731  0.95519397  1.0
  O  O15  1  0.86398269  0.13601731  0.04480603  1.0
  O  O16  1  0.30286041  -0.30286041  0.86298250  1.0
  O  O17  1  0.69713959  0.30286041  0.13701750  1.0
  O  O18  1  0.66103283  0.33896717  0.35096573  1.0
  O  O19  1  0.33896717  -0.33896717  0.64903427  1.0
  O  O20  1  0.76601437  0.23398563  0.70087289  1.0
  O  O21  1  0.23398563  -0.23398563  0.29912711  1.0
  O  O22  1  0.73192152  0.26807848  0.92073915  1.0
  O  O23  1  0.26807848  -0.26807848  0.07926085  1.0
  O  O24  1  0.89871998  0.10128002  0.82815884  1.0
  O  O25  1  0.10128002  -0.10128002  0.17184116  1.0
  O  O26  1  0.94320205  0.05679795  0.63431759  1.0
  O  O27  1  0.05679795  -0.05679795  0.36568241  1.0
  O  O28  1  0.80963099  0.19036901  0.47649396  1.0
  O  O29  1  0.19036901  -0.19036901  0.52350604  1.0
