# generated using pymatgen
data_LaFe8Si5
_symmetry_space_group_name_H-M   'P 1'
_cell_length_a   8.02578264
_cell_length_b   8.02578264
_cell_length_c   8.02578264
_cell_angle_alpha   120.92562231
_cell_angle_beta   120.92562231
_cell_angle_gamma   88.40411514
_symmetry_Int_Tables_number   1
_chemical_formula_structural   LaFe8Si5
_chemical_formula_sum   'La2 Fe16 Si10'
_cell_volume   360.28432771
_cell_formula_units_Z   2
loop_
 _symmetry_equiv_pos_site_id
 _symmetry_equiv_pos_as_xyz
  1  'x, y, z'
loop_
 _atom_site_type_symbol
 _atom_site_label
 _atom_site_symmetry_multiplicity
 _atom_site_fract_x
 _atom_site_fract_y
 _atom_site_fract_z
 _atom_site_occupancy
  Fe  Fe0  1  0.71251907  1.21251907  1.27432943  1.0
  Fe  Fe1  1  1.06181036  0.56181036  1.27432943  1.0
  Fe  Fe2  1  0.43818964  0.71251907  0.50000000  1.0
  Fe  Fe3  1  0.78748093  1.06181036  1.50000000  1.0
  Fe  Fe4  1  1.21251907  0.93818964  1.50000000  1.0
  Fe  Fe5  1  0.56181036  0.28748093  0.50000000  1.0
  Fe  Fe6  1  0.93818964  0.43818964  0.72567057  1.0
  Fe  Fe7  1  0.28748093  0.78748093  0.72567057  1.0
  Fe  Fe8  1  0.79723392  0.93981171  1.73704563  1.0
  Fe  Fe9  1  0.70276608  0.43981171  1.14257780  1.0
  Fe  Fe10  1  0.43981171  0.29723392  0.73704563  1.0
  Fe  Fe11  1  0.06018829  0.79723392  0.85742220  1.0
  Fe  Fe12  1  0.29723392  0.56018829  0.85742220  1.0
  Fe  Fe13  1  0.20276608  0.06018829  0.26295437  1.0
  Fe  Fe14  1  0.93981171  0.20276608  1.14257780  1.0
  Fe  Fe15  1  0.56018829  0.70276608  1.26295437  1.0
  Si  Si16  1  0.50000000  -0.00000000  0.50000000  1.0
  Si  Si17  1  -0.00000000  0.50000000  0.50000000  1.0
  Si  Si18  1  1.18890476  0.68890476  1.13471434  1.0
  Si  Si19  1  0.44580958  0.94580958  1.13471434  1.0
  Si  Si20  1  1.05419042  1.18890476  1.50000000  1.0
  Si  Si21  1  0.31109524  0.44580958  0.50000000  1.0
  Si  Si22  1  0.68890476  0.55419042  0.50000000  1.0
  Si  Si23  1  0.94580958  0.81109524  1.50000000  1.0
  Si  Si24  1  0.55419042  1.05419042  0.86528566  1.0
  Si  Si25  1  0.81109524  0.31109524  0.86528566  1.0
  La  La26  1  0.75000000  0.75000000  1.00000000  1.0
  La  La27  1  0.25000000  0.25000000  -0.00000000  1.0
