# generated using pymatgen
data_NbCr2
_symmetry_space_group_name_H-M   'P 1'
_cell_length_a   4.90897753
_cell_length_b   4.90897753
_cell_length_c   16.04360296
_cell_angle_alpha   90.00000000
_cell_angle_beta   90.00000000
_cell_angle_gamma   120.00000000
_symmetry_Int_Tables_number   1
_chemical_formula_structural   NbCr2
_chemical_formula_sum   'Nb8 Cr16'
_cell_volume   334.82249282
_cell_formula_units_Z   8
loop_
 _symmetry_equiv_pos_site_id
 _symmetry_equiv_pos_as_xyz
  1  'x, y, z'
loop_
 _atom_site_type_symbol
 _atom_site_label
 _atom_site_symmetry_multiplicity
 _atom_site_fract_x
 _atom_site_fract_y
 _atom_site_fract_z
 _atom_site_occupancy
  Nb  Nb0  1  0.00000000  0.00000000  0.40531657  1.0
  Nb  Nb1  1  0.00000000  0.00000000  0.59468343  1.0
  Nb  Nb2  1  0.00000000  0.00000000  0.90531657  1.0
  Nb  Nb3  1  0.00000000  0.00000000  0.09468343  1.0
  Nb  Nb4  1  0.33333333  0.66666667  0.65636452  1.0
  Nb  Nb5  1  0.66666667  0.33333333  0.34363548  1.0
  Nb  Nb6  1  0.66666667  0.33333333  0.15636452  1.0
  Nb  Nb7  1  0.33333333  0.66666667  0.84363548  1.0
  Cr  Cr8  1  0.33333333  0.66666667  0.37642403  1.0
  Cr  Cr9  1  0.66666667  0.33333333  0.62357597  1.0
  Cr  Cr10  1  0.66666667  0.33333333  0.87642403  1.0
  Cr  Cr11  1  0.33333333  0.66666667  0.12357597  1.0
  Cr  Cr12  1  0.50000000  0.50000000  0.50000000  1.0
  Cr  Cr13  1  0.50000000  0.00000000  0.50000000  1.0
  Cr  Cr14  1  0.00000000  0.50000000  0.50000000  1.0
  Cr  Cr15  1  0.50000000  0.50000000  0.00000000  1.0
  Cr  Cr16  1  0.50000000  0.00000000  0.00000000  1.0
  Cr  Cr17  1  0.00000000  0.50000000  0.00000000  1.0
  Cr  Cr18  1  0.16415877  0.83584123  0.25000000  1.0
  Cr  Cr19  1  0.16415877  0.32831755  0.25000000  1.0
  Cr  Cr20  1  0.67168245  0.83584123  0.25000000  1.0
  Cr  Cr21  1  0.83584123  0.16415877  0.75000000  1.0
  Cr  Cr22  1  0.83584123  0.67168245  0.75000000  1.0
  Cr  Cr23  1  0.32831755  0.16415877  0.75000000  1.0
