# generated using pymatgen
data_GdH9C5(NO4)2
_symmetry_space_group_name_H-M   'P 1'
_cell_length_a   6.82599619
_cell_length_b   6.82599619
_cell_length_c   6.64895757
_cell_angle_alpha   73.62056955
_cell_angle_beta   106.37943045
_cell_angle_gamma   115.03238917
_symmetry_Int_Tables_number   1
_chemical_formula_structural   GdH9C5(NO4)2
_chemical_formula_sum   'Gd1 H9 C5 N2 O8'
_cell_volume   264.55301260
_cell_formula_units_Z   1
loop_
 _symmetry_equiv_pos_site_id
 _symmetry_equiv_pos_as_xyz
  1  'x, y, z'
loop_
 _atom_site_type_symbol
 _atom_site_label
 _atom_site_symmetry_multiplicity
 _atom_site_fract_x
 _atom_site_fract_y
 _atom_site_fract_z
 _atom_site_occupancy
  Gd  Gd0  1  0.94846758  -0.05153242  0.00000000  1.0
  H  H1  1  1.02280573  0.02280573  0.50000000  1.0
  H  H2  1  0.40738946  -0.21979381  0.10836663  1.0
  H  H3  1  0.78020619  -0.59261054  0.89163337  1.0
  H  H4  1  1.15894993  0.58511775  0.40405425  1.0
  H  H5  1  1.58511775  0.15894993  0.59594575  1.0
  H  H6  1  0.43980534  -0.32195946  0.53570106  1.0
  H  H7  1  0.67804054  -0.56019466  0.46429894  1.0
  H  H8  1  1.38600088  0.41070881  0.82407567  1.0
  H  H9  1  1.41070881  0.38600088  0.17592433  1.0
  C  C10  1  0.87267641  -0.12732359  0.50000000  1.0
  C  C11  1  0.41772129  -0.10116698  0.95456743  1.0
  C  C12  1  0.89883302  -0.58227871  0.04543257  1.0
  C  C13  1  1.23805121  0.41361215  0.70294567  1.0
  C  C14  1  1.41361215  0.23805121  0.29705433  1.0
  N  N15  1  1.27982638  0.57296242  0.53517129  1.0
  N  N16  1  1.57296242  0.27982638  0.46482871  1.0
  O  O17  1  0.78641893  -0.20289870  0.66586286  1.0
  O  O18  1  0.79710130  -0.21358107  0.33413714  1.0
  O  O19  1  1.05051332  0.27459327  0.72923133  1.0
  O  O20  1  1.27459327  0.05051332  0.27076867  1.0
  O  O21  1  0.58663215  -0.04799422  0.87441723  1.0
  O  O22  1  0.95200578  -0.41336785  0.12558277  1.0
  O  O23  1  0.26568309  -0.02947294  0.87180975  1.0
  O  O24  1  0.97052706  -0.73431691  0.12819025  1.0
