# generated using pymatgen
data_Cd2P4PdO8
_symmetry_space_group_name_H-M   'P 1'
_cell_length_a   12.14493702
_cell_length_b   10.36170340
_cell_length_c   8.30714468
_cell_angle_alpha   80.34449418
_cell_angle_beta   57.25483010
_cell_angle_gamma   42.40067573
_symmetry_Int_Tables_number   1
_chemical_formula_structural   Cd2P4PdO8
_chemical_formula_sum   'Cd4 P8 Pd2 O16'
_cell_volume   541.15954423
_cell_formula_units_Z   2
loop_
 _symmetry_equiv_pos_site_id
 _symmetry_equiv_pos_as_xyz
  1  'x, y, z'
loop_
 _atom_site_type_symbol
 _atom_site_label
 _atom_site_symmetry_multiplicity
 _atom_site_fract_x
 _atom_site_fract_y
 _atom_site_fract_z
 _atom_site_occupancy
  Cd  Cd0  1  0.62500000  -0.37500000  1.12500000  1.0
  Cd  Cd1  1  -0.37500000  1.12500000  0.62500000  1.0
  Cd  Cd2  1  -0.37500000  0.62500000  0.62500000  1.0
  Cd  Cd3  1  1.12500000  -0.37500000  0.62500000  1.0
  P  P4  1  0.64228516  0.27757582  1.17605683  1.0
  P  P5  1  -0.09591780  0.17605683  0.27757582  1.0
  P  P6  1  -0.02757582  0.60771484  0.34591780  1.0
  P  P7  1  0.07394317  0.34591780  0.60771484  1.0
  P  P8  1  0.17605683  -0.09591780  1.64228516  1.0
  P  P9  1  0.27757582  0.64228516  -0.09591780  1.0
  P  P10  1  -0.65408220  1.07394317  0.97242418  1.0
  P  P11  1  -0.39228516  0.97242418  1.07394317  1.0
  Pd  Pd12  1  -0.00000000  0.00000000  0.00000000  1.0
  Pd  Pd13  1  0.25000000  0.25000000  1.25000000  1.0
  O  O14  1  -0.17234131  0.14422086  0.47660279  1.0
  O  O15  1  0.55151766  0.47660279  1.14422086  1.0
  O  O16  1  0.10577914  0.42234131  0.69848234  1.0
  O  O17  1  -0.22660279  0.69848234  0.42234131  1.0
  O  O18  1  0.47660279  0.55151766  -0.17234131  1.0
  O  O19  1  0.14422086  -0.17234131  1.55151766  1.0
  O  O20  1  -0.30151766  0.77339721  1.10577914  1.0
  O  O21  1  -0.57765869  1.10577914  0.77339721  1.0
  O  O22  1  0.48335016  0.31743461  1.38773022  1.0
  O  O23  1  -0.18851499  0.38773022  0.31743461  1.0
  O  O24  1  -0.06743461  0.76664984  0.43851499  1.0
  O  O25  1  -0.13773022  0.43851499  0.76664984  1.0
  O  O26  1  0.38773022  -0.18851499  1.48335016  1.0
  O  O27  1  0.31743461  0.48335016  -0.18851499  1.0
  O  O28  1  -0.56148501  0.86226978  0.93256539  1.0
  O  O29  1  -0.23335016  0.93256539  0.86226978  1.0
