# generated using pymatgen
data_Na2P2PdO7
_symmetry_space_group_name_H-M   'P 1'
_cell_length_a   8.03564076
_cell_length_b   8.03564076
_cell_length_c   8.06709340
_cell_angle_alpha   67.66206804
_cell_angle_beta   112.33793196
_cell_angle_gamma   136.12977240
_symmetry_Int_Tables_number   1
_chemical_formula_structural   Na2P2PdO7
_chemical_formula_sum   'Na4 P4 Pd2 O14'
_cell_volume   329.30763199
_cell_formula_units_Z   2
loop_
 _symmetry_equiv_pos_site_id
 _symmetry_equiv_pos_as_xyz
  1  'x, y, z'
loop_
 _atom_site_type_symbol
 _atom_site_label
 _atom_site_symmetry_multiplicity
 _atom_site_fract_x
 _atom_site_fract_y
 _atom_site_fract_z
 _atom_site_occupancy
  Na  Na0  1  0.36493770  -0.08838026  0.30239266  1.0
  Na  Na1  1  1.08838026  0.63506230  0.80239266  1.0
  Na  Na2  1  0.91161974  0.36493770  0.19760734  1.0
  Na  Na3  1  0.63506230  0.08838026  0.69760734  1.0
  P  P4  1  0.55393452  -0.23503298  0.15890415  1.0
  P  P5  1  1.23503298  0.44606548  0.65890415  1.0
  P  P6  1  0.76496702  0.55393452  0.34109585  1.0
  P  P7  1  0.44606548  0.23503298  0.84109585  1.0
  Pd  Pd8  1  -0.00000000  -0.00000000  0.50000000  1.0
  Pd  Pd9  1  0.00000000  0.00000000  0.00000000  1.0
  O  O10  1  0.67588650  -0.11171224  0.98879208  1.0
  O  O11  1  1.11171224  0.32411350  0.48879208  1.0
  O  O12  1  0.88828776  0.67588650  0.51120792  1.0
  O  O13  1  0.32411350  0.11171224  0.01120792  1.0
  O  O14  1  0.71040766  -0.06430696  0.30424189  1.0
  O  O15  1  1.06430696  0.28959234  0.80424189  1.0
  O  O16  1  0.93569304  0.71040766  0.19575811  1.0
  O  O17  1  0.28959234  0.06430696  0.69575811  1.0
  O  O18  1  0.67405711  0.30063860  0.39380557  1.0
  O  O19  1  0.69936140  0.32594289  0.89380557  1.0
  O  O20  1  1.30063860  0.67405711  0.10619443  1.0
  O  O21  1  0.32594289  -0.30063860  0.60619443  1.0
  O  O22  1  0.53208217  0.53208217  0.25000000  1.0
  O  O23  1  0.46791783  0.46791783  0.75000000  1.0
