# generated using pymatgen
data_H10SeO8
_symmetry_space_group_name_H-M   'P 1'
_cell_length_a   7.73403216
_cell_length_b   7.73403216
_cell_length_c   6.91930511
_cell_angle_alpha   90.00000000
_cell_angle_beta   90.00000000
_cell_angle_gamma   90.00000000
_symmetry_Int_Tables_number   1
_chemical_formula_structural   H10SeO8
_chemical_formula_sum   'H20 Se2 O16'
_cell_volume   413.87998883
_cell_formula_units_Z   2
loop_
 _symmetry_equiv_pos_site_id
 _symmetry_equiv_pos_as_xyz
  1  'x, y, z'
loop_
 _atom_site_type_symbol
 _atom_site_label
 _atom_site_symmetry_multiplicity
 _atom_site_fract_x
 _atom_site_fract_y
 _atom_site_fract_z
 _atom_site_occupancy
  H  H0  1  0.18629572  0.35347455  0.37545335  1.0
  H  H1  1  0.31370428  0.85347455  0.12454665  1.0
  H  H2  1  0.64652545  0.18629572  0.62454665  1.0
  H  H3  1  0.85347455  0.68629572  0.87545335  1.0
  H  H4  1  0.81370428  0.64652545  0.37545335  1.0
  H  H5  1  0.68629572  0.14652545  0.12454665  1.0
  H  H6  1  0.35347455  0.81370428  0.62454665  1.0
  H  H7  1  0.14652545  0.31370428  0.87545335  1.0
  H  H8  1  0.00496171  0.27459457  0.29166593  1.0
  H  H9  1  0.49503829  0.77459457  0.20833407  1.0
  H  H10  1  0.72540543  0.00496171  0.70833407  1.0
  H  H11  1  0.77459457  0.50496171  0.79166593  1.0
  H  H12  1  0.99503829  0.72540543  0.29166593  1.0
  H  H13  1  0.50496171  0.22540543  0.20833407  1.0
  H  H14  1  0.27459457  0.99503829  0.70833407  1.0
  H  H15  1  0.22540543  0.49503829  0.79166593  1.0
  H  H16  1  0.00000000  0.50000000  0.38217305  1.0
  H  H17  1  0.50000000  0.00000000  0.11782695  1.0
  H  H18  1  0.50000000  0.00000000  0.61782695  1.0
  H  H19  1  0.00000000  0.50000000  0.88217305  1.0
  Se  Se20  1  0.50000000  0.50000000  0.50000000  1.0
  Se  Se21  1  0.00000000  0.00000000  0.00000000  1.0
  O  O22  1  0.39983167  0.35276733  0.36323223  1.0
  O  O23  1  0.10016833  0.85276733  0.13676777  1.0
  O  O24  1  0.64723267  0.39983167  0.63676777  1.0
  O  O25  1  0.85276733  0.89983167  0.86323223  1.0
  O  O26  1  0.60016833  0.64723267  0.36323223  1.0
  O  O27  1  0.89983167  0.14723267  0.13676777  1.0
  O  O28  1  0.35276733  0.60016833  0.63676777  1.0
  O  O29  1  0.14723267  0.10016833  0.86323223  1.0
  O  O30  1  0.05686976  0.35428857  0.39037598  1.0
  O  O31  1  0.44313024  0.85428857  0.10962402  1.0
  O  O32  1  0.64571143  0.05686976  0.60962402  1.0
  O  O33  1  0.85428857  0.55686976  0.89037598  1.0
  O  O34  1  0.94313024  0.64571143  0.39037598  1.0
  O  O35  1  0.55686976  0.14571143  0.10962402  1.0
  O  O36  1  0.35428857  0.94313024  0.60962402  1.0
  O  O37  1  0.14571143  0.44313024  0.89037598  1.0
