# generated using pymatgen
data_TiGa2O5
_symmetry_space_group_name_H-M   'P 1'
_cell_length_a   5.31145548
_cell_length_b   5.31145548
_cell_length_c   10.15505449
_cell_angle_alpha   90.00000000
_cell_angle_beta   90.00000000
_cell_angle_gamma   140.06143796
_symmetry_Int_Tables_number   1
_chemical_formula_structural   TiGa2O5
_chemical_formula_sum   'Ti2 Ga4 O10'
_cell_volume   183.91673597
_cell_formula_units_Z   2
loop_
 _symmetry_equiv_pos_site_id
 _symmetry_equiv_pos_as_xyz
  1  'x, y, z'
loop_
 _atom_site_type_symbol
 _atom_site_label
 _atom_site_symmetry_multiplicity
 _atom_site_fract_x
 _atom_site_fract_y
 _atom_site_fract_z
 _atom_site_occupancy
  Ti  Ti0  1  0.17509647  0.82490353  0.75000000  1.0
  Ti  Ti1  1  -0.17509647  0.17509647  0.25000000  1.0
  Ga  Ga2  1  0.13688532  0.86311468  0.44332223  1.0
  Ga  Ga3  1  0.13688532  0.86311468  0.05667777  1.0
  Ga  Ga4  1  -0.13688532  0.13688532  0.94332223  1.0
  Ga  Ga5  1  -0.13688532  0.13688532  0.55667777  1.0
  O  O6  1  0.04512962  0.95487038  0.88119987  1.0
  O  O7  1  0.04512962  0.95487038  0.61880013  1.0
  O  O8  1  -0.04512962  0.04512962  0.38119987  1.0
  O  O9  1  -0.04512962  0.04512962  0.11880013  1.0
  O  O10  1  0.30561249  0.69438751  0.92307221  1.0
  O  O11  1  0.30561249  0.69438751  0.57692779  1.0
  O  O12  1  -0.30561249  0.30561249  0.42307221  1.0
  O  O13  1  -0.30561249  0.30561249  0.07692779  1.0
  O  O14  1  -0.25545050  0.25545050  0.75000000  1.0
  O  O15  1  0.25545050  0.74454950  0.25000000  1.0
