# generated using pymatgen
data_GaCu(WO4)2
_symmetry_space_group_name_H-M   'P 1'
_cell_length_a   7.41068519
_cell_length_b   7.41068519
_cell_length_c   4.96513406
_cell_angle_alpha   89.34452020
_cell_angle_beta   90.65547980
_cell_angle_gamma   77.93731248
_symmetry_Int_Tables_number   1
_chemical_formula_structural   GaCu(WO4)2
_chemical_formula_sum   'Ga2 Cu2 W4 O16'
_cell_volume   266.61155292
_cell_formula_units_Z   2
loop_
 _symmetry_equiv_pos_site_id
 _symmetry_equiv_pos_as_xyz
  1  'x, y, z'
loop_
 _atom_site_type_symbol
 _atom_site_label
 _atom_site_symmetry_multiplicity
 _atom_site_fract_x
 _atom_site_fract_y
 _atom_site_fract_z
 _atom_site_occupancy
  Ga  Ga0  1  0.83368595  -0.16631405  0.25000000  1.0
  Ga  Ga1  1  1.16631405  0.16631405  0.75000000  1.0
  Cu  Cu2  1  1.33830612  0.33830612  0.25000000  1.0
  Cu  Cu3  1  0.66169388  -0.33830612  0.75000000  1.0
  W  W4  1  0.34011322  -0.16238887  0.25557709  1.0
  W  W5  1  1.16238887  0.65988678  0.75557709  1.0
  W  W6  1  0.83761113  -0.65988678  0.24442291  1.0
  W  W7  1  1.65988678  0.16238887  0.74442291  1.0
  O  O8  1  0.70080743  -0.06252914  0.91727497  1.0
  O  O9  1  1.06252914  0.29919257  0.41727497  1.0
  O  O10  1  0.93747086  -0.29919257  0.58272503  1.0
  O  O11  1  1.29919257  0.06252914  0.08272503  1.0
  O  O12  1  1.80384659  0.07590087  0.42322152  1.0
  O  O13  1  0.92409913  -0.80384659  0.92322152  1.0
  O  O14  1  1.07590087  0.80384659  0.07677848  1.0
  O  O15  1  0.19615341  -0.07590087  0.57677848  1.0
  O  O16  1  0.57296971  -0.18554094  0.39252628  1.0
  O  O17  1  1.18554094  0.42703029  0.89252628  1.0
  O  O18  1  0.81445906  -0.42703029  0.10747372  1.0
  O  O19  1  1.42703029  0.18554094  0.60747372  1.0
  O  O20  1  1.59564824  0.30667428  0.05702986  1.0
  O  O21  1  0.69332572  -0.59564824  0.55702986  1.0
  O  O22  1  1.30667428  0.59564824  0.44297014  1.0
  O  O23  1  0.40435176  -0.30667428  0.94297014  1.0
