# generated using pymatgen
data_BH5CSN2
_symmetry_space_group_name_H-M   'P 1'
_cell_length_a   9.46131059
_cell_length_b   7.03311752
_cell_length_c   7.28855891
_cell_angle_alpha   90.00000000
_cell_angle_beta   90.00000000
_cell_angle_gamma   90.00000000
_symmetry_Int_Tables_number   1
_chemical_formula_structural   BH5CSN2
_chemical_formula_sum   'B4 H20 C4 S4 N8'
_cell_volume   484.99899944
_cell_formula_units_Z   4
loop_
 _symmetry_equiv_pos_site_id
 _symmetry_equiv_pos_as_xyz
  1  'x, y, z'
loop_
 _atom_site_type_symbol
 _atom_site_label
 _atom_site_symmetry_multiplicity
 _atom_site_fract_x
 _atom_site_fract_y
 _atom_site_fract_z
 _atom_site_occupancy
  B  B0  1  0.23857993  0.75000000  0.82772996  1.0
  B  B1  1  0.73857993  0.75000000  0.67227004  1.0
  B  B2  1  0.76142007  0.25000000  0.17227004  1.0
  B  B3  1  0.26142007  0.25000000  0.32772996  1.0
  H  H4  1  0.38270339  0.86779970  0.61999142  1.0
  H  H5  1  0.38270339  0.63220030  0.61999142  1.0
  H  H6  1  0.88270339  0.86779970  0.88000858  1.0
  H  H7  1  0.88270339  0.63220030  0.88000858  1.0
  H  H8  1  0.61729661  0.36779970  0.38000858  1.0
  H  H9  1  0.61729661  0.13220030  0.38000858  1.0
  H  H10  1  0.11729661  0.36779970  0.11999142  1.0
  H  H11  1  0.11729661  0.13220030  0.11999142  1.0
  H  H12  1  0.16713192  0.89331641  0.83570892  1.0
  H  H13  1  0.16713192  0.60668359  0.83570892  1.0
  H  H14  1  0.66713192  0.89331641  0.66429108  1.0
  H  H15  1  0.66713192  0.60668359  0.66429108  1.0
  H  H16  1  0.83286808  0.39331641  0.16429108  1.0
  H  H17  1  0.83286808  0.10668359  0.16429108  1.0
  H  H18  1  0.33286808  0.39331641  0.33570892  1.0
  H  H19  1  0.33286808  0.10668359  0.33570892  1.0
  H  H20  1  0.24891807  0.75000000  0.52604261  1.0
  H  H21  1  0.74891807  0.75000000  0.97395739  1.0
  H  H22  1  0.75108193  0.25000000  0.47395739  1.0
  H  H23  1  0.25108193  0.25000000  0.02604261  1.0
  C  C24  1  0.44239648  0.75000000  0.08399240  1.0
  C  C25  1  0.94239648  0.75000000  0.41600760  1.0
  C  C26  1  0.55760352  0.25000000  0.91600760  1.0
  C  C27  1  0.05760352  0.25000000  0.58399240  1.0
  S  S28  1  0.06905518  0.75000000  0.26726049  1.0
  S  S29  1  0.56905518  0.75000000  0.23273951  1.0
  S  S30  1  0.93094482  0.25000000  0.73273951  1.0
  S  S31  1  0.43094482  0.25000000  0.76726049  1.0
  N  N32  1  0.35014157  0.75000000  0.97507812  1.0
  N  N33  1  0.85014157  0.75000000  0.52492188  1.0
  N  N34  1  0.64985843  0.25000000  0.02492188  1.0
  N  N35  1  0.14985843  0.25000000  0.47507812  1.0
  N  N36  1  0.31937085  0.75000000  0.63443753  1.0
  N  N37  1  0.81937085  0.75000000  0.86556247  1.0
  N  N38  1  0.68062915  0.25000000  0.36556247  1.0
  N  N39  1  0.18062915  0.25000000  0.13443753  1.0
