# generated using pymatgen
data_CsP4N7
_symmetry_space_group_name_H-M   'P 1'
_cell_length_a   10.08794525
_cell_length_b   12.56142037
_cell_length_c   4.76738520
_cell_angle_alpha   90.00000000
_cell_angle_beta   90.00000000
_cell_angle_gamma   90.00000000
_symmetry_Int_Tables_number   1
_chemical_formula_structural   CsP4N7
_chemical_formula_sum   'Cs4 P16 N28'
_cell_volume   604.11790839
_cell_formula_units_Z   4
loop_
 _symmetry_equiv_pos_site_id
 _symmetry_equiv_pos_as_xyz
  1  'x, y, z'
loop_
 _atom_site_type_symbol
 _atom_site_label
 _atom_site_symmetry_multiplicity
 _atom_site_fract_x
 _atom_site_fract_y
 _atom_site_fract_z
 _atom_site_occupancy
  Cs  Cs0  1  0.35618397  0.75000000  0.22380237  1.0
  Cs  Cs1  1  0.85618397  0.75000000  0.27619763  1.0
  Cs  Cs2  1  0.64381603  0.25000000  0.77619763  1.0
  Cs  Cs3  1  0.14381603  0.25000000  0.72380237  1.0
  P  P4  1  0.08869974  0.62919224  0.71738546  1.0
  P  P5  1  0.58869974  0.87080776  0.78261454  1.0
  P  P6  1  0.91130026  0.12919224  0.28261454  1.0
  P  P7  1  0.41130026  0.37080776  0.21738546  1.0
  P  P8  1  0.91130026  0.37080776  0.28261454  1.0
  P  P9  1  0.41130026  0.12919224  0.21738546  1.0
  P  P10  1  0.08869974  0.87080776  0.71738546  1.0
  P  P11  1  0.58869974  0.62919224  0.78261454  1.0
  P  P12  1  0.34250464  0.49945854  0.72627487  1.0
  P  P13  1  0.84250464  0.00054146  0.77372513  1.0
  P  P14  1  0.65749536  0.99945854  0.27372513  1.0
  P  P15  1  0.15749536  0.50054146  0.22627487  1.0
  P  P16  1  0.65749536  0.50054146  0.27372513  1.0
  P  P17  1  0.15749536  0.99945854  0.22627487  1.0
  P  P18  1  0.34250464  0.00054146  0.72627487  1.0
  P  P19  1  0.84250464  0.49945854  0.77372513  1.0
  N  N20  1  0.12088482  0.75000000  0.79705740  1.0
  N  N21  1  0.62088482  0.75000000  0.70294260  1.0
  N  N22  1  0.87911518  0.25000000  0.20294260  1.0
  N  N23  1  0.37911518  0.25000000  0.29705740  1.0
  N  N24  1  0.11810143  0.60559543  0.39125727  1.0
  N  N25  1  0.61810143  0.89440457  0.10874273  1.0
  N  N26  1  0.88189857  0.10559543  0.60874273  1.0
  N  N27  1  0.38189857  0.39440457  0.89125727  1.0
  N  N28  1  0.88189857  0.39440457  0.60874273  1.0
  N  N29  1  0.38189857  0.10559543  0.89125727  1.0
  N  N30  1  0.11810143  0.89440457  0.39125727  1.0
  N  N31  1  0.61810143  0.60559543  0.10874273  1.0
  N  N32  1  0.44204882  0.59602678  0.68118645  1.0
  N  N33  1  0.94204882  0.90397322  0.81881355  1.0
  N  N34  1  0.55795118  0.09602678  0.31881355  1.0
  N  N35  1  0.05795118  0.40397322  0.18118645  1.0
  N  N36  1  0.55795118  0.40397322  0.31881355  1.0
  N  N37  1  0.05795118  0.09602678  0.18118645  1.0
  N  N38  1  0.44204882  0.90397322  0.68118645  1.0
  N  N39  1  0.94204882  0.59602678  0.81881355  1.0
  N  N40  1  0.20184915  0.54588186  0.89246289  1.0
  N  N41  1  0.70184915  0.95411814  0.60753711  1.0
  N  N42  1  0.79815085  0.04588186  0.10753711  1.0
  N  N43  1  0.29815085  0.45411814  0.39246289  1.0
  N  N44  1  0.79815085  0.45411814  0.10753711  1.0
  N  N45  1  0.29815085  0.04588186  0.39246289  1.0
  N  N46  1  0.20184915  0.95411814  0.89246289  1.0
  N  N47  1  0.70184915  0.54588186  0.60753711  1.0
