# generated using pymatgen
data_K2TcCl5O
_symmetry_space_group_name_H-M   'P 1'
_cell_length_a   13.49957189
_cell_length_b   9.99350610
_cell_length_c   7.13206709
_cell_angle_alpha   90.00000000
_cell_angle_beta   90.00000000
_cell_angle_gamma   90.00000000
_symmetry_Int_Tables_number   1
_chemical_formula_structural   K2TcCl5O
_chemical_formula_sum   'K8 Tc4 Cl20 O4'
_cell_volume   962.17329243
_cell_formula_units_Z   4
loop_
 _symmetry_equiv_pos_site_id
 _symmetry_equiv_pos_as_xyz
  1  'x, y, z'
loop_
 _atom_site_type_symbol
 _atom_site_label
 _atom_site_symmetry_multiplicity
 _atom_site_fract_x
 _atom_site_fract_y
 _atom_site_fract_z
 _atom_site_occupancy
  K  K0  1  0.64917663  0.50113127  0.34554163  1.0
  K  K1  1  0.64917663  -0.00113127  0.34554163  1.0
  K  K2  1  0.14917663  0.50113127  0.15445837  1.0
  K  K3  1  0.14917663  -0.00113127  0.15445837  1.0
  K  K4  1  0.35082337  1.00113127  0.65445837  1.0
  K  K5  1  0.35082337  0.49886873  0.65445837  1.0
  K  K6  1  0.85082337  1.00113127  0.84554163  1.0
  K  K7  1  0.85082337  0.49886873  0.84554163  1.0
  Tc  Tc8  1  0.90992490  0.25000000  0.32950397  1.0
  Tc  Tc9  1  0.40992490  0.25000000  0.17049603  1.0
  Tc  Tc10  1  0.09007510  0.75000000  0.67049603  1.0
  Tc  Tc11  1  0.59007510  0.75000000  0.82950397  1.0
  Cl  Cl12  1  0.89460122  0.48743553  0.30459001  1.0
  Cl  Cl13  1  0.89460122  0.01256447  0.30459001  1.0
  Cl  Cl14  1  0.39460122  0.48743553  0.19540999  1.0
  Cl  Cl15  1  0.39460122  0.01256447  0.19540999  1.0
  Cl  Cl16  1  0.10539878  0.98743553  0.69540999  1.0
  Cl  Cl17  1  0.10539878  0.51256447  0.69540999  1.0
  Cl  Cl18  1  0.60539878  0.98743553  0.80459001  1.0
  Cl  Cl19  1  0.60539878  0.51256447  0.80459001  1.0
  Cl  Cl20  1  0.99837263  0.25000000  0.03967072  1.0
  Cl  Cl21  1  0.49837263  0.25000000  0.46032928  1.0
  Cl  Cl22  1  0.00162737  0.75000000  0.96032928  1.0
  Cl  Cl23  1  0.50162737  0.75000000  0.53967072  1.0
  Cl  Cl24  1  0.78605841  0.25000000  0.57223328  1.0
  Cl  Cl25  1  0.28605841  0.25000000  0.92776672  1.0
  Cl  Cl26  1  0.21394159  0.75000000  0.42776672  1.0
  Cl  Cl27  1  0.71394159  0.75000000  0.07223328  1.0
  Cl  Cl28  1  0.75462849  0.25000000  0.11404408  1.0
  Cl  Cl29  1  0.25462849  0.25000000  0.38595592  1.0
  Cl  Cl30  1  0.24537151  0.75000000  0.88595592  1.0
  Cl  Cl31  1  0.74537151  0.75000000  0.61404408  1.0
  O  O32  1  0.00488634  0.25000000  0.47385101  1.0
  O  O33  1  0.50488634  0.25000000  0.02614899  1.0
  O  O34  1  0.99511366  0.75000000  0.52614899  1.0
  O  O35  1  0.49511366  0.75000000  0.97385101  1.0
