# generated using pymatgen
data_Zr6Co16Si7
_symmetry_space_group_name_H-M   'P 1'
_cell_length_a   8.04613846
_cell_length_b   8.04613846
_cell_length_c   8.04613846
_cell_angle_alpha   60.00000000
_cell_angle_beta   60.00000000
_cell_angle_gamma   60.00000000
_symmetry_Int_Tables_number   1
_chemical_formula_structural   Zr6Co16Si7
_chemical_formula_sum   'Zr6 Co16 Si7'
_cell_volume   368.33883281
_cell_formula_units_Z   1
loop_
 _symmetry_equiv_pos_site_id
 _symmetry_equiv_pos_as_xyz
  1  'x, y, z'
loop_
 _atom_site_type_symbol
 _atom_site_label
 _atom_site_symmetry_multiplicity
 _atom_site_fract_x
 _atom_site_fract_y
 _atom_site_fract_z
 _atom_site_occupancy
  Zr  Zr0  1  -0.70614024  0.70614024  0.70614024  1.0
  Zr  Zr1  1  -0.29385976  0.29385976  0.70614024  1.0
  Zr  Zr2  1  0.70614024  0.70614024  -0.70614024  1.0
  Zr  Zr3  1  0.29385976  1.29385976  -0.29385976  1.0
  Zr  Zr4  1  0.29385976  -0.29385976  1.29385976  1.0
  Zr  Zr5  1  -0.29385976  0.29385976  0.29385976  1.0
  Co  Co6  1  0.87976611  0.87976611  -0.12023389  1.0
  Co  Co7  1  1.12023389  0.12023389  0.63929832  1.0
  Co  Co8  1  1.12023389  0.63929832  0.12023389  1.0
  Co  Co9  1  0.36070168  0.87976611  -0.12023389  1.0
  Co  Co10  1  1.63929832  0.12023389  0.12023389  1.0
  Co  Co11  1  0.87976611  0.36070168  -0.12023389  1.0
  Co  Co12  1  0.87976611  0.87976611  -0.63929832  1.0
  Co  Co13  1  1.12023389  0.12023389  0.12023389  1.0
  Co  Co14  1  0.67087488  0.67087488  -0.32912512  1.0
  Co  Co15  1  1.32912512  0.32912512  0.01262463  1.0
  Co  Co16  1  1.32912512  0.01262463  0.32912512  1.0
  Co  Co17  1  0.98737537  0.67087488  -0.32912512  1.0
  Co  Co18  1  1.01262463  0.32912512  0.32912512  1.0
  Co  Co19  1  0.67087488  0.98737537  -0.32912512  1.0
  Co  Co20  1  0.67087488  0.67087488  -0.01262463  1.0
  Co  Co21  1  1.32912512  0.32912512  0.32912512  1.0
  Si  Si22  1  1.50000000  0.00000000  -0.00000000  1.0
  Si  Si23  1  1.00000000  0.50000000  -0.50000000  1.0
  Si  Si24  1  0.00000000  1.50000000  -0.00000000  1.0
  Si  Si25  1  0.50000000  1.00000000  -0.50000000  1.0
  Si  Si26  1  -0.00000000  0.00000000  0.50000000  1.0
  Si  Si27  1  0.50000000  -0.50000000  1.00000000  1.0
  Si  Si28  1  0.00000000  0.00000000  0.00000000  1.0
