# generated using pymatgen
data_KSnSe2
_symmetry_space_group_name_H-M   'P 1'
_cell_length_a   6.82519974
_cell_length_b   6.82519974
_cell_length_c   6.82519974
_cell_angle_alpha   106.07952622
_cell_angle_beta   106.07952622
_cell_angle_gamma   116.49100878
_symmetry_Int_Tables_number   1
_chemical_formula_structural   KSnSe2
_chemical_formula_sum   'K2 Sn2 Se4'
_cell_volume   241.96303112
_cell_formula_units_Z   2
loop_
 _symmetry_equiv_pos_site_id
 _symmetry_equiv_pos_as_xyz
  1  'x, y, z'
loop_
 _atom_site_type_symbol
 _atom_site_label
 _atom_site_symmetry_multiplicity
 _atom_site_fract_x
 _atom_site_fract_y
 _atom_site_fract_z
 _atom_site_occupancy
  K  K0  1  -0.03326519  -0.03326519  -0.00000000  1.0
  K  K1  1  0.46673481  0.46673481  0.00000000  1.0
  Sn  Sn2  1  0.96674868  0.46674868  0.50000000  1.0
  Sn  Sn3  1  0.46674868  0.96674868  0.50000000  1.0
  Se  Se4  1  1.03528078  0.89823572  1.50000000  1.0
  Se  Se5  1  0.89823572  0.39823572  0.86295494  1.0
  Se  Se6  1  0.53528078  1.03528078  1.13704506  1.0
  Se  Se7  1  0.39823572  0.53528078  0.50000000  1.0
