# generated using pymatgen
data_NaH2CSO4F3
_symmetry_space_group_name_H-M   'P 1'
_cell_length_a   6.60552114
_cell_length_b   5.42693108
_cell_length_c   18.42721489
_cell_angle_alpha   90.00000000
_cell_angle_beta   90.00000000
_cell_angle_gamma   90.00000000
_symmetry_Int_Tables_number   1
_chemical_formula_structural   NaH2CSO4F3
_chemical_formula_sum   'Na4 H8 C4 S4 O16 F12'
_cell_volume   660.57341846
_cell_formula_units_Z   4
loop_
 _symmetry_equiv_pos_site_id
 _symmetry_equiv_pos_as_xyz
  1  'x, y, z'
loop_
 _atom_site_type_symbol
 _atom_site_label
 _atom_site_symmetry_multiplicity
 _atom_site_fract_x
 _atom_site_fract_y
 _atom_site_fract_z
 _atom_site_occupancy
  Na  Na0  1  0.94315606  0.25000000  0.23520546  1.0
  Na  Na1  1  0.44315606  0.25000000  0.26479454  1.0
  Na  Na2  1  0.05684394  0.75000000  0.76479454  1.0
  Na  Na3  1  0.55684394  0.75000000  0.73520546  1.0
  H  H4  1  0.72539311  0.60443787  0.87006860  1.0
  H  H5  1  0.72539311  0.89556213  0.87006860  1.0
  H  H6  1  0.22539311  0.60443787  0.62993140  1.0
  H  H7  1  0.22539311  0.89556213  0.62993140  1.0
  H  H8  1  0.27460689  0.10443787  0.12993140  1.0
  H  H9  1  0.27460689  0.39556213  0.12993140  1.0
  H  H10  1  0.77460689  0.10443787  0.37006860  1.0
  H  H11  1  0.77460689  0.39556213  0.37006860  1.0
  C  C12  1  0.72936506  0.25000000  0.57220936  1.0
  C  C13  1  0.22936506  0.25000000  0.92779064  1.0
  C  C14  1  0.27063494  0.75000000  0.42779064  1.0
  C  C15  1  0.77063494  0.75000000  0.07220936  1.0
  S  S16  1  0.88523525  0.25000000  0.65706457  1.0
  S  S17  1  0.38523525  0.25000000  0.84293543  1.0
  S  S18  1  0.11476475  0.75000000  0.34293543  1.0
  S  S19  1  0.61476475  0.75000000  0.15706457  1.0
  O  O20  1  0.82432443  0.02269674  0.69440328  1.0
  O  O21  1  0.82432443  0.47730326  0.69440328  1.0
  O  O22  1  0.32432443  0.02269674  0.80559672  1.0
  O  O23  1  0.32432443  0.47730326  0.80559672  1.0
  O  O24  1  0.17567557  0.52269674  0.30559672  1.0
  O  O25  1  0.17567557  0.97730326  0.30559672  1.0
  O  O26  1  0.67567557  0.52269674  0.19440328  1.0
  O  O27  1  0.67567557  0.97730326  0.19440328  1.0
  O  O28  1  0.59507021  0.25000000  0.86918764  1.0
  O  O29  1  0.09507021  0.25000000  0.63081236  1.0
  O  O30  1  0.40492979  0.75000000  0.13081236  1.0
  O  O31  1  0.90492979  0.75000000  0.36918764  1.0
  O  O32  1  0.72649073  0.25000000  0.34390993  1.0
  O  O33  1  0.22649073  0.25000000  0.15609007  1.0
  O  O34  1  0.27350927  0.75000000  0.65609007  1.0
  O  O35  1  0.77350927  0.75000000  0.84390993  1.0
  F  F36  1  0.76996194  0.04757649  0.53190126  1.0
  F  F37  1  0.76996194  0.45242351  0.53190126  1.0
  F  F38  1  0.26996194  0.04757649  0.96809874  1.0
  F  F39  1  0.26996194  0.45242351  0.96809874  1.0
  F  F40  1  0.23003806  0.54757649  0.46809874  1.0
  F  F41  1  0.23003806  0.95242351  0.46809874  1.0
  F  F42  1  0.73003806  0.54757649  0.03190126  1.0
  F  F43  1  0.73003806  0.95242351  0.03190126  1.0
  F  F44  1  0.52947492  0.25000000  0.58884537  1.0
  F  F45  1  0.02947492  0.25000000  0.91115463  1.0
  F  F46  1  0.47052508  0.75000000  0.41115463  1.0
  F  F47  1  0.97052508  0.75000000  0.08884537  1.0
