# generated using pymatgen
data_Cu3BiS3
_symmetry_space_group_name_H-M   'P 1'
_cell_length_a   6.88778547
_cell_length_b   7.69569927
_cell_length_c   10.39153657
_cell_angle_alpha   90.00000000
_cell_angle_beta   90.00000000
_cell_angle_gamma   90.00000000
_symmetry_Int_Tables_number   1
_chemical_formula_structural   Cu3BiS3
_chemical_formula_sum   'Cu12 Bi4 S12'
_cell_volume   550.81717140
_cell_formula_units_Z   4
loop_
 _symmetry_equiv_pos_site_id
 _symmetry_equiv_pos_as_xyz
  1  'x, y, z'
loop_
 _atom_site_type_symbol
 _atom_site_label
 _atom_site_symmetry_multiplicity
 _atom_site_fract_x
 _atom_site_fract_y
 _atom_site_fract_z
 _atom_site_occupancy
  Cu  Cu0  1  0.46964600  0.44663527  0.54890345  1.0
  Cu  Cu1  1  0.96964600  0.05336473  0.45109655  1.0
  Cu  Cu2  1  0.53035400  0.94663527  0.95109655  1.0
  Cu  Cu3  1  0.03035400  0.55336473  0.04890345  1.0
  Cu  Cu4  1  0.41149633  0.78534341  0.60084334  1.0
  Cu  Cu5  1  0.91149633  0.71465659  0.39915666  1.0
  Cu  Cu6  1  0.58850367  0.28534341  0.89915666  1.0
  Cu  Cu7  1  0.08850367  0.21465659  0.10084334  1.0
  Cu  Cu8  1  0.34395486  0.65460103  0.90575884  1.0
  Cu  Cu9  1  0.84395486  0.84539897  0.09424116  1.0
  Cu  Cu10  1  0.65604514  0.15460103  0.59424116  1.0
  Cu  Cu11  1  0.15604514  0.34539897  0.40575884  1.0
  Bi  Bi12  1  0.85815030  0.68597776  0.73823689  1.0
  Bi  Bi13  1  0.35815030  0.81402224  0.26176311  1.0
  Bi  Bi14  1  0.14184970  0.18597776  0.76176311  1.0
  Bi  Bi15  1  0.64184970  0.31402224  0.23823689  1.0
  S  S16  1  0.40237776  0.44126552  0.76077322  1.0
  S  S17  1  0.90237776  0.05873448  0.23922678  1.0
  S  S18  1  0.59762224  0.94126552  0.73922678  1.0
  S  S19  1  0.09762224  0.55873448  0.26077322  1.0
  S  S20  1  0.08973192  0.82650034  0.56827580  1.0
  S  S21  1  0.58973192  0.67349966  0.43172420  1.0
  S  S22  1  0.91026808  0.32650034  0.93172420  1.0
  S  S23  1  0.41026808  0.17349966  0.06827580  1.0
  S  S24  1  0.06579422  0.80933114  0.92905421  1.0
  S  S25  1  0.56579422  0.69066886  0.07094579  1.0
  S  S26  1  0.93420578  0.30933114  0.57094579  1.0
  S  S27  1  0.43420578  0.19066886  0.42905421  1.0
