# generated using pymatgen
data_Rb2NbAgSe4
_symmetry_space_group_name_H-M   'P 1'
_cell_length_a   14.34745529
_cell_length_b   12.80886643
_cell_length_c   7.78592863
_cell_angle_alpha   84.58048595
_cell_angle_beta   62.71927412
_cell_angle_gamma   32.70023993
_symmetry_Int_Tables_number   1
_chemical_formula_structural   Rb2NbAgSe4
_chemical_formula_sum   'Rb4 Nb2 Ag2 Se8'
_cell_volume   546.19674987
_cell_formula_units_Z   2
loop_
 _symmetry_equiv_pos_site_id
 _symmetry_equiv_pos_as_xyz
  1  'x, y, z'
loop_
 _atom_site_type_symbol
 _atom_site_label
 _atom_site_symmetry_multiplicity
 _atom_site_fract_x
 _atom_site_fract_y
 _atom_site_fract_z
 _atom_site_occupancy
  Rb  Rb0  1  1.43037256  0.43037256  0.06962744  1.0
  Rb  Rb1  1  0.06962744  0.06962744  1.43037256  1.0
  Rb  Rb2  1  0.81962744  0.81962744  -0.81962744  1.0
  Rb  Rb3  1  0.18037256  1.18037256  -0.18037256  1.0
  Nb  Nb4  1  0.00000000  0.00000000  0.00000000  1.0
  Nb  Nb5  1  1.25000000  0.25000000  0.25000000  1.0
  Ag  Ag6  1  -0.50000000  0.50000000  0.50000000  1.0
  Ag  Ag7  1  0.75000000  0.75000000  0.75000000  1.0
  Se  Se8  1  1.06092682  0.82460288  0.73670561  1.0
  Se  Se9  1  -0.62223531  0.73670561  0.82460288  1.0
  Se  Se10  1  0.73670561  -0.62223531  1.06092682  1.0
  Se  Se11  1  0.82460288  1.06092682  -0.62223531  1.0
  Se  Se12  1  1.18907318  0.42539712  0.51329439  1.0
  Se  Se13  1  0.87223531  0.51329439  0.42539712  1.0
  Se  Se14  1  1.51329439  -0.12776469  0.18907318  1.0
  Se  Se15  1  1.42539712  0.18907318  -0.12776469  1.0
