# generated using pymatgen
data_Ca3N2
_symmetry_space_group_name_H-M   'P 1'
_cell_length_a   6.59149282
_cell_length_b   6.59149282
_cell_length_c   6.59149282
_cell_angle_alpha   55.91691672
_cell_angle_beta   55.91691672
_cell_angle_gamma   55.91691672
_symmetry_Int_Tables_number   1
_chemical_formula_structural   Ca3N2
_chemical_formula_sum   'Ca6 N4'
_cell_volume   183.34252660
_cell_formula_units_Z   2
loop_
 _symmetry_equiv_pos_site_id
 _symmetry_equiv_pos_as_xyz
  1  'x, y, z'
loop_
 _atom_site_type_symbol
 _atom_site_label
 _atom_site_symmetry_multiplicity
 _atom_site_fract_x
 _atom_site_fract_y
 _atom_site_fract_z
 _atom_site_occupancy
  Ca  Ca0  1  0.44976887  0.75000000  0.05023113  1.0
  Ca  Ca1  1  0.94976887  -0.44976887  0.25000000  1.0
  Ca  Ca2  1  0.25000000  0.94976887  -0.44976887  1.0
  Ca  Ca3  1  0.75000000  1.05023113  -0.55023113  1.0
  Ca  Ca4  1  0.55023113  0.25000000  -0.05023113  1.0
  Ca  Ca5  1  1.05023113  0.44976887  -0.25000000  1.0
  N  N6  1  0.85356740  -0.14643260  -0.14643260  1.0
  N  N7  1  0.35356740  0.35356740  0.35356740  1.0
  N  N8  1  0.64643260  0.64643260  -0.35356740  1.0
  N  N9  1  1.14643260  0.14643260  0.14643260  1.0
