# generated using pymatgen
data_Ti2P2O11
_symmetry_space_group_name_H-M   'P 1'
_cell_length_a   5.29490299
_cell_length_b   9.84560489
_cell_length_c   9.17621427
_cell_angle_alpha   76.33064662
_cell_angle_beta   85.96237012
_cell_angle_gamma   88.10765795
_symmetry_Int_Tables_number   1
_chemical_formula_structural   Ti2P2O11
_chemical_formula_sum   'Ti4 P4 O22'
_cell_volume   463.60060435
_cell_formula_units_Z   2
loop_
 _symmetry_equiv_pos_site_id
 _symmetry_equiv_pos_as_xyz
  1  'x, y, z'
loop_
 _atom_site_type_symbol
 _atom_site_label
 _atom_site_symmetry_multiplicity
 _atom_site_fract_x
 _atom_site_fract_y
 _atom_site_fract_z
 _atom_site_occupancy
  Ti  Ti0  1  -0.76700508  -0.67544629  -0.26742277  1.0
  Ti  Ti1  1  -0.23299492  -0.32455371  -0.73257723  1.0
  Ti  Ti2  1  -0.57156679  -0.78094934  -0.90030169  1.0
  Ti  Ti3  1  -0.42843321  -0.21905066  -0.09969831  1.0
  O  O4  1  -1.01611113  -0.81944129  -0.25263033  1.0
  O  O5  1  0.01611113  -0.18055871  -0.74736967  1.0
  O  O6  1  -0.76418298  -0.63776922  -0.49954476  1.0
  O  O7  1  -0.23581702  -0.36223078  -0.50045524  1.0
  O  O8  1  -0.73239245  -0.96001272  -0.81029908  1.0
  O  O9  1  -0.26760755  -0.03998728  -0.18970092  1.0
  O  O10  1  -0.67643422  -0.12599813  -0.98091149  1.0
  O  O11  1  -0.32356578  -0.87400187  -0.01908851  1.0
  O  O12  1  -0.48101158  -0.47836999  -0.69435208  1.0
  O  O13  1  -0.51898842  -0.52163001  -0.30564792  1.0
  O  O14  1  -0.48653390  -0.80613651  -0.28302919  1.0
  O  O15  1  -0.51346610  -0.19386349  -0.71697081  1.0
  O  O16  1  -0.30339234  -0.82586433  -0.73912222  1.0
  O  O17  1  -0.69660766  -0.17413567  -0.26087778  1.0
  O  O18  1  -0.28320782  -0.65945000  -0.94216289  1.0
  O  O19  1  -0.71679218  -0.34055000  -0.05783711  1.0
  O  O20  1  -0.25348226  -0.29572573  -0.93292250  1.0
  O  O21  1  -0.74651774  -0.70427427  -0.06707750  1.0
  O  O22  1  -0.70950969  -0.67397757  -0.76230071  1.0
  O  O23  1  -0.29049031  -0.32602243  -0.23769929  1.0
  O  O24  1  -0.95647098  -0.46633549  -0.71467791  1.0
  O  O25  1  -0.04352902  -0.53366451  -0.28532209  1.0
  P  P26  1  -0.72657331  -0.11650645  -0.81342289  1.0
  P  P27  1  -0.27342669  -0.88349355  -0.18657711  1.0
  P  P28  1  -0.72688460  -0.56260277  -0.66594777  1.0
  P  P29  1  -0.27311540  -0.43739723  -0.33405223  1.0
