# generated using pymatgen
data_Zr(TlS)4
_symmetry_space_group_name_H-M   'P 1'
_cell_length_a   9.32386845
_cell_length_b   9.32630900
_cell_length_c   15.85069733
_cell_angle_alpha   104.68446446
_cell_angle_beta   104.01799414
_cell_angle_gamma   89.95257310
_symmetry_Int_Tables_number   1
_chemical_formula_structural   Zr(TlS)4
_chemical_formula_sum   'Zr5 Tl20 S20'
_cell_volume   1290.90861617
_cell_formula_units_Z   5
loop_
 _symmetry_equiv_pos_site_id
 _symmetry_equiv_pos_as_xyz
  1  'x, y, z'
loop_
 _atom_site_type_symbol
 _atom_site_label
 _atom_site_symmetry_multiplicity
 _atom_site_fract_x
 _atom_site_fract_y
 _atom_site_fract_z
 _atom_site_occupancy
  Zr  Zr0  1  -0.31971631  -0.98612817  -0.40085269  1.0
  Zr  Zr1  1  -0.68028369  -0.01387183  -0.59914731  1.0
  Zr  Zr2  1  -0.68580088  -0.82595431  -0.80105681  1.0
  Zr  Zr3  1  -0.31419912  -0.17404569  -0.19894319  1.0
  Zr  Zr4  1  -0.50000000  -0.00000000  0.00000000  1.0
  Tl  Tl5  1  -0.93007684  -0.96415059  -0.20136949  1.0
  Tl  Tl6  1  -0.06992316  -0.03584941  -0.79863051  1.0
  Tl  Tl7  1  -0.28383723  -0.79311048  -0.59877997  1.0
  Tl  Tl8  1  -0.71616277  -0.20688952  -0.40122003  1.0
  Tl  Tl9  1  -0.91590589  -0.79065755  -0.40309618  1.0
  Tl  Tl10  1  -0.08409411  -0.20934245  -0.59690382  1.0
  Tl  Tl11  1  -0.54506469  -0.78271748  -0.20352494  1.0
  Tl  Tl12  1  -0.45493531  -0.21728252  -0.79647506  1.0
  Tl  Tl13  1  -0.89515993  -0.62797198  -0.61396640  1.0
  Tl  Tl14  1  -0.10484007  -0.37202802  -0.38603360  1.0
  Tl  Tl15  1  -0.29985243  -0.61932045  -0.81078364  1.0
  Tl  Tl16  1  -0.70014757  -0.38067955  -0.18921636  1.0
  Tl  Tl17  1  -0.52752804  -0.59112338  -0.40299404  1.0
  Tl  Tl18  1  -0.47247196  -0.40887662  -0.59700596  1.0
  Tl  Tl19  1  -0.88273569  -0.41690911  -0.79776884  1.0
  Tl  Tl20  1  -0.11726431  -0.58309089  -0.20223116  1.0
  Tl  Tl21  1  -0.29011215  -0.38776880  -1.00482681  1.0
  Tl  Tl22  1  -0.70988785  -0.61223120  0.00482681  1.0
  Tl  Tl23  1  -0.89294384  -0.21440915  -0.99081848  1.0
  Tl  Tl24  1  -0.10705616  -0.78559085  -0.00918152  1.0
  S  S25  1  -0.94071729  -0.93342978  -0.59521164  1.0
  S  S26  1  -0.05928271  -0.06657022  -0.40478836  1.0
  S  S27  1  -0.60121621  -0.92767179  -0.42353255  1.0
  S  S28  1  -0.39878379  -0.07232821  -0.57646745  1.0
  S  S29  1  -0.76017055  -0.92324674  -0.97778407  1.0
  S  S30  1  -0.23982945  -0.07675326  -0.02221593  1.0
  S  S31  1  -0.42045272  -0.91449551  -0.82385516  1.0
  S  S32  1  -0.57954728  -0.08550449  -0.17614484  1.0
  S  S33  1  -0.95028710  -0.75758928  -0.80791509  1.0
  S  S34  1  -0.04971290  -0.24241072  -0.19208491  1.0
  S  S35  1  -0.61030346  -0.75379577  -0.62475850  1.0
  S  S36  1  -0.38969654  -0.24620423  -0.37524150  1.0
  S  S37  1  -0.61001872  -0.56301936  -0.79947559  1.0
  S  S38  1  -0.38998128  -0.43698064  -0.20052441  1.0
  S  S39  1  -0.75475595  -0.27796835  -0.60390029  1.0
  S  S40  1  -0.24524405  -0.72203165  -0.39609971  1.0
  S  S41  1  -0.57283978  -0.26599760  -0.99626500  1.0
  S  S42  1  -0.42716022  -0.73400240  -0.00373500  1.0
  S  S43  1  -0.73506557  -0.08882796  -0.77484503  1.0
  S  S44  1  -0.26493443  -0.91117204  -0.22515497  1.0
