# generated using pymatgen
data_As8S9
_symmetry_space_group_name_H-M   'P 1'
_cell_length_a   10.75613681
_cell_length_b   10.37640318
_cell_length_c   9.52130791
_cell_angle_alpha   90.00000000
_cell_angle_beta   100.95337155
_cell_angle_gamma   90.00000000
_symmetry_Int_Tables_number   1
_chemical_formula_structural   As8S9
_chemical_formula_sum   'As16 S18'
_cell_volume   1043.31366107
_cell_formula_units_Z   2
loop_
 _symmetry_equiv_pos_site_id
 _symmetry_equiv_pos_as_xyz
  1  'x, y, z'
loop_
 _atom_site_type_symbol
 _atom_site_label
 _atom_site_symmetry_multiplicity
 _atom_site_fract_x
 _atom_site_fract_y
 _atom_site_fract_z
 _atom_site_occupancy
  As  As0  1  0.93631484  0.80935422  0.42890602  1.0
  As  As1  1  0.93631484  0.19064578  0.92890602  1.0
  As  As2  1  0.06368516  0.80935422  0.07109398  1.0
  As  As3  1  0.06368516  0.19064578  0.57109398  1.0
  As  As4  1  0.88507211  0.53372099  0.17903097  1.0
  As  As5  1  0.88507211  0.46627901  0.67903097  1.0
  As  As6  1  0.11492789  0.53372099  0.32096903  1.0
  As  As7  1  0.11492789  0.46627901  0.82096903  1.0
  As  As8  1  0.65826080  0.91901503  0.84261729  1.0
  As  As9  1  0.65826080  0.08098497  0.34261729  1.0
  As  As10  1  0.34173920  0.91901503  0.65738271  1.0
  As  As11  1  0.34173920  0.08098497  0.15738271  1.0
  As  As12  1  0.52303143  0.73856610  0.93847522  1.0
  As  As13  1  0.52303143  0.26143390  0.43847522  1.0
  As  As14  1  0.47696857  0.73856610  0.56152478  1.0
  As  As15  1  0.47696857  0.26143390  0.06152478  1.0
  S  S16  1  0.90497872  0.66549378  0.99261329  1.0
  S  S17  1  0.90497872  0.33450622  0.49261329  1.0
  S  S18  1  0.09502128  0.66549378  0.50738671  1.0
  S  S19  1  0.09502128  0.33450622  0.00738671  1.0
  S  S20  1  0.79175636  0.66298812  0.32046311  1.0
  S  S21  1  0.79175636  0.33701188  0.82046311  1.0
  S  S22  1  0.20824364  0.66298812  0.17953689  1.0
  S  S23  1  0.20824364  0.33701188  0.67953689  1.0
  S  S24  1  0.67037717  0.82933844  0.62902309  1.0
  S  S25  1  0.67037717  0.17066156  0.12902309  1.0
  S  S26  1  0.32962283  0.82933844  0.87097691  1.0
  S  S27  1  0.32962283  0.17066156  0.37097691  1.0
  S  S28  1  0.50000000  0.94389069  0.25000000  1.0
  S  S29  1  0.50000000  0.05610931  0.75000000  1.0
  S  S30  1  0.50000000  0.39780330  0.25000000  1.0
  S  S31  1  0.50000000  0.60219670  0.75000000  1.0
  S  S32  1  -0.00000000  0.92426931  0.25000000  1.0
  S  S33  1  0.00000000  0.07573069  0.75000000  1.0
