# generated using pymatgen
data_KCa(H2N)3
_symmetry_space_group_name_H-M   'P 1'
_cell_length_a   6.91239537
_cell_length_b   11.84889243
_cell_length_c   6.66036287
_cell_angle_alpha   90.00000000
_cell_angle_beta   107.97193711
_cell_angle_gamma   90.00000000
_symmetry_Int_Tables_number   1
_chemical_formula_structural   KCa(H2N)3
_chemical_formula_sum   'K4 Ca4 H24 N12'
_cell_volume   518.89513775
_cell_formula_units_Z   4
loop_
 _symmetry_equiv_pos_site_id
 _symmetry_equiv_pos_as_xyz
  1  'x, y, z'
loop_
 _atom_site_type_symbol
 _atom_site_label
 _atom_site_symmetry_multiplicity
 _atom_site_fract_x
 _atom_site_fract_y
 _atom_site_fract_z
 _atom_site_occupancy
  N  N0  1  0.69447384  0.90788083  0.68527242  1.0
  N  N1  1  0.69447384  0.59211917  0.18527242  1.0
  N  N2  1  0.30552616  0.40788083  0.81472758  1.0
  N  N3  1  0.30552616  0.09211917  0.31472758  1.0
  N  N4  1  0.41221948  0.67074018  0.56322062  1.0
  N  N5  1  0.41221948  0.82925982  0.06322062  1.0
  N  N6  1  0.58778052  0.17074018  0.93677938  1.0
  N  N7  1  0.58778052  0.32925982  0.43677938  1.0
  N  N8  1  0.90536299  0.66739764  0.73908948  1.0
  N  N9  1  0.90536299  0.83260236  0.23908948  1.0
  N  N10  1  0.09463701  0.16739764  0.76091052  1.0
  N  N11  1  0.09463701  0.33260236  0.26091052  1.0
  K  K12  1  0.74163957  0.40805350  0.90196211  1.0
  K  K13  1  0.74163957  0.09194650  0.40196211  1.0
  K  K14  1  0.25836043  0.90805350  0.59803789  1.0
  K  K15  1  0.25836043  0.59194650  0.09803789  1.0
  H  H16  1  0.96274961  0.21247426  0.74024357  1.0
  H  H17  1  0.96274961  0.28752574  0.24024357  1.0
  H  H18  1  0.03725039  0.71247426  0.75975643  1.0
  H  H19  1  0.03725039  0.78752574  0.25975643  1.0
  H  H20  1  0.84862089  0.90947189  0.76176619  1.0
  H  H21  1  0.84862089  0.59052811  0.26176619  1.0
  H  H22  1  0.15137911  0.40947189  0.73823381  1.0
  H  H23  1  0.15137911  0.09052811  0.23823381  1.0
  H  H24  1  0.73693450  0.16484593  0.93968995  1.0
  H  H25  1  0.73693450  0.33515407  0.43968995  1.0
  H  H26  1  0.26306550  0.66484593  0.56031005  1.0
  H  H27  1  0.26306550  0.83515407  0.06031005  1.0
  H  H28  1  0.64935781  0.98389528  0.73030592  1.0
  H  H29  1  0.64935781  0.51610472  0.23030592  1.0
  H  H30  1  0.35064219  0.48389528  0.76969408  1.0
  H  H31  1  0.35064219  0.01610472  0.26969408  1.0
  H  H32  1  0.45324008  0.58733177  0.56101030  1.0
  H  H33  1  0.45324008  0.91266823  0.06101030  1.0
  H  H34  1  0.54675992  0.08733177  0.93898970  1.0
  H  H35  1  0.54675992  0.41266823  0.43898970  1.0
  H  H36  1  0.92904297  0.59554894  0.66358603  1.0
  H  H37  1  0.92904297  0.90445106  0.16358603  1.0
  H  H38  1  0.07095703  0.09554894  0.83641397  1.0
  H  H39  1  0.07095703  0.40445106  0.33641397  1.0
  Ca  Ca40  1  0.66415430  0.73730781  0.91308405  1.0
  Ca  Ca41  1  0.66415430  0.76269219  0.41308405  1.0
  Ca  Ca42  1  0.33584570  0.23730781  0.58691595  1.0
  Ca  Ca43  1  0.33584570  0.26269219  0.08691595  1.0
