# generated using pymatgen
data_P2O3F4
_symmetry_space_group_name_H-M   'P 1'
_cell_length_a   13.15530652
_cell_length_b   6.89168664
_cell_length_c   6.94609764
_cell_angle_alpha   90.00000000
_cell_angle_beta   90.00000000
_cell_angle_gamma   90.00000000
_symmetry_Int_Tables_number   1
_chemical_formula_structural   P2O3F4
_chemical_formula_sum   'P8 O12 F16'
_cell_volume   629.74884168
_cell_formula_units_Z   4
loop_
 _symmetry_equiv_pos_site_id
 _symmetry_equiv_pos_as_xyz
  1  'x, y, z'
loop_
 _atom_site_type_symbol
 _atom_site_label
 _atom_site_symmetry_multiplicity
 _atom_site_fract_x
 _atom_site_fract_y
 _atom_site_fract_z
 _atom_site_occupancy
  P  P0  1  0.40287781  0.81489109  0.13874080  1.0
  P  P1  1  0.40287781  0.18510891  0.63874080  1.0
  P  P2  1  0.90287781  0.81489109  0.86125920  1.0
  P  P3  1  0.90287781  0.18510891  0.36125920  1.0
  P  P4  1  0.59712219  0.81489109  0.36125920  1.0
  P  P5  1  0.59712219  0.18510891  0.86125920  1.0
  P  P6  1  0.09712219  0.81489109  0.63874080  1.0
  P  P7  1  0.09712219  0.18510891  0.13874080  1.0
  O  O8  1  0.10500715  0.97687868  0.10282269  1.0
  O  O9  1  0.10500715  0.02312132  0.60282269  1.0
  O  O10  1  0.60500715  0.97687868  0.89717731  1.0
  O  O11  1  0.60500715  0.02312132  0.39717731  1.0
  O  O12  1  0.89499285  0.97687868  0.39717731  1.0
  O  O13  1  0.89499285  0.02312132  0.89717731  1.0
  O  O14  1  0.39499285  0.97687868  0.60282269  1.0
  O  O15  1  0.39499285  0.02312132  0.10282269  1.0
  O  O16  1  0.50000000  0.73044435  0.25000000  1.0
  O  O17  1  0.50000000  0.26955565  0.75000000  1.0
  O  O18  1  0.00000000  0.73044435  0.75000000  1.0
  O  O19  1  0.00000000  0.26955565  0.25000000  1.0
  F  F20  1  0.31506437  0.72125646  0.25694194  1.0
  F  F21  1  0.31506437  0.27874354  0.75694194  1.0
  F  F22  1  0.81506437  0.72125646  0.74305806  1.0
  F  F23  1  0.81506437  0.27874354  0.24305806  1.0
  F  F24  1  0.68493563  0.72125646  0.24305806  1.0
  F  F25  1  0.68493563  0.27874354  0.74305806  1.0
  F  F26  1  0.18493563  0.72125646  0.75694194  1.0
  F  F27  1  0.18493563  0.27874354  0.25694194  1.0
  F  F28  1  0.90310562  0.67960706  0.04087435  1.0
  F  F29  1  0.90310562  0.32039294  0.54087435  1.0
  F  F30  1  0.40310562  0.67960706  0.95912565  1.0
  F  F31  1  0.40310562  0.32039294  0.45912565  1.0
  F  F32  1  0.09689438  0.67960706  0.45912565  1.0
  F  F33  1  0.09689438  0.32039294  0.95912565  1.0
  F  F34  1  0.59689438  0.67960706  0.54087435  1.0
  F  F35  1  0.59689438  0.32039294  0.04087435  1.0
