# generated using pymatgen
data_GaNi10P3
_symmetry_space_group_name_H-M   'P 1'
_cell_length_a   7.63626053
_cell_length_b   7.63626053
_cell_length_c   9.47412946
_cell_angle_alpha   90.00000000
_cell_angle_beta   90.00000000
_cell_angle_gamma   120.00000000
_symmetry_Int_Tables_number   1
_chemical_formula_structural   GaNi10P3
_chemical_formula_sum   'Ga3 Ni30 P9'
_cell_volume   478.44433901
_cell_formula_units_Z   3
loop_
 _symmetry_equiv_pos_site_id
 _symmetry_equiv_pos_as_xyz
  1  'x, y, z'
loop_
 _atom_site_type_symbol
 _atom_site_label
 _atom_site_symmetry_multiplicity
 _atom_site_fract_x
 _atom_site_fract_y
 _atom_site_fract_z
 _atom_site_occupancy
  Ga  Ga0  1  0.00000000  0.00000000  0.00000000  1.0
  Ga  Ga1  1  0.33333333  0.66666667  0.36074287  1.0
  Ga  Ga2  1  0.66666667  0.33333333  0.63925713  1.0
  Ni  Ni3  1  0.00000000  0.00000000  0.38059813  1.0
  Ni  Ni4  1  0.00000000  0.00000000  0.61940187  1.0
  Ni  Ni5  1  0.33333333  0.66666667  0.61030307  1.0
  Ni  Ni6  1  0.66666667  0.33333333  0.38969693  1.0
  Ni  Ni7  1  0.33333333  0.66666667  0.10216642  1.0
  Ni  Ni8  1  0.66666667  0.33333333  0.89783358  1.0
  Ni  Ni9  1  0.65983288  0.65983288  0.50000000  1.0
  Ni  Ni10  1  0.65983288  0.00000000  0.50000000  1.0
  Ni  Ni11  1  -0.00000000  0.65983288  0.50000000  1.0
  Ni  Ni12  1  -0.00000000  0.34016712  0.50000000  1.0
  Ni  Ni13  1  0.34016712  0.34016712  0.50000000  1.0
  Ni  Ni14  1  0.34016712  0.00000000  0.50000000  1.0
  Ni  Ni15  1  0.37038970  0.18519485  0.06733864  1.0
  Ni  Ni16  1  0.18519485  0.37038970  0.93266136  1.0
  Ni  Ni17  1  0.18519485  0.81480515  0.93266136  1.0
  Ni  Ni18  1  0.81480515  0.18519485  0.06733864  1.0
  Ni  Ni19  1  0.81480515  0.62961030  0.06733864  1.0
  Ni  Ni20  1  0.62961030  0.81480515  0.93266136  1.0
  Ni  Ni21  1  0.98757040  0.49378520  0.24294665  1.0
  Ni  Ni22  1  0.49378520  0.98757040  0.75705335  1.0
  Ni  Ni23  1  0.49378520  0.50621480  0.75705335  1.0
  Ni  Ni24  1  0.50621480  0.49378520  0.24294665  1.0
  Ni  Ni25  1  0.50621480  0.01242960  0.24294665  1.0
  Ni  Ni26  1  0.01242960  0.50621480  0.75705335  1.0
  Ni  Ni27  1  0.73130441  0.86565220  0.19791070  1.0
  Ni  Ni28  1  0.86565220  0.73130440  0.80208930  1.0
  Ni  Ni29  1  0.86565220  0.13434780  0.80208930  1.0
  Ni  Ni30  1  0.13434780  0.86565220  0.19791070  1.0
  Ni  Ni31  1  0.13434780  0.26869559  0.19791070  1.0
  Ni  Ni32  1  0.26869559  0.13434780  0.80208930  1.0
  P  P33  1  0.50000000  0.50000000  0.00000000  1.0
  P  P34  1  0.50000000  0.00000000  0.00000000  1.0
  P  P35  1  -0.00000000  0.50000000  0.00000000  1.0
  P  P36  1  0.33009735  0.16504868  0.30946508  1.0
  P  P37  1  0.16504868  0.33009735  0.69053492  1.0
  P  P38  1  0.16504868  0.83495132  0.69053492  1.0
  P  P39  1  0.83495132  0.16504868  0.30946508  1.0
  P  P40  1  0.83495132  0.66990265  0.30946508  1.0
  P  P41  1  0.66990265  0.83495132  0.69053492  1.0
