# generated using pymatgen
data_SbO12
_symmetry_space_group_name_H-M   'P 1'
_cell_length_a   8.06354713
_cell_length_b   8.06354713
_cell_length_c   8.06354713
_cell_angle_alpha   60.00000000
_cell_angle_beta   60.00000000
_cell_angle_gamma   60.00000000
_symmetry_Int_Tables_number   1
_chemical_formula_structural   SbO12
_chemical_formula_sum   'Sb2 O24'
_cell_volume   370.73482962
_cell_formula_units_Z   2
loop_
 _symmetry_equiv_pos_site_id
 _symmetry_equiv_pos_as_xyz
  1  'x, y, z'
loop_
 _atom_site_type_symbol
 _atom_site_label
 _atom_site_symmetry_multiplicity
 _atom_site_fract_x
 _atom_site_fract_y
 _atom_site_fract_z
 _atom_site_occupancy
  Sb  Sb0  1  0.50000000  0.50000000  -0.50000000  1.0
  Sb  Sb1  1  0.75000000  -0.25000000  0.75000000  1.0
  O  O2  1  0.80057900  -0.60016629  0.99900829  1.0
  O  O3  1  -0.19942100  0.99900829  0.39983371  1.0
  O  O4  1  -0.14983371  0.44942100  0.44942100  1.0
  O  O5  1  0.25099171  0.44942100  0.44942100  1.0
  O  O6  1  -0.60016629  0.80057900  0.99900829  1.0
  O  O7  1  0.80057900  -0.19942100  0.99900829  1.0
  O  O8  1  0.80057900  -0.00099171  0.80057900  1.0
  O  O9  1  -0.60016629  0.99900829  0.80057900  1.0
  O  O10  1  0.44942100  -0.14983371  0.44942100  1.0
  O  O11  1  0.44942100  0.44942100  -0.14983371  1.0
  O  O12  1  0.25099171  0.44942100  -0.14983371  1.0
  O  O13  1  0.25099171  -0.14983371  0.44942100  1.0
  O  O14  1  0.99900829  -0.19942100  0.80057900  1.0
  O  O15  1  -0.60016629  0.80057900  0.80057900  1.0
  O  O16  1  0.44942100  0.25099171  -0.14983371  1.0
  O  O17  1  0.44942100  -0.14983371  0.25099171  1.0
  O  O18  1  -0.00099171  0.80057900  0.39983371  1.0
  O  O19  1  0.99900829  -0.60016629  0.80057900  1.0
  O  O20  1  0.80057900  -0.60016629  0.80057900  1.0
  O  O21  1  -0.19942100  0.80057900  0.39983371  1.0
  O  O22  1  0.44942100  0.25099171  0.44942100  1.0
  O  O23  1  -0.14983371  0.25099171  0.44942100  1.0
  O  O24  1  -0.14983371  0.44942100  0.25099171  1.0
  O  O25  1  0.44942100  0.44942100  0.25099171  1.0
