# generated using pymatgen
data_K2Se(SO3)2
_symmetry_space_group_name_H-M   'P 1'
_cell_length_a   9.95965523
_cell_length_b   6.01794716
_cell_length_c   15.93774601
_cell_angle_alpha   90.00000000
_cell_angle_beta   113.07778965
_cell_angle_gamma   90.00000000
_symmetry_Int_Tables_number   1
_chemical_formula_structural   K2Se(SO3)2
_chemical_formula_sum   'K8 Se4 S8 O24'
_cell_volume   878.80981973
_cell_formula_units_Z   4
loop_
 _symmetry_equiv_pos_site_id
 _symmetry_equiv_pos_as_xyz
  1  'x, y, z'
loop_
 _atom_site_type_symbol
 _atom_site_label
 _atom_site_symmetry_multiplicity
 _atom_site_fract_x
 _atom_site_fract_y
 _atom_site_fract_z
 _atom_site_occupancy
  K  K0  1  0.94656383  0.71949893  0.32107696  1.0
  K  K1  1  0.94656383  0.78050107  0.82107696  1.0
  K  K2  1  0.05343617  0.21949893  0.17892304  1.0
  K  K3  1  0.05343617  0.28050107  0.67892304  1.0
  K  K4  1  0.27371428  0.26289365  0.47250222  1.0
  K  K5  1  0.27371428  0.23710635  0.97250222  1.0
  K  K6  1  0.72628572  0.76289365  0.02749778  1.0
  K  K7  1  0.72628572  0.73710635  0.52749778  1.0
  Se  Se8  1  0.63191150  0.33229562  0.28859032  1.0
  Se  Se9  1  0.63191150  0.16770438  0.78859032  1.0
  Se  Se10  1  0.36808850  0.83229562  0.21140968  1.0
  Se  Se11  1  0.36808850  0.66770438  0.71140968  1.0
  S  S12  1  0.83879165  0.20963091  0.40710583  1.0
  S  S13  1  0.83879165  0.29036909  0.90710583  1.0
  S  S14  1  0.16120835  0.70963091  0.09289417  1.0
  S  S15  1  0.16120835  0.79036909  0.59289417  1.0
  S  S16  1  0.69881038  0.25944848  0.16831419  1.0
  S  S17  1  0.69881038  0.24055152  0.66831418  1.0
  S  S18  1  0.30118962  0.75944848  0.33168582  1.0
  S  S19  1  0.30118962  0.74055152  0.83168582  1.0
  O  O20  1  0.96258342  0.27357564  0.38324201  1.0
  O  O21  1  0.96258342  0.22642436  0.88324201  1.0
  O  O22  1  0.03741658  0.77357564  0.11675799  1.0
  O  O23  1  0.03741658  0.72642436  0.61675799  1.0
  O  O24  1  0.82885622  0.33248073  0.48445751  1.0
  O  O25  1  0.82885622  0.16751927  0.98445751  1.0
  O  O26  1  0.17114378  0.83248073  0.01554249  1.0
  O  O27  1  0.17114378  0.66751927  0.51554249  1.0
  O  O28  1  0.82490485  0.96684090  0.41395844  1.0
  O  O29  1  0.82490485  0.53315910  0.91395844  1.0
  O  O30  1  0.17509515  0.46684090  0.08604156  1.0
  O  O31  1  0.17509515  0.03315910  0.58604156  1.0
  O  O32  1  0.79804506  0.44322322  0.16808976  1.0
  O  O33  1  0.79804506  0.05677678  0.66808976  1.0
  O  O34  1  0.20195494  0.94322322  0.33191024  1.0
  O  O35  1  0.20195494  0.55677678  0.83191024  1.0
  O  O36  1  0.77318282  0.04132075  0.18379659  1.0
  O  O37  1  0.77318282  0.45867925  0.68379659  1.0
  O  O38  1  0.22681718  0.54132075  0.31620341  1.0
  O  O39  1  0.22681718  0.95867925  0.81620341  1.0
  O  O40  1  0.55768317  0.26507408  0.09014899  1.0
  O  O41  1  0.55768316  0.23492592  0.59014899  1.0
  O  O42  1  0.44231684  0.76507408  0.40985101  1.0
  O  O43  1  0.44231684  0.73492592  0.90985101  1.0
