# generated using pymatgen
data_Cs2Sn(AuS)2
_symmetry_space_group_name_H-M   'P 1'
_cell_length_a   20.60161881
_cell_length_b   19.44994840
_cell_length_c   8.48601788
_cell_angle_alpha   85.50234382
_cell_angle_beta   70.25249899
_cell_angle_gamma   24.24515719
_symmetry_Int_Tables_number   1
_chemical_formula_structural   Cs2Sn(AuS)2
_chemical_formula_sum   'Cs8 Sn4 Au8 S8'
_cell_volume   1057.03646559
_cell_formula_units_Z   4
loop_
 _symmetry_equiv_pos_site_id
 _symmetry_equiv_pos_as_xyz
  1  'x, y, z'
loop_
 _atom_site_type_symbol
 _atom_site_label
 _atom_site_symmetry_multiplicity
 _atom_site_fract_x
 _atom_site_fract_y
 _atom_site_fract_z
 _atom_site_occupancy
  Cs  Cs0  1  1.16842045  0.40176180  0.55939556  1.0
  Cs  Cs1  1  0.87042219  0.55939556  0.40176180  1.0
  Cs  Cs2  1  0.84823820  1.08157955  0.37957781  1.0
  Cs  Cs3  1  0.69060444  0.37957781  1.08157955  1.0
  Cs  Cs4  1  1.55939556  -0.12957781  0.16842045  1.0
  Cs  Cs5  1  1.40176180  0.16842045  -0.12957781  1.0
  Cs  Cs6  1  0.37957781  0.69060444  0.84823820  1.0
  Cs  Cs7  1  1.08157955  0.84823820  0.69060444  1.0
  Sn  Sn8  1  1.12500000  0.12500000  0.62500000  1.0
  Sn  Sn9  1  1.12500000  0.62500000  0.12500000  1.0
  Sn  Sn10  1  1.12500000  0.12500000  0.12500000  1.0
  Sn  Sn11  1  1.62500000  0.12500000  0.12500000  1.0
  Au  Au12  1  0.48558287  0.72085283  1.29540956  1.0
  Au  Au13  1  0.49815474  1.29540956  0.72085283  1.0
  Au  Au14  1  0.52914717  0.76441713  0.75184526  1.0
  Au  Au15  1  0.95459044  0.75184526  0.76441713  1.0
  Au  Au16  1  1.29540956  0.49815474  0.48558287  1.0
  Au  Au17  1  0.72085283  0.48558287  0.49815474  1.0
  Au  Au18  1  0.75184526  0.95459044  0.52914717  1.0
  Au  Au19  1  0.76441713  0.52914717  0.95459044  1.0
  S  S20  1  1.20473376  -0.08963343  0.59825114  1.0
  S  S21  1  1.28664854  0.59825114  -0.08963343  1.0
  S  S22  1  0.33963343  1.04526624  0.96335146  1.0
  S  S23  1  0.65174886  0.96335146  1.04526624  1.0
  S  S24  1  1.59825114  0.28664854  0.20473376  1.0
  S  S25  1  0.91036657  0.20473376  0.28664854  1.0
  S  S26  1  0.96335146  0.65174886  0.33963343  1.0
  S  S27  1  1.04526624  0.33963343  0.65174886  1.0
