# generated using pymatgen
data_Rb2NbCuS2
_symmetry_space_group_name_H-M   'P 1'
_cell_length_a   23.66901611
_cell_length_b   23.46645744
_cell_length_c   5.98789330
_cell_angle_alpha   84.62867456
_cell_angle_beta   80.78291602
_cell_angle_gamma   14.58840941
_symmetry_Int_Tables_number   1
_chemical_formula_structural   Rb2NbCuS2
_chemical_formula_sum   'Rb8 Nb4 Cu4 S8'
_cell_volume   801.26278832
_cell_formula_units_Z   4
loop_
 _symmetry_equiv_pos_site_id
 _symmetry_equiv_pos_as_xyz
  1  'x, y, z'
loop_
 _atom_site_type_symbol
 _atom_site_label
 _atom_site_symmetry_multiplicity
 _atom_site_fract_x
 _atom_site_fract_y
 _atom_site_fract_z
 _atom_site_occupancy
  Rb  Rb0  1  1.48552207  0.12091091  0.41088969  1.0
  Rb  Rb1  1  0.98267733  0.41088969  0.12091091  1.0
  Rb  Rb2  1  1.12908909  0.76447793  0.26732267  1.0
  Rb  Rb3  1  0.83911031  0.26732267  0.76447793  1.0
  Rb  Rb4  1  1.41088969  -0.01732267  0.48552207  1.0
  Rb  Rb5  1  1.12091091  0.48552207  -0.01732267  1.0
  Rb  Rb6  1  0.26732267  0.83911031  1.12908909  1.0
  Rb  Rb7  1  0.76447793  1.12908909  0.83911031  1.0
  Nb  Nb8  1  0.62500000  0.62500000  1.12500000  1.0
  Nb  Nb9  1  0.62500000  1.12500000  0.62500000  1.0
  Nb  Nb10  1  0.62500000  0.62500000  0.62500000  1.0
  Nb  Nb11  1  1.12500000  0.62500000  0.62500000  1.0
  Cu  Cu12  1  1.12500000  0.12500000  0.62500000  1.0
  Cu  Cu13  1  1.12500000  0.62500000  0.12500000  1.0
  Cu  Cu14  1  1.12500000  0.12500000  0.12500000  1.0
  Cu  Cu15  1  1.62500000  0.12500000  0.12500000  1.0
  S  S16  1  1.33901705  -0.15534680  0.51929550  1.0
  S  S17  1  1.29703425  0.51929550  -0.15534680  1.0
  S  S18  1  0.40534680  0.91098295  0.95296575  1.0
  S  S19  1  0.73070450  0.95296575  0.91098295  1.0
  S  S20  1  1.51929550  0.29703425  0.33901705  1.0
  S  S21  1  0.84465320  0.33901705  0.29703425  1.0
  S  S22  1  0.95296575  0.73070450  0.40534680  1.0
  S  S23  1  0.91098295  0.40534680  0.73070450  1.0
