# generated using pymatgen
data_B2AsCl2
_symmetry_space_group_name_H-M   'P 1'
_cell_length_a   7.45055991
_cell_length_b   11.88208611
_cell_length_c   8.32452319
_cell_angle_alpha   69.90673088
_cell_angle_beta   57.39621757
_cell_angle_gamma   78.26243977
_symmetry_Int_Tables_number   1
_chemical_formula_structural   B2AsCl2
_chemical_formula_sum   'B8 As4 Cl8'
_cell_volume   582.88038705
_cell_formula_units_Z   4
loop_
 _symmetry_equiv_pos_site_id
 _symmetry_equiv_pos_as_xyz
  1  'x, y, z'
loop_
 _atom_site_type_symbol
 _atom_site_label
 _atom_site_symmetry_multiplicity
 _atom_site_fract_x
 _atom_site_fract_y
 _atom_site_fract_z
 _atom_site_occupancy
  B  B0  1  0.33673566  -0.70987519  0.61272681  1.0
  B  B1  1  -0.33673566  -0.29012481  0.38727319  1.0
  B  B2  1  0.10341918  -0.65521337  0.79125307  1.0
  B  B3  1  -0.10341918  -0.34478663  0.20874693  1.0
  B  B4  1  0.11022828  -0.78908402  0.74396047  1.0
  B  B5  1  -0.11022828  -0.21091598  0.25603953  1.0
  B  B6  1  -0.67380098  -0.85172750  0.77684824  1.0
  B  B7  1  0.67380098  -0.14827250  0.22315176  1.0
  As  As8  1  -0.03777461  -0.18306227  0.96056897  1.0
  As  As9  1  0.03777461  -0.81693773  0.03943103  1.0
  As  As10  1  -0.63304341  -0.70184972  0.84833522  1.0
  As  As11  1  0.63304341  -0.29815028  0.15166478  1.0
  Cl  Cl12  1  0.50823561  -0.64821897  0.35562987  1.0
  Cl  Cl13  1  -0.50823561  -0.35178103  0.64437013  1.0
  Cl  Cl14  1  0.52150701  -1.01478252  0.25016287  1.0
  Cl  Cl15  1  -0.52150701  0.01478252  0.74983713  1.0
  Cl  Cl16  1  -0.04788745  -0.52123306  0.78466351  1.0
  Cl  Cl17  1  0.04788745  -0.47876694  0.21533649  1.0
  Cl  Cl18  1  -0.03442997  -0.83878104  0.67023745  1.0
  Cl  Cl19  1  0.03442997  -0.16121896  0.32976255  1.0
