# generated using pymatgen
data_AuBrO2
_symmetry_space_group_name_H-M   'P 1'
_cell_length_a   11.24288794
_cell_length_b   11.24288794
_cell_length_c   3.61995197
_cell_angle_alpha   88.87874801
_cell_angle_beta   91.12125199
_cell_angle_gamma   24.74986261
_symmetry_Int_Tables_number   1
_chemical_formula_structural   AuBrO2
_chemical_formula_sum   'Au2 Br2 O4'
_cell_volume   190.76534570
_cell_formula_units_Z   2
loop_
 _symmetry_equiv_pos_site_id
 _symmetry_equiv_pos_as_xyz
  1  'x, y, z'
loop_
 _atom_site_type_symbol
 _atom_site_label
 _atom_site_symmetry_multiplicity
 _atom_site_fract_x
 _atom_site_fract_y
 _atom_site_fract_z
 _atom_site_occupancy
  Au  Au0  1  1.00000000  -0.50000000  -0.00000000  1.0
  Au  Au1  1  0.50000000  0.00000000  0.50000000  1.0
  Br  Br2  1  0.65692490  -0.34307510  0.75000000  1.0
  Br  Br3  1  0.34307510  0.34307510  0.25000000  1.0
  O  O4  1  1.09709189  -0.15750257  0.76552963  1.0
  O  O5  1  0.84249743  0.09709189  0.73447037  1.0
  O  O6  1  0.90290811  -0.84249743  0.23447037  1.0
  O  O7  1  0.15750257  -0.09709189  0.26552963  1.0
