# generated using pymatgen
data_Fe2(SO4)3
_symmetry_space_group_name_H-M   'P 1'
_cell_length_a   8.98257093
_cell_length_b   8.98257093
_cell_length_c   8.98257093
_cell_angle_alpha   55.88789970
_cell_angle_beta   55.88789970
_cell_angle_gamma   55.88789970
_symmetry_Int_Tables_number   1
_chemical_formula_structural   Fe2(SO4)3
_chemical_formula_sum   'Fe4 S6 O24'
_cell_volume   463.64457465
_cell_formula_units_Z   2
loop_
 _symmetry_equiv_pos_site_id
 _symmetry_equiv_pos_as_xyz
  1  'x, y, z'
loop_
 _atom_site_type_symbol
 _atom_site_label
 _atom_site_symmetry_multiplicity
 _atom_site_fract_x
 _atom_site_fract_y
 _atom_site_fract_z
 _atom_site_occupancy
  Fe  Fe0  1  0.14494506  0.14494506  0.14494506  1.0
  Fe  Fe1  1  0.85505494  -0.14494506  -0.14494506  1.0
  Fe  Fe2  1  0.35076163  0.35076163  -0.64923837  1.0
  Fe  Fe3  1  0.64923837  0.64923837  -0.35076163  1.0
  S  S4  1  0.54064331  0.24774345  -0.03644659  1.0
  S  S5  1  1.03644659  -0.54064331  -0.24774345  1.0
  S  S6  1  0.75225655  0.03644659  -0.54064331  1.0
  S  S7  1  0.45935669  -0.24774345  0.03644659  1.0
  S  S8  1  0.96355341  -0.45935669  0.24774345  1.0
  S  S9  1  1.24774345  -0.03644659  -0.45935669  1.0
  O  O10  1  0.20829465  0.98864156  -0.61404511  1.0
  O  O11  1  0.61404511  -0.20829465  0.01135844  1.0
  O  O12  1  1.01135844  -0.38595489  -0.20829465  1.0
  O  O13  1  0.79170535  0.01135844  -0.38595489  1.0
  O  O14  1  0.38595489  0.20829465  -0.01135844  1.0
  O  O15  1  0.98864156  0.38595489  -0.79170535  1.0
  O  O16  1  0.55119914  0.17547955  -0.52471954  1.0
  O  O17  1  0.52471954  0.44880086  -0.17547955  1.0
  O  O18  1  0.82452045  0.52471954  -0.55119914  1.0
  O  O19  1  0.44880086  0.82452045  -0.47528046  1.0
  O  O20  1  0.47528046  0.55119914  -0.82452045  1.0
  O  O21  1  0.17547955  0.47528046  -0.44880086  1.0
  O  O22  1  0.26755147  0.88912512  -0.88541971  1.0
  O  O23  1  0.88541971  -0.26755147  0.11087488  1.0
  O  O24  1  1.11087488  -0.11458029  -0.26755147  1.0
  O  O25  1  0.73244853  0.11087488  -0.11458029  1.0
  O  O26  1  0.11458029  0.26755147  -0.11087488  1.0
  O  O27  1  0.88912512  0.11458029  -0.73244853  1.0
  O  O28  1  0.52181410  0.22206578  0.15183529  1.0
  O  O29  1  0.84816471  -0.52181410  -0.22206578  1.0
  O  O30  1  0.77793422  -0.15183529  -0.52181410  1.0
  O  O31  1  0.47818590  -0.22206578  -0.15183529  1.0
  O  O32  1  1.15183529  -0.47818590  0.22206578  1.0
  O  O33  1  1.22206578  0.15183529  -0.47818590  1.0
