# generated using pymatgen
data_ScGaPd
_symmetry_space_group_name_H-M   'P 1'
_cell_length_a   6.29479903
_cell_length_b   4.40536461
_cell_length_c   7.61251698
_cell_angle_alpha   90.00000000
_cell_angle_beta   90.00000000
_cell_angle_gamma   90.00000000
_symmetry_Int_Tables_number   1
_chemical_formula_structural   ScGaPd
_chemical_formula_sum   'Sc4 Ga4 Pd4'
_cell_volume   211.10183207
_cell_formula_units_Z   4
loop_
 _symmetry_equiv_pos_site_id
 _symmetry_equiv_pos_as_xyz
  1  'x, y, z'
loop_
 _atom_site_type_symbol
 _atom_site_label
 _atom_site_symmetry_multiplicity
 _atom_site_fract_x
 _atom_site_fract_y
 _atom_site_fract_z
 _atom_site_occupancy
  Sc  Sc0  1  1.00807511  0.75000000  0.71860992  1.0
  Sc  Sc1  1  0.50807511  0.75000000  0.78139008  1.0
  Sc  Sc2  1  -0.00807511  0.25000000  0.28139008  1.0
  Sc  Sc3  1  0.49192489  0.25000000  0.21860992  1.0
  Ga  Ga4  1  0.70340417  0.75000000  0.41870963  1.0
  Ga  Ga5  1  0.20340417  0.75000000  0.08129037  1.0
  Ga  Ga6  1  0.29659583  0.25000000  0.58129037  1.0
  Ga  Ga7  1  0.79659583  0.25000000  0.91870963  1.0
  Pd  Pd8  1  0.76747487  0.75000000  0.08768451  1.0
  Pd  Pd9  1  0.26747487  0.75000000  0.41231549  1.0
  Pd  Pd10  1  0.23252513  0.25000000  0.91231549  1.0
  Pd  Pd11  1  0.73252513  0.25000000  0.58768451  1.0
