# generated using pymatgen
data_Lu12(MnC3)5
_symmetry_space_group_name_H-M   'P 1'
_cell_length_a   10.26687586
_cell_length_b   10.26687586
_cell_length_c   4.90224046
_cell_angle_alpha   90.00000000
_cell_angle_beta   90.00000000
_cell_angle_gamma   120.00000000
_symmetry_Int_Tables_number   1
_chemical_formula_structural   Lu12(MnC3)5
_chemical_formula_sum   'Lu12 Mn5 C15'
_cell_volume   447.50909158
_cell_formula_units_Z   1
loop_
 _symmetry_equiv_pos_site_id
 _symmetry_equiv_pos_as_xyz
  1  'x, y, z'
loop_
 _atom_site_type_symbol
 _atom_site_label
 _atom_site_symmetry_multiplicity
 _atom_site_fract_x
 _atom_site_fract_y
 _atom_site_fract_z
 _atom_site_occupancy
  Mn  Mn0  1  0.84593704  0.84593704  0.00000000  1.0
  Mn  Mn1  1  0.00000000  0.15406296  0.00000000  1.0
  Mn  Mn2  1  0.15406296  0.00000000  0.00000000  1.0
  Mn  Mn3  1  0.33333333  0.66666667  0.50000000  1.0
  Mn  Mn4  1  0.66666667  0.33333333  0.50000000  1.0
  C  C5  1  0.19370432  0.72124657  0.50000000  1.0
  C  C6  1  0.72124657  0.19370432  0.50000000  1.0
  C  C7  1  0.52754225  0.80629568  0.50000000  1.0
  C  C8  1  0.27875343  0.47245775  0.50000000  1.0
  C  C9  1  0.80629568  0.52754225  0.50000000  1.0
  C  C10  1  0.47245775  0.27875343  0.50000000  1.0
  C  C11  1  0.67257837  0.67257837  0.00000000  1.0
  C  C12  1  -0.00000000  0.32742163  0.00000000  1.0
  C  C13  1  0.32742163  0.00000000  0.00000000  1.0
  C  C14  1  0.54025364  0.54025364  0.00000000  1.0
  C  C15  1  -0.00000000  0.45974636  0.00000000  1.0
  C  C16  1  0.45974636  0.00000000  0.00000000  1.0
  C  C17  1  0.20472462  0.20472462  0.00000000  1.0
  C  C18  1  0.00000000  0.79527538  0.00000000  1.0
  C  C19  1  0.79527538  0.00000000  0.00000000  1.0
  Lu  Lu20  1  0.18609772  0.73135167  0.00000000  1.0
  Lu  Lu21  1  0.73135167  0.18609772  0.00000000  1.0
  Lu  Lu22  1  0.54525395  0.81390228  0.00000000  1.0
  Lu  Lu23  1  0.26864833  0.45474605  0.00000000  1.0
  Lu  Lu24  1  0.81390228  0.54525395  0.00000000  1.0
  Lu  Lu25  1  0.45474605  0.26864833  0.00000000  1.0
  Lu  Lu26  1  0.56562183  0.56562183  0.50000000  1.0
  Lu  Lu27  1  0.00000000  0.43437817  0.50000000  1.0
  Lu  Lu28  1  0.43437817  0.00000000  0.50000000  1.0
  Lu  Lu29  1  0.20594013  0.20594013  0.50000000  1.0
  Lu  Lu30  1  -0.00000000  0.79405987  0.50000000  1.0
  Lu  Lu31  1  0.79405987  0.00000000  0.50000000  1.0
