# generated using pymatgen
data_Ba3(SbO3)2
_symmetry_space_group_name_H-M   'P 1'
_cell_length_a   6.27947090
_cell_length_b   12.30081666
_cell_length_c   9.94068719
_cell_angle_alpha   104.87104608
_cell_angle_beta   108.40458793
_cell_angle_gamma   90.41462730
_symmetry_Int_Tables_number   1
_chemical_formula_structural   Ba3(SbO3)2
_chemical_formula_sum   'Ba9 Sb6 O18'
_cell_volume   700.89809147
_cell_formula_units_Z   3
loop_
 _symmetry_equiv_pos_site_id
 _symmetry_equiv_pos_as_xyz
  1  'x, y, z'
loop_
 _atom_site_type_symbol
 _atom_site_label
 _atom_site_symmetry_multiplicity
 _atom_site_fract_x
 _atom_site_fract_y
 _atom_site_fract_z
 _atom_site_occupancy
  Ba  Ba0  1  -0.84376718  -0.21021500  -0.72006918  1.0
  Ba  Ba1  1  -0.15623282  -0.78978500  -0.27993082  1.0
  Ba  Ba2  1  -0.78777394  -0.79766582  -0.60029146  1.0
  Ba  Ba3  1  -0.21222606  -0.20233418  -0.39970854  1.0
  Ba  Ba4  1  -0.48145804  -0.79710549  -0.96073318  1.0
  Ba  Ba5  1  -0.51854196  -0.20289451  -0.03926682  1.0
  Ba  Ba6  1  -0.38668023  -0.43482933  -0.78632894  1.0
  Ba  Ba7  1  -0.61331977  -0.56517067  -0.21367106  1.0
  Ba  Ba8  1  0.00000000  0.00000000  0.00000000  1.0
  Sb  Sb9  1  -0.95672636  -0.62527660  -0.90579535  1.0
  Sb  Sb10  1  -0.04327364  -0.37472340  -0.09420465  1.0
  Sb  Sb11  1  -0.76238107  -0.41879403  -0.50574648  1.0
  Sb  Sb12  1  -0.23761893  -0.58120597  -0.49425352  1.0
  Sb  Sb13  1  -0.31604038  -0.99132446  -0.66709139  1.0
  Sb  Sb14  1  -0.68395962  -0.00867554  -0.33290861  1.0
  O  O15  1  -0.99166548  -0.67868087  -0.43422700  1.0
  O  O16  1  -0.00833452  -0.32131913  -0.56577300  1.0
  O  O17  1  -0.97523289  -0.78064486  -0.88348604  1.0
  O  O18  1  -0.02476711  -0.21935514  -0.11651396  1.0
  O  O19  1  -0.93412501  -0.98384439  -0.24967698  1.0
  O  O20  1  -0.06587499  -0.01615561  -0.75032302  1.0
  O  O21  1  -0.73128459  -0.35691687  -0.95515770  1.0
  O  O22  1  -0.26871541  -0.64308313  -0.04484230  1.0
  O  O23  1  -0.60483138  -0.85486209  -0.33318506  1.0
  O  O24  1  -0.39516862  -0.14513791  -0.66681494  1.0
  O  O25  1  -0.56412743  -0.98115674  -0.84363262  1.0
  O  O26  1  -0.43587257  -0.01884326  -0.15636738  1.0
  O  O27  1  -0.44217087  -0.65876724  -0.42467282  1.0
  O  O28  1  -0.55782913  -0.34123276  -0.57532718  1.0
  O  O29  1  -0.36877235  -0.64494211  -0.70969059  1.0
  O  O30  1  -0.63122765  -0.35505789  -0.29030941  1.0
  O  O31  1  -0.20256335  -0.33868461  -0.94702957  1.0
  O  O32  1  -0.79743665  -0.66131539  -0.05297043  1.0
