# generated using pymatgen
data_Tl2SiHgSe4
_symmetry_space_group_name_H-M   'P 1'
_cell_length_a   6.71017170
_cell_length_b   6.71017170
_cell_length_c   6.71017170
_cell_angle_alpha   105.14478019
_cell_angle_beta   105.14478019
_cell_angle_gamma   118.52107548
_symmetry_Int_Tables_number   1
_chemical_formula_structural   Tl2SiHgSe4
_chemical_formula_sum   'Tl2 Si1 Hg1 Se4'
_cell_volume   228.17009822
_cell_formula_units_Z   1
loop_
 _symmetry_equiv_pos_site_id
 _symmetry_equiv_pos_as_xyz
  1  'x, y, z'
loop_
 _atom_site_type_symbol
 _atom_site_label
 _atom_site_symmetry_multiplicity
 _atom_site_fract_x
 _atom_site_fract_y
 _atom_site_fract_z
 _atom_site_occupancy
  Tl  Tl0  1  0.50000000  0.00000000  0.50000000  1.0
  Tl  Tl1  1  0.00000000  0.50000000  0.50000000  1.0
  Si  Si2  1  0.00000000  0.00000000  0.00000000  1.0
  Hg  Hg3  1  0.50000000  0.50000000  -0.00000000  1.0
  Se  Se4  1  1.04464823  1.04464823  0.67951797  1.0
  Se  Se5  1  0.95535177  1.63486973  1.00000000  1.0
  Se  Se6  1  1.63486973  0.95535177  1.00000000  1.0
  Se  Se7  1  0.36513027  0.36513027  0.32048203  1.0
