# generated using pymatgen
data_PtC8(NCl3)2
_symmetry_space_group_name_H-M   'P 1'
_cell_length_a   7.67710462
_cell_length_b   7.67710462
_cell_length_c   7.67710462
_cell_angle_alpha   60.00000000
_cell_angle_beta   60.00000000
_cell_angle_gamma   60.00000000
_symmetry_Int_Tables_number   1
_chemical_formula_structural   PtC8(NCl3)2
_chemical_formula_sum   'Pt1 C8 N2 Cl6'
_cell_volume   319.94651087
_cell_formula_units_Z   1
loop_
 _symmetry_equiv_pos_site_id
 _symmetry_equiv_pos_as_xyz
  1  'x, y, z'
loop_
 _atom_site_type_symbol
 _atom_site_label
 _atom_site_symmetry_multiplicity
 _atom_site_fract_x
 _atom_site_fract_y
 _atom_site_fract_z
 _atom_site_occupancy
  Pt  Pt0  1  -0.00000000  0.00000000  -0.00000000  1.0
  C  C1  1  0.67341199  0.67341199  -0.02023598  1.0
  C  C2  1  0.67341199  0.97976402  -0.32658801  1.0
  C  C3  1  0.97976402  0.67341199  -0.32658801  1.0
  C  C4  1  0.67341199  0.67341199  -0.32658801  1.0
  C  C5  1  1.32658801  0.32658801  0.02023598  1.0
  C  C6  1  1.32658801  0.02023598  0.32658801  1.0
  C  C7  1  1.02023598  0.32658801  0.32658801  1.0
  C  C8  1  1.32658801  0.32658801  0.32658801  1.0
  N  N9  1  0.75000000  0.75000000  -0.25000000  1.0
  N  N10  1  1.25000000  0.25000000  0.25000000  1.0
  Cl  Cl11  1  0.78590568  0.78590568  -0.78590568  1.0
  Cl  Cl12  1  0.21409432  -0.21409432  1.21409432  1.0
  Cl  Cl13  1  -0.21409432  0.21409432  0.21409432  1.0
  Cl  Cl14  1  0.21409432  1.21409432  -0.21409432  1.0
  Cl  Cl15  1  -0.21409432  0.21409432  0.78590568  1.0
  Cl  Cl16  1  -0.78590568  0.78590568  0.78590568  1.0
