# generated using pymatgen
data_Tl2CdGeTe4
_symmetry_space_group_name_H-M   'P 1'
_cell_length_a   7.06231524
_cell_length_b   7.06231524
_cell_length_c   7.06231524
_cell_angle_alpha   104.99767802
_cell_angle_beta   104.99767802
_cell_angle_gamma   118.84489701
_symmetry_Int_Tables_number   1
_chemical_formula_structural   Tl2CdGeTe4
_chemical_formula_sum   'Tl2 Cd1 Ge1 Te4'
_cell_volume   265.63405456
_cell_formula_units_Z   1
loop_
 _symmetry_equiv_pos_site_id
 _symmetry_equiv_pos_as_xyz
  1  'x, y, z'
loop_
 _atom_site_type_symbol
 _atom_site_label
 _atom_site_symmetry_multiplicity
 _atom_site_fract_x
 _atom_site_fract_y
 _atom_site_fract_z
 _atom_site_occupancy
  Tl  Tl0  1  0.50000000  0.00000000  0.50000000  1.0
  Tl  Tl1  1  0.00000000  0.50000000  0.50000000  1.0
  Cd  Cd2  1  0.50000000  0.50000000  -0.00000000  1.0
  Ge  Ge3  1  -0.00000000  -0.00000000  -0.00000000  1.0
  Te  Te4  1  1.05125939  1.05125939  0.65373675  1.0
  Te  Te5  1  0.94874061  1.60247735  1.00000000  1.0
  Te  Te6  1  1.60247735  0.94874061  1.00000000  1.0
  Te  Te7  1  0.39752265  0.39752265  0.34626325  1.0
