# generated using pymatgen
data_BaLu2NiO5
_symmetry_space_group_name_H-M   'P 1'
_cell_length_a   12.19065432
_cell_length_b   5.66498319
_cell_length_c   6.99731578
_cell_angle_alpha   90.00000000
_cell_angle_beta   90.00000000
_cell_angle_gamma   90.00000000
_symmetry_Int_Tables_number   1
_chemical_formula_structural   BaLu2NiO5
_chemical_formula_sum   'Ba4 Lu8 Ni4 O20'
_cell_volume   483.23359080
_cell_formula_units_Z   4
loop_
 _symmetry_equiv_pos_site_id
 _symmetry_equiv_pos_as_xyz
  1  'x, y, z'
loop_
 _atom_site_type_symbol
 _atom_site_label
 _atom_site_symmetry_multiplicity
 _atom_site_fract_x
 _atom_site_fract_y
 _atom_site_fract_z
 _atom_site_occupancy
  O  O0  1  0.43600719  0.99682624  0.66809676  1.0
  O  O1  1  0.43600719  0.50317376  0.66809676  1.0
  O  O2  1  0.93600719  0.99682624  0.83190324  1.0
  O  O3  1  0.93600719  0.50317376  0.83190324  1.0
  O  O4  1  0.56399281  0.49682624  0.33190324  1.0
  O  O5  1  0.56399281  0.00317376  0.33190324  1.0
  O  O6  1  0.06399281  0.49682624  0.16809676  1.0
  O  O7  1  0.06399281  0.00317376  0.16809676  1.0
  O  O8  1  0.22556129  1.00082990  0.86583596  1.0
  O  O9  1  0.22556129  0.49917010  0.86583596  1.0
  O  O10  1  0.72556129  1.00082990  0.63416404  1.0
  O  O11  1  0.72556129  0.49917010  0.63416404  1.0
  O  O12  1  0.77443871  0.50082990  0.13416404  1.0
  O  O13  1  0.77443871  -0.00082990  0.13416404  1.0
  O  O14  1  0.27443871  0.50082990  0.36583596  1.0
  O  O15  1  0.27443871  -0.00082990  0.36583596  1.0
  O  O16  1  0.39524308  0.75000000  0.07660358  1.0
  O  O17  1  0.89524308  0.75000000  0.42339642  1.0
  O  O18  1  0.60475692  0.25000000  0.92339642  1.0
  O  O19  1  0.10475692  0.25000000  0.57660358  1.0
  Ba  Ba20  1  0.09711924  0.75000000  0.57927402  1.0
  Ba  Ba21  1  0.59711924  0.75000000  0.92072598  1.0
  Ba  Ba22  1  0.90288076  0.25000000  0.42072598  1.0
  Ba  Ba23  1  0.40288076  0.25000000  0.07927402  1.0
  Ni  Ni24  1  0.34395813  0.75000000  0.80415014  1.0
  Ni  Ni25  1  0.84395813  0.75000000  0.69584986  1.0
  Ni  Ni26  1  0.65604187  0.25000000  0.19584986  1.0
  Ni  Ni27  1  0.15604187  0.25000000  0.30415014  1.0
  Lu  Lu28  1  0.20814415  0.75000000  0.12206419  1.0
  Lu  Lu29  1  0.70814415  0.75000000  0.37793581  1.0
  Lu  Lu30  1  0.79185585  0.25000000  0.87793581  1.0
  Lu  Lu31  1  0.29185585  0.25000000  0.62206419  1.0
  Lu  Lu32  1  0.92493553  0.75000000  0.09676304  1.0
  Lu  Lu33  1  0.42493553  0.75000000  0.40323696  1.0
  Lu  Lu34  1  0.07506447  0.25000000  0.90323696  1.0
  Lu  Lu35  1  0.57506447  0.25000000  0.59676304  1.0
