# generated using pymatgen
data_Ba2Pd
_symmetry_space_group_name_H-M   'P 1'
_cell_length_a   8.55036108
_cell_length_b   5.18058297
_cell_length_c   10.38593069
_cell_angle_alpha   90.00000000
_cell_angle_beta   90.00000000
_cell_angle_gamma   90.00000000
_symmetry_Int_Tables_number   1
_chemical_formula_structural   Ba2Pd
_chemical_formula_sum   'Ba8 Pd4'
_cell_volume   460.05367996
_cell_formula_units_Z   4
loop_
 _symmetry_equiv_pos_site_id
 _symmetry_equiv_pos_as_xyz
  1  'x, y, z'
loop_
 _atom_site_type_symbol
 _atom_site_label
 _atom_site_symmetry_multiplicity
 _atom_site_fract_x
 _atom_site_fract_y
 _atom_site_fract_z
 _atom_site_occupancy
  Ba  Ba0  1  0.85711393  0.25000000  0.42226305  1.0
  Ba  Ba1  1  0.35711393  0.25000000  0.07773695  1.0
  Ba  Ba2  1  0.14288607  0.75000000  0.57773695  1.0
  Ba  Ba3  1  0.64288607  0.75000000  0.92226305  1.0
  Ba  Ba4  1  -0.01152635  0.25000000  0.83825496  1.0
  Ba  Ba5  1  0.48847365  0.25000000  0.66174504  1.0
  Ba  Ba6  1  1.01152635  0.75000000  0.16174504  1.0
  Ba  Ba7  1  0.51152635  0.75000000  0.33825496  1.0
  Pd  Pd8  1  0.25455605  0.25000000  0.40067559  1.0
  Pd  Pd9  1  0.75455605  0.25000000  0.09932441  1.0
  Pd  Pd10  1  0.74544395  0.75000000  0.59932441  1.0
  Pd  Pd11  1  0.24544395  0.75000000  0.90067559  1.0
