# generated using pymatgen
data_LiY(CN2)2
_symmetry_space_group_name_H-M   'P 1'
_cell_length_a   9.81286437
_cell_length_b   7.43787114
_cell_length_c   6.06233061
_cell_angle_alpha   90.00000000
_cell_angle_beta   90.00000000
_cell_angle_gamma   90.00000000
_symmetry_Int_Tables_number   1
_chemical_formula_structural   LiY(CN2)2
_chemical_formula_sum   'Li4 Y4 C8 N16'
_cell_volume   442.47023724
_cell_formula_units_Z   4
loop_
 _symmetry_equiv_pos_site_id
 _symmetry_equiv_pos_as_xyz
  1  'x, y, z'
loop_
 _atom_site_type_symbol
 _atom_site_label
 _atom_site_symmetry_multiplicity
 _atom_site_fract_x
 _atom_site_fract_y
 _atom_site_fract_z
 _atom_site_occupancy
  Li  Li0  1  0.00000000  0.56843127  0.75000000  1.0
  Li  Li1  1  0.00000000  0.43156873  0.25000000  1.0
  Li  Li2  1  0.50000000  0.06843127  0.75000000  1.0
  Li  Li3  1  0.50000000  0.93156873  0.25000000  1.0
  Y  Y4  1  0.00000000  0.13478193  0.75000000  1.0
  Y  Y5  1  0.00000000  0.86521807  0.25000000  1.0
  Y  Y6  1  0.50000000  0.63478193  0.75000000  1.0
  Y  Y7  1  0.50000000  0.36521807  0.25000000  1.0
  C  C8  1  0.74015507  0.89508195  0.56985162  1.0
  C  C9  1  0.74015507  0.10491805  0.06985162  1.0
  C  C10  1  0.24015507  0.39508195  0.93014838  1.0
  C  C11  1  0.24015507  0.60491805  0.43014838  1.0
  C  C12  1  0.25984493  0.89508195  0.93014838  1.0
  C  C13  1  0.25984493  0.10491805  0.43014838  1.0
  C  C14  1  0.75984493  0.39508195  0.56985162  1.0
  C  C15  1  0.75984493  0.60491805  0.06985162  1.0
  N  N16  1  0.86495250  0.91703525  0.55995879  1.0
  N  N17  1  0.86495250  0.08296475  0.05995879  1.0
  N  N18  1  0.36495250  0.41703525  0.94004121  1.0
  N  N19  1  0.36495250  0.58296475  0.44004121  1.0
  N  N20  1  0.13504750  0.91703525  0.94004121  1.0
  N  N21  1  0.13504750  0.08296475  0.44004121  1.0
  N  N22  1  0.63504750  0.41703525  0.55995879  1.0
  N  N23  1  0.63504750  0.58296475  0.05995879  1.0
  N  N24  1  0.61623342  0.87404152  0.57900664  1.0
  N  N25  1  0.61623342  0.12595848  0.07900664  1.0
  N  N26  1  0.11623342  0.37404152  0.92099336  1.0
  N  N27  1  0.11623342  0.62595848  0.42099336  1.0
  N  N28  1  0.38376658  0.87404152  0.92099336  1.0
  N  N29  1  0.38376658  0.12595848  0.42099336  1.0
  N  N30  1  0.88376658  0.37404152  0.57900664  1.0
  N  N31  1  0.88376658  0.62595848  0.07900664  1.0
