# generated using pymatgen
data_GaSbCl6
_symmetry_space_group_name_H-M   'P 1'
_cell_length_a   11.12513881
_cell_length_b   7.83379736
_cell_length_c   13.86736300
_cell_angle_alpha   90.00000000
_cell_angle_beta   101.65291286
_cell_angle_gamma   90.00000000
_symmetry_Int_Tables_number   1
_chemical_formula_structural   GaSbCl6
_chemical_formula_sum   'Ga4 Sb4 Cl24'
_cell_volume   1183.65990772
_cell_formula_units_Z   4
loop_
 _symmetry_equiv_pos_site_id
 _symmetry_equiv_pos_as_xyz
  1  'x, y, z'
loop_
 _atom_site_type_symbol
 _atom_site_label
 _atom_site_symmetry_multiplicity
 _atom_site_fract_x
 _atom_site_fract_y
 _atom_site_fract_z
 _atom_site_occupancy
  Ga  Ga0  1  0.84708324  0.25522340  0.42321936  1.0
  Ga  Ga1  1  0.84708324  0.24477660  0.92321936  1.0
  Ga  Ga2  1  0.15291676  0.75522340  0.07678064  1.0
  Ga  Ga3  1  0.15291676  0.74477660  0.57678064  1.0
  Sb  Sb4  1  0.75467612  0.75643485  0.37781187  1.0
  Sb  Sb5  1  0.75467612  0.74356515  0.87781187  1.0
  Sb  Sb6  1  0.24532388  0.25643485  0.12218813  1.0
  Sb  Sb7  1  0.24532388  0.24356515  0.62218813  1.0
  Cl  Cl8  1  0.31691607  0.17225116  0.28692625  1.0
  Cl  Cl9  1  0.31691607  0.32774884  0.78692625  1.0
  Cl  Cl10  1  0.68308393  0.67225116  0.21307375  1.0
  Cl  Cl11  1  0.68308393  0.82774884  0.71307375  1.0
  Cl  Cl12  1  1.00773143  0.90016984  0.12218622  1.0
  Cl  Cl13  1  1.00773143  0.59983016  0.62218622  1.0
  Cl  Cl14  1  -0.00773143  0.40016984  0.37781378  1.0
  Cl  Cl15  1  -0.00773143  0.09983016  0.87781378  1.0
  Cl  Cl16  1  0.88518341  0.39267088  0.05818707  1.0
  Cl  Cl17  1  0.88518341  0.10732912  0.55818707  1.0
  Cl  Cl18  1  0.11481659  0.89267088  0.44181293  1.0
  Cl  Cl19  1  0.11481659  0.60732912  0.94181293  1.0
  Cl  Cl20  1  0.77126987  0.07606451  0.29714182  1.0
  Cl  Cl21  1  0.77126987  0.42393549  0.79714182  1.0
  Cl  Cl22  1  0.22873013  0.57606451  0.20285818  1.0
  Cl  Cl23  1  0.22873013  0.92393549  0.70285818  1.0
  Cl  Cl24  1  0.69215030  0.43568293  0.43632683  1.0
  Cl  Cl25  1  0.69215030  0.06431707  0.93632683  1.0
  Cl  Cl26  1  0.30784970  0.93568293  0.06367317  1.0
  Cl  Cl27  1  0.30784970  0.56431707  0.56367317  1.0
  Cl  Cl28  1  0.43358590  0.33914812  0.08327825  1.0
  Cl  Cl29  1  0.43358590  0.16085188  0.58327825  1.0
  Cl  Cl30  1  0.56641410  0.83914812  0.41672175  1.0
  Cl  Cl31  1  0.56641410  0.66085188  0.91672175  1.0
