# generated using pymatgen
data_RbP2WO8
_symmetry_space_group_name_H-M   'P 1'
_cell_length_a   5.18235214
_cell_length_b   12.15297252
_cell_length_c   13.02377266
_cell_angle_alpha   90.00000000
_cell_angle_beta   112.89067925
_cell_angle_gamma   90.00000000
_symmetry_Int_Tables_number   1
_chemical_formula_structural   RbP2WO8
_chemical_formula_sum   'Rb4 P8 W4 O32'
_cell_volume   755.65424805
_cell_formula_units_Z   4
loop_
 _symmetry_equiv_pos_site_id
 _symmetry_equiv_pos_as_xyz
  1  'x, y, z'
loop_
 _atom_site_type_symbol
 _atom_site_label
 _atom_site_symmetry_multiplicity
 _atom_site_fract_x
 _atom_site_fract_y
 _atom_site_fract_z
 _atom_site_occupancy
  Rb  Rb0  1  0.29602132  0.37580993  0.03991354  1.0
  Rb  Rb1  1  0.29602132  0.12419007  0.53991354  1.0
  Rb  Rb2  1  0.70397868  0.62419007  0.96008646  1.0
  Rb  Rb3  1  0.70397868  0.87580993  0.46008646  1.0
  P  P4  1  0.38573860  0.07022614  0.12590077  1.0
  P  P5  1  0.38573860  0.42977386  0.62590077  1.0
  P  P6  1  0.61426140  0.92977386  0.87409923  1.0
  P  P7  1  0.61426140  0.57022614  0.37409923  1.0
  P  P8  1  0.59951877  0.20440593  0.33474437  1.0
  P  P9  1  0.59951877  0.29559407  0.83474437  1.0
  P  P10  1  0.40048123  0.79559407  0.66525563  1.0
  P  P11  1  0.40048123  0.70440593  0.16525563  1.0
  W  W12  1  0.08389249  0.39131787  0.32856262  1.0
  W  W13  1  0.08389249  0.10868213  0.82856262  1.0
  W  W14  1  0.91610751  0.60868213  0.67143738  1.0
  W  W15  1  0.91610751  0.89131787  0.17143738  1.0
  O  O16  1  0.97472316  0.39292023  0.18528018  1.0
  O  O17  1  0.97472316  0.10707977  0.68528018  1.0
  O  O18  1  0.02527684  0.60707977  0.81471982  1.0
  O  O19  1  0.02527684  0.89292023  0.31471982  1.0
  O  O20  1  0.88503321  0.25143667  0.34115137  1.0
  O  O21  1  0.88503321  0.24856333  0.84115137  1.0
  O  O22  1  0.11496679  0.74856333  0.65884863  1.0
  O  O23  1  0.11496679  0.75143667  0.15884863  1.0
  O  O24  1  0.42716560  0.29615493  0.36050906  1.0
  O  O25  1  0.42716560  0.20384507  0.86050906  1.0
  O  O26  1  0.57283440  0.70384507  0.63949094  1.0
  O  O27  1  0.57283440  0.79615493  0.13949094  1.0
  O  O28  1  0.76161033  0.48355109  0.33085425  1.0
  O  O29  1  0.76161033  0.01644891  0.83085425  1.0
  O  O30  1  0.23838967  0.51644891  0.66914575  1.0
  O  O31  1  0.23838967  0.98355109  0.16914575  1.0
  O  O32  1  0.31674149  0.53181143  0.35757887  1.0
  O  O33  1  0.31674149  0.96818857  0.85757887  1.0
  O  O34  1  0.68325851  0.46818857  0.64242113  1.0
  O  O35  1  0.68325851  0.03181143  0.14242113  1.0
  O  O36  1  0.21727975  0.38849342  0.50855541  1.0
  O  O37  1  0.21727975  0.11150658  0.00855541  1.0
  O  O38  1  0.78272025  0.61150658  0.49144459  1.0
  O  O39  1  0.78272025  0.88849342  0.99144459  1.0
  O  O40  1  0.42446162  0.18035781  0.20122132  1.0
  O  O41  1  0.42446162  0.31964219  0.70122132  1.0
  O  O42  1  0.57553838  0.81964219  0.79877868  1.0
  O  O43  1  0.57553838  0.68035781  0.29877868  1.0
  O  O44  1  0.63767767  0.10220923  0.40354773  1.0
  O  O45  1  0.63767767  0.39779077  0.90354773  1.0
  O  O46  1  0.36232233  0.89779077  0.59645227  1.0
  O  O47  1  0.36232233  0.60220923  0.09645227  1.0
