# generated using pymatgen
data_Mn(NbS2)2
_symmetry_space_group_name_H-M   'P 1'
_cell_length_a   10.80002085
_cell_length_b   3.35481381
_cell_length_c   13.17729512
_cell_angle_alpha   90.00000000
_cell_angle_beta   90.00000000
_cell_angle_gamma   90.00000000
_symmetry_Int_Tables_number   1
_chemical_formula_structural   Mn(NbS2)2
_chemical_formula_sum   'Mn4 Nb8 S16'
_cell_volume   477.44053574
_cell_formula_units_Z   4
loop_
 _symmetry_equiv_pos_site_id
 _symmetry_equiv_pos_as_xyz
  1  'x, y, z'
loop_
 _atom_site_type_symbol
 _atom_site_label
 _atom_site_symmetry_multiplicity
 _atom_site_fract_x
 _atom_site_fract_y
 _atom_site_fract_z
 _atom_site_occupancy
  Mn  Mn0  1  0.26950467  0.25000000  0.33933076  1.0
  Mn  Mn1  1  0.76950467  0.25000000  0.16066924  1.0
  Mn  Mn2  1  0.73049533  0.75000000  0.66066924  1.0
  Mn  Mn3  1  0.23049533  0.75000000  0.83933076  1.0
  Nb  Nb4  1  0.03784378  0.25000000  0.58426213  1.0
  Nb  Nb5  1  0.53784378  0.25000000  0.91573787  1.0
  Nb  Nb6  1  0.96215622  0.75000000  0.41573787  1.0
  Nb  Nb7  1  0.46215622  0.75000000  0.08426213  1.0
  Nb  Nb8  1  0.11868648  0.25000000  0.10349716  1.0
  Nb  Nb9  1  0.61868648  0.25000000  0.39650284  1.0
  Nb  Nb10  1  0.88131352  0.75000000  0.89650284  1.0
  Nb  Nb11  1  0.38131352  0.75000000  0.60349716  1.0
  S  S12  1  0.32545030  0.25000000  0.99726499  1.0
  S  S13  1  0.82545030  0.25000000  0.50273501  1.0
  S  S14  1  0.67454970  0.75000000  0.00273501  1.0
  S  S15  1  0.17454970  0.75000000  0.49726499  1.0
  S  S16  1  0.23852772  0.25000000  0.69129877  1.0
  S  S17  1  0.73852772  0.25000000  0.80870123  1.0
  S  S18  1  0.76147228  0.75000000  0.30870123  1.0
  S  S19  1  0.26147228  0.75000000  0.19129877  1.0
  S  S20  1  0.05892828  0.25000000  0.91398354  1.0
  S  S21  1  0.55892828  0.25000000  0.58601646  1.0
  S  S22  1  0.94107172  0.75000000  0.08601646  1.0
  S  S23  1  0.44107172  0.75000000  0.41398354  1.0
  S  S24  1  0.04385764  0.25000000  0.29160784  1.0
  S  S25  1  0.54385764  0.25000000  0.20839216  1.0
  S  S26  1  0.95614236  0.75000000  0.70839216  1.0
  S  S27  1  0.45614236  0.75000000  0.79160784  1.0
