# generated using pymatgen
data_K4C2O
_symmetry_space_group_name_H-M   'P 1'
_cell_length_a   8.55992553
_cell_length_b   8.55992553
_cell_length_c   8.55992553
_cell_angle_alpha   144.93494452
_cell_angle_beta   144.93494452
_cell_angle_gamma   50.43148241
_symmetry_Int_Tables_number   1
_chemical_formula_structural   K4C2O
_chemical_formula_sum   'K4 C2 O1'
_cell_volume   205.98015237
_cell_formula_units_Z   1
loop_
 _symmetry_equiv_pos_site_id
 _symmetry_equiv_pos_as_xyz
  1  'x, y, z'
loop_
 _atom_site_type_symbol
 _atom_site_label
 _atom_site_symmetry_multiplicity
 _atom_site_fract_x
 _atom_site_fract_y
 _atom_site_fract_z
 _atom_site_occupancy
  K  K0  1  0.83375772  0.83375772  1.00000000  1.0
  K  K1  1  0.16624228  0.16624228  0.00000000  1.0
  K  K2  1  0.50000000  0.00000000  0.50000000  1.0
  K  K3  1  -0.00000000  0.50000000  0.50000000  1.0
  C  C4  1  0.64143915  0.64143915  1.00000000  1.0
  C  C5  1  0.35856085  0.35856085  0.00000000  1.0
  O  O6  1  0.00000000  0.00000000  0.00000000  1.0
