# generated using pymatgen
data_ZrCuH8(O2F3)2
_symmetry_space_group_name_H-M   'P 1'
_cell_length_a   5.92758902
_cell_length_b   10.04895172
_cell_length_c   7.59609220
_cell_angle_alpha   90.00000000
_cell_angle_beta   101.52571556
_cell_angle_gamma   90.00000000
_symmetry_Int_Tables_number   1
_chemical_formula_structural   ZrCuH8(O2F3)2
_chemical_formula_sum   'Zr2 Cu2 H16 O8 F12'
_cell_volume   443.34526659
_cell_formula_units_Z   2
loop_
 _symmetry_equiv_pos_site_id
 _symmetry_equiv_pos_as_xyz
  1  'x, y, z'
loop_
 _atom_site_type_symbol
 _atom_site_label
 _atom_site_symmetry_multiplicity
 _atom_site_fract_x
 _atom_site_fract_y
 _atom_site_fract_z
 _atom_site_occupancy
  F  F0  1  0.26430448  0.03106000  0.27640920  1.0
  F  F1  1  0.73569552  0.53106000  0.22359080  1.0
  F  F2  1  0.73569552  0.96894000  0.72359080  1.0
  F  F3  1  0.26430448  0.46894000  0.77640920  1.0
  F  F4  1  0.29030424  0.63900037  0.08152748  1.0
  F  F5  1  0.70969576  0.13900037  0.41847252  1.0
  F  F6  1  0.70969576  0.36099963  0.91847252  1.0
  F  F7  1  0.29030424  0.86099963  0.58152748  1.0
  F  F8  1  0.34860128  0.35311113  0.12325894  1.0
  F  F9  1  0.65139872  0.85311113  0.37674106  1.0
  F  F10  1  0.65139872  0.64688887  0.87674106  1.0
  F  F11  1  0.34860128  0.14688887  0.62325894  1.0
  Zr  Zr12  1  0.50000000  0.50000000  0.00000000  1.0
  Zr  Zr13  1  0.50000000  0.00000000  0.50000000  1.0
  H  H14  1  0.21796551  0.35232195  0.30331434  1.0
  H  H15  1  0.78203449  0.85232195  0.19668566  1.0
  H  H16  1  0.78203449  0.64767805  0.69668566  1.0
  H  H17  1  0.21796551  0.14767805  0.80331434  1.0
  H  H18  1  0.21270434  0.27881949  0.48752240  1.0
  H  H19  1  0.78729566  0.77881949  0.01247760  1.0
  H  H20  1  0.78729566  0.72118051  0.51247760  1.0
  H  H21  1  0.21270434  0.22118051  0.98752240  1.0
  H  H22  1  0.22579920  0.63299993  0.29442505  1.0
  H  H23  1  0.77420080  0.13299993  0.20557495  1.0
  H  H24  1  0.77420080  0.36700007  0.70557495  1.0
  H  H25  1  0.22579920  0.86700007  0.79442505  1.0
  H  H26  1  0.23740798  0.70850813  0.48089633  1.0
  H  H27  1  0.76259202  0.20850813  1.01910367  1.0
  H  H28  1  0.76259202  0.29149187  0.51910367  1.0
  H  H29  1  0.23740798  0.79149187  -0.01910367  1.0
  O  O30  1  0.12465866  0.33940620  0.39659002  1.0
  O  O31  1  0.87534134  0.83940620  0.10340998  1.0
  O  O32  1  0.87534134  0.66059380  0.60340998  1.0
  O  O33  1  0.12465866  0.16059380  0.89659002  1.0
  O  O34  1  0.22966475  0.61956064  0.42397011  1.0
  O  O35  1  0.77033525  0.11956064  0.07602989  1.0
  O  O36  1  0.77033525  0.38043936  0.57602989  1.0
  O  O37  1  0.22966475  0.88043936  0.92397011  1.0
  Cu  Cu38  1  0.00000000  0.50000000  0.50000000  1.0
  Cu  Cu39  1  0.00000000  0.00000000  0.00000000  1.0
