# generated using pymatgen
data_KSb(PSe3)2
_symmetry_space_group_name_H-M   'P 1'
_cell_length_a   7.03015651
_cell_length_b   8.25107971
_cell_length_c   10.31958561
_cell_angle_alpha   90.00000000
_cell_angle_beta   91.65218578
_cell_angle_gamma   90.00000000
_symmetry_Int_Tables_number   1
_chemical_formula_structural   KSb(PSe3)2
_chemical_formula_sum   'K2 Sb2 P4 Se12'
_cell_volume   598.35296457
_cell_formula_units_Z   2
loop_
 _symmetry_equiv_pos_site_id
 _symmetry_equiv_pos_as_xyz
  1  'x, y, z'
loop_
 _atom_site_type_symbol
 _atom_site_label
 _atom_site_symmetry_multiplicity
 _atom_site_fract_x
 _atom_site_fract_y
 _atom_site_fract_z
 _atom_site_occupancy
  K  K0  1  0.80772832  0.21951784  0.99065316  1.0
  K  K1  1  0.19227168  0.71951784  0.00934684  1.0
  Sb  Sb2  1  0.68417434  0.50717800  0.51451458  1.0
  Sb  Sb3  1  0.31582566  0.00717800  0.48548542  1.0
  P  P4  1  0.80879229  0.91808501  0.67046097  1.0
  P  P5  1  0.19120771  0.41808501  0.32953903  1.0
  P  P6  1  0.70777709  0.71167463  0.79939950  1.0
  P  P7  1  0.29222291  0.21167463  0.20060050  1.0
  Se  Se8  1  0.91985352  0.50911862  0.24982792  1.0
  Se  Se9  1  0.08014648  0.00911862  0.75017208  1.0
  Se  Se10  1  0.91761851  0.51886893  0.76776965  1.0
  Se  Se11  1  0.08238149  0.01886893  0.23223035  1.0
  Se  Se12  1  0.84040551  0.79977176  0.47306991  1.0
  Se  Se13  1  0.15959449  0.29977176  0.52693009  1.0
  Se  Se14  1  0.67600838  0.80097666  0.99297250  1.0
  Se  Se15  1  0.32399162  0.30097666  0.00702750  1.0
  Se  Se16  1  0.58810381  0.11331723  0.67148309  1.0
  Se  Se17  1  0.41189619  0.61331723  0.32851691  1.0
  Se  Se18  1  0.44227332  0.63829132  0.68853501  1.0
  Se  Se19  1  0.55772668  0.13829132  0.31146499  1.0
