# generated using pymatgen
data_KScF4
_symmetry_space_group_name_H-M   'P 1'
_cell_length_a   8.28466086
_cell_length_b   8.28466086
_cell_length_c   13.51252298
_cell_angle_alpha   72.47781565
_cell_angle_beta   107.52218435
_cell_angle_gamma   151.19469617
_symmetry_Int_Tables_number   1
_chemical_formula_structural   KScF4
_chemical_formula_sum   'K4 Sc4 F16'
_cell_volume   424.73523524
_cell_formula_units_Z   4
loop_
 _symmetry_equiv_pos_site_id
 _symmetry_equiv_pos_as_xyz
  1  'x, y, z'
loop_
 _atom_site_type_symbol
 _atom_site_label
 _atom_site_symmetry_multiplicity
 _atom_site_fract_x
 _atom_site_fract_y
 _atom_site_fract_z
 _atom_site_occupancy
  K  K0  1  0.75667562  0.24332438  0.36459205  1.0
  K  K1  1  0.24332438  -0.24332438  0.63540795  1.0
  K  K2  1  0.64380394  0.35619606  0.86430154  1.0
  K  K3  1  0.35619606  -0.35619606  0.13569846  1.0
  Sc  Sc4  1  0.97302108  0.02697892  0.63860342  1.0
  Sc  Sc5  1  0.02697892  -0.02697892  0.36139658  1.0
  Sc  Sc6  1  0.88138048  0.11861952  0.88572801  1.0
  Sc  Sc7  1  0.11861952  -0.11861952  0.11427199  1.0
  F  F8  1  0.95294340  0.04705660  0.78144502  1.0
  F  F9  1  0.04705660  -0.04705660  0.21855498  1.0
  F  F10  1  0.89884245  0.10115755  0.28293003  1.0
  F  F11  1  0.10115755  -0.10115755  0.71706997  1.0
  F  F12  1  0.84238061  0.15761939  0.56879633  1.0
  F  F13  1  0.15761939  -0.15761939  0.43120367  1.0
  F  F14  1  0.82392149  0.17607851  0.99499589  1.0
  F  F15  1  0.17607851  -0.17607851  0.00500411  1.0
  F  F16  1  0.76964664  0.23035336  0.76926884  1.0
  F  F17  1  0.23035336  -0.23035336  0.23073116  1.0
  F  F18  1  0.47207708  -0.47207708  0.64169389  1.0
  F  F19  1  0.52792292  0.47207708  0.35830611  1.0
  F  F20  1  0.38316223  -0.38316223  0.88227630  1.0
  F  F21  1  0.61683777  0.38316223  0.11772370  1.0
  F  F22  1  0.00000000  -0.00000000  0.50000000  1.0
  F  F23  1  0.00000000  0.00000000  0.00000000  1.0
