# generated using pymatgen
data_Sr(GaS2)2
_symmetry_space_group_name_H-M   'P 1'
_cell_length_a   6.09087740
_cell_length_b   6.09087740
_cell_length_c   10.63521379
_cell_angle_alpha   90.00000000
_cell_angle_beta   90.00000000
_cell_angle_gamma   120.17868264
_symmetry_Int_Tables_number   1
_chemical_formula_structural   Sr(GaS2)2
_chemical_formula_sum   'Sr2 Ga4 S8'
_cell_volume   341.07649755
_cell_formula_units_Z   2
loop_
 _symmetry_equiv_pos_site_id
 _symmetry_equiv_pos_as_xyz
  1  'x, y, z'
loop_
 _atom_site_type_symbol
 _atom_site_label
 _atom_site_symmetry_multiplicity
 _atom_site_fract_x
 _atom_site_fract_y
 _atom_site_fract_z
 _atom_site_occupancy
  Sr  Sr0  1  0.50000000  0.50000000  0.75000000  1.0
  Sr  Sr1  1  0.50000000  0.50000000  0.25000000  1.0
  Ga  Ga2  1  -0.23461649  1.23747144  0.50000000  1.0
  Ga  Ga3  1  0.23461649  0.76252856  0.50000000  1.0
  Ga  Ga4  1  -0.23747144  1.23461649  0.00000000  1.0
  Ga  Ga5  1  0.23747144  0.76538351  0.00000000  1.0
  S  S6  1  -0.64334733  1.18453145  0.50000000  1.0
  S  S7  1  0.64334733  0.81546855  0.50000000  1.0
  S  S8  1  -0.18453145  1.64334733  0.00000000  1.0
  S  S9  1  0.18453145  0.35665267  0.00000000  1.0
  S  S10  1  0.50000000  1.00000000  0.83577042  1.0
  S  S11  1  -0.00000000  1.50000000  0.66422958  1.0
  S  S12  1  0.50000000  1.00000000  0.16422958  1.0
  S  S13  1  -0.00000000  1.50000000  0.33577042  1.0
