# generated using pymatgen
data_Ba2TbNbO6
_symmetry_space_group_name_H-M   'P 1'
_cell_length_a   6.04711738
_cell_length_b   6.04711738
_cell_length_c   6.04711738
_cell_angle_alpha   120.29316504
_cell_angle_beta   120.29316504
_cell_angle_gamma   89.49296887
_symmetry_Int_Tables_number   1
_chemical_formula_structural   Ba2TbNbO6
_chemical_formula_sum   'Ba2 Tb1 Nb1 O6'
_cell_volume   155.66215933
_cell_formula_units_Z   1
loop_
 _symmetry_equiv_pos_site_id
 _symmetry_equiv_pos_as_xyz
  1  'x, y, z'
loop_
 _atom_site_type_symbol
 _atom_site_label
 _atom_site_symmetry_multiplicity
 _atom_site_fract_x
 _atom_site_fract_y
 _atom_site_fract_z
 _atom_site_occupancy
  Ba  Ba0  1  0.25000000  0.75000000  0.50000000  1.0
  Ba  Ba1  1  0.75000000  0.25000000  0.50000000  1.0
  Tb  Tb2  1  0.50000000  0.50000000  1.00000000  1.0
  Nb  Nb3  1  0.00000000  0.00000000  0.00000000  1.0
  O  O4  1  0.73185183  0.79989637  1.53174820  1.0
  O  O5  1  0.20010363  0.73185183  0.93195545  1.0
  O  O6  1  0.26814817  0.20010363  0.46825180  1.0
  O  O7  1  0.79989637  0.26814817  1.06804455  1.0
  O  O8  1  0.76532051  0.76532051  1.00000000  1.0
  O  O9  1  0.23467949  0.23467949  -0.00000000  1.0
