# generated using pymatgen
data_PrClO2
_symmetry_space_group_name_H-M   'P 1'
_cell_length_a   6.13129676
_cell_length_b   3.54208570
_cell_length_c   6.88720244
_cell_angle_alpha   90.00000000
_cell_angle_beta   104.55821448
_cell_angle_gamma   90.00000000
_symmetry_Int_Tables_number   1
_chemical_formula_structural   PrClO2
_chemical_formula_sum   'Pr2 Cl2 O4'
_cell_volume   144.77097029
_cell_formula_units_Z   2
loop_
 _symmetry_equiv_pos_site_id
 _symmetry_equiv_pos_as_xyz
  1  'x, y, z'
loop_
 _atom_site_type_symbol
 _atom_site_label
 _atom_site_symmetry_multiplicity
 _atom_site_fract_x
 _atom_site_fract_y
 _atom_site_fract_z
 _atom_site_occupancy
  Pr  Pr0  1  0.21853990  0.25000000  0.41193405  1.0
  Pr  Pr1  1  0.78146010  0.75000000  0.58806595  1.0
  Cl  Cl2  1  0.71817041  0.25000000  0.89573134  1.0
  Cl  Cl3  1  0.28182959  0.75000000  0.10426866  1.0
  O  O4  1  0.61313662  0.25000000  0.43089635  1.0
  O  O5  1  0.38686338  0.75000000  0.56910365  1.0
  O  O6  1  0.02832732  0.25000000  0.64623036  1.0
  O  O7  1  0.97167268  0.75000000  0.35376964  1.0
