# generated using pymatgen
data_Ba3Ta2ZnO9
_symmetry_space_group_name_H-M   'P 1'
_cell_length_a   5.83643570
_cell_length_b   5.83643570
_cell_length_c   7.18086087
_cell_angle_alpha   90.00000000
_cell_angle_beta   90.00000000
_cell_angle_gamma   120.00000000
_symmetry_Int_Tables_number   1
_chemical_formula_structural   Ba3Ta2ZnO9
_chemical_formula_sum   'Ba3 Ta2 Zn1 O9'
_cell_volume   211.83735912
_cell_formula_units_Z   1
loop_
 _symmetry_equiv_pos_site_id
 _symmetry_equiv_pos_as_xyz
  1  'x, y, z'
loop_
 _atom_site_type_symbol
 _atom_site_label
 _atom_site_symmetry_multiplicity
 _atom_site_fract_x
 _atom_site_fract_y
 _atom_site_fract_z
 _atom_site_occupancy
  Ba  Ba0  1  0.33333333  0.66666667  0.66148653  1.0
  Ba  Ba1  1  0.66666667  0.33333333  0.33851347  1.0
  Ba  Ba2  1  0.00000000  0.00000000  0.00000000  1.0
  Ta  Ta3  1  0.33333333  0.66666667  0.17460175  1.0
  Ta  Ta4  1  0.66666667  0.33333333  0.82539825  1.0
  Zn  Zn5  1  0.00000000  0.00000000  0.50000000  1.0
  O  O6  1  0.65465027  0.82732513  0.32268170  1.0
  O  O7  1  0.82732513  0.65465027  0.67731830  1.0
  O  O8  1  0.82732513  0.17267487  0.67731830  1.0
  O  O9  1  0.17267487  0.82732513  0.32268170  1.0
  O  O10  1  0.17267487  0.34534973  0.32268170  1.0
  O  O11  1  0.34534973  0.17267487  0.67731830  1.0
  O  O12  1  0.50000000  0.50000000  0.00000000  1.0
  O  O13  1  0.50000000  0.00000000  0.00000000  1.0
  O  O14  1  0.00000000  0.50000000  0.00000000  1.0
