# generated using pymatgen
data_Ca(C2O3)2
_symmetry_space_group_name_H-M   'P 1'
_cell_length_a   6.84615262
_cell_length_b   8.72046371
_cell_length_c   11.74911705
_cell_angle_alpha   90.00000000
_cell_angle_beta   90.00000000
_cell_angle_gamma   90.00000000
_symmetry_Int_Tables_number   1
_chemical_formula_structural   Ca(C2O3)2
_chemical_formula_sum   'Ca4 C16 O24'
_cell_volume   701.44138651
_cell_formula_units_Z   4
loop_
 _symmetry_equiv_pos_site_id
 _symmetry_equiv_pos_as_xyz
  1  'x, y, z'
loop_
 _atom_site_type_symbol
 _atom_site_label
 _atom_site_symmetry_multiplicity
 _atom_site_fract_x
 _atom_site_fract_y
 _atom_site_fract_z
 _atom_site_occupancy
  Ca  Ca0  1  0.24568319  0.89937004  0.54532276  1.0
  Ca  Ca1  1  0.74568319  0.60062996  0.45467724  1.0
  Ca  Ca2  1  0.75431681  0.39937004  0.95467724  1.0
  Ca  Ca3  1  0.25431681  0.10062996  0.04532276  1.0
  C  C4  1  0.77690913  0.36388088  0.67131260  1.0
  C  C5  1  0.27690913  0.13611912  0.32868740  1.0
  C  C6  1  0.22309087  0.86388088  0.82868740  1.0
  C  C7  1  0.72309087  0.63611912  0.17131260  1.0
  C  C8  1  0.70988815  0.25051083  0.57790686  1.0
  C  C9  1  0.20988815  0.24948917  0.42209314  1.0
  C  C10  1  0.29011185  0.75051083  0.92209314  1.0
  C  C11  1  0.79011185  0.74948917  0.07790686  1.0
  C  C12  1  0.63079169  0.09175580  0.60438500  1.0
  C  C13  1  0.13079169  0.40824420  0.39561500  1.0
  C  C14  1  0.36920831  0.59175580  0.89561500  1.0
  C  C15  1  0.86920831  0.90824420  0.10438500  1.0
  C  C16  1  0.72964409  0.94835859  0.55366740  1.0
  C  C17  1  0.22964409  0.55164141  0.44633260  1.0
  C  C18  1  0.27035591  0.44835859  0.94633260  1.0
  C  C19  1  0.77035591  0.05164141  0.05366740  1.0
  O  O20  1  0.81389088  0.49654234  0.63556780  1.0
  O  O21  1  0.31389088  1.00345766  0.36443220  1.0
  O  O22  1  0.18610912  -0.00345766  0.86443220  1.0
  O  O23  1  0.68610912  0.50345766  0.13556780  1.0
  O  O24  1  0.78480456  0.31092359  0.77073737  1.0
  O  O25  1  0.28480456  0.18907641  0.22926263  1.0
  O  O26  1  0.21519544  0.81092359  0.72926263  1.0
  O  O27  1  0.71519544  0.68907641  0.27073737  1.0
  O  O28  1  0.69227863  0.29131411  0.47878583  1.0
  O  O29  1  0.19227863  0.20868589  0.52121417  1.0
  O  O30  1  0.30772137  0.79131411  0.02121417  1.0
  O  O31  1  0.80772137  0.70868589  0.97878583  1.0
  O  O32  1  0.47405129  0.08319701  0.65389330  1.0
  O  O33  1  0.97405129  0.41680299  0.34610670  1.0
  O  O34  1  0.52594871  0.58319701  0.84610670  1.0
  O  O35  1  0.02594871  0.91680299  0.15389330  1.0
  O  O36  1  0.91105318  0.95361222  0.54206349  1.0
  O  O37  1  0.41105318  0.54638778  0.45793651  1.0
  O  O38  1  0.08894682  0.45361222  0.95793651  1.0
  O  O39  1  0.58894682  0.04638778  0.04206349  1.0
  O  O40  1  0.61495594  0.83793544  0.53147713  1.0
  O  O41  1  0.11495594  0.66206456  0.46852287  1.0
  O  O42  1  0.38504406  0.33793544  0.96852287  1.0
  O  O43  1  0.88504406  0.16206456  0.03147713  1.0
