# generated using pymatgen
data_BaAg2
_symmetry_space_group_name_H-M   'P 1'
_cell_length_a   6.59029603
_cell_length_b   6.59029603
_cell_length_c   6.59029603
_cell_angle_alpha   136.27407196
_cell_angle_beta   96.36657494
_cell_angle_gamma   99.58185024
_symmetry_Int_Tables_number   1
_chemical_formula_structural   BaAg2
_chemical_formula_sum   'Ba2 Ag4'
_cell_volume   183.51961790
_cell_formula_units_Z   2
loop_
 _symmetry_equiv_pos_site_id
 _symmetry_equiv_pos_as_xyz
  1  'x, y, z'
loop_
 _atom_site_type_symbol
 _atom_site_label
 _atom_site_symmetry_multiplicity
 _atom_site_fract_x
 _atom_site_fract_y
 _atom_site_fract_z
 _atom_site_occupancy
  Ba  Ba0  1  1.75013540  1.50013540  1.25000000  1.0
  Ba  Ba1  1  0.24986460  0.49986460  0.75000000  1.0
  Ag  Ag2  1  1.33365815  0.83352148  1.50013667  1.0
  Ag  Ag3  1  1.16661520  0.16647852  1.00013667  1.0
  Ag  Ag4  1  0.66634185  1.16647852  0.49986333  1.0
  Ag  Ag5  1  0.83338480  0.83352148  -0.00013667  1.0
