# generated using pymatgen
data_TaFeGe
_symmetry_space_group_name_H-M   'P 1'
_cell_length_a   6.26048436
_cell_length_b   3.85028010
_cell_length_c   7.07362434
_cell_angle_alpha   90.00000000
_cell_angle_beta   90.00000000
_cell_angle_gamma   90.00000000
_symmetry_Int_Tables_number   1
_chemical_formula_structural   TaFeGe
_chemical_formula_sum   'Ta4 Fe4 Ge4'
_cell_volume   170.50701544
_cell_formula_units_Z   4
loop_
 _symmetry_equiv_pos_site_id
 _symmetry_equiv_pos_as_xyz
  1  'x, y, z'
loop_
 _atom_site_type_symbol
 _atom_site_label
 _atom_site_symmetry_multiplicity
 _atom_site_fract_x
 _atom_site_fract_y
 _atom_site_fract_z
 _atom_site_occupancy
  Ta  Ta0  1  0.98596842  0.75000000  0.69772183  1.0
  Ta  Ta1  1  0.48596842  0.75000000  0.80227817  1.0
  Ta  Ta2  1  0.01403158  0.25000000  0.30227817  1.0
  Ta  Ta3  1  0.51403158  0.25000000  0.19772183  1.0
  Fe  Fe4  1  0.85651292  0.75000000  0.06634136  1.0
  Fe  Fe5  1  0.35651292  0.75000000  0.43365864  1.0
  Fe  Fe6  1  0.14348708  0.25000000  0.93365864  1.0
  Fe  Fe7  1  0.64348708  0.25000000  0.56634136  1.0
  Ge  Ge8  1  0.73169778  0.75000000  0.38875884  1.0
  Ge  Ge9  1  0.23169778  0.75000000  0.11124116  1.0
  Ge  Ge10  1  0.26830222  0.25000000  0.61124116  1.0
  Ge  Ge11  1  0.76830222  0.25000000  0.88875884  1.0
