# generated using pymatgen
data_Re5(Ni2Mo3)2
_symmetry_space_group_name_H-M   'P 1'
_cell_length_a   9.35115030
_cell_length_b   9.35115030
_cell_length_c   4.83892557
_cell_angle_alpha   90.00000000
_cell_angle_beta   90.00000000
_cell_angle_gamma   90.00000000
_symmetry_Int_Tables_number   1
_chemical_formula_structural   Re5(Ni2Mo3)2
_chemical_formula_sum   'Re10 Ni8 Mo12'
_cell_volume   423.13506579
_cell_formula_units_Z   2
loop_
 _symmetry_equiv_pos_site_id
 _symmetry_equiv_pos_as_xyz
  1  'x, y, z'
loop_
 _atom_site_type_symbol
 _atom_site_label
 _atom_site_symmetry_multiplicity
 _atom_site_fract_x
 _atom_site_fract_y
 _atom_site_fract_z
 _atom_site_occupancy
  Re  Re0  1  0.50000000  0.50000000  0.50000000  1.0
  Re  Re1  1  0.00000000  0.00000000  0.00000000  1.0
  Re  Re2  1  0.37069846  0.96370334  0.50000000  1.0
  Re  Re3  1  0.62930154  0.03629666  0.50000000  1.0
  Re  Re4  1  0.12930154  0.46370334  0.00000000  1.0
  Re  Re5  1  0.87069846  0.53629666  0.00000000  1.0
  Re  Re6  1  0.96370334  0.37069846  0.50000000  1.0
  Re  Re7  1  0.03629666  0.62930154  0.50000000  1.0
  Re  Re8  1  0.46370334  0.12930154  0.00000000  1.0
  Re  Re9  1  0.53629666  0.87069846  0.00000000  1.0
  Ni  Ni10  1  0.43334086  0.23998863  0.50000000  1.0
  Ni  Ni11  1  0.56665914  0.76001137  0.50000000  1.0
  Ni  Ni12  1  0.06665914  0.73998863  0.00000000  1.0
  Ni  Ni13  1  0.93334086  0.26001137  0.00000000  1.0
  Ni  Ni14  1  0.23998863  0.43334086  0.50000000  1.0
  Ni  Ni15  1  0.76001137  0.56665914  0.50000000  1.0
  Ni  Ni16  1  0.73998863  0.06665914  0.00000000  1.0
  Ni  Ni17  1  0.26001137  0.93334086  0.00000000  1.0
  Mo  Mo18  1  0.10616082  0.89383918  0.50000000  1.0
  Mo  Mo19  1  0.89383918  0.10616082  0.50000000  1.0
  Mo  Mo20  1  0.39383918  0.39383918  0.00000000  1.0
  Mo  Mo21  1  0.60616082  0.60616082  0.00000000  1.0
  Mo  Mo22  1  0.31587339  0.68412661  0.25106113  1.0
  Mo  Mo23  1  0.68412661  0.31587339  0.25106113  1.0
  Mo  Mo24  1  0.18412661  0.18412661  0.75106113  1.0
  Mo  Mo25  1  0.81587339  0.81587339  0.75106113  1.0
  Mo  Mo26  1  0.68412661  0.31587339  0.74893887  1.0
  Mo  Mo27  1  0.31587339  0.68412661  0.74893887  1.0
  Mo  Mo28  1  0.81587339  0.81587339  0.24893887  1.0
  Mo  Mo29  1  0.18412661  0.18412661  0.24893887  1.0
