# generated using pymatgen
data_Fe3Sn
_symmetry_space_group_name_H-M   'P 1'
_cell_length_a   5.46750109
_cell_length_b   5.46750109
_cell_length_c   4.31248522
_cell_angle_alpha   90.00000000
_cell_angle_beta   90.00000000
_cell_angle_gamma   120.00000000
_symmetry_Int_Tables_number   1
_chemical_formula_structural   Fe3Sn
_chemical_formula_sum   'Fe6 Sn2'
_cell_volume   111.64415936
_cell_formula_units_Z   2
loop_
 _symmetry_equiv_pos_site_id
 _symmetry_equiv_pos_as_xyz
  1  'x, y, z'
loop_
 _atom_site_type_symbol
 _atom_site_label
 _atom_site_symmetry_multiplicity
 _atom_site_fract_x
 _atom_site_fract_y
 _atom_site_fract_z
 _atom_site_occupancy
  Fe  Fe0  1  0.15083017  0.84916983  0.25000000  1.0
  Fe  Fe1  1  0.15083017  0.30166035  0.25000000  1.0
  Fe  Fe2  1  0.84916983  0.15083017  0.75000000  1.0
  Fe  Fe3  1  0.84916983  0.69833965  0.75000000  1.0
  Fe  Fe4  1  0.69833965  0.84916983  0.25000000  1.0
  Fe  Fe5  1  0.30166035  0.15083017  0.75000000  1.0
  Sn  Sn6  1  0.33333333  0.66666667  0.75000000  1.0
  Sn  Sn7  1  0.66666667  0.33333333  0.25000000  1.0
