# generated using pymatgen
data_Ba3Gd(BO2)9
_symmetry_space_group_name_H-M   'P 1'
_cell_length_a   7.27348305
_cell_length_b   7.27348305
_cell_length_c   17.61638911
_cell_angle_alpha   90.00000000
_cell_angle_beta   90.00000000
_cell_angle_gamma   120.00000000
_symmetry_Int_Tables_number   1
_chemical_formula_structural   Ba3Gd(BO2)9
_chemical_formula_sum   'Ba6 Gd2 B18 O36'
_cell_volume   807.10936879
_cell_formula_units_Z   2
loop_
 _symmetry_equiv_pos_site_id
 _symmetry_equiv_pos_as_xyz
  1  'x, y, z'
loop_
 _atom_site_type_symbol
 _atom_site_label
 _atom_site_symmetry_multiplicity
 _atom_site_fract_x
 _atom_site_fract_y
 _atom_site_fract_z
 _atom_site_occupancy
  Ba  Ba0  1  0.33333333  0.66666667  0.36616833  1.0
  Ba  Ba1  1  0.33333333  0.66666667  0.13383167  1.0
  Ba  Ba2  1  0.66666667  0.33333333  0.86616833  1.0
  Ba  Ba3  1  0.66666667  0.33333333  0.63383167  1.0
  Ba  Ba4  1  -0.00000000  -0.00000000  0.25000000  1.0
  Ba  Ba5  1  0.00000000  0.00000000  0.75000000  1.0
  Gd  Gd6  1  0.00000000  0.00000000  0.50000000  1.0
  Gd  Gd7  1  -0.00000000  -0.00000000  0.00000000  1.0
  B  B8  1  0.83636066  0.54881653  0.41700031  1.0
  B  B9  1  0.83636066  0.54881653  0.08299969  1.0
  B  B10  1  0.54881653  0.71245587  0.91700031  1.0
  B  B11  1  0.54881653  0.71245587  0.58299969  1.0
  B  B12  1  0.71245587  0.16363934  0.41700031  1.0
  B  B13  1  0.71245587  0.16363934  0.08299969  1.0
  B  B14  1  0.45118347  0.28754413  0.41700031  1.0
  B  B15  1  0.45118347  0.28754413  0.08299969  1.0
  B  B16  1  0.16363934  0.45118347  0.91700031  1.0
  B  B17  1  0.16363934  0.45118347  0.58299969  1.0
  B  B18  1  0.28754413  0.83636066  0.91700031  1.0
  B  B19  1  0.28754413  0.83636066  0.58299969  1.0
  B  B20  1  0.62230067  0.50468732  0.25000000  1.0
  B  B21  1  0.50468732  0.88238665  0.75000000  1.0
  B  B22  1  0.88238665  0.37769933  0.25000000  1.0
  B  B23  1  0.49531268  0.11761335  0.25000000  1.0
  B  B24  1  0.37769933  0.49531268  0.75000000  1.0
  B  B25  1  0.11761335  0.62230067  0.75000000  1.0
  O  O26  1  0.99842446  0.74757423  0.41778712  1.0
  O  O27  1  0.99842446  0.74757423  0.08221288  1.0
  O  O28  1  0.74757423  0.74914977  0.91778712  1.0
  O  O29  1  0.74757423  0.74914977  0.58221288  1.0
  O  O30  1  0.74914977  0.00157554  0.41778712  1.0
  O  O31  1  0.74914977  0.00157554  0.08221288  1.0
  O  O32  1  0.25242577  0.25085023  0.41778712  1.0
  O  O33  1  0.25242577  0.25085023  0.08221288  1.0
  O  O34  1  0.00157554  0.25242577  0.91778712  1.0
  O  O35  1  0.00157554  0.25242577  0.58221288  1.0
  O  O36  1  0.25085023  0.99842446  0.91778712  1.0
  O  O37  1  0.25085023  0.99842446  0.58221288  1.0
  O  O38  1  0.62249572  0.49824588  0.41691742  1.0
  O  O39  1  0.62249572  0.49824588  0.08308258  1.0
  O  O40  1  0.49824588  0.87575016  0.91691742  1.0
  O  O41  1  0.49824588  0.87575016  0.58308258  1.0
  O  O42  1  0.87575016  0.37750428  0.41691742  1.0
  O  O43  1  0.87575016  0.37750428  0.08308258  1.0
  O  O44  1  0.50175412  0.12424984  0.41691742  1.0
  O  O45  1  0.50175412  0.12424984  0.08308258  1.0
  O  O46  1  0.37750428  0.50175412  0.91691742  1.0
  O  O47  1  0.37750428  0.50175412  0.58308258  1.0
  O  O48  1  0.12424984  0.62249572  0.91691742  1.0
  O  O49  1  0.12424984  0.62249572  0.58308258  1.0
  O  O50  1  0.33259625  0.92011862  0.25000000  1.0
  O  O51  1  0.92011862  0.58752237  0.75000000  1.0
  O  O52  1  0.58752237  0.66740375  0.25000000  1.0
  O  O53  1  0.07988138  0.41247763  0.25000000  1.0
  O  O54  1  0.66740375  0.07988138  0.75000000  1.0
  O  O55  1  0.41247763  0.33259625  0.75000000  1.0
  O  O56  1  0.83287303  0.54174497  0.25000000  1.0
  O  O57  1  0.54174497  0.70887194  0.75000000  1.0
  O  O58  1  0.70887194  0.16712697  0.25000000  1.0
  O  O59  1  0.45825503  0.29112806  0.25000000  1.0
  O  O60  1  0.16712697  0.45825503  0.75000000  1.0
  O  O61  1  0.29112806  0.83287303  0.75000000  1.0
