# generated using pymatgen
data_ScSeO3F
_symmetry_space_group_name_H-M   'P 1'
_cell_length_a   4.13050641
_cell_length_b   6.72253561
_cell_length_c   6.40970684
_cell_angle_alpha   90.00000000
_cell_angle_beta   93.59554568
_cell_angle_gamma   90.00000000
_symmetry_Int_Tables_number   1
_chemical_formula_structural   ScSeO3F
_chemical_formula_sum   'Sc2 Se2 O6 F2'
_cell_volume   177.63104619
_cell_formula_units_Z   2
loop_
 _symmetry_equiv_pos_site_id
 _symmetry_equiv_pos_as_xyz
  1  'x, y, z'
loop_
 _atom_site_type_symbol
 _atom_site_label
 _atom_site_symmetry_multiplicity
 _atom_site_fract_x
 _atom_site_fract_y
 _atom_site_fract_z
 _atom_site_occupancy
  Sc  Sc0  1  0.96636550  0.25000000  0.87665258  1.0
  Sc  Sc1  1  0.03363450  0.75000000  0.12334742  1.0
  Se  Se2  1  0.17710840  0.25000000  0.35165729  1.0
  Se  Se3  1  0.82289160  0.75000000  0.64834271  1.0
  O  O4  1  0.97221006  0.93075154  0.82485427  1.0
  O  O5  1  0.97221006  0.56924846  0.82485427  1.0
  O  O6  1  0.02778994  0.43075154  0.17514573  1.0
  O  O7  1  0.02778994  0.06924846  0.17514573  1.0
  O  O8  1  0.90999908  0.25000000  0.54124777  1.0
  O  O9  1  0.09000092  0.75000000  0.45875223  1.0
  F  F10  1  0.46867460  0.25000000  0.87255868  1.0
  F  F11  1  0.53132540  0.75000000  0.12744132  1.0
