# generated using pymatgen
data_TiVO4
_symmetry_space_group_name_H-M   'P 1'
_cell_length_a   7.76463379
_cell_length_b   4.88808828
_cell_length_c   9.76536679
_cell_angle_alpha   90.00000000
_cell_angle_beta   131.36965947
_cell_angle_gamma   90.00000000
_symmetry_Int_Tables_number   1
_chemical_formula_structural   TiVO4
_chemical_formula_sum   'Ti4 V4 O16'
_cell_volume   278.14854809
_cell_formula_units_Z   4
loop_
 _symmetry_equiv_pos_site_id
 _symmetry_equiv_pos_as_xyz
  1  'x, y, z'
loop_
 _atom_site_type_symbol
 _atom_site_label
 _atom_site_symmetry_multiplicity
 _atom_site_fract_x
 _atom_site_fract_y
 _atom_site_fract_z
 _atom_site_occupancy
  Ti  Ti0  1  0.07178039  1.07815468  0.17249935  1.0
  Ti  Ti1  1  0.92821961  0.57815468  0.32750065  1.0
  Ti  Ti2  1  0.92821961  -0.07815468  0.82750065  1.0
  Ti  Ti3  1  0.07178039  0.42184532  0.67249935  1.0
  V  V4  1  0.39808461  1.05701888  0.59003323  1.0
  V  V5  1  0.60191539  0.55701888  0.90996677  1.0
  V  V6  1  0.60191539  -0.05701888  0.40996677  1.0
  V  V7  1  0.39808461  0.44298112  0.09003323  1.0
  O  O8  1  0.11271732  0.84361549  0.35979103  1.0
  O  O9  1  0.88728268  0.34361549  0.14020897  1.0
  O  O10  1  0.88728268  0.15638451  0.64020897  1.0
  O  O11  1  0.11271732  0.65638451  0.85979103  1.0
  O  O12  1  0.41581227  0.79378565  0.74273997  1.0
  O  O13  1  0.58418773  0.29378565  0.75726003  1.0
  O  O14  1  0.58418773  0.20621435  0.25726003  1.0
  O  O15  1  0.41581227  0.70621435  0.24273997  1.0
  O  O16  1  0.62190837  0.67459625  0.11237858  1.0
  O  O17  1  0.37809163  0.17459625  0.38762142  1.0
  O  O18  1  0.37809163  0.32540375  0.88762142  1.0
  O  O19  1  0.62190837  0.82540375  0.61237858  1.0
  O  O20  1  0.87328580  0.68848612  0.48403678  1.0
  O  O21  1  0.12671420  0.18848612  0.01596322  1.0
  O  O22  1  0.12671420  0.31151388  0.51596322  1.0
  O  O23  1  0.87328580  0.81151388  0.98403678  1.0
