# generated using pymatgen
data_LiEuP
_symmetry_space_group_name_H-M   'P 1'
_cell_length_a   7.19334249
_cell_length_b   4.26922568
_cell_length_c   7.76992505
_cell_angle_alpha   90.00000000
_cell_angle_beta   90.00000000
_cell_angle_gamma   90.00000000
_symmetry_Int_Tables_number   1
_chemical_formula_structural   LiEuP
_chemical_formula_sum   'Li4 Eu4 P4'
_cell_volume   238.61441767
_cell_formula_units_Z   4
loop_
 _symmetry_equiv_pos_site_id
 _symmetry_equiv_pos_as_xyz
  1  'x, y, z'
loop_
 _atom_site_type_symbol
 _atom_site_label
 _atom_site_symmetry_multiplicity
 _atom_site_fract_x
 _atom_site_fract_y
 _atom_site_fract_z
 _atom_site_occupancy
  Li  Li0  1  0.84400414  0.75000000  0.06955513  1.0
  Li  Li1  1  0.34400414  0.75000000  0.43044487  1.0
  Li  Li2  1  0.15599586  0.25000000  0.93044487  1.0
  Li  Li3  1  0.65599586  0.25000000  0.56955513  1.0
  Eu  Eu4  1  0.98742722  0.75000000  0.70061590  1.0
  Eu  Eu5  1  0.48742722  0.75000000  0.79938410  1.0
  Eu  Eu6  1  0.01257278  0.25000000  0.29938410  1.0
  Eu  Eu7  1  0.51257278  0.25000000  0.20061590  1.0
  P  P8  1  0.72681184  0.75000000  0.40082528  1.0
  P  P9  1  0.22681184  0.75000000  0.09917472  1.0
  P  P10  1  0.27318816  0.25000000  0.59917472  1.0
  P  P11  1  0.77318816  0.25000000  0.90082528  1.0
