# generated using pymatgen
data_Li3Ga(BO3)2
_symmetry_space_group_name_H-M   'P 1'
_cell_length_a   4.90037601
_cell_length_b   8.09101994
_cell_length_c   6.32095337
_cell_angle_alpha   72.68074575
_cell_angle_beta   89.76950952
_cell_angle_gamma   89.72330956
_symmetry_Int_Tables_number   1
_chemical_formula_structural   Li3Ga(BO3)2
_chemical_formula_sum   'Li6 Ga2 B4 O12'
_cell_volume   239.25317119
_cell_formula_units_Z   2
loop_
 _symmetry_equiv_pos_site_id
 _symmetry_equiv_pos_as_xyz
  1  'x, y, z'
loop_
 _atom_site_type_symbol
 _atom_site_label
 _atom_site_symmetry_multiplicity
 _atom_site_fract_x
 _atom_site_fract_y
 _atom_site_fract_z
 _atom_site_occupancy
  Li  Li0  1  -0.82009779  -0.95964808  -0.37088427  1.0
  Li  Li1  1  -0.17990221  -0.04035192  -0.62911573  1.0
  Li  Li2  1  -0.83817052  -0.63160285  -0.72834259  1.0
  Li  Li3  1  -0.16182948  -0.36839715  -0.27165741  1.0
  Li  Li4  1  -0.31823385  -0.04004746  -0.12267728  1.0
  Li  Li5  1  -0.68176615  -0.95995254  -0.87732272  1.0
  Ga  Ga6  1  -0.34173880  -0.38966423  -0.76802152  1.0
  Ga  Ga7  1  -0.65826120  -0.61033577  -0.23197848  1.0
  B  B8  1  -0.83340874  -0.25238566  -0.98456688  1.0
  B  B9  1  -0.16659126  -0.74761434  -0.01543312  1.0
  B  B10  1  -0.33864716  -0.75228278  -0.49956832  1.0
  B  B11  1  -0.66135284  -0.24771722  -0.50043168  1.0
  O  O12  1  -0.69997150  -0.40242706  -0.85888499  1.0
  O  O13  1  -0.30002850  -0.59757294  -0.14111501  1.0
  O  O14  1  -0.12165978  -0.26641955  -0.00442850  1.0
  O  O15  1  -0.87834022  -0.73358045  -0.99557150  1.0
  O  O16  1  -0.70524081  -0.10232602  -0.08150771  1.0
  O  O17  1  -0.29475919  -0.89767398  -0.91849229  1.0
  O  O18  1  -0.20480680  -0.61101850  -0.64413537  1.0
  O  O19  1  -0.79519320  -0.38898150  -0.35586463  1.0
  O  O20  1  -0.61841475  -0.72881441  -0.44891866  1.0
  O  O21  1  -0.38158525  -0.27118559  -0.55108134  1.0
  O  O22  1  -0.21074926  -0.90501097  -0.41629005  1.0
  O  O23  1  -0.78925074  -0.09498903  -0.58370995  1.0
