# generated using pymatgen
data_KNO3
_symmetry_space_group_name_H-M   'P 1'
_cell_length_a   6.59389224
_cell_length_b   5.46067972
_cell_length_c   9.23418702
_cell_angle_alpha   90.00000000
_cell_angle_beta   90.00000000
_cell_angle_gamma   90.00000000
_symmetry_Int_Tables_number   1
_chemical_formula_structural   KNO3
_chemical_formula_sum   'K4 N4 O12'
_cell_volume   332.49660617
_cell_formula_units_Z   4
loop_
 _symmetry_equiv_pos_site_id
 _symmetry_equiv_pos_as_xyz
  1  'x, y, z'
loop_
 _atom_site_type_symbol
 _atom_site_label
 _atom_site_symmetry_multiplicity
 _atom_site_fract_x
 _atom_site_fract_y
 _atom_site_fract_z
 _atom_site_occupancy
  K  K0  1  0.74616023  0.75000000  0.08339344  1.0
  K  K1  1  0.24616023  0.75000000  0.41660656  1.0
  K  K2  1  0.25383977  0.25000000  0.91660656  1.0
  K  K3  1  0.75383977  0.25000000  0.58339344  1.0
  N  N4  1  0.58392994  0.75000000  0.74567242  1.0
  N  N5  1  0.08392994  0.75000000  0.75432758  1.0
  N  N6  1  0.41607006  0.25000000  0.25432758  1.0
  N  N7  1  0.91607006  0.25000000  0.24567242  1.0
  O  O8  1  0.58735741  0.75000000  0.60874219  1.0
  O  O9  1  0.08735741  0.75000000  0.89125781  1.0
  O  O10  1  0.41264259  0.25000000  0.39125781  1.0
  O  O11  1  0.91264259  0.25000000  0.10874219  1.0
  O  O12  1  0.58432357  0.54934110  0.81426356  1.0
  O  O13  1  1.08432357  0.95065890  0.68573644  1.0
  O  O14  1  0.41567643  0.04934110  0.18573644  1.0
  O  O15  1  -0.08432357  0.45065890  0.31426356  1.0
  O  O16  1  0.41567643  0.45065890  0.18573644  1.0
  O  O17  1  -0.08432357  0.04934110  0.31426356  1.0
  O  O18  1  0.58432357  0.95065890  0.81426356  1.0
  O  O19  1  1.08432357  0.54934110  0.68573644  1.0
