# generated using pymatgen
data_Gd(PdO2)2
_symmetry_space_group_name_H-M   'P 1'
_cell_length_a   6.55681538
_cell_length_b   6.55681538
_cell_length_c   6.55681538
_cell_angle_alpha   126.98689475
_cell_angle_beta   126.98689475
_cell_angle_gamma   78.27206661
_symmetry_Int_Tables_number   1
_chemical_formula_structural   Gd(PdO2)2
_chemical_formula_sum   'Gd2 Pd4 O8'
_cell_volume   174.20416177
_cell_formula_units_Z   2
loop_
 _symmetry_equiv_pos_site_id
 _symmetry_equiv_pos_as_xyz
  1  'x, y, z'
loop_
 _atom_site_type_symbol
 _atom_site_label
 _atom_site_symmetry_multiplicity
 _atom_site_fract_x
 _atom_site_fract_y
 _atom_site_fract_z
 _atom_site_occupancy
  Gd  Gd0  1  0.75000000  0.25000000  0.50000000  1.0
  Gd  Gd1  1  1.00000000  1.00000000  1.00000000  1.0
  Pd  Pd2  1  0.37500000  1.12500000  0.75000000  1.0
  Pd  Pd3  1  0.37500000  0.62500000  0.25000000  1.0
  Pd  Pd4  1  0.37500000  0.62500000  0.75000000  1.0
  Pd  Pd5  1  0.87500000  0.62500000  1.25000000  1.0
  O  O6  1  0.70677861  0.85622680  0.46108205  1.0
  O  O7  1  1.39514475  1.24569656  1.53891795  1.0
  O  O8  1  0.99569656  0.95677861  1.35055181  1.0
  O  O9  1  0.60622680  0.64514475  0.64944819  1.0
  O  O10  1  1.04322139  0.39377320  1.03891795  1.0
  O  O11  1  0.35485525  1.00430344  0.96108205  1.0
  O  O12  1  0.75430344  1.29322139  1.14944819  1.0
  O  O13  1  1.14377320  0.60485525  0.85055181  1.0
