# generated using pymatgen
data_RbN3
_symmetry_space_group_name_H-M   'P 1'
_cell_length_a   5.92978054
_cell_length_b   5.92978054
_cell_length_c   5.92978054
_cell_angle_alpha   114.62490923
_cell_angle_beta   114.62490923
_cell_angle_gamma   99.59297871
_symmetry_Int_Tables_number   1
_chemical_formula_structural   RbN3
_chemical_formula_sum   'Rb2 N6'
_cell_volume   157.01998650
_cell_formula_units_Z   2
loop_
 _symmetry_equiv_pos_site_id
 _symmetry_equiv_pos_as_xyz
  1  'x, y, z'
loop_
 _atom_site_type_symbol
 _atom_site_label
 _atom_site_symmetry_multiplicity
 _atom_site_fract_x
 _atom_site_fract_y
 _atom_site_fract_z
 _atom_site_occupancy
  Rb  Rb0  1  0.25000000  0.25000000  0.00000000  1.0
  Rb  Rb1  1  0.75000000  0.75000000  0.00000000  1.0
  N  N2  1  0.86918182  0.36918182  1.23836364  1.0
  N  N3  1  0.63081818  0.86918182  0.50000000  1.0
  N  N4  1  0.36918182  0.13081818  0.50000000  1.0
  N  N5  1  1.13081818  0.63081818  0.76163636  1.0
  N  N6  1  1.00000000  0.50000000  0.50000000  1.0
  N  N7  1  0.50000000  1.00000000  0.50000000  1.0
