# generated using pymatgen
data_Ba3LuIr2O9
_symmetry_space_group_name_H-M   'P 1'
_cell_length_a   5.90419585
_cell_length_b   5.90419585
_cell_length_c   14.58973698
_cell_angle_alpha   90.00000000
_cell_angle_beta   90.00000000
_cell_angle_gamma   120.00000000
_symmetry_Int_Tables_number   1
_chemical_formula_structural   Ba3LuIr2O9
_chemical_formula_sum   'Ba6 Lu2 Ir4 O18'
_cell_volume   440.45303243
_cell_formula_units_Z   2
loop_
 _symmetry_equiv_pos_site_id
 _symmetry_equiv_pos_as_xyz
  1  'x, y, z'
loop_
 _atom_site_type_symbol
 _atom_site_label
 _atom_site_symmetry_multiplicity
 _atom_site_fract_x
 _atom_site_fract_y
 _atom_site_fract_z
 _atom_site_occupancy
  Ba  Ba0  1  0.33333333  0.66666667  0.40928957  1.0
  Ba  Ba1  1  0.33333333  0.66666667  0.09071043  1.0
  Ba  Ba2  1  0.66666667  0.33333333  0.90928957  1.0
  Ba  Ba3  1  0.66666667  0.33333333  0.59071043  1.0
  Ba  Ba4  1  0.00000000  0.00000000  0.25000000  1.0
  Ba  Ba5  1  0.00000000  0.00000000  0.75000000  1.0
  Lu  Lu6  1  0.00000000  0.00000000  0.50000000  1.0
  Lu  Lu7  1  0.00000000  0.00000000  0.00000000  1.0
  Ir  Ir8  1  0.33333333  0.66666667  0.83642928  1.0
  Ir  Ir9  1  0.33333333  0.66666667  0.66357072  1.0
  Ir  Ir10  1  0.66666667  0.33333333  0.33642928  1.0
  Ir  Ir11  1  0.66666667  0.33333333  0.16357072  1.0
  O  O12  1  0.17503071  0.82496929  0.91436625  1.0
  O  O13  1  0.17503071  0.82496929  0.58563375  1.0
  O  O14  1  0.17503071  0.35006143  0.91436625  1.0
  O  O15  1  0.17503071  0.35006143  0.58563375  1.0
  O  O16  1  0.82496929  0.17503071  0.41436625  1.0
  O  O17  1  0.82496929  0.17503071  0.08563375  1.0
  O  O18  1  0.82496929  0.64993857  0.41436625  1.0
  O  O19  1  0.82496929  0.64993857  0.08563375  1.0
  O  O20  1  0.64993857  0.82496929  0.91436625  1.0
  O  O21  1  0.64993857  0.82496929  0.58563375  1.0
  O  O22  1  0.35006143  0.17503071  0.41436625  1.0
  O  O23  1  0.35006143  0.17503071  0.08563375  1.0
  O  O24  1  0.50900214  0.49099786  0.25000000  1.0
  O  O25  1  0.50900214  0.01800428  0.25000000  1.0
  O  O26  1  0.49099786  0.50900214  0.75000000  1.0
  O  O27  1  0.49099786  0.98199572  0.75000000  1.0
  O  O28  1  0.98199572  0.49099786  0.25000000  1.0
  O  O29  1  0.01800428  0.50900214  0.75000000  1.0
