# generated using pymatgen
data_ICl3
_symmetry_space_group_name_H-M   'P 1'
_cell_length_a   5.85334741
_cell_length_b   9.09680489
_cell_length_c   6.49480566
_cell_angle_alpha   72.32433536
_cell_angle_beta   84.97415972
_cell_angle_gamma   83.99433510
_symmetry_Int_Tables_number   1
_chemical_formula_structural   ICl3
_chemical_formula_sum   'I2 Cl6'
_cell_volume   327.12313771
_cell_formula_units_Z   2
loop_
 _symmetry_equiv_pos_site_id
 _symmetry_equiv_pos_as_xyz
  1  'x, y, z'
loop_
 _atom_site_type_symbol
 _atom_site_label
 _atom_site_symmetry_multiplicity
 _atom_site_fract_x
 _atom_site_fract_y
 _atom_site_fract_z
 _atom_site_occupancy
  I  I0  1  -0.67443447  -0.68088621  0.00301960  1.0
  I  I1  1  -0.32556553  -0.31911379  -0.00301960  1.0
  Cl  Cl2  1  -0.93752906  -0.71139434  -0.24587363  1.0
  Cl  Cl3  1  -0.06247094  -0.28860566  -0.75412637  1.0
  Cl  Cl4  1  -0.70027190  -0.93594377  -0.74478311  1.0
  Cl  Cl5  1  -0.29972810  -0.06405623  -0.25521689  1.0
  Cl  Cl6  1  -0.37705419  -0.61424167  -0.74490866  1.0
  Cl  Cl7  1  -0.62294581  -0.38575833  -0.25509134  1.0
