# generated using pymatgen
data_SmAsS
_symmetry_space_group_name_H-M   'P 1'
_cell_length_a   3.89653895
_cell_length_b   17.57984054
_cell_length_c   5.58975525
_cell_angle_alpha   90.00000000
_cell_angle_beta   134.19447003
_cell_angle_gamma   90.00000000
_symmetry_Int_Tables_number   1
_chemical_formula_structural   SmAsS
_chemical_formula_sum   'Sm4 As4 S4'
_cell_volume   274.53170722
_cell_formula_units_Z   4
loop_
 _symmetry_equiv_pos_site_id
 _symmetry_equiv_pos_as_xyz
  1  'x, y, z'
loop_
 _atom_site_type_symbol
 _atom_site_label
 _atom_site_symmetry_multiplicity
 _atom_site_fract_x
 _atom_site_fract_y
 _atom_site_fract_z
 _atom_site_occupancy
  Sm  Sm0  1  0.98801836  0.15205145  0.23799007  1.0
  Sm  Sm1  1  0.98801836  0.34794855  0.73799007  1.0
  Sm  Sm2  1  0.01198164  0.65205145  0.26200993  1.0
  Sm  Sm3  1  0.01198164  0.84794855  0.76200993  1.0
  As  As4  1  0.45212541  0.49643264  0.20207734  1.0
  As  As5  1  0.45212541  0.00356736  0.70207734  1.0
  As  As6  1  0.54787459  0.99643264  0.29792266  1.0
  As  As7  1  0.54787459  0.50356736  0.79792266  1.0
  S  S8  1  0.99124036  0.31707743  0.24122307  1.0
  S  S9  1  0.99124036  0.18292257  0.74122307  1.0
  S  S10  1  0.00875964  0.81707743  0.25877693  1.0
  S  S11  1  0.00875964  0.68292257  0.75877693  1.0
