# generated using pymatgen
data_Tl2ZnH12(SeO7)2
_symmetry_space_group_name_H-M   'P 1'
_cell_length_a   6.48667963
_cell_length_b   12.73442971
_cell_length_c   9.35437307
_cell_angle_alpha   90.00000000
_cell_angle_beta   103.96386139
_cell_angle_gamma   90.00000000
_symmetry_Int_Tables_number   1
_chemical_formula_structural   Tl2ZnH12(SeO7)2
_chemical_formula_sum   'Tl4 Zn2 H24 Se4 O28'
_cell_volume   749.87514733
_cell_formula_units_Z   2
loop_
 _symmetry_equiv_pos_site_id
 _symmetry_equiv_pos_as_xyz
  1  'x, y, z'
loop_
 _atom_site_type_symbol
 _atom_site_label
 _atom_site_symmetry_multiplicity
 _atom_site_fract_x
 _atom_site_fract_y
 _atom_site_fract_z
 _atom_site_occupancy
  Tl  Tl0  1  0.84529058  0.65335102  0.13772356  1.0
  Tl  Tl1  1  0.84529058  0.84664898  0.63772356  1.0
  Tl  Tl2  1  0.15470942  0.15335102  0.36227644  1.0
  Tl  Tl3  1  0.15470942  0.34664898  0.86227644  1.0
  Zn  Zn4  1  0.50000000  0.50000000  0.50000000  1.0
  Zn  Zn5  1  0.50000000  0.00000000  -0.00000000  1.0
  H  H6  1  0.82509125  0.44124498  0.39344181  1.0
  H  H7  1  0.82509125  0.05875502  0.89344181  1.0
  H  H8  1  0.17490875  0.94124498  0.10655819  1.0
  H  H9  1  0.17490875  0.55875502  0.60655819  1.0
  H  H10  1  0.81971548  0.13695376  0.02494648  1.0
  H  H11  1  0.81971548  0.36304624  0.52494648  1.0
  H  H12  1  0.18028452  0.63695376  0.47505352  1.0
  H  H13  1  0.18028452  0.86304624  0.97505352  1.0
  H  H14  1  0.81730873  0.91234575  0.20968356  1.0
  H  H15  1  0.81730873  0.58765425  0.70968356  1.0
  H  H16  1  0.18269127  0.41234575  0.29031644  1.0
  H  H17  1  0.18269127  0.08765425  0.79031644  1.0
  H  H18  1  0.57521639  0.10085789  0.26824835  1.0
  H  H19  1  0.57521639  0.39914211  0.76824835  1.0
  H  H20  1  0.42478361  0.60085789  0.23175165  1.0
  H  H21  1  0.42478361  0.89914211  0.73175165  1.0
  H  H22  1  0.49722332  0.18722248  0.14534803  1.0
  H  H23  1  0.49722332  0.31277752  0.64534803  1.0
  H  H24  1  0.50277668  0.68722248  0.35465197  1.0
  H  H25  1  0.50277668  0.81277752  0.85465197  1.0
  H  H26  1  0.40119444  0.37601178  0.25449735  1.0
  H  H27  1  0.40119444  0.12398822  0.75449735  1.0
  H  H28  1  0.59880556  0.87601178  0.24550265  1.0
  H  H29  1  0.59880556  0.62398822  0.74550265  1.0
  Se  Se30  1  0.76995876  0.35972082  0.09268369  1.0
  Se  Se31  1  0.76995876  0.14027918  0.59268369  1.0
  Se  Se32  1  0.23004124  0.85972082  0.40731631  1.0
  Se  Se33  1  0.23004124  0.64027918  0.90731631  1.0
  O  O34  1  0.92188599  0.25336008  0.09257160  1.0
  O  O35  1  0.92188599  0.24663992  0.59257160  1.0
  O  O36  1  0.07811401  0.75336008  0.40742840  1.0
  O  O37  1  0.07811401  0.74663992  0.90742840  1.0
  O  O38  1  0.89687419  0.43875047  0.22974086  1.0
  O  O39  1  0.89687419  0.06124953  0.72974086  1.0
  O  O40  1  0.10312581  0.93875047  0.27025914  1.0
  O  O41  1  0.10312581  0.56124953  0.77025914  1.0
  O  O42  1  0.78534731  0.43629237  0.48957584  1.0
  O  O43  1  0.78534731  0.06370763  0.98957584  1.0
  O  O44  1  0.21465269  0.93629237  0.01042416  1.0
  O  O45  1  0.21465269  0.56370763  0.51042416  1.0
  O  O46  1  0.74285951  0.07521317  0.43493227  1.0
  O  O47  1  0.74285951  0.42478683  0.93493227  1.0
  O  O48  1  0.25714049  0.57521317  0.06506773  1.0
  O  O49  1  0.25714049  0.92478683  0.56506773  1.0
  O  O50  1  0.53277063  0.32344521  0.11885673  1.0
  O  O51  1  0.53277063  0.17655479  0.61885673  1.0
  O  O52  1  0.46722937  0.82344521  0.38114327  1.0
  O  O53  1  0.46722937  0.67655479  0.88114327  1.0
  O  O54  1  0.47243867  0.11338516  0.17155736  1.0
  O  O55  1  0.47243867  0.38661484  0.67155736  1.0
  O  O56  1  0.52756133  0.61338516  0.32844264  1.0
  O  O57  1  0.52756133  0.88661484  0.82844264  1.0
  O  O58  1  0.33095361  0.39062739  0.33538543  1.0
  O  O59  1  0.33095361  0.10937261  0.83538543  1.0
  O  O60  1  0.66904639  0.89062739  0.16461457  1.0
  O  O61  1  0.66904639  0.60937261  0.66461457  1.0
