# generated using pymatgen
data_LiPC4(N2F)2
_symmetry_space_group_name_H-M   'P 1'
_cell_length_a   5.93388724
_cell_length_b   17.70228551
_cell_length_c   7.75143046
_cell_angle_alpha   90.00000000
_cell_angle_beta   90.00000000
_cell_angle_gamma   90.00000000
_symmetry_Int_Tables_number   1
_chemical_formula_structural   LiPC4(N2F)2
_chemical_formula_sum   'Li4 P4 C16 N16 F8'
_cell_volume   814.23634771
_cell_formula_units_Z   4
loop_
 _symmetry_equiv_pos_site_id
 _symmetry_equiv_pos_as_xyz
  1  'x, y, z'
loop_
 _atom_site_type_symbol
 _atom_site_label
 _atom_site_symmetry_multiplicity
 _atom_site_fract_x
 _atom_site_fract_y
 _atom_site_fract_z
 _atom_site_occupancy
  Li  Li0  1  0.60410096  0.15242035  0.25000000  1.0
  Li  Li1  1  0.60410096  0.34757965  0.75000000  1.0
  Li  Li2  1  0.39589904  0.65242035  0.25000000  1.0
  Li  Li3  1  0.39589904  0.84757965  0.75000000  1.0
  P  P4  1  0.07632209  0.38744836  0.25000000  1.0
  P  P5  1  0.07632209  0.11255164  0.75000000  1.0
  P  P6  1  0.92367791  0.88744836  0.25000000  1.0
  P  P7  1  0.92367791  0.61255164  0.75000000  1.0
  C  C8  1  0.72017532  0.85773901  0.41920494  1.0
  C  C9  1  0.72017532  0.85773901  0.08079506  1.0
  C  C10  1  0.72017532  0.64226099  0.91920494  1.0
  C  C11  1  0.72017532  0.64226099  0.58079506  1.0
  C  C12  1  0.27982468  0.35773901  0.41920494  1.0
  C  C13  1  0.27982468  0.35773901  0.08079506  1.0
  C  C14  1  0.27982468  0.14226099  0.91920494  1.0
  C  C15  1  0.27982468  0.14226099  0.58079506  1.0
  C  C16  1  0.78612710  0.98201561  0.25000000  1.0
  C  C17  1  0.78612710  0.51798439  0.75000000  1.0
  C  C18  1  0.21387290  0.48201561  0.25000000  1.0
  C  C19  1  0.21387290  0.01798439  0.75000000  1.0
  C  C20  1  0.93885344  0.29332565  0.25000000  1.0
  C  C21  1  0.93885344  0.20667435  0.75000000  1.0
  C  C22  1  0.06114656  0.79332565  0.25000000  1.0
  C  C23  1  0.06114656  0.70667435  0.75000000  1.0
  N  N24  1  0.40084413  0.15601430  0.46712581  1.0
  N  N25  1  0.40084413  0.15601430  0.03287419  1.0
  N  N26  1  0.40084413  0.34398570  0.96712581  1.0
  N  N27  1  0.40084413  0.34398570  0.53287419  1.0
  N  N28  1  0.59915587  0.65601430  0.46712581  1.0
  N  N29  1  0.59915587  0.65601430  0.03287419  1.0
  N  N30  1  0.59915587  0.84398570  0.96712581  1.0
  N  N31  1  0.59915587  0.84398570  0.53287419  1.0
  N  N32  1  0.70670824  0.04204106  0.25000000  1.0
  N  N33  1  0.70670824  0.45795894  0.75000000  1.0
  N  N34  1  0.29329176  0.54204106  0.25000000  1.0
  N  N35  1  0.29329176  0.95795894  0.75000000  1.0
  N  N36  1  0.84041418  0.23674033  0.25000000  1.0
  N  N37  1  0.84041418  0.26325967  0.75000000  1.0
  N  N38  1  0.15958582  0.73674033  0.25000000  1.0
  N  N39  1  0.15958582  0.76325967  0.75000000  1.0
  F  F40  1  0.90423775  0.41545591  0.40099037  1.0
  F  F41  1  0.90423775  0.41545591  0.09900963  1.0
  F  F42  1  0.90423775  0.08454409  0.90099037  1.0
  F  F43  1  0.90423775  0.08454409  0.59900963  1.0
  F  F44  1  0.09576225  0.91545591  0.40099037  1.0
  F  F45  1  0.09576225  0.91545591  0.09900963  1.0
  F  F46  1  0.09576225  0.58454409  0.90099037  1.0
  F  F47  1  0.09576225  0.58454409  0.59900963  1.0
