# generated using pymatgen
data_LaNiGe2
_symmetry_space_group_name_H-M   'P 1'
_cell_length_a   8.75467758
_cell_length_b   8.75467758
_cell_length_c   4.27910037
_cell_angle_alpha   90.00000000
_cell_angle_beta   90.00000000
_cell_angle_gamma   151.37883663
_symmetry_Int_Tables_number   1
_chemical_formula_structural   LaNiGe2
_chemical_formula_sum   'La2 Ni2 Ge4'
_cell_volume   157.10243653
_cell_formula_units_Z   2
loop_
 _symmetry_equiv_pos_site_id
 _symmetry_equiv_pos_as_xyz
  1  'x, y, z'
loop_
 _atom_site_type_symbol
 _atom_site_label
 _atom_site_symmetry_multiplicity
 _atom_site_fract_x
 _atom_site_fract_y
 _atom_site_fract_z
 _atom_site_occupancy
  La  La0  1  0.39114963  0.60885037  0.75000000  1.0
  La  La1  1  -0.39114963  0.39114963  0.25000000  1.0
  Ni  Ni2  1  0.18232083  0.81767917  0.75000000  1.0
  Ni  Ni3  1  -0.18232083  0.18232083  0.25000000  1.0
  Ge  Ge4  1  0.04288350  0.95711650  0.75000000  1.0
  Ge  Ge5  1  -0.04288350  0.04288350  0.25000000  1.0
  Ge  Ge6  1  -0.24982294  0.24982294  0.75000000  1.0
  Ge  Ge7  1  0.24982294  0.75017706  0.25000000  1.0
