# generated using pymatgen
data_Mn2NbP12
_symmetry_space_group_name_H-M   'P 1'
_cell_length_a   8.56269639
_cell_length_b   8.56269639
_cell_length_c   10.69020678
_cell_angle_alpha   65.96739713
_cell_angle_beta   114.03260287
_cell_angle_gamma   140.46760476
_symmetry_Int_Tables_number   1
_chemical_formula_structural   Mn2NbP12
_chemical_formula_sum   'Mn4 Nb2 P24'
_cell_volume   449.76633406
_cell_formula_units_Z   2
loop_
 _symmetry_equiv_pos_site_id
 _symmetry_equiv_pos_as_xyz
  1  'x, y, z'
loop_
 _atom_site_type_symbol
 _atom_site_label
 _atom_site_symmetry_multiplicity
 _atom_site_fract_x
 _atom_site_fract_y
 _atom_site_fract_z
 _atom_site_occupancy
  Mn  Mn0  1  0.50776006  -0.12775733  0.45454385  1.0
  Mn  Mn1  1  1.12775733  -0.50776006  0.95454385  1.0
  Mn  Mn2  1  0.87224267  0.50776006  0.04545615  1.0
  Mn  Mn3  1  1.49223994  0.12775733  0.54545615  1.0
  Nb  Nb4  1  0.80395348  0.80395348  0.25000000  1.0
  Nb  Nb5  1  0.19604652  0.19604652  0.75000000  1.0
  P  P6  1  1.83339005  0.06684487  0.99638685  1.0
  P  P7  1  0.93315513  0.16660995  0.49638685  1.0
  P  P8  1  1.06684487  -0.16660995  0.50361315  1.0
  P  P9  1  0.16660995  -0.06684487  0.00361315  1.0
  P  P10  1  0.52056811  -0.16764622  0.25849500  1.0
  P  P11  1  1.16764622  -0.52056811  0.75849500  1.0
  P  P12  1  0.83235378  0.52056811  0.24150500  1.0
  P  P13  1  1.47943189  0.16764622  0.74150500  1.0
  P  P14  1  0.54883546  0.09640937  0.07426011  1.0
  P  P15  1  0.90359063  -0.54883546  0.57426011  1.0
  P  P16  1  1.09640937  0.54883546  0.42573989  1.0
  P  P17  1  1.45116454  -0.09640937  0.92573989  1.0
  P  P18  1  0.50511096  0.14882097  0.33566315  1.0
  P  P19  1  0.85117903  -0.50511096  0.83566315  1.0
  P  P20  1  1.14882097  0.50511096  0.16433685  1.0
  P  P21  1  1.49488904  -0.14882097  0.66433685  1.0
  P  P22  1  0.20702521  0.08246552  0.16540025  1.0
  P  P23  1  0.91753448  0.79297479  0.66540025  1.0
  P  P24  1  1.08246552  -0.79297479  0.33459975  1.0
  P  P25  1  1.79297479  -0.08246552  0.83459975  1.0
  P  P26  1  0.48457178  0.41815304  0.42744534  1.0
  P  P27  1  0.58184696  0.51542822  0.92744534  1.0
  P  P28  1  1.41815304  -0.51542822  0.07255466  1.0
  P  P29  1  1.51542822  -0.41815304  0.57255466  1.0
