# generated using pymatgen
data_Na2Al2Si3O10
_symmetry_space_group_name_H-M   'P 1'
_cell_length_a   8.77146407
_cell_length_b   8.77146407
_cell_length_c   11.70835650
_cell_angle_alpha   50.09535155
_cell_angle_beta   129.90464845
_cell_angle_gamma   136.54019564
_symmetry_Int_Tables_number   1
_chemical_formula_structural   Na2Al2Si3O10
_chemical_formula_sum   'Na4 Al4 Si6 O20'
_cell_volume   448.14658681
_cell_formula_units_Z   2
loop_
 _symmetry_equiv_pos_site_id
 _symmetry_equiv_pos_as_xyz
  1  'x, y, z'
loop_
 _atom_site_type_symbol
 _atom_site_label
 _atom_site_symmetry_multiplicity
 _atom_site_fract_x
 _atom_site_fract_y
 _atom_site_fract_z
 _atom_site_occupancy
  Na  Na0  1  1.10357266  -0.39022245  0.36183701  1.0
  Na  Na1  1  0.60977755  0.10357266  0.63816299  1.0
  Na  Na2  1  0.27304050  0.02882876  0.86406509  1.0
  Na  Na3  1  1.02882876  -0.72695950  0.13593491  1.0
  Al  Al4  1  1.24998184  0.51214762  0.78522496  1.0
  Al  Al5  1  1.51214762  0.24998184  0.21477504  1.0
  Al  Al6  1  0.72386296  0.53459686  0.71921694  1.0
  Al  Al7  1  1.53459686  -0.27613704  0.28078306  1.0
  Si  Si8  1  0.99947776  0.74378378  0.52728031  1.0
  Si  Si9  1  1.74378378  -0.00052224  0.47271969  1.0
  Si  Si10  1  0.71735036  0.53376581  0.96133503  1.0
  Si  Si11  1  1.53376581  -0.28264964  0.03866497  1.0
  Si  Si12  1  0.24464603  0.24464603  0.50000000  1.0
  Si  Si13  1  -0.00234254  -0.00234254  0.00000000  1.0
  O  O14  1  1.43887723  -0.56693232  0.85208390  1.0
  O  O15  1  0.43306768  0.43887723  0.14791610  1.0
  O  O16  1  1.03917615  -0.83160963  0.53655440  1.0
  O  O17  1  0.16839037  0.03917615  0.46344560  1.0
  O  O18  1  1.28147157  -0.52493159  0.34017142  1.0
  O  O19  1  0.47506841  0.28147157  0.65982858  1.0
  O  O20  1  1.01411743  0.24054632  0.85615202  1.0
  O  O21  1  1.24054632  0.01411743  0.14384798  1.0
  O  O22  1  0.43030422  -0.25316367  0.85465854  1.0
  O  O23  1  0.74683633  -0.56969578  0.14534146  1.0
  O  O24  1  1.14041561  0.64120836  0.57603969  1.0
  O  O25  1  1.64120836  0.14041561  0.42396031  1.0
  O  O26  1  0.80798073  0.46151694  0.92543860  1.0
  O  O27  1  1.46151694  -0.19201927  0.07456140  1.0
  O  O28  1  0.96637701  0.65862636  0.68480940  1.0
  O  O29  1  1.65862636  -0.03362299  0.31519060  1.0
  O  O30  1  0.88894494  0.82586790  0.91620249  1.0
  O  O31  1  1.82586790  -0.11105506  0.08379751  1.0
  O  O32  1  1.65548645  -0.25076994  0.61026391  1.0
  O  O33  1  0.74923006  0.65548645  0.38973609  1.0
