# generated using pymatgen
data_Na3LiWO5
_symmetry_space_group_name_H-M   'P 1'
_cell_length_a   7.75676279
_cell_length_b   6.05535090
_cell_length_c   5.70572282
_cell_angle_alpha   73.78514424
_cell_angle_beta   70.78421834
_cell_angle_gamma   76.42327039
_symmetry_Int_Tables_number   1
_chemical_formula_structural   Na3LiWO5
_chemical_formula_sum   'Na6 Li2 W2 O10'
_cell_volume   239.96514958
_cell_formula_units_Z   2
loop_
 _symmetry_equiv_pos_site_id
 _symmetry_equiv_pos_as_xyz
  1  'x, y, z'
loop_
 _atom_site_type_symbol
 _atom_site_label
 _atom_site_symmetry_multiplicity
 _atom_site_fract_x
 _atom_site_fract_y
 _atom_site_fract_z
 _atom_site_occupancy
  Na  Na0  1  -0.48906901  -0.74889497  -0.51962761  1.0
  Na  Na1  1  -0.51093099  -0.25110503  -0.48037239  1.0
  Na  Na2  1  -0.88245843  -0.44634374  -0.31999940  1.0
  Na  Na3  1  -0.11754157  -0.55365626  -0.68000060  1.0
  Na  Na4  1  -0.91157332  -0.94452862  -0.29939361  1.0
  Na  Na5  1  -0.08842668  -0.05547138  -0.70060639  1.0
  Li  Li6  1  -0.64874477  -0.35707867  -0.88735261  1.0
  Li  Li7  1  -0.35125523  -0.64292133  -0.11264739  1.0
  W  W8  1  -0.70391644  -0.84017766  -0.89874035  1.0
  W  W9  1  -0.29608356  -0.15982234  -0.10125965  1.0
  O  O10  1  -0.92254781  -0.77361991  -0.98556720  1.0
  O  O11  1  -0.07745219  -0.22638009  -0.01443280  1.0
  O  O12  1  -0.42888353  -0.94695433  -0.85234604  1.0
  O  O13  1  -0.57111647  -0.05304567  -0.14765396  1.0
  O  O14  1  -0.39371124  -0.42003506  -0.84801384  1.0
  O  O15  1  -0.60628876  -0.57996494  -0.15198616  1.0
  O  O16  1  -0.77203607  -0.12018948  -0.64991691  1.0
  O  O17  1  -0.22796393  -0.87981052  -0.35008309  1.0
  O  O18  1  -0.76964724  -0.66723834  -0.64575950  1.0
  O  O19  1  -0.23035276  -0.33276166  -0.35424050  1.0
