# generated using pymatgen
data_Li3MnCoNiO6
_symmetry_space_group_name_H-M   'P 1'
_cell_length_a   4.98396589
_cell_length_b   4.98396589
_cell_length_c   14.28168592
_cell_angle_alpha   90.00000000
_cell_angle_beta   90.00000000
_cell_angle_gamma   120.00000000
_symmetry_Int_Tables_number   1
_chemical_formula_structural   Li3MnCoNiO6
_chemical_formula_sum   'Li9 Mn3 Co3 Ni3 O18'
_cell_volume   307.22760329
_cell_formula_units_Z   3
loop_
 _symmetry_equiv_pos_site_id
 _symmetry_equiv_pos_as_xyz
  1  'x, y, z'
loop_
 _atom_site_type_symbol
 _atom_site_label
 _atom_site_symmetry_multiplicity
 _atom_site_fract_x
 _atom_site_fract_y
 _atom_site_fract_z
 _atom_site_occupancy
  Li  Li0  1  0.76706520  0.88353260  0.00000000  1.0
  Li  Li1  1  0.11646740  0.88353260  0.33333333  1.0
  Li  Li2  1  0.11646740  0.23293480  0.66666667  1.0
  Li  Li3  1  0.11142133  0.55571067  0.00000000  1.0
  Li  Li4  1  0.44428933  0.55571067  0.33333333  1.0
  Li  Li5  1  0.44428933  0.88857867  0.66666667  1.0
  Li  Li6  1  0.45027555  0.22513778  0.00000000  1.0
  Li  Li7  1  0.77486222  0.22513778  0.33333333  1.0
  Li  Li8  1  0.77486222  0.54972445  0.66666667  1.0
  Mn  Mn9  1  0.77750482  0.88875241  0.50000000  1.0
  Mn  Mn10  1  0.11124759  0.88875241  0.83333333  1.0
  Mn  Mn11  1  0.11124759  0.22249518  0.16666667  1.0
  Co  Co12  1  0.11001111  0.55500555  0.50000000  1.0
  Co  Co13  1  0.44499445  0.55500555  0.83333333  1.0
  Co  Co14  1  0.44499445  0.88998889  0.16666667  1.0
  Ni  Ni15  1  0.44337074  0.22168537  0.50000000  1.0
  Ni  Ni16  1  0.77831463  0.22168537  0.83333333  1.0
  Ni  Ni17  1  0.77831463  0.55662926  0.16666667  1.0
  O  O18  1  0.13093250  0.90962162  0.09227014  1.0
  O  O19  1  0.13093250  0.22131088  0.90772986  1.0
  O  O20  1  0.77868912  0.90962162  0.24106320  1.0
  O  O21  1  0.77868912  0.86906750  0.75893680  1.0
  O  O22  1  0.09037838  0.86906750  0.57439653  1.0
  O  O23  1  0.09037838  0.22131088  0.42560347  1.0
  O  O24  1  0.42564135  0.86951630  0.90776476  1.0
  O  O25  1  0.42564135  0.55612505  0.09223524  1.0
  O  O26  1  0.44387495  0.86951630  0.42556858  1.0
  O  O27  1  0.44387495  0.57435865  0.57443142  1.0
  O  O28  1  0.13048370  0.57435865  0.75890191  1.0
  O  O29  1  0.13048370  0.55612505  0.24109809  1.0
  O  O30  1  0.77936915  0.57486565  0.90873882  1.0
  O  O31  1  0.77936915  0.20450350  0.09126118  1.0
  O  O32  1  0.79549650  0.57486565  0.42459452  1.0
  O  O33  1  0.79549650  0.22063085  0.57540548  1.0
  O  O34  1  0.42513435  0.22063085  0.75792785  1.0
  O  O35  1  0.42513435  0.20450350  0.24207215  1.0
