# generated using pymatgen
data_VH12C6NO4
_symmetry_space_group_name_H-M   'P 1'
_cell_length_a   7.51443323
_cell_length_b   7.69532261
_cell_length_c   8.27744462
_cell_angle_alpha   90.00000000
_cell_angle_beta   93.18761109
_cell_angle_gamma   90.00000000
_symmetry_Int_Tables_number   1
_chemical_formula_structural   VH12C6NO4
_chemical_formula_sum   'V2 H24 C12 N2 O8'
_cell_volume   477.91084868
_cell_formula_units_Z   2
loop_
 _symmetry_equiv_pos_site_id
 _symmetry_equiv_pos_as_xyz
  1  'x, y, z'
loop_
 _atom_site_type_symbol
 _atom_site_label
 _atom_site_symmetry_multiplicity
 _atom_site_fract_x
 _atom_site_fract_y
 _atom_site_fract_z
 _atom_site_occupancy
  V  V0  1  0.29159857  0.81061421  0.74757723  1.0
  V  V1  1  0.70840143  0.31061421  0.25242277  1.0
  H  H2  1  0.73661919  0.60218055  0.83238022  1.0
  H  H3  1  0.26338081  0.10218055  0.16761978  1.0
  H  H4  1  0.64668874  0.59131038  0.62903562  1.0
  H  H5  1  0.35331126  0.09131038  0.37096438  1.0
  H  H6  1  0.53494769  0.33163142  0.76533004  1.0
  H  H7  1  0.46505231  0.83163142  0.23466996  1.0
  H  H8  1  0.48464222  0.45633881  0.93740128  1.0
  H  H9  1  0.51535778  0.95633881  0.06259872  1.0
  H  H10  1  0.14924851  0.59118769  0.35799566  1.0
  H  H11  1  0.85075149  0.09118769  0.64200434  1.0
  H  H12  1  0.00838084  0.56435026  0.52066844  1.0
  H  H13  1  0.99161916  0.06435026  0.47933156  1.0
  H  H14  1  0.40395103  0.46931946  0.50755979  1.0
  H  H15  1  0.59604897  0.96931946  0.49244021  1.0
  H  H16  1  0.22629860  0.32532181  0.54574796  1.0
  H  H17  1  0.77370140  0.82532181  0.45425204  1.0
  H  H18  1  0.02480856  0.55818582  0.03638568  1.0
  H  H19  1  0.97519144  0.05818582  0.96361432  1.0
  H  H20  1  0.26075422  0.55513294  0.07015172  1.0
  H  H21  1  0.73924578  0.05513294  0.92984828  1.0
  H  H22  1  0.18545949  0.30972104  0.88614394  1.0
  H  H23  1  0.81454051  0.80972104  0.11385606  1.0
  H  H24  1  0.03855183  0.44316135  0.76541464  1.0
  H  H25  1  0.96144817  0.94316135  0.23458536  1.0
  C  C26  1  0.61168573  0.60529759  0.75615581  1.0
  C  C27  1  0.38831427  0.10529759  0.24384419  1.0
  C  C28  1  0.48781482  0.45971339  0.80503244  1.0
  C  C29  1  0.51218518  0.95971339  0.19496756  1.0
  C  C30  1  0.14659925  0.59277262  0.49086193  1.0
  C  C31  1  0.85340075  0.09277262  0.50913807  1.0
  C  C32  1  0.27632949  0.45884737  0.56532280  1.0
  C  C33  1  0.72367051  0.95884737  0.43467720  1.0
  C  C34  1  0.15144370  0.57406828  0.97708734  1.0
  C  C35  1  0.84855630  0.07406828  0.02291266  1.0
  C  C36  1  0.16400158  0.44292699  0.84023556  1.0
  C  C37  1  0.83599842  0.94292699  0.15976444  1.0
  N  N38  1  0.30720600  0.49930886  0.73803706  1.0
  N  N39  1  0.69279400  -0.00069114  0.26196294  1.0
  O  O40  1  0.52916002  0.77007534  0.77530215  1.0
  O  O41  1  0.47083998  0.27007534  0.22469785  1.0
  O  O42  1  0.19349557  0.76258034  0.54752568  1.0
  O  O43  1  0.80650443  0.26258034  0.45247432  1.0
  O  O44  1  0.16137600  0.74677051  0.91545035  1.0
  O  O45  1  0.83862400  0.24677051  0.08454965  1.0
  O  O46  1  0.28218552  0.02055299  0.75384303  1.0
  O  O47  1  0.71781448  0.52055299  0.24615697  1.0
