# generated using pymatgen
data_ZrMnSi2
_symmetry_space_group_name_H-M   'P 1'
_cell_length_a   9.04971812
_cell_length_b   9.85786358
_cell_length_c   7.87861027
_cell_angle_alpha   90.00000000
_cell_angle_beta   90.00000000
_cell_angle_gamma   90.00000000
_symmetry_Int_Tables_number   1
_chemical_formula_structural   ZrMnSi2
_chemical_formula_sum   'Zr12 Mn12 Si24'
_cell_volume   702.85780776
_cell_formula_units_Z   12
loop_
 _symmetry_equiv_pos_site_id
 _symmetry_equiv_pos_as_xyz
  1  'x, y, z'
loop_
 _atom_site_type_symbol
 _atom_site_label
 _atom_site_symmetry_multiplicity
 _atom_site_fract_x
 _atom_site_fract_y
 _atom_site_fract_z
 _atom_site_occupancy
  Zr  Zr0  1  0.17445739  0.54850853  0.75372781  1.0
  Zr  Zr1  1  0.17445739  0.54850853  0.24627219  1.0
  Zr  Zr2  1  0.67445739  0.95149147  0.75372781  1.0
  Zr  Zr3  1  0.67445739  0.95149147  0.24627219  1.0
  Zr  Zr4  1  0.82554261  0.45149147  0.75372781  1.0
  Zr  Zr5  1  0.82554261  0.45149147  0.24627219  1.0
  Zr  Zr6  1  0.32554261  0.04850853  0.75372781  1.0
  Zr  Zr7  1  0.32554261  0.04850853  0.24627219  1.0
  Zr  Zr8  1  0.16754964  0.82162120  0.00000000  1.0
  Zr  Zr9  1  0.66754964  0.67837880  0.00000000  1.0
  Zr  Zr10  1  0.83245036  0.17837880  0.00000000  1.0
  Zr  Zr11  1  0.33245036  0.32162120  0.00000000  1.0
  Mn  Mn12  1  0.41631169  0.75161165  0.75011651  1.0
  Mn  Mn13  1  0.41631169  0.75161165  0.24988349  1.0
  Mn  Mn14  1  0.91631169  0.74838835  0.75011651  1.0
  Mn  Mn15  1  0.91631169  0.74838835  0.24988349  1.0
  Mn  Mn16  1  0.58368831  0.24838835  0.75011651  1.0
  Mn  Mn17  1  0.58368831  0.24838835  0.24988349  1.0
  Mn  Mn18  1  0.08368831  0.25161165  0.75011651  1.0
  Mn  Mn19  1  0.08368831  0.25161165  0.24988349  1.0
  Mn  Mn20  1  0.50000000  0.50000000  0.75350515  1.0
  Mn  Mn21  1  0.50000000  0.50000000  0.24649485  1.0
  Mn  Mn22  1  0.00000000  0.00000000  0.75350515  1.0
  Mn  Mn23  1  0.00000000  0.00000000  0.24649485  1.0
  Si  Si24  1  0.16512350  0.81889021  0.65021238  1.0
  Si  Si25  1  0.16512350  0.81889021  0.34978762  1.0
  Si  Si26  1  0.66512350  0.68110979  0.65021238  1.0
  Si  Si27  1  0.66512350  0.68110979  0.34978762  1.0
  Si  Si28  1  0.83487650  0.18110979  0.65021238  1.0
  Si  Si29  1  0.83487650  0.18110979  0.34978762  1.0
  Si  Si30  1  0.33487650  0.31889021  0.65021238  1.0
  Si  Si31  1  0.33487650  0.31889021  0.34978762  1.0
  Si  Si32  1  0.45966473  0.87583746  0.50000000  1.0
  Si  Si33  1  0.95966472  0.62416254  0.50000000  1.0
  Si  Si34  1  0.54033527  0.12416254  0.50000000  1.0
  Si  Si35  1  0.04033528  0.37583746  0.50000000  1.0
  Si  Si36  1  0.39054121  0.60627892  0.50000000  1.0
  Si  Si37  1  0.89054121  0.89372108  0.50000000  1.0
  Si  Si38  1  0.60945879  0.39372108  0.50000000  1.0
  Si  Si39  1  0.10945879  0.10627892  0.50000000  1.0
  Si  Si40  1  0.46154492  0.88012943  0.00000000  1.0
  Si  Si41  1  0.96154492  0.61987057  0.00000000  1.0
  Si  Si42  1  0.53845508  0.11987057  0.00000000  1.0
  Si  Si43  1  0.03845508  0.38012943  0.00000000  1.0
  Si  Si44  1  0.37559850  0.60748904  0.00000000  1.0
  Si  Si45  1  0.87559850  0.89251096  0.00000000  1.0
  Si  Si46  1  0.62440150  0.39251096  0.00000000  1.0
  Si  Si47  1  0.12440150  0.10748904  0.00000000  1.0
