# generated using pymatgen
data_HfSi
_symmetry_space_group_name_H-M   'P 1'
_cell_length_a   6.90034057
_cell_length_b   3.79110704
_cell_length_c   5.24782255
_cell_angle_alpha   90.00000000
_cell_angle_beta   90.00000000
_cell_angle_gamma   90.00000000
_symmetry_Int_Tables_number   1
_chemical_formula_structural   HfSi
_chemical_formula_sum   'Hf4 Si4'
_cell_volume   137.28266921
_cell_formula_units_Z   4
loop_
 _symmetry_equiv_pos_site_id
 _symmetry_equiv_pos_as_xyz
  1  'x, y, z'
loop_
 _atom_site_type_symbol
 _atom_site_label
 _atom_site_symmetry_multiplicity
 _atom_site_fract_x
 _atom_site_fract_y
 _atom_site_fract_z
 _atom_site_occupancy
  Hf  Hf0  1  0.32446833  0.75000000  0.12602692  1.0
  Hf  Hf1  1  0.82446833  0.75000000  0.37397308  1.0
  Hf  Hf2  1  0.67553167  0.25000000  0.87397308  1.0
  Hf  Hf3  1  0.17553167  0.25000000  0.62602692  1.0
  Si  Si4  1  0.45675157  0.75000000  0.64013478  1.0
  Si  Si5  1  0.95675157  0.75000000  0.85986522  1.0
  Si  Si6  1  0.54324843  0.25000000  0.35986522  1.0
  Si  Si7  1  0.04324843  0.25000000  0.14013478  1.0
