# generated using pymatgen
data_SrZnAs2O7
_symmetry_space_group_name_H-M   'P 1'
_cell_length_a   5.62159729
_cell_length_b   8.49347815
_cell_length_c   14.47123674
_cell_angle_alpha   90.00000000
_cell_angle_beta   111.64652518
_cell_angle_gamma   90.00000000
_symmetry_Int_Tables_number   1
_chemical_formula_structural   SrZnAs2O7
_chemical_formula_sum   'Sr4 Zn4 As8 O28'
_cell_volume   642.22871708
_cell_formula_units_Z   4
loop_
 _symmetry_equiv_pos_site_id
 _symmetry_equiv_pos_as_xyz
  1  'x, y, z'
loop_
 _atom_site_type_symbol
 _atom_site_label
 _atom_site_symmetry_multiplicity
 _atom_site_fract_x
 _atom_site_fract_y
 _atom_site_fract_z
 _atom_site_occupancy
  Sr  Sr0  1  0.98757120  0.17484715  0.28022447  1.0
  Sr  Sr1  1  0.98757120  0.32515285  0.78022447  1.0
  Sr  Sr2  1  0.01242880  0.67484715  0.21977553  1.0
  Sr  Sr3  1  0.01242880  0.82515285  0.71977553  1.0
  Zn  Zn4  1  0.72844801  0.85567528  0.39213768  1.0
  Zn  Zn5  1  0.72844801  0.64432472  0.89213768  1.0
  Zn  Zn6  1  0.27155199  0.35567528  0.10786232  1.0
  Zn  Zn7  1  0.27155199  0.14432472  0.60786232  1.0
  As  As8  1  0.66029721  0.19577188  0.48453194  1.0
  As  As9  1  0.66029721  0.30422812  0.98453194  1.0
  As  As10  1  0.33970279  0.69577188  0.01546806  1.0
  As  As11  1  0.33970279  0.80422812  0.51546806  1.0
  As  As12  1  0.58080867  0.47866035  0.33549762  1.0
  As  As13  1  0.58080867  0.02133965  0.83549762  1.0
  As  As14  1  0.41919133  0.97866035  0.16450238  1.0
  As  As15  1  0.41919133  0.52133965  0.66450238  1.0
  O  O16  1  0.90560196  0.32296103  0.09858756  1.0
  O  O17  1  0.90560196  0.17703897  0.59858756  1.0
  O  O18  1  0.09439804  0.82296103  0.40141244  1.0
  O  O19  1  0.09439804  0.67703897  0.90141244  1.0
  O  O20  1  0.82546201  0.45626800  0.29362840  1.0
  O  O21  1  0.82546201  0.04373200  0.79362840  1.0
  O  O22  1  0.17453799  0.95626800  0.20637160  1.0
  O  O23  1  0.17453799  0.54373200  0.70637160  1.0
  O  O24  1  0.72615057  0.09683023  0.39172295  1.0
  O  O25  1  0.72615057  0.40316977  0.89172295  1.0
  O  O26  1  0.27384943  0.59683023  0.10827705  1.0
  O  O27  1  0.27384943  0.90316977  0.60827705  1.0
  O  O28  1  0.68641779  0.40327123  0.46081255  1.0
  O  O29  1  0.68641779  0.09672877  0.96081255  1.0
  O  O30  1  0.31358221  0.90327123  0.03918745  1.0
  O  O31  1  0.31358221  0.59672877  0.53918745  1.0
  O  O32  1  0.50662087  0.17061230  0.15488504  1.0
  O  O33  1  0.50662087  0.32938770  0.65488504  1.0
  O  O34  1  0.49337913  0.67061230  0.34511496  1.0
  O  O35  1  0.49337913  0.82938770  0.84511496  1.0
  O  O36  1  0.35014837  0.15661108  0.47463742  1.0
  O  O37  1  0.35014837  0.34338892  0.97463742  1.0
  O  O38  1  0.64985163  0.65661108  0.02536258  1.0
  O  O39  1  0.64985163  0.84338892  0.52536258  1.0
  O  O40  1  0.30184634  0.38405142  0.26403088  1.0
  O  O41  1  0.30184634  0.11594858  0.76403088  1.0
  O  O42  1  0.69815366  0.88405142  0.23596912  1.0
  O  O43  1  0.69815366  0.61594858  0.73596912  1.0
