# generated using pymatgen
data_AlInCl4
_symmetry_space_group_name_H-M   'P 1'
_cell_length_a   11.50687215
_cell_length_b   7.42405895
_cell_length_c   10.01837846
_cell_angle_alpha   90.00000000
_cell_angle_beta   90.00000000
_cell_angle_gamma   90.00000000
_symmetry_Int_Tables_number   1
_chemical_formula_structural   AlInCl4
_chemical_formula_sum   'Al4 In4 Cl16'
_cell_volume   855.84700147
_cell_formula_units_Z   4
loop_
 _symmetry_equiv_pos_site_id
 _symmetry_equiv_pos_as_xyz
  1  'x, y, z'
loop_
 _atom_site_type_symbol
 _atom_site_label
 _atom_site_symmetry_multiplicity
 _atom_site_fract_x
 _atom_site_fract_y
 _atom_site_fract_z
 _atom_site_occupancy
  Al  Al0  1  0.21216615  0.75000000  0.23247898  1.0
  Al  Al1  1  0.71216615  0.75000000  0.26752102  1.0
  Al  Al2  1  0.78783385  0.25000000  0.76752102  1.0
  Al  Al3  1  0.28783385  0.25000000  0.73247898  1.0
  In  In4  1  0.43433283  0.75000000  0.66389748  1.0
  In  In5  1  0.93433283  0.75000000  0.83610252  1.0
  In  In6  1  0.56566717  0.25000000  0.33610252  1.0
  In  In7  1  0.06566717  0.25000000  0.16389748  1.0
  Cl  Cl8  1  0.44592766  1.01167022  0.81026048  1.0
  Cl  Cl9  1  0.44592766  0.48832978  0.81026048  1.0
  Cl  Cl10  1  0.94592766  1.01167022  0.68973952  1.0
  Cl  Cl11  1  0.94592766  0.48832978  0.68973952  1.0
  Cl  Cl12  1  0.55407234  0.51167022  0.18973952  1.0
  Cl  Cl13  1  0.55407234  -0.01167022  0.18973952  1.0
  Cl  Cl14  1  0.05407234  0.51167022  0.31026048  1.0
  Cl  Cl15  1  0.05407234  -0.01167022  0.31026048  1.0
  Cl  Cl16  1  0.25202101  0.75000000  0.55275426  1.0
  Cl  Cl17  1  0.75202101  0.75000000  0.94724574  1.0
  Cl  Cl18  1  0.74797899  0.25000000  0.44724574  1.0
  Cl  Cl19  1  0.24797899  0.25000000  0.05275426  1.0
  Cl  Cl20  1  0.10501011  0.75000000  0.97504357  1.0
  Cl  Cl21  1  0.60501011  0.75000000  0.52495643  1.0
  Cl  Cl22  1  0.89498989  0.25000000  0.02495643  1.0
  Cl  Cl23  1  0.39498989  0.25000000  0.47504357  1.0
