# generated using pymatgen
data_KGaCuF6
_symmetry_space_group_name_H-M   'P 1'
_cell_length_a   7.45131332
_cell_length_b   10.16259781
_cell_length_c   6.85217823
_cell_angle_alpha   90.00000000
_cell_angle_beta   95.07806013
_cell_angle_gamma   90.00000000
_symmetry_Int_Tables_number   1
_chemical_formula_structural   KGaCuF6
_chemical_formula_sum   'K4 Ga4 Cu4 F24'
_cell_volume   516.84255962
_cell_formula_units_Z   4
loop_
 _symmetry_equiv_pos_site_id
 _symmetry_equiv_pos_as_xyz
  1  'x, y, z'
loop_
 _atom_site_type_symbol
 _atom_site_label
 _atom_site_symmetry_multiplicity
 _atom_site_fract_x
 _atom_site_fract_y
 _atom_site_fract_z
 _atom_site_occupancy
  F  F0  1  0.99083266  0.81852081  0.90831013  1.0
  F  F1  1  0.99083266  0.68147919  0.40831013  1.0
  F  F2  1  0.00916734  0.31852081  0.59168987  1.0
  F  F3  1  0.00916734  0.18147919  0.09168987  1.0
  F  F4  1  0.95061675  0.55479069  0.75158590  1.0
  F  F5  1  0.95061675  0.94520931  0.25158590  1.0
  F  F6  1  0.04938325  0.05479069  0.74841410  1.0
  F  F7  1  0.04938325  0.44520931  0.24841410  1.0
  F  F8  1  0.74436023  0.48254363  0.41402186  1.0
  F  F9  1  0.74436023  0.01745637  0.91402186  1.0
  F  F10  1  0.25563977  0.98254363  0.08597814  1.0
  F  F11  1  0.25563977  0.51745637  0.58597814  1.0
  F  F12  1  0.57710662  0.59597432  0.73828946  1.0
  F  F13  1  0.57710662  0.90402568  0.23828946  1.0
  F  F14  1  0.42289338  0.09597432  0.76171054  1.0
  F  F15  1  0.42289338  0.40402568  0.26171054  1.0
  F  F16  1  0.46523207  0.84308433  0.86004919  1.0
  F  F17  1  0.46523207  0.65691567  0.36004919  1.0
  F  F18  1  0.53476793  0.34308433  0.63995081  1.0
  F  F19  1  0.53476793  0.15691567  0.13995081  1.0
  F  F20  1  0.74492551  0.83112067  0.57818801  1.0
  F  F21  1  0.74492551  0.66887933  0.07818801  1.0
  F  F22  1  0.25507449  0.33112067  0.92181199  1.0
  F  F23  1  0.25507449  0.16887933  0.42181199  1.0
  Ga  Ga24  1  0.50000000  0.00000000  0.00000000  1.0
  Ga  Ga25  1  0.50000000  0.50000000  0.50000000  1.0
  Ga  Ga26  1  0.00000000  0.00000000  0.00000000  1.0
  Ga  Ga27  1  -0.00000000  0.50000000  0.50000000  1.0
  Cu  Cu28  1  0.76112205  0.73159658  0.81672781  1.0
  Cu  Cu29  1  0.76112205  0.76840342  0.31672781  1.0
  Cu  Cu30  1  0.23887795  0.23159658  0.68327219  1.0
  Cu  Cu31  1  0.23887795  0.26840342  0.18327219  1.0
  K  K32  1  0.73705751  0.38435778  1.00453655  1.0
  K  K33  1  0.73705751  0.11564222  0.50453655  1.0
  K  K34  1  0.26294249  0.88435778  0.49546345  1.0
  K  K35  1  0.26294249  0.61564222  -0.00453655  1.0
