# generated using pymatgen
data_BW
_symmetry_space_group_name_H-M   'P 1'
_cell_length_a   8.76202816
_cell_length_b   8.76202816
_cell_length_c   8.76202816
_cell_angle_alpha   159.39356118
_cell_angle_beta   159.39356118
_cell_angle_gamma   29.30342922
_symmetry_Int_Tables_number   1
_chemical_formula_structural   BW
_chemical_formula_sum   'B4 W4'
_cell_volume   83.27809707
_cell_formula_units_Z   4
loop_
 _symmetry_equiv_pos_site_id
 _symmetry_equiv_pos_as_xyz
  1  'x, y, z'
loop_
 _atom_site_type_symbol
 _atom_site_label
 _atom_site_symmetry_multiplicity
 _atom_site_fract_x
 _atom_site_fract_y
 _atom_site_fract_z
 _atom_site_occupancy
  B  B0  1  0.09394876  0.59394876  0.50000000  1.0
  B  B1  1  0.65605124  0.65605124  1.00000000  1.0
  B  B2  1  0.40605124  0.90605124  0.50000000  1.0
  B  B3  1  0.34394876  0.34394876  0.00000000  1.0
  W  W4  1  0.94691203  0.44691203  0.50000000  1.0
  W  W5  1  0.80308797  0.80308797  1.00000000  1.0
  W  W6  1  0.55308797  0.05308797  0.50000000  1.0
  W  W7  1  0.19691203  0.19691203  0.00000000  1.0
