# generated using pymatgen
data_ZnP2
_symmetry_space_group_name_H-M   'P 1'
_cell_length_a   5.10040756
_cell_length_b   5.10040756
_cell_length_c   18.61276763
_cell_angle_alpha   90.00000000
_cell_angle_beta   90.00000000
_cell_angle_gamma   90.00000000
_symmetry_Int_Tables_number   1
_chemical_formula_structural   ZnP2
_chemical_formula_sum   'Zn8 P16'
_cell_volume   484.19546455
_cell_formula_units_Z   8
loop_
 _symmetry_equiv_pos_site_id
 _symmetry_equiv_pos_as_xyz
  1  'x, y, z'
loop_
 _atom_site_type_symbol
 _atom_site_label
 _atom_site_symmetry_multiplicity
 _atom_site_fract_x
 _atom_site_fract_y
 _atom_site_fract_z
 _atom_site_occupancy
  Zn  Zn0  1  0.36311243  0.84580900  0.94935021  1.0
  Zn  Zn1  1  0.86311243  0.65419100  0.80064979  1.0
  Zn  Zn2  1  0.15419100  0.63688757  0.55064979  1.0
  Zn  Zn3  1  0.65419100  0.86311243  0.19935021  1.0
  Zn  Zn4  1  0.63688757  0.15419100  0.44935021  1.0
  Zn  Zn5  1  0.13688757  0.34580900  0.30064979  1.0
  Zn  Zn6  1  0.84580900  0.36311243  0.05064979  1.0
  Zn  Zn7  1  0.34580900  0.13688757  0.69935021  1.0
  P  P8  1  0.49113714  0.51815550  0.12409320  1.0
  P  P9  1  0.99113714  0.98184450  0.62590680  1.0
  P  P10  1  0.48184450  0.50886286  0.37590680  1.0
  P  P11  1  0.98184450  0.99113714  0.37409320  1.0
  P  P12  1  0.50886286  0.48184450  0.62409320  1.0
  P  P13  1  0.00886286  0.01815550  0.12590680  1.0
  P  P14  1  0.51815550  0.49113714  0.87590680  1.0
  P  P15  1  0.01815550  0.00886286  0.87409320  1.0
  P  P16  1  0.18102987  0.69700013  0.05930425  1.0
  P  P17  1  0.68102987  0.80299987  0.69069575  1.0
  P  P18  1  0.30299987  0.81897013  0.44069575  1.0
  P  P19  1  0.80299987  0.68102987  0.30930425  1.0
  P  P20  1  0.81897013  0.30299987  0.55930425  1.0
  P  P21  1  0.31897013  0.19700013  0.19069575  1.0
  P  P22  1  0.69700013  0.18102987  0.94069575  1.0
  P  P23  1  0.19700013  0.31897013  0.80930425  1.0
