# generated using pymatgen
data_LiInMo3O8
_symmetry_space_group_name_H-M   'P 1'
_cell_length_a   5.78614633
_cell_length_b   5.78614633
_cell_length_c   5.08275523
_cell_angle_alpha   90.00000000
_cell_angle_beta   90.00000000
_cell_angle_gamma   120.00000000
_symmetry_Int_Tables_number   1
_chemical_formula_structural   LiInMo3O8
_chemical_formula_sum   'Li1 In1 Mo3 O8'
_cell_volume   147.36985392
_cell_formula_units_Z   1
loop_
 _symmetry_equiv_pos_site_id
 _symmetry_equiv_pos_as_xyz
  1  'x, y, z'
loop_
 _atom_site_type_symbol
 _atom_site_label
 _atom_site_symmetry_multiplicity
 _atom_site_fract_x
 _atom_site_fract_y
 _atom_site_fract_z
 _atom_site_occupancy
  Li  Li0  1  0.00000000  0.00000000  0.69068789  1.0
  In  In1  1  0.66666667  0.33333333  0.72272410  1.0
  Mo  Mo2  1  0.62656922  0.81328461  0.24495123  1.0
  Mo  Mo3  1  0.18671539  0.37343078  0.24495123  1.0
  Mo  Mo4  1  0.18671539  0.81328461  0.24495123  1.0
  O  O5  1  0.33333333  0.66666667  0.52156696  1.0
  O  O6  1  0.00000000  0.00000000  1.05153800  1.0
  O  O7  1  0.31632064  0.15816032  0.46785620  1.0
  O  O8  1  0.84183968  0.68367936  0.46785620  1.0
  O  O9  1  0.84183968  0.15816032  0.46785620  1.0
  O  O10  1  1.00246085  0.50123042  0.00902025  1.0
  O  O11  1  0.49876958  -0.00246085  0.00902025  1.0
  O  O12  1  0.49876958  0.50123042  0.00902025  1.0
