# generated using pymatgen
data_CuH3NCl
_symmetry_space_group_name_H-M   'P 1'
_cell_length_a   7.39324477
_cell_length_b   7.39324477
_cell_length_c   7.39324477
_cell_angle_alpha   109.47122063
_cell_angle_beta   109.47122063
_cell_angle_gamma   109.47122063
_symmetry_Int_Tables_number   1
_chemical_formula_structural   CuH3NCl
_chemical_formula_sum   'Cu4 H12 N4 Cl4'
_cell_volume   311.08807554
_cell_formula_units_Z   4
loop_
 _symmetry_equiv_pos_site_id
 _symmetry_equiv_pos_as_xyz
  1  'x, y, z'
loop_
 _atom_site_type_symbol
 _atom_site_label
 _atom_site_symmetry_multiplicity
 _atom_site_fract_x
 _atom_site_fract_y
 _atom_site_fract_z
 _atom_site_occupancy
  Cu  Cu0  1  0.75459337  0.75459337  0.75459337  1.0
  Cu  Cu1  1  0.50000000  1.00000000  0.74540663  1.0
  Cu  Cu2  1  1.00000000  0.74540663  1.50000000  1.0
  Cu  Cu3  1  0.74540663  1.50000000  1.00000000  1.0
  H  H4  1  1.02308399  1.15505818  1.01307019  1.0
  H  H5  1  0.64198799  1.01001380  0.48692981  1.0
  H  H6  1  1.01307019  1.02308399  1.15505818  1.0
  H  H7  1  1.36802580  0.85801201  1.34494182  1.0
  H  H8  1  1.15505818  1.01307019  1.02308399  1.0
  H  H9  1  1.48998620  1.13197420  1.47691601  1.0
  H  H10  1  1.85801201  1.34494182  1.36802580  1.0
  H  H11  1  1.47691601  1.48998620  1.13197420  1.0
  H  H12  1  1.13197420  1.47691601  1.48998620  1.0
  H  H13  1  1.48692981  0.64198799  1.01001380  1.0
  H  H14  1  1.01001380  0.48692981  0.64198799  1.0
  H  H15  1  1.34494182  1.36802580  1.85801201  1.0
  N  N16  1  1.01248920  1.01248920  1.01248920  1.0
  N  N17  1  1.50000000  1.00000000  1.48751080  1.0
  N  N18  1  1.00000000  1.48751080  1.50000000  1.0
  N  N19  1  1.48751080  0.50000000  1.00000000  1.0
  Cl  Cl20  1  1.46810053  1.46810053  1.46810053  1.0
  Cl  Cl21  1  1.50000000  1.00000000  1.03189947  1.0
  Cl  Cl22  1  1.00000000  1.03189947  1.50000000  1.0
  Cl  Cl23  1  1.03189947  0.50000000  1.00000000  1.0
