# generated using pymatgen
data_Ge3Os2
_symmetry_space_group_name_H-M   'P 1'
_cell_length_a   11.61527989
_cell_length_b   9.33825144
_cell_length_c   5.81064973
_cell_angle_alpha   90.00000000
_cell_angle_beta   90.00000000
_cell_angle_gamma   90.00000000
_symmetry_Int_Tables_number   1
_chemical_formula_structural   Ge3Os2
_chemical_formula_sum   'Ge24 Os16'
_cell_volume   630.26028186
_cell_formula_units_Z   8
loop_
 _symmetry_equiv_pos_site_id
 _symmetry_equiv_pos_as_xyz
  1  'x, y, z'
loop_
 _atom_site_type_symbol
 _atom_site_label
 _atom_site_symmetry_multiplicity
 _atom_site_fract_x
 _atom_site_fract_y
 _atom_site_fract_z
 _atom_site_occupancy
  Ge  Ge0  1  0.92674567  0.71355081  0.54186423  1.0
  Ge  Ge1  1  0.92674567  0.28644919  0.04186423  1.0
  Ge  Ge2  1  0.42674567  0.21355081  0.95813577  1.0
  Ge  Ge3  1  0.42674567  0.78644919  0.45813577  1.0
  Ge  Ge4  1  0.07325433  0.71355081  0.95813577  1.0
  Ge  Ge5  1  0.07325433  0.28644919  0.45813577  1.0
  Ge  Ge6  1  0.57325433  0.21355081  0.54186423  1.0
  Ge  Ge7  1  0.57325433  0.78644919  0.04186423  1.0
  Ge  Ge8  1  0.82163715  0.56564112  0.90936283  1.0
  Ge  Ge9  1  0.82163715  0.43435888  0.40936283  1.0
  Ge  Ge10  1  0.32163715  0.06564112  0.59063717  1.0
  Ge  Ge11  1  0.32163715  0.93435888  0.09063717  1.0
  Ge  Ge12  1  0.17836285  0.56564112  0.59063717  1.0
  Ge  Ge13  1  0.17836285  0.43435888  0.09063717  1.0
  Ge  Ge14  1  0.67836285  0.06564112  0.90936283  1.0
  Ge  Ge15  1  0.67836285  0.93435888  0.40936283  1.0
  Ge  Ge16  1  0.63190084  0.60527260  0.60030297  1.0
  Ge  Ge17  1  0.63190084  0.39472740  0.10030297  1.0
  Ge  Ge18  1  0.13190084  0.10527260  0.89969703  1.0
  Ge  Ge19  1  0.13190084  0.89472740  0.39969703  1.0
  Ge  Ge20  1  0.36809916  0.60527260  0.89969703  1.0
  Ge  Ge21  1  0.36809916  0.39472740  0.39969703  1.0
  Ge  Ge22  1  0.86809916  0.10527260  0.60030297  1.0
  Ge  Ge23  1  0.86809916  0.89472740  0.10030297  1.0
  Os  Os24  1  0.74570115  0.81337952  0.75934660  1.0
  Os  Os25  1  0.74570115  0.18662048  0.25934660  1.0
  Os  Os26  1  0.24570115  0.31337952  0.74065340  1.0
  Os  Os27  1  0.24570115  0.68662048  0.24065340  1.0
  Os  Os28  1  0.25429885  0.81337952  0.74065340  1.0
  Os  Os29  1  0.25429885  0.18662048  0.24065340  1.0
  Os  Os30  1  0.75429885  0.31337952  0.75934660  1.0
  Os  Os31  1  0.75429885  0.68662048  0.25934660  1.0
  Os  Os32  1  0.00000000  0.92542721  0.75000000  1.0
  Os  Os33  1  0.00000000  0.07457279  0.25000000  1.0
  Os  Os34  1  0.50000000  0.42542721  0.75000000  1.0
  Os  Os35  1  0.50000000  0.57457279  0.25000000  1.0
  Os  Os36  1  0.00000000  0.46003258  0.75000000  1.0
  Os  Os37  1  0.00000000  0.53996742  0.25000000  1.0
  Os  Os38  1  0.50000000  0.96003258  0.75000000  1.0
  Os  Os39  1  0.50000000  0.03996742  0.25000000  1.0
