# generated using pymatgen
data_SnPbO12
_symmetry_space_group_name_H-M   'P 1'
_cell_length_a   8.11326109
_cell_length_b   8.11326109
_cell_length_c   8.11326109
_cell_angle_alpha   60.00000000
_cell_angle_beta   60.00000000
_cell_angle_gamma   60.00000000
_symmetry_Int_Tables_number   1
_chemical_formula_structural   SnPbO12
_chemical_formula_sum   'Sn2 Pb2 O24'
_cell_volume   377.63423508
_cell_formula_units_Z   2
loop_
 _symmetry_equiv_pos_site_id
 _symmetry_equiv_pos_as_xyz
  1  'x, y, z'
loop_
 _atom_site_type_symbol
 _atom_site_label
 _atom_site_symmetry_multiplicity
 _atom_site_fract_x
 _atom_site_fract_y
 _atom_site_fract_z
 _atom_site_occupancy
  Sn  Sn0  1  0.50000000  0.50000000  -0.50000000  1.0
  Sn  Sn1  1  0.75000000  -0.25000000  0.75000000  1.0
  Pb  Pb2  1  0.00000000  1.00000000  -0.00000000  1.0
  Pb  Pb3  1  0.25000000  0.25000000  0.25000000  1.0
  O  O4  1  0.80374147  -0.61672221  1.00923926  1.0
  O  O5  1  -0.19625853  1.00923926  0.38327779  1.0
  O  O6  1  -0.13327779  0.44625853  0.44625853  1.0
  O  O7  1  0.24076074  0.44625853  0.44625853  1.0
  O  O8  1  -0.61672221  0.80374147  1.00923926  1.0
  O  O9  1  0.80374147  -0.19625853  1.00923926  1.0
  O  O10  1  0.80374147  0.00923926  0.80374147  1.0
  O  O11  1  -0.61672221  1.00923926  0.80374147  1.0
  O  O12  1  0.44625853  -0.13327779  0.44625853  1.0
  O  O13  1  0.44625853  0.44625853  -0.13327779  1.0
  O  O14  1  0.24076074  0.44625853  -0.13327779  1.0
  O  O15  1  0.24076074  -0.13327779  0.44625853  1.0
  O  O16  1  1.00923926  -0.19625853  0.80374147  1.0
  O  O17  1  -0.61672221  0.80374147  0.80374147  1.0
  O  O18  1  0.44625853  0.24076074  -0.13327779  1.0
  O  O19  1  0.44625853  -0.13327779  0.24076074  1.0
  O  O20  1  0.00923926  0.80374147  0.38327779  1.0
  O  O21  1  1.00923926  -0.61672221  0.80374147  1.0
  O  O22  1  0.80374147  -0.61672221  0.80374147  1.0
  O  O23  1  -0.19625853  0.80374147  0.38327779  1.0
  O  O24  1  0.44625853  0.24076074  0.44625853  1.0
  O  O25  1  -0.13327779  0.24076074  0.44625853  1.0
  O  O26  1  -0.13327779  0.44625853  0.24076074  1.0
  O  O27  1  0.44625853  0.44625853  0.24076074  1.0
