# generated using pymatgen
data_Ti13Ni4
_symmetry_space_group_name_H-M   'P 1'
_cell_length_a   10.16160934
_cell_length_b   10.16160934
_cell_length_c   10.16160934
_cell_angle_alpha   60.00000000
_cell_angle_beta   60.00000000
_cell_angle_gamma   60.00000000
_symmetry_Int_Tables_number   1
_chemical_formula_structural   Ti13Ni4
_chemical_formula_sum   'Ti26 Ni8'
_cell_volume   741.94632170
_cell_formula_units_Z   2
loop_
 _symmetry_equiv_pos_site_id
 _symmetry_equiv_pos_as_xyz
  1  'x, y, z'
loop_
 _atom_site_type_symbol
 _atom_site_label
 _atom_site_symmetry_multiplicity
 _atom_site_fract_x
 _atom_site_fract_y
 _atom_site_fract_z
 _atom_site_occupancy
  Ti  Ti0  1  0.94573486  -0.57741391  0.68594419  1.0
  Ti  Ti1  1  -0.05426514  0.68594419  0.42258609  1.0
  Ti  Ti2  1  -0.17258609  0.30426514  0.30426514  1.0
  Ti  Ti3  1  0.56405581  0.30426514  0.30426514  1.0
  Ti  Ti4  1  -0.57741391  0.94573486  0.68594419  1.0
  Ti  Ti5  1  0.94573486  -0.05426514  0.68594419  1.0
  Ti  Ti6  1  0.94573486  -0.31405581  0.94573486  1.0
  Ti  Ti7  1  -0.57741391  0.68594419  0.94573486  1.0
  Ti  Ti8  1  0.30426514  -0.17258609  0.30426514  1.0
  Ti  Ti9  1  0.30426514  0.30426514  -0.17258609  1.0
  Ti  Ti10  1  0.56405581  0.30426514  -0.17258609  1.0
  Ti  Ti11  1  0.56405581  -0.17258609  0.30426514  1.0
  Ti  Ti12  1  0.68594419  -0.05426514  0.94573486  1.0
  Ti  Ti13  1  -0.57741391  0.94573486  0.94573486  1.0
  Ti  Ti14  1  0.30426514  0.56405581  -0.17258609  1.0
  Ti  Ti15  1  0.30426514  -0.17258609  0.56405581  1.0
  Ti  Ti16  1  -0.31405581  0.94573486  0.42258609  1.0
  Ti  Ti17  1  0.68594419  -0.57741391  0.94573486  1.0
  Ti  Ti18  1  0.94573486  -0.57741391  0.94573486  1.0
  Ti  Ti19  1  -0.05426514  0.94573486  0.42258609  1.0
  Ti  Ti20  1  0.30426514  0.56405581  0.30426514  1.0
  Ti  Ti21  1  -0.17258609  0.56405581  0.30426514  1.0
  Ti  Ti22  1  -0.17258609  0.30426514  0.56405581  1.0
  Ti  Ti23  1  0.30426514  0.30426514  0.56405581  1.0
  Ti  Ti24  1  0.50000000  0.50000000  -0.50000000  1.0
  Ti  Ti25  1  0.75000000  -0.25000000  0.75000000  1.0
  Ni  Ni26  1  0.66490665  -0.33509335  1.00528005  1.0
  Ni  Ni27  1  0.66490665  0.00528005  0.66490665  1.0
  Ni  Ni28  1  0.58509335  -0.41490665  0.58509335  1.0
  Ni  Ni29  1  1.24471995  -0.41490665  0.58509335  1.0
  Ni  Ni30  1  1.00528005  -0.33509335  0.66490665  1.0
  Ni  Ni31  1  0.66490665  -0.33509335  0.66490665  1.0
  Ni  Ni32  1  0.58509335  0.24471995  0.58509335  1.0
  Ni  Ni33  1  0.58509335  -0.41490665  1.24471995  1.0
