# generated using pymatgen
data_BeH8(CO2)4
_symmetry_space_group_name_H-M   'P 1'
_cell_length_a   6.21446252
_cell_length_b   6.21446252
_cell_length_c   12.49886460
_cell_angle_alpha   90.00000000
_cell_angle_beta   90.00000000
_cell_angle_gamma   73.25836464
_symmetry_Int_Tables_number   1
_chemical_formula_structural   BeH8(CO2)4
_chemical_formula_sum   'Be2 H16 C8 O16'
_cell_volume   462.24043784
_cell_formula_units_Z   2
loop_
 _symmetry_equiv_pos_site_id
 _symmetry_equiv_pos_as_xyz
  1  'x, y, z'
loop_
 _atom_site_type_symbol
 _atom_site_label
 _atom_site_symmetry_multiplicity
 _atom_site_fract_x
 _atom_site_fract_y
 _atom_site_fract_z
 _atom_site_occupancy
  Be  Be0  1  0.31323973  0.68676027  0.25000000  1.0
  Be  Be1  1  -0.31323973  1.31323973  0.75000000  1.0
  H  H2  1  0.40687965  0.42621997  0.38807452  1.0
  H  H3  1  0.40687965  0.42621997  0.11192548  1.0
  H  H4  1  -0.57378003  1.40687965  0.88807452  1.0
  H  H5  1  -0.57378003  1.40687965  0.61192548  1.0
  H  H6  1  0.57378003  0.59312035  0.38807452  1.0
  H  H7  1  0.57378003  0.59312035  0.11192548  1.0
  H  H8  1  -0.40687965  1.57378003  0.88807452  1.0
  H  H9  1  -0.40687965  1.57378003  0.61192548  1.0
  H  H10  1  -0.03608470  1.67249024  0.31561531  1.0
  H  H11  1  -0.03608470  1.67249024  0.18438469  1.0
  H  H12  1  0.67249024  0.96391530  0.81561531  1.0
  H  H13  1  0.67249024  0.96391530  0.68438469  1.0
  H  H14  1  -0.67249024  1.03608470  0.31561531  1.0
  H  H15  1  -0.67249024  1.03608470  0.18438469  1.0
  H  H16  1  0.03608470  0.32750976  0.81561531  1.0
  H  H17  1  0.03608470  0.32750976  0.68438469  1.0
  C  C18  1  0.93911636  0.93911636  0.50000000  1.0
  C  C19  1  0.93911636  0.93911636  0.00000000  1.0
  C  C20  1  0.06088364  0.06088364  0.50000000  1.0
  C  C21  1  0.06088364  0.06088364  0.00000000  1.0
  C  C22  1  0.79334131  0.79334131  0.50000000  1.0
  C  C23  1  0.79334131  0.79334131  0.00000000  1.0
  C  C24  1  0.20665869  0.20665869  0.50000000  1.0
  C  C25  1  0.20665869  0.20665869  0.00000000  1.0
  O  O26  1  -0.20298592  1.67216279  0.41776920  1.0
  O  O27  1  -0.20298592  1.67216279  0.08223080  1.0
  O  O28  1  0.67216279  0.79701408  0.91776920  1.0
  O  O29  1  0.67216279  0.79701408  0.58223080  1.0
  O  O30  1  -0.67216279  1.20298592  0.41776920  1.0
  O  O31  1  -0.67216279  1.20298592  0.08223080  1.0
  O  O32  1  0.20298592  0.32783721  0.91776920  1.0
  O  O33  1  0.20298592  0.32783721  0.58223080  1.0
  O  O34  1  0.06025720  0.65993018  0.25000000  1.0
  O  O35  1  -0.34006982  1.06025720  0.75000000  1.0
  O  O36  1  0.34006982  0.93974280  0.25000000  1.0
  O  O37  1  -0.06025720  1.34006982  0.75000000  1.0
  O  O38  1  0.42993104  0.57006896  0.36088367  1.0
  O  O39  1  0.42993104  0.57006896  0.13911633  1.0
  O  O40  1  -0.42993104  1.42993104  0.86088367  1.0
  O  O41  1  -0.42993104  1.42993104  0.63911633  1.0
