# generated using pymatgen
data_Na3CdSbSe4
_symmetry_space_group_name_H-M   'P 1'
_cell_length_a   7.39772389
_cell_length_b   16.42483583
_cell_length_c   8.39270322
_cell_angle_alpha   90.00000000
_cell_angle_beta   106.57386611
_cell_angle_gamma   90.00000000
_symmetry_Int_Tables_number   1
_chemical_formula_structural   Na3CdSbSe4
_chemical_formula_sum   'Na12 Cd4 Sb4 Se16'
_cell_volume   977.39867091
_cell_formula_units_Z   4
loop_
 _symmetry_equiv_pos_site_id
 _symmetry_equiv_pos_as_xyz
  1  'x, y, z'
loop_
 _atom_site_type_symbol
 _atom_site_label
 _atom_site_symmetry_multiplicity
 _atom_site_fract_x
 _atom_site_fract_y
 _atom_site_fract_z
 _atom_site_occupancy
  Na  Na0  1  0.63549176  0.15566030  0.27889771  1.0
  Na  Na1  1  0.36450824  0.65566030  0.22110229  1.0
  Na  Na2  1  0.36450824  0.84433970  0.72110229  1.0
  Na  Na3  1  0.63549176  0.34433970  0.77889771  1.0
  Na  Na4  1  0.22579695  0.43728119  0.42861395  1.0
  Na  Na5  1  0.77420305  0.93728119  0.07138605  1.0
  Na  Na6  1  0.77420305  0.56271881  0.57138605  1.0
  Na  Na7  1  0.22579695  0.06271881  0.92861395  1.0
  Na  Na8  1  0.24660155  0.43701403  0.93724740  1.0
  Na  Na9  1  0.75339845  0.93701403  0.56275260  1.0
  Na  Na10  1  0.75339845  0.56298597  0.06275260  1.0
  Na  Na11  1  0.24660155  0.06298597  0.43724740  1.0
  Cd  Cd12  1  0.14281595  0.24584957  0.65723088  1.0
  Cd  Cd13  1  0.85718405  0.74584957  0.84276912  1.0
  Cd  Cd14  1  0.85718405  0.75415043  0.34276912  1.0
  Cd  Cd15  1  0.14281595  0.25415043  0.15723088  1.0
  Sb  Sb16  1  0.70790033  0.35343238  0.29994208  1.0
  Sb  Sb17  1  0.29209967  0.85343238  0.20005792  1.0
  Sb  Sb18  1  0.29209967  0.64656762  0.70005792  1.0
  Sb  Sb19  1  0.70790033  0.14656762  0.79994208  1.0
  Se  Se20  1  0.51580936  0.48477527  0.25844491  1.0
  Se  Se21  1  0.48419064  0.98477527  0.24155509  1.0
  Se  Se22  1  0.48419064  0.51522473  0.74155509  1.0
  Se  Se23  1  0.51580936  0.01522473  0.75844491  1.0
  Se  Se24  1  0.93079363  0.38352006  0.60289579  1.0
  Se  Se25  1  0.06920637  0.88352006  0.89710421  1.0
  Se  Se26  1  0.06920637  0.61647994  0.39710421  1.0
  Se  Se27  1  0.93079363  0.11647994  0.10289579  1.0
  Se  Se28  1  0.92549157  0.38952534  0.10697302  1.0
  Se  Se29  1  0.07450843  0.88952534  0.39302698  1.0
  Se  Se30  1  0.07450843  0.61047466  0.89302698  1.0
  Se  Se31  1  0.92549157  0.11047466  0.60697302  1.0
  Se  Se32  1  0.37763394  0.24550649  0.46592289  1.0
  Se  Se33  1  0.62236606  0.74550649  0.03407711  1.0
  Se  Se34  1  0.62236606  0.75449351  0.53407711  1.0
  Se  Se35  1  0.37763394  0.25449351  0.96592289  1.0
