# generated using pymatgen
data_Tb(BO2)6
_symmetry_space_group_name_H-M   'P 1'
_cell_length_a   8.42935375
_cell_length_b   8.42935375
_cell_length_c   8.42935375
_cell_angle_alpha   61.74546680
_cell_angle_beta   61.74546680
_cell_angle_gamma   61.74546680
_symmetry_Int_Tables_number   1
_chemical_formula_structural   Tb(BO2)6
_chemical_formula_sum   'Tb2 B12 O24'
_cell_volume   440.07912099
_cell_formula_units_Z   2
loop_
 _symmetry_equiv_pos_site_id
 _symmetry_equiv_pos_as_xyz
  1  'x, y, z'
loop_
 _atom_site_type_symbol
 _atom_site_label
 _atom_site_symmetry_multiplicity
 _atom_site_fract_x
 _atom_site_fract_y
 _atom_site_fract_z
 _atom_site_occupancy
  Tb  Tb0  1  0.00323802  0.00323802  0.00323802  1.0
  Tb  Tb1  1  0.50323802  0.50323802  -0.49676198  1.0
  O  O2  1  0.83727670  -0.21877555  0.13177964  1.0
  O  O3  1  0.33727670  0.63177964  -0.71877555  1.0
  O  O4  1  0.63177964  0.28122445  -0.66272330  1.0
  O  O5  1  1.13177964  -0.16272330  -0.21877555  1.0
  O  O6  1  0.28122445  0.33727670  -0.36822036  1.0
  O  O7  1  0.78122445  0.13177964  -0.16272330  1.0
  O  O8  1  1.25158946  -0.32604532  0.03182442  1.0
  O  O9  1  0.75158946  0.53182442  -0.82604532  1.0
  O  O10  1  0.53182442  0.17395468  -0.24841054  1.0
  O  O11  1  1.03182442  0.25158946  -0.32604532  1.0
  O  O12  1  0.17395468  0.75158946  -0.46817558  1.0
  O  O13  1  0.67395468  0.03182442  0.25158946  1.0
  O  O14  1  1.07559969  -0.46341508  0.00091699  1.0
  O  O15  1  0.57559969  0.50091699  -0.96341508  1.0
  O  O16  1  0.50091699  0.03658492  -0.42440031  1.0
  O  O17  1  1.00091699  0.07559969  -0.46341508  1.0
  O  O18  1  0.03658492  0.57559969  -0.49908301  1.0
  O  O19  1  0.53658492  0.00091699  0.07559969  1.0
  O  O20  1  0.38544381  0.53508960  -0.21758506  1.0
  O  O21  1  0.88544381  -0.71758506  0.03508960  1.0
  O  O22  1  0.28241494  0.03508960  -0.11455619  1.0
  O  O23  1  0.78241494  0.38544381  -0.46491040  1.0
  O  O24  1  1.03508960  -0.11455619  -0.71758506  1.0
  O  O25  1  0.53508960  0.78241494  -0.61455619  1.0
  B  B26  1  0.89186573  -0.38769213  0.10006645  1.0
  B  B27  1  0.39186573  0.60006645  -0.88769213  1.0
  B  B28  1  0.60006645  0.11230787  -0.60813427  1.0
  B  B29  1  1.10006645  -0.10813427  -0.38769213  1.0
  B  B30  1  0.11230787  0.39186573  -0.39993355  1.0
  B  B31  1  0.61230787  0.10006645  -0.10813427  1.0
  B  B32  1  1.21554165  -0.36399135  -0.10142769  1.0
  B  B33  1  0.71554165  0.39857231  -0.86399135  1.0
  B  B34  1  0.39857231  0.13600865  -0.28445835  1.0
  B  B35  1  0.89857231  0.21554165  -0.36399135  1.0
  B  B36  1  0.13600865  0.71554165  -0.60142769  1.0
  B  B37  1  0.63600865  -0.10142769  0.21554165  1.0
