# generated using pymatgen
data_PdC2(NO)4
_symmetry_space_group_name_H-M   'P 1'
_cell_length_a   3.22951844
_cell_length_b   8.74812630
_cell_length_c   7.87381459
_cell_angle_alpha   106.63714241
_cell_angle_beta   96.45240212
_cell_angle_gamma   91.43654096
_symmetry_Int_Tables_number   1
_chemical_formula_structural   PdC2(NO)4
_chemical_formula_sum   'Pd1 C2 N4 O4'
_cell_volume   211.40705114
_cell_formula_units_Z   1
loop_
 _symmetry_equiv_pos_site_id
 _symmetry_equiv_pos_as_xyz
  1  'x, y, z'
loop_
 _atom_site_type_symbol
 _atom_site_label
 _atom_site_symmetry_multiplicity
 _atom_site_fract_x
 _atom_site_fract_y
 _atom_site_fract_z
 _atom_site_occupancy
  Pd  Pd0  1  0.00000000  0.00000000  0.00000000  1.0
  C  C1  1  0.57356622  0.35792490  0.64791244  1.0
  C  C2  1  0.42643378  0.64207510  0.35208756  1.0
  N  N3  1  1.03596439  0.97727310  0.24654582  1.0
  N  N4  1  -0.03596439  0.02272690  0.75345418  1.0
  N  N5  1  1.03663062  0.23736609  0.10143308  1.0
  N  N6  1  -0.03663062  0.76263391  0.89856692  1.0
  O  O7  1  0.68932152  0.32934843  0.50679796  1.0
  O  O8  1  0.31067848  0.67065157  0.49320204  1.0
  O  O9  1  0.45745482  0.38606673  0.78861664  1.0
  O  O10  1  0.54254518  0.61393327  0.21138336  1.0
