# generated using pymatgen
data_Zr6Ga16Pt7
_symmetry_space_group_name_H-M   'P 1'
_cell_length_a   8.86417958
_cell_length_b   8.86417958
_cell_length_c   8.86417958
_cell_angle_alpha   60.00000000
_cell_angle_beta   60.00000000
_cell_angle_gamma   60.00000000
_symmetry_Int_Tables_number   1
_chemical_formula_structural   Zr6Ga16Pt7
_chemical_formula_sum   'Zr6 Ga16 Pt7'
_cell_volume   492.49365559
_cell_formula_units_Z   1
loop_
 _symmetry_equiv_pos_site_id
 _symmetry_equiv_pos_as_xyz
  1  'x, y, z'
loop_
 _atom_site_type_symbol
 _atom_site_label
 _atom_site_symmetry_multiplicity
 _atom_site_fract_x
 _atom_site_fract_y
 _atom_site_fract_z
 _atom_site_occupancy
  Zr  Zr0  1  -0.69864016  0.69864016  0.69864016  1.0
  Zr  Zr1  1  -0.30135984  0.30135984  0.69864016  1.0
  Zr  Zr2  1  0.69864016  0.69864016  -0.69864016  1.0
  Zr  Zr3  1  0.30135984  1.30135984  -0.30135984  1.0
  Zr  Zr4  1  0.30135984  -0.30135984  1.30135984  1.0
  Zr  Zr5  1  -0.30135984  0.30135984  0.30135984  1.0
  Ga  Ga6  1  0.87758717  0.87758717  -0.12241283  1.0
  Ga  Ga7  1  1.12241283  0.12241283  0.63276151  1.0
  Ga  Ga8  1  1.12241283  0.63276151  0.12241283  1.0
  Ga  Ga9  1  0.36723849  0.87758717  -0.12241283  1.0
  Ga  Ga10  1  1.63276151  0.12241283  0.12241283  1.0
  Ga  Ga11  1  0.87758717  0.36723849  -0.12241283  1.0
  Ga  Ga12  1  0.87758717  0.87758717  -0.63276151  1.0
  Ga  Ga13  1  1.12241283  0.12241283  0.12241283  1.0
  Ga  Ga14  1  0.65415621  0.65415621  -0.34584379  1.0
  Ga  Ga15  1  1.34584379  0.34584379  -0.03753136  1.0
  Ga  Ga16  1  1.34584379  -0.03753136  0.34584379  1.0
  Ga  Ga17  1  1.03753136  0.65415621  -0.34584379  1.0
  Ga  Ga18  1  0.96246864  0.34584379  0.34584379  1.0
  Ga  Ga19  1  0.65415621  1.03753136  -0.34584379  1.0
  Ga  Ga20  1  0.65415621  0.65415621  0.03753136  1.0
  Ga  Ga21  1  1.34584379  0.34584379  0.34584379  1.0
  Pt  Pt22  1  1.50000000  0.00000000  -0.00000000  1.0
  Pt  Pt23  1  1.00000000  0.50000000  -0.50000000  1.0
  Pt  Pt24  1  0.00000000  1.50000000  -0.00000000  1.0
  Pt  Pt25  1  0.50000000  1.00000000  -0.50000000  1.0
  Pt  Pt26  1  -0.00000000  -0.00000000  0.50000000  1.0
  Pt  Pt27  1  0.50000000  -0.50000000  1.00000000  1.0
  Pt  Pt28  1  0.00000000  0.00000000  0.00000000  1.0
