# generated using pymatgen
data_Ca4As7Ir8
_symmetry_space_group_name_H-M   'P 1'
_cell_length_a   13.07798012
_cell_length_b   4.11751598
_cell_length_c   13.62954972
_cell_angle_alpha   90.00000000
_cell_angle_beta   98.03069818
_cell_angle_gamma   90.00000000
_symmetry_Int_Tables_number   1
_chemical_formula_structural   Ca4As7Ir8
_chemical_formula_sum   'Ca8 As14 Ir16'
_cell_volume   726.73735469
_cell_formula_units_Z   2
loop_
 _symmetry_equiv_pos_site_id
 _symmetry_equiv_pos_as_xyz
  1  'x, y, z'
loop_
 _atom_site_type_symbol
 _atom_site_label
 _atom_site_symmetry_multiplicity
 _atom_site_fract_x
 _atom_site_fract_y
 _atom_site_fract_z
 _atom_site_occupancy
  Ca  Ca0  1  0.98510315  0.25000000  0.29055898  1.0
  Ca  Ca1  1  0.01489685  0.75000000  0.70944102  1.0
  Ca  Ca2  1  0.39956359  0.25000000  0.79878025  1.0
  Ca  Ca3  1  0.60043641  0.75000000  0.20121975  1.0
  Ca  Ca4  1  0.28629907  0.25000000  0.43272827  1.0
  Ca  Ca5  1  0.71370093  0.75000000  0.56727173  1.0
  Ca  Ca6  1  0.21033165  0.25000000  0.10499112  1.0
  Ca  Ca7  1  0.78966835  0.75000000  0.89500888  1.0
  As  As8  1  0.96934896  0.25000000  0.87174176  1.0
  As  As9  1  0.03065104  0.75000000  0.12825824  1.0
  As  As10  1  0.89148978  0.25000000  0.56650392  1.0
  As  As11  1  0.10851022  0.75000000  0.43349608  1.0
  As  As12  1  0.75504205  0.25000000  0.08022045  1.0
  As  As13  1  0.24495795  0.75000000  0.91977955  1.0
  As  As14  1  0.65135278  0.25000000  0.72102467  1.0
  As  As15  1  0.34864722  0.75000000  0.27897533  1.0
  As  As16  1  0.59731429  0.25000000  0.41568447  1.0
  As  As17  1  0.40268571  0.75000000  0.58431553  1.0
  As  As18  1  0.43909592  0.25000000  0.10172189  1.0
  As  As19  1  0.56090408  0.75000000  0.89827811  1.0
  As  As20  1  0.19173553  0.25000000  0.68963462  1.0
  As  As21  1  0.80826447  0.75000000  0.31036538  1.0
  Ir  Ir22  1  0.94460394  0.25000000  0.04804612  1.0
  Ir  Ir23  1  0.05539606  0.75000000  0.95195388  1.0
  Ir  Ir24  1  0.83488598  0.25000000  0.73013662  1.0
  Ir  Ir25  1  0.16511402  0.75000000  0.26986338  1.0
  Ir  Ir26  1  0.78017750  0.25000000  0.40121383  1.0
  Ir  Ir27  1  0.21982250  0.75000000  0.59878617  1.0
  Ir  Ir28  1  0.57852511  0.25000000  0.99800049  1.0
  Ir  Ir29  1  0.42147489  0.75000000  0.00199951  1.0
  Ir  Ir30  1  0.51426823  0.25000000  0.57277555  1.0
  Ir  Ir31  1  0.48573177  0.75000000  0.42722445  1.0
  Ir  Ir32  1  0.44732133  0.25000000  0.28134379  1.0
  Ir  Ir33  1  0.55267868  0.75000000  0.71865621  1.0
  Ir  Ir34  1  0.15815131  0.25000000  0.86124013  1.0
  Ir  Ir35  1  0.84184869  0.75000000  0.13875987  1.0
  Ir  Ir36  1  0.07543239  0.25000000  0.52754264  1.0
  Ir  Ir37  1  0.92456761  0.75000000  0.47245736  1.0
