# generated using pymatgen
data_CsBaVS4
_symmetry_space_group_name_H-M   'P 1'
_cell_length_a   12.36774822
_cell_length_b   6.93593431
_cell_length_c   9.99672229
_cell_angle_alpha   90.00000000
_cell_angle_beta   90.00000000
_cell_angle_gamma   90.00000000
_symmetry_Int_Tables_number   1
_chemical_formula_structural   CsBaVS4
_chemical_formula_sum   'Cs4 Ba4 V4 S16'
_cell_volume   857.53772363
_cell_formula_units_Z   4
loop_
 _symmetry_equiv_pos_site_id
 _symmetry_equiv_pos_as_xyz
  1  'x, y, z'
loop_
 _atom_site_type_symbol
 _atom_site_label
 _atom_site_symmetry_multiplicity
 _atom_site_fract_x
 _atom_site_fract_y
 _atom_site_fract_z
 _atom_site_occupancy
  Cs  Cs0  1  0.07250201  0.75000000  0.13043365  1.0
  Cs  Cs1  1  0.57250201  0.75000000  0.36956635  1.0
  Cs  Cs2  1  0.92749799  0.25000000  0.86956635  1.0
  Cs  Cs3  1  0.42749799  0.25000000  0.63043365  1.0
  Ba  Ba4  1  0.14872193  0.75000000  0.59710250  1.0
  Ba  Ba5  1  0.64872193  0.75000000  0.90289750  1.0
  Ba  Ba6  1  0.85127807  0.25000000  0.40289750  1.0
  Ba  Ba7  1  0.35127807  0.25000000  0.09710250  1.0
  V  V8  1  0.33612795  0.75000000  0.87924302  1.0
  V  V9  1  0.83612795  0.75000000  0.62075698  1.0
  V  V10  1  0.66387205  0.25000000  0.12075698  1.0
  V  V11  1  0.16387205  0.25000000  0.37924302  1.0
  S  S12  1  0.23346482  -0.00041340  0.86600428  1.0
  S  S13  1  0.23346482  0.50041340  0.86600428  1.0
  S  S14  1  0.73346482  -0.00041340  0.63399572  1.0
  S  S15  1  0.73346482  0.50041340  0.63399572  1.0
  S  S16  1  0.76653518  0.49958660  0.13399572  1.0
  S  S17  1  0.76653518  1.00041340  0.13399572  1.0
  S  S18  1  0.26653518  0.49958660  0.36600428  1.0
  S  S19  1  0.26653518  1.00041340  0.36600428  1.0
  S  S20  1  0.44354741  0.75000000  0.70882793  1.0
  S  S21  1  0.94354741  0.75000000  0.79117207  1.0
  S  S22  1  0.55645259  0.25000000  0.29117207  1.0
  S  S23  1  0.05645259  0.25000000  0.20882793  1.0
  S  S24  1  0.42529031  0.75000000  0.06390160  1.0
  S  S25  1  0.92529031  0.75000000  0.43609840  1.0
  S  S26  1  0.57470969  0.25000000  0.93609840  1.0
  S  S27  1  0.07470969  0.25000000  0.56390160  1.0
