# generated using pymatgen
data_Ni12P5
_symmetry_space_group_name_H-M   'P 1'
_cell_length_a   6.61249335
_cell_length_b   6.61249335
_cell_length_c   6.61249335
_cell_angle_alpha   98.45905411
_cell_angle_beta   98.45905411
_cell_angle_gamma   134.89379339
_symmetry_Int_Tables_number   1
_chemical_formula_structural   Ni12P5
_chemical_formula_sum   'Ni12 P5'
_cell_volume   189.16147347
_cell_formula_units_Z   1
loop_
 _symmetry_equiv_pos_site_id
 _symmetry_equiv_pos_as_xyz
  1  'x, y, z'
loop_
 _atom_site_type_symbol
 _atom_site_label
 _atom_site_symmetry_multiplicity
 _atom_site_fract_x
 _atom_site_fract_y
 _atom_site_fract_z
 _atom_site_occupancy
  Ni  Ni0  1  1.06782288  1.13150899  1.70201254  1.0
  Ni  Ni1  1  1.57050354  1.63418965  1.70201254  1.0
  Ni  Ni2  1  1.13150899  1.42949646  1.06368611  1.0
  Ni  Ni3  1  0.63418965  0.93217712  1.06368611  1.0
  Ni  Ni4  1  0.42949646  0.36581035  0.29798746  1.0
  Ni  Ni5  1  0.93217712  0.86849101  0.29798746  1.0
  Ni  Ni6  1  1.36581035  1.06782288  0.93631389  1.0
  Ni  Ni7  1  0.86849101  0.57050354  0.93631389  1.0
  Ni  Ni8  1  0.93948281  0.63430348  0.57378630  1.0
  Ni  Ni9  1  0.63430348  0.06051719  0.69482067  1.0
  Ni  Ni10  1  1.06051719  1.36569652  1.42621370  1.0
  Ni  Ni11  1  0.36569652  0.93948281  1.30517933  1.0
  P  P12  1  0.58677479  0.80541382  1.39218861  1.0
  P  P13  1  0.80541382  1.41322521  1.21863903  1.0
  P  P14  1  0.41322521  0.19458618  0.60781139  1.0
  P  P15  1  1.19458618  0.58677479  0.78136097  1.0
  P  P16  1  0.00000000  0.00000000  0.00000000  1.0
