# generated using pymatgen
data_PdPtF6
_symmetry_space_group_name_H-M   'P 1'
_cell_length_a   5.65426901
_cell_length_b   5.65426901
_cell_length_c   5.65426901
_cell_angle_alpha   54.64775048
_cell_angle_beta   54.64775048
_cell_angle_gamma   54.64775048
_symmetry_Int_Tables_number   1
_chemical_formula_structural   PdPtF6
_chemical_formula_sum   'Pd1 Pt1 F6'
_cell_volume   111.88394651
_cell_formula_units_Z   1
loop_
 _symmetry_equiv_pos_site_id
 _symmetry_equiv_pos_as_xyz
  1  'x, y, z'
loop_
 _atom_site_type_symbol
 _atom_site_label
 _atom_site_symmetry_multiplicity
 _atom_site_fract_x
 _atom_site_fract_y
 _atom_site_fract_z
 _atom_site_occupancy
  Pd  Pd0  1  0.00000000  -0.00000000  -0.00000000  1.0
  Pt  Pt1  1  0.50000000  0.50000000  -0.50000000  1.0
  F  F2  1  0.11165512  0.73066437  -0.58084023  1.0
  F  F3  1  0.58084023  0.88834488  -0.73066437  1.0
  F  F4  1  0.26933563  0.58084023  -0.11165512  1.0
  F  F5  1  0.88834488  0.26933563  -0.41915977  1.0
  F  F6  1  0.41915977  0.11165512  -0.26933563  1.0
  F  F7  1  0.73066437  0.41915977  -0.88834488  1.0
