# generated using pymatgen
data_CsBeAsO4
_symmetry_space_group_name_H-M   'P 1'
_cell_length_a   9.62347811
_cell_length_b   8.97161191
_cell_length_c   5.22879431
_cell_angle_alpha   90.00000000
_cell_angle_beta   90.00000000
_cell_angle_gamma   90.00000000
_symmetry_Int_Tables_number   1
_chemical_formula_structural   CsBeAsO4
_chemical_formula_sum   'Cs4 Be4 As4 O16'
_cell_volume   451.44422192
_cell_formula_units_Z   4
loop_
 _symmetry_equiv_pos_site_id
 _symmetry_equiv_pos_as_xyz
  1  'x, y, z'
loop_
 _atom_site_type_symbol
 _atom_site_label
 _atom_site_symmetry_multiplicity
 _atom_site_fract_x
 _atom_site_fract_y
 _atom_site_fract_z
 _atom_site_occupancy
  Cs  Cs0  1  0.50733632  0.17975801  0.99658317  1.0
  Cs  Cs1  1  0.00733632  0.32024199  0.99658317  1.0
  Cs  Cs2  1  0.49266368  0.82024199  0.49658317  1.0
  Cs  Cs3  1  0.99266368  0.67975801  0.49658317  1.0
  Be  Be4  1  0.16811586  0.09677786  0.49497494  1.0
  Be  Be5  1  0.66811586  0.40322214  0.49497494  1.0
  Be  Be6  1  0.83188414  0.90322214  -0.00502506  1.0
  Be  Be7  1  0.33188414  0.59677786  -0.00502506  1.0
  As  As8  1  0.32727509  0.41358704  0.49677026  1.0
  As  As9  1  0.82727509  0.08641296  0.49677026  1.0
  As  As10  1  0.67272491  0.58641296  -0.00322974  1.0
  As  As11  1  0.17272491  0.91358704  -0.00322974  1.0
  O  O12  1  0.50099618  0.36753691  0.51642488  1.0
  O  O13  1  1.00099618  0.13246309  0.51642488  1.0
  O  O14  1  0.49900382  0.63246309  0.01642488  1.0
  O  O15  1  -0.00099618  0.86753691  0.01642488  1.0
  O  O16  1  0.26110918  0.75562811  0.09191453  1.0
  O  O17  1  0.76110918  0.74437189  0.09191453  1.0
  O  O18  1  0.73889082  0.24437189  0.59191453  1.0
  O  O19  1  0.23889082  0.25562811  0.59191453  1.0
  O  O20  1  0.21920354  0.05830109  0.20123942  1.0
  O  O21  1  0.71920354  0.44169891  0.20123942  1.0
  O  O22  1  0.78079646  0.94169891  0.70123942  1.0
  O  O23  1  0.28079646  0.55830109  0.70123942  1.0
  O  O24  1  0.27950763  0.46093495  0.18709280  1.0
  O  O25  1  0.77950763  0.03906505  0.18709280  1.0
  O  O26  1  0.72049237  0.53906505  0.68709280  1.0
  O  O27  1  0.22049237  0.96093495  0.68709280  1.0
