# generated using pymatgen
data_Sc3RhC4
_symmetry_space_group_name_H-M   'P 1'
_cell_length_a   6.76153372
_cell_length_b   6.76153372
_cell_length_c   5.62190625
_cell_angle_alpha   83.57867227
_cell_angle_beta   96.42132773
_cell_angle_gamma   49.12992305
_symmetry_Int_Tables_number   1
_chemical_formula_structural   Sc3RhC4
_chemical_formula_sum   'Sc6 Rh2 C8'
_cell_volume   187.19524632
_cell_formula_units_Z   2
loop_
 _symmetry_equiv_pos_site_id
 _symmetry_equiv_pos_as_xyz
  1  'x, y, z'
loop_
 _atom_site_type_symbol
 _atom_site_label
 _atom_site_symmetry_multiplicity
 _atom_site_fract_x
 _atom_site_fract_y
 _atom_site_fract_z
 _atom_site_occupancy
  Sc  Sc0  1  0.25996439  -0.25996439  0.73949513  1.0
  Sc  Sc1  1  0.74003561  -0.74003561  0.26050487  1.0
  Sc  Sc2  1  0.68842784  -0.31157216  0.50000000  1.0
  Sc  Sc3  1  0.31157216  0.31157216  0.50000000  1.0
  Sc  Sc4  1  0.81027466  -0.18972534  -0.00000000  1.0
  Sc  Sc5  1  0.18972534  0.18972534  0.00000000  1.0
  Rh  Rh6  1  0.77039549  -0.77039549  0.77069330  1.0
  Rh  Rh7  1  0.22960451  -0.22960451  0.22930670  1.0
  C  C8  1  0.78951402  -0.04724810  0.57838213  1.0
  C  C9  1  1.04724810  -0.78951402  0.57838213  1.0
  C  C10  1  0.95275190  -0.21048598  0.42161787  1.0
  C  C11  1  0.21048598  0.04724810  0.42161787  1.0
  C  C12  1  0.44994712  0.29342264  0.91787727  1.0
  C  C13  1  0.70657736  -0.44994712  0.91787727  1.0
  C  C14  1  1.29342264  -0.55005288  0.08212273  1.0
  C  C15  1  0.55005288  -0.29342264  0.08212273  1.0
