# generated using pymatgen
data_Pr2(ReB2)3
_symmetry_space_group_name_H-M   'P 1'
_cell_length_a   6.27241652
_cell_length_b   6.27241652
_cell_length_c   7.52358029
_cell_angle_alpha   89.51920183
_cell_angle_beta   90.48079817
_cell_angle_gamma   65.59533171
_symmetry_Int_Tables_number   1
_chemical_formula_structural   Pr2(ReB2)3
_chemical_formula_sum   'Pr4 Re6 B12'
_cell_volume   269.52168458
_cell_formula_units_Z   2
loop_
 _symmetry_equiv_pos_site_id
 _symmetry_equiv_pos_as_xyz
  1  'x, y, z'
loop_
 _atom_site_type_symbol
 _atom_site_label
 _atom_site_symmetry_multiplicity
 _atom_site_fract_x
 _atom_site_fract_y
 _atom_site_fract_z
 _atom_site_occupancy
  Pr  Pr0  1  0.40322081  -0.05270846  0.16916199  1.0
  Pr  Pr1  1  1.05270846  0.59677919  0.66916199  1.0
  Pr  Pr2  1  0.94729154  -0.59677919  0.33083801  1.0
  Pr  Pr3  1  1.59677919  0.05270846  0.83083801  1.0
  Re  Re4  1  1.51155484  0.30709278  0.41127168  1.0
  Re  Re5  1  0.69290722  -0.51155484  0.91127168  1.0
  Re  Re6  1  1.30709278  0.51155484  0.08872832  1.0
  Re  Re7  1  0.48844516  -0.30709278  0.58872832  1.0
  Re  Re8  1  0.91180954  -0.08819046  0.25000000  1.0
  Re  Re9  1  1.08819046  0.08819046  0.75000000  1.0
  B  B10  1  0.65824025  -0.08520299  0.48104937  1.0
  B  B11  1  1.08520299  0.34175975  -0.01895063  1.0
  B  B12  1  0.91479701  -0.34175975  0.01895063  1.0
  B  B13  1  1.34175975  0.08520299  0.51895063  1.0
  B  B14  1  1.65548840  0.25313358  0.13345246  1.0
  B  B15  1  0.74686642  -0.65548840  0.63345246  1.0
  B  B16  1  1.25313358  0.65548840  0.36654754  1.0
  B  B17  1  0.34451160  -0.25313358  0.86654754  1.0
  B  B18  1  0.15027545  -0.05649736  0.46487782  1.0
  B  B19  1  1.05649736  0.84972455  0.96487782  1.0
  B  B20  1  0.94350264  -0.84972455  0.03512218  1.0
  B  B21  1  1.84972455  0.05649736  0.53512218  1.0
