# generated using pymatgen
data_Rb2NbF6
_symmetry_space_group_name_H-M   'P 1'
_cell_length_a   6.28612555
_cell_length_b   6.28612555
_cell_length_c   4.77310305
_cell_angle_alpha   90.00000000
_cell_angle_beta   90.00000000
_cell_angle_gamma   120.00000000
_symmetry_Int_Tables_number   1
_chemical_formula_structural   Rb2NbF6
_chemical_formula_sum   'Rb2 Nb1 F6'
_cell_volume   163.34187765
_cell_formula_units_Z   1
loop_
 _symmetry_equiv_pos_site_id
 _symmetry_equiv_pos_as_xyz
  1  'x, y, z'
loop_
 _atom_site_type_symbol
 _atom_site_label
 _atom_site_symmetry_multiplicity
 _atom_site_fract_x
 _atom_site_fract_y
 _atom_site_fract_z
 _atom_site_occupancy
  Rb  Rb0  1  0.33333333  0.66666667  0.30179279  1.0
  Rb  Rb1  1  0.66666667  0.33333333  0.69820721  1.0
  Nb  Nb2  1  0.00000000  0.00000000  -0.00000000  1.0
  F  F3  1  0.31583365  0.15791682  0.21522052  1.0
  F  F4  1  0.15791682  0.31583365  0.78477948  1.0
  F  F5  1  0.15791682  0.84208318  0.78477948  1.0
  F  F6  1  0.84208318  0.15791682  0.21522052  1.0
  F  F7  1  0.84208318  0.68416635  0.21522052  1.0
  F  F8  1  0.68416635  0.84208318  0.78477948  1.0
