# generated using pymatgen
data_SrFeP2O7
_symmetry_space_group_name_H-M   'P 1'
_cell_length_a   5.43668505
_cell_length_b   8.31933735
_cell_length_c   13.99897149
_cell_angle_alpha   90.00000000
_cell_angle_beta   112.37459163
_cell_angle_gamma   90.00000000
_symmetry_Int_Tables_number   1
_chemical_formula_structural   SrFeP2O7
_chemical_formula_sum   'Sr4 Fe4 P8 O28'
_cell_volume   585.50001418
_cell_formula_units_Z   4
loop_
 _symmetry_equiv_pos_site_id
 _symmetry_equiv_pos_as_xyz
  1  'x, y, z'
loop_
 _atom_site_type_symbol
 _atom_site_label
 _atom_site_symmetry_multiplicity
 _atom_site_fract_x
 _atom_site_fract_y
 _atom_site_fract_z
 _atom_site_occupancy
  Sr  Sr0  1  0.43461546  0.33659584  0.22134488  1.0
  Sr  Sr1  1  0.43461546  0.16340416  0.72134488  1.0
  Sr  Sr2  1  0.56538454  0.83659584  0.27865512  1.0
  Sr  Sr3  1  0.56538454  0.66340416  0.77865512  1.0
  Fe  Fe4  1  0.92439934  0.65185028  0.10345377  1.0
  Fe  Fe5  1  0.92439934  0.84814972  0.60345377  1.0
  Fe  Fe6  1  0.07560066  0.15185028  0.39654623  1.0
  Fe  Fe7  1  0.07560066  0.34814972  0.89654623  1.0
  P  P8  1  0.70872992  0.30040623  0.01933608  1.0
  P  P9  1  0.70872992  0.19959377  0.51933608  1.0
  P  P10  1  0.29127008  0.80040623  0.48066392  1.0
  P  P11  1  0.29127008  0.69959377  0.98066392  1.0
  P  P12  1  0.91621400  0.03591584  0.16631324  1.0
  P  P13  1  0.91621400  0.46408416  0.66631324  1.0
  P  P14  1  0.08378600  0.53591584  0.33368676  1.0
  P  P15  1  0.08378600  0.96408416  0.83368676  1.0
  O  O16  1  0.70488718  0.18690866  0.40888352  1.0
  O  O17  1  0.70488718  0.31309134  0.90888352  1.0
  O  O18  1  0.29511282  0.68690866  0.09111648  1.0
  O  O19  1  0.29511282  0.81309134  0.59111648  1.0
  O  O20  1  0.21772525  0.05815827  0.20698107  1.0
  O  O21  1  0.21772525  0.44184173  0.70698107  1.0
  O  O22  1  0.78227475  0.55815827  0.29301893  1.0
  O  O23  1  0.78227475  0.94184173  0.79301893  1.0
  O  O24  1  0.93108248  0.40606872  0.09726488  1.0
  O  O25  1  0.93108248  0.09393128  0.59726488  1.0
  O  O26  1  0.06891752  0.90606872  0.40273512  1.0
  O  O27  1  0.06891752  0.59393128  0.90273512  1.0
  O  O28  1  0.79275281  0.11429445  0.05127850  1.0
  O  O29  1  0.79275281  0.38570555  0.55127850  1.0
  O  O30  1  0.20724719  0.61429445  0.44872150  1.0
  O  O31  1  0.20724719  0.88570555  0.94872150  1.0
  O  O32  1  0.17182249  0.35848480  0.34782235  1.0
  O  O33  1  0.17182249  0.14151520  0.84782235  1.0
  O  O34  1  0.82817751  0.85848480  0.15217765  1.0
  O  O35  1  0.82817751  0.64151520  0.65217765  1.0
  O  O36  1  0.43905246  0.32980858  0.02884454  1.0
  O  O37  1  0.43905246  0.17019142  0.52884454  1.0
  O  O38  1  0.56094754  0.82980858  0.47115546  1.0
  O  O39  1  0.56094754  0.67019142  0.97115546  1.0
  O  O40  1  0.78313841  0.11849923  0.23330847  1.0
  O  O41  1  0.78313841  0.38150077  0.73330847  1.0
  O  O42  1  0.21686159  0.61849923  0.26669153  1.0
  O  O43  1  0.21686159  0.88150077  0.76669153  1.0
