# generated using pymatgen
data_Na2Cu(SO5)2
_symmetry_space_group_name_H-M   'P 1'
_cell_length_a   6.53313169
_cell_length_b   12.61440379
_cell_length_c   5.63575347
_cell_angle_alpha   90.00000000
_cell_angle_beta   117.44648916
_cell_angle_gamma   90.00000000
_symmetry_Int_Tables_number   1
_chemical_formula_structural   Na2Cu(SO5)2
_chemical_formula_sum   'Na4 Cu2 S4 O20'
_cell_volume   412.17339579
_cell_formula_units_Z   2
loop_
 _symmetry_equiv_pos_site_id
 _symmetry_equiv_pos_as_xyz
  1  'x, y, z'
loop_
 _atom_site_type_symbol
 _atom_site_label
 _atom_site_symmetry_multiplicity
 _atom_site_fract_x
 _atom_site_fract_y
 _atom_site_fract_z
 _atom_site_occupancy
  S  S0  1  0.24778420  0.61653903  0.02704075  1.0
  S  S1  1  0.75221580  0.11653903  0.47295925  1.0
  S  S2  1  0.75221580  0.38346097  0.97295925  1.0
  S  S3  1  0.24778420  0.88346097  0.52704075  1.0
  O  O4  1  0.01567366  0.66786784  0.92437038  1.0
  O  O5  1  -0.01567366  0.16786784  0.57562962  1.0
  O  O6  1  -0.01567366  0.33213216  0.07562962  1.0
  O  O7  1  0.01567366  0.83213216  0.42437038  1.0
  O  O8  1  0.32734175  0.57647387  0.30152054  1.0
  O  O9  1  0.67265825  0.07647387  0.19847946  1.0
  O  O10  1  0.67265825  0.42352613  0.69847946  1.0
  O  O11  1  0.32734175  0.92352613  0.80152054  1.0
  O  O12  1  0.21835492  0.51284662  0.86093967  1.0
  O  O13  1  0.78164508  0.01284662  0.63906033  1.0
  O  O14  1  0.78164508  0.48715338  0.13906033  1.0
  O  O15  1  0.21835492  0.98715338  0.36093967  1.0
  O  O16  1  0.41538326  0.68577672  -0.00297873  1.0
  O  O17  1  0.58461674  0.18577672  0.50297873  1.0
  O  O18  1  0.58461674  0.31422328  1.00297873  1.0
  O  O19  1  0.41538326  0.81422328  0.49702127  1.0
  O  O20  1  0.85451030  0.61694505  0.50611470  1.0
  O  O21  1  0.14548970  0.11694505  -0.00611470  1.0
  O  O22  1  0.14548970  0.38305495  0.49388530  1.0
  O  O23  1  0.85451030  0.88305495  1.00611470  1.0
  Cu  Cu24  1  0.00000000  0.50000000  0.50000000  1.0
  Cu  Cu25  1  -0.00000000  0.00000000  -0.00000000  1.0
  Na  Na26  1  0.60502840  0.64193653  0.73298352  1.0
  Na  Na27  1  0.39497160  0.14193653  0.76701648  1.0
  Na  Na28  1  0.39497160  0.35806347  0.26701648  1.0
  Na  Na29  1  0.60502840  0.85806347  0.23298352  1.0
