# generated using pymatgen
data_KC4(OF)2
_symmetry_space_group_name_H-M   'P 1'
_cell_length_a   7.21115460
_cell_length_b   11.12742395
_cell_length_c   7.28481592
_cell_angle_alpha   90.00000000
_cell_angle_beta   111.60587038
_cell_angle_gamma   90.00000000
_symmetry_Int_Tables_number   1
_chemical_formula_structural   KC4(OF)2
_chemical_formula_sum   'K4 C16 O8 F8'
_cell_volume   543.47423741
_cell_formula_units_Z   4
loop_
 _symmetry_equiv_pos_site_id
 _symmetry_equiv_pos_as_xyz
  1  'x, y, z'
loop_
 _atom_site_type_symbol
 _atom_site_label
 _atom_site_symmetry_multiplicity
 _atom_site_fract_x
 _atom_site_fract_y
 _atom_site_fract_z
 _atom_site_occupancy
  K  K0  1  0.76470905  0.88571486  0.47190302  1.0
  K  K1  1  0.76470905  0.11428514  0.97190302  1.0
  K  K2  1  0.23529095  0.88571486  0.02809698  1.0
  K  K3  1  0.23529095  0.11428514  0.52809698  1.0
  C  C4  1  0.69459760  0.82740349  0.92840221  1.0
  C  C5  1  0.69459760  0.17259651  0.42840221  1.0
  C  C6  1  0.30540240  0.82740349  0.57159779  1.0
  C  C7  1  0.30540240  0.17259651  0.07159779  1.0
  C  C8  1  0.68329788  0.60183586  0.90196104  1.0
  C  C9  1  0.68329788  0.39816414  0.40196104  1.0
  C  C10  1  0.31670212  0.60183586  0.59803896  1.0
  C  C11  1  0.31670212  0.39816414  0.09803896  1.0
  C  C12  1  0.59324120  0.49254618  0.82605801  1.0
  C  C13  1  0.59324120  0.50745382  0.32605801  1.0
  C  C14  1  0.40675880  0.49254618  0.67394199  1.0
  C  C15  1  0.40675880  0.50745382  0.17394199  1.0
  C  C16  1  0.59268927  0.71125981  0.82911572  1.0
  C  C17  1  0.59268927  0.28874019  0.32911572  1.0
  C  C18  1  0.40731073  0.71125981  0.67088428  1.0
  C  C19  1  0.40731073  0.28874019  0.17088428  1.0
  O  O20  1  0.82602021  0.87118436  0.87117295  1.0
  O  O21  1  0.82602021  0.12881564  0.37117295  1.0
  O  O22  1  0.17397979  0.87118436  0.62882705  1.0
  O  O23  1  0.17397979  0.12881564  0.12882705  1.0
  O  O24  1  0.36290417  0.87036893  0.44100159  1.0
  O  O25  1  0.36290417  0.12963107  0.94100159  1.0
  O  O26  1  0.63709583  0.87036893  0.05899841  1.0
  O  O27  1  0.63709583  0.12963107  0.55899841  1.0
  F  F28  1  0.86250044  0.40070316  0.55372743  1.0
  F  F29  1  0.86250044  0.59929684  0.05372743  1.0
  F  F30  1  0.13749956  0.40070316  0.94627257  1.0
  F  F31  1  0.13749956  0.59929684  0.44627257  1.0
  F  F32  1  0.68340720  0.38715448  0.90037667  1.0
  F  F33  1  0.68340720  0.61284552  0.40037667  1.0
  F  F34  1  0.31659280  0.38715448  0.59962333  1.0
  F  F35  1  0.31659280  0.61284552  0.09962333  1.0
