# generated using pymatgen
data_Ti2O3
_symmetry_space_group_name_H-M   'P 1'
_cell_length_a   5.51907686
_cell_length_b   5.51907686
_cell_length_c   5.51907686
_cell_angle_alpha   55.03635393
_cell_angle_beta   55.03635393
_cell_angle_gamma   55.03635393
_symmetry_Int_Tables_number   1
_chemical_formula_structural   Ti2O3
_chemical_formula_sum   'Ti4 O6'
_cell_volume   105.14677718
_cell_formula_units_Z   2
loop_
 _symmetry_equiv_pos_site_id
 _symmetry_equiv_pos_as_xyz
  1  'x, y, z'
loop_
 _atom_site_type_symbol
 _atom_site_label
 _atom_site_symmetry_multiplicity
 _atom_site_fract_x
 _atom_site_fract_y
 _atom_site_fract_z
 _atom_site_occupancy
  Ti  Ti0  1  0.65467368  0.65467368  -0.34532632  1.0
  Ti  Ti1  1  0.34532632  0.34532632  0.34532632  1.0
  Ti  Ti2  1  1.15467368  0.15467368  0.15467368  1.0
  Ti  Ti3  1  0.84532632  -0.15467368  -0.15467368  1.0
  O  O4  1  1.06220890  0.43779110  -0.25000000  1.0
  O  O5  1  1.43779110  -0.25000000  0.06220890  1.0
  O  O6  1  0.75000000  0.06220890  0.43779110  1.0
  O  O7  1  0.93779110  -0.43779110  0.25000000  1.0
  O  O8  1  0.56220890  0.25000000  -0.06220890  1.0
  O  O9  1  0.25000000  0.93779110  -0.43779110  1.0
