# generated using pymatgen
data_Na3SbS4
_symmetry_space_group_name_H-M   'P 1'
_cell_length_a   7.23177633
_cell_length_b   7.23177633
_cell_length_c   7.39625359
_cell_angle_alpha   90.00000000
_cell_angle_beta   90.00000000
_cell_angle_gamma   90.00000000
_symmetry_Int_Tables_number   1
_chemical_formula_structural   Na3SbS4
_chemical_formula_sum   'Na6 Sb2 S8'
_cell_volume   386.81362631
_cell_formula_units_Z   2
loop_
 _symmetry_equiv_pos_site_id
 _symmetry_equiv_pos_as_xyz
  1  'x, y, z'
loop_
 _atom_site_type_symbol
 _atom_site_label
 _atom_site_symmetry_multiplicity
 _atom_site_fract_x
 _atom_site_fract_y
 _atom_site_fract_z
 _atom_site_occupancy
  Na  Na0  1  0.50000000  0.00000000  0.92175111  1.0
  Na  Na1  1  0.00000000  0.50000000  0.57824889  1.0
  Na  Na2  1  0.00000000  0.50000000  0.07824889  1.0
  Na  Na3  1  0.50000000  0.00000000  0.42175111  1.0
  Na  Na4  1  0.50000000  0.50000000  0.00000000  1.0
  Na  Na5  1  0.00000000  0.00000000  0.50000000  1.0
  Sb  Sb6  1  0.50000000  0.50000000  0.50000000  1.0
  Sb  Sb7  1  0.00000000  0.00000000  0.00000000  1.0
  S  S8  1  0.20815186  0.82924217  0.18197191  1.0
  S  S9  1  0.29184814  0.32924217  0.31802809  1.0
  S  S10  1  0.79184814  0.17075783  0.18197191  1.0
  S  S11  1  0.70815186  0.67075783  0.31802809  1.0
  S  S12  1  0.82924217  0.79184814  0.81802809  1.0
  S  S13  1  0.32924217  0.70815186  0.68197191  1.0
  S  S14  1  0.17075783  0.20815186  0.81802809  1.0
  S  S15  1  0.67075783  0.29184814  0.68197191  1.0
