# generated using pymatgen
data_EuCrTeO6
_symmetry_space_group_name_H-M   'P 1'
_cell_length_a   5.22433728
_cell_length_b   5.22433728
_cell_length_c   10.32400189
_cell_angle_alpha   90.00000000
_cell_angle_beta   90.00000000
_cell_angle_gamma   120.00000000
_symmetry_Int_Tables_number   1
_chemical_formula_structural   EuCrTeO6
_chemical_formula_sum   'Eu2 Cr2 Te2 O12'
_cell_volume   244.02882049
_cell_formula_units_Z   2
loop_
 _symmetry_equiv_pos_site_id
 _symmetry_equiv_pos_as_xyz
  1  'x, y, z'
loop_
 _atom_site_type_symbol
 _atom_site_label
 _atom_site_symmetry_multiplicity
 _atom_site_fract_x
 _atom_site_fract_y
 _atom_site_fract_z
 _atom_site_occupancy
  Eu  Eu0  1  0.00000000  0.00000000  0.00000000  1.0
  Eu  Eu1  1  0.00000000  0.00000000  0.50000000  1.0
  Cr  Cr2  1  0.66666667  0.33333333  0.75000000  1.0
  Cr  Cr3  1  0.33333333  0.66666667  0.25000000  1.0
  Te  Te4  1  0.66666667  0.33333333  0.25000000  1.0
  Te  Te5  1  0.33333333  0.66666667  0.75000000  1.0
  O  O6  1  0.63413050  0.00805881  0.85675786  1.0
  O  O7  1  0.37392831  0.36586950  0.85675786  1.0
  O  O8  1  -0.00805881  0.62607169  0.85675786  1.0
  O  O9  1  0.36586950  -0.00805881  0.14324214  1.0
  O  O10  1  0.62607169  0.63413050  0.14324214  1.0
  O  O11  1  0.00805881  0.37392831  0.14324214  1.0
  O  O12  1  0.37392831  0.00805881  0.64324214  1.0
  O  O13  1  0.63413050  0.62607169  0.64324214  1.0
  O  O14  1  -0.00805881  0.36586950  0.64324214  1.0
  O  O15  1  0.62607169  -0.00805881  0.35675786  1.0
  O  O16  1  0.36586950  0.37392831  0.35675786  1.0
  O  O17  1  0.00805881  0.63413050  0.35675786  1.0
