# generated using pymatgen
data_Ti6CCl14
_symmetry_space_group_name_H-M   'P 1'
_cell_length_a   9.68807576
_cell_length_b   9.68807576
_cell_length_c   11.36296985
_cell_angle_alpha   90.00000000
_cell_angle_beta   90.00000000
_cell_angle_gamma   92.25700464
_symmetry_Int_Tables_number   1
_chemical_formula_structural   Ti6CCl14
_chemical_formula_sum   'Ti12 C2 Cl28'
_cell_volume   1065.68747987
_cell_formula_units_Z   2
loop_
 _symmetry_equiv_pos_site_id
 _symmetry_equiv_pos_as_xyz
  1  'x, y, z'
loop_
 _atom_site_type_symbol
 _atom_site_label
 _atom_site_symmetry_multiplicity
 _atom_site_fract_x
 _atom_site_fract_y
 _atom_site_fract_z
 _atom_site_occupancy
  Ti  Ti0  1  0.43869831  1.33296718  0.38270082  1.0
  Ti  Ti1  1  -0.06130169  0.83296718  0.11729918  1.0
  Ti  Ti2  1  0.33296718  1.43869831  0.61729918  1.0
  Ti  Ti3  1  -0.16703282  0.93869831  0.88270082  1.0
  Ti  Ti4  1  -0.33296718  0.56130169  0.38270082  1.0
  Ti  Ti5  1  0.16703282  1.06130169  0.11729918  1.0
  Ti  Ti6  1  -0.43869831  0.66703282  0.61729918  1.0
  Ti  Ti7  1  0.06130169  1.16703282  0.88270082  1.0
  Ti  Ti8  1  -0.12759548  1.12759548  0.08656210  1.0
  Ti  Ti9  1  0.37240452  0.62759548  0.41343790  1.0
  Ti  Ti10  1  0.12759548  0.87240452  0.91343790  1.0
  Ti  Ti11  1  -0.37240452  1.37240452  0.58656210  1.0
  C  C12  1  -0.50000000  0.50000000  0.50000000  1.0
  C  C13  1  -0.00000000  1.00000000  0.00000000  1.0
  Cl  Cl14  1  -0.41412995  1.16848540  0.47558092  1.0
  Cl  Cl15  1  0.08587005  0.66848540  0.02441908  1.0
  Cl  Cl16  1  0.16848540  0.58587005  0.52441908  1.0
  Cl  Cl17  1  -0.33151460  1.08587005  0.97558092  1.0
  Cl  Cl18  1  -0.16848540  1.41412995  0.47558092  1.0
  Cl  Cl19  1  0.33151460  0.91412995  0.02441908  1.0
  Cl  Cl20  1  0.41412995  0.83151460  0.52441908  1.0
  Cl  Cl21  1  -0.08587005  1.33151460  0.97558092  1.0
  Cl  Cl22  1  -0.21506724  0.97071327  0.23056883  1.0
  Cl  Cl23  1  0.28493276  1.47071327  0.26943117  1.0
  Cl  Cl24  1  -0.02928673  0.78493276  0.76943117  1.0
  Cl  Cl25  1  0.47071327  1.28493276  0.73056883  1.0
  Cl  Cl26  1  0.02928673  1.21506724  0.23056883  1.0
  Cl  Cl27  1  -0.47071327  0.71506724  0.26943117  1.0
  Cl  Cl28  1  0.21506724  1.02928673  0.76943117  1.0
  Cl  Cl29  1  -0.28493276  0.52928673  0.73056883  1.0
  Cl  Cl30  1  -0.38233223  1.38233223  0.23965755  1.0
  Cl  Cl31  1  0.11766777  0.88233223  0.26034245  1.0
  Cl  Cl32  1  0.38233223  0.61766777  0.76034245  1.0
  Cl  Cl33  1  -0.11766777  1.11766777  0.73965755  1.0
  Cl  Cl34  1  0.37105831  1.12894169  0.25000000  1.0
  Cl  Cl35  1  -0.12894169  0.62894169  0.25000000  1.0
  Cl  Cl36  1  0.12894169  1.37105831  0.75000000  1.0
  Cl  Cl37  1  -0.37105831  0.87105831  0.75000000  1.0
  Cl  Cl38  1  0.24961483  1.24961483  0.50000000  1.0
  Cl  Cl39  1  -0.25038517  0.74961483  0.00000000  1.0
  Cl  Cl40  1  -0.24961483  0.75038517  0.50000000  1.0
  Cl  Cl41  1  0.25038517  1.25038517  0.00000000  1.0
