# generated using pymatgen
data_Cu3SbS4
_symmetry_space_group_name_H-M   'P 1'
_cell_length_a   6.63888120
_cell_length_b   6.63888120
_cell_length_c   6.63888120
_cell_angle_alpha   131.70585169
_cell_angle_beta   131.70585169
_cell_angle_gamma   70.69400078
_symmetry_Int_Tables_number   1
_chemical_formula_structural   Cu3SbS4
_chemical_formula_sum   'Cu3 Sb1 S4'
_cell_volume   159.76172666
_cell_formula_units_Z   1
loop_
 _symmetry_equiv_pos_site_id
 _symmetry_equiv_pos_as_xyz
  1  'x, y, z'
loop_
 _atom_site_type_symbol
 _atom_site_label
 _atom_site_symmetry_multiplicity
 _atom_site_fract_x
 _atom_site_fract_y
 _atom_site_fract_z
 _atom_site_occupancy
  Cu  Cu0  1  0.00000000  0.00000000  0.00000000  1.0
  Cu  Cu1  1  0.25000000  0.75000000  0.50000000  1.0
  Cu  Cu2  1  0.75000000  0.25000000  0.50000000  1.0
  Sb  Sb3  1  0.50000000  0.50000000  1.00000000  1.0
  S  S4  1  0.36758731  0.89844451  1.00000000  1.0
  S  S5  1  1.10155549  1.10155549  1.46914280  1.0
  S  S6  1  0.63241269  0.63241269  0.53085720  1.0
  S  S7  1  0.89844451  0.36758731  1.00000000  1.0
