# generated using pymatgen
data_Ba3NiSb2O9
_symmetry_space_group_name_H-M   'P 1'
_cell_length_a   5.88948084
_cell_length_b   5.88948084
_cell_length_c   14.60825377
_cell_angle_alpha   90.00000000
_cell_angle_beta   90.00000000
_cell_angle_gamma   120.00000000
_symmetry_Int_Tables_number   1
_chemical_formula_structural   Ba3NiSb2O9
_chemical_formula_sum   'Ba6 Ni2 Sb4 O18'
_cell_volume   438.81651447
_cell_formula_units_Z   2
loop_
 _symmetry_equiv_pos_site_id
 _symmetry_equiv_pos_as_xyz
  1  'x, y, z'
loop_
 _atom_site_type_symbol
 _atom_site_label
 _atom_site_symmetry_multiplicity
 _atom_site_fract_x
 _atom_site_fract_y
 _atom_site_fract_z
 _atom_site_occupancy
  Ba  Ba0  1  0.33333333  0.66666667  0.17301711  1.0
  Ba  Ba1  1  0.66666667  0.33333333  0.67301711  1.0
  Ba  Ba2  1  0.33333333  0.66666667  0.85980500  1.0
  Ba  Ba3  1  0.66666667  0.33333333  0.35980500  1.0
  Ba  Ba4  1  0.00000000  0.00000000  -0.00053883  1.0
  Ba  Ba5  1  0.00000000  0.00000000  0.49946117  1.0
  Ni  Ni6  1  0.33333333  0.66666667  0.40674921  1.0
  Ni  Ni7  1  0.66666667  0.33333333  0.90674921  1.0
  Sb  Sb8  1  0.33333333  0.66666667  0.59006699  1.0
  Sb  Sb9  1  0.66666667  0.33333333  0.09006699  1.0
  Sb  Sb10  1  0.00000000  0.00000000  0.25784625  1.0
  Sb  Sb11  1  0.00000000  0.00000000  0.75784625  1.0
  O  O12  1  0.66098657  0.83049329  0.33391599  1.0
  O  O13  1  0.83049329  0.66098657  0.83391599  1.0
  O  O14  1  0.83049329  0.16950671  0.83391599  1.0
  O  O15  1  0.16950671  0.83049329  0.33391599  1.0
  O  O16  1  0.16950671  0.33901343  0.33391599  1.0
  O  O17  1  0.33901343  0.16950671  0.83391599  1.0
  O  O18  1  0.96931203  0.48465601  0.00006510  1.0
  O  O19  1  0.48465601  0.96931203  0.50006510  1.0
  O  O20  1  0.48465601  0.51534399  0.50006510  1.0
  O  O21  1  0.51534399  0.48465601  0.00006510  1.0
  O  O22  1  0.51534399  0.03068797  0.00006510  1.0
  O  O23  1  0.03068797  0.51534399  0.50006510  1.0
  O  O24  1  0.33406519  0.16703259  0.16667034  1.0
  O  O25  1  0.16703259  0.33406519  0.66667034  1.0
  O  O26  1  0.16703259  0.83296741  0.66667034  1.0
  O  O27  1  0.83296741  0.16703259  0.16667034  1.0
  O  O28  1  0.83296741  0.66593481  0.16667034  1.0
  O  O29  1  0.66593481  0.83296741  0.66667034  1.0
