# generated using pymatgen
data_Zr9(CoP2)2
_symmetry_space_group_name_H-M   'P 1'
_cell_length_a   12.06241694
_cell_length_b   12.06241694
_cell_length_c   3.66842781
_cell_angle_alpha   90.00000000
_cell_angle_beta   90.00000000
_cell_angle_gamma   90.00000000
_symmetry_Int_Tables_number   1
_chemical_formula_structural   Zr9(CoP2)2
_chemical_formula_sum   'Zr18 Co4 P8'
_cell_volume   533.76322433
_cell_formula_units_Z   2
loop_
 _symmetry_equiv_pos_site_id
 _symmetry_equiv_pos_as_xyz
  1  'x, y, z'
loop_
 _atom_site_type_symbol
 _atom_site_label
 _atom_site_symmetry_multiplicity
 _atom_site_fract_x
 _atom_site_fract_y
 _atom_site_fract_z
 _atom_site_occupancy
  Zr  Zr0  1  0.90423269  0.59576731  0.00000000  1.0
  Zr  Zr1  1  0.40423269  0.90423269  0.00000000  1.0
  Zr  Zr2  1  0.09576731  0.40423269  0.00000000  1.0
  Zr  Zr3  1  0.59576731  0.09576731  0.00000000  1.0
  Zr  Zr4  1  0.39498993  0.68091795  0.50000000  1.0
  Zr  Zr5  1  0.89498993  0.81908205  0.50000000  1.0
  Zr  Zr6  1  0.31908205  0.39498993  0.50000000  1.0
  Zr  Zr7  1  0.81908205  0.10501007  0.50000000  1.0
  Zr  Zr8  1  0.60501007  0.31908205  0.50000000  1.0
  Zr  Zr9  1  0.10501007  0.18091795  0.50000000  1.0
  Zr  Zr10  1  0.68091795  0.60501007  0.50000000  1.0
  Zr  Zr11  1  0.18091795  0.89498993  0.50000000  1.0
  Zr  Zr12  1  0.37845954  0.12154046  0.50000000  1.0
  Zr  Zr13  1  0.87845954  0.37845954  0.50000000  1.0
  Zr  Zr14  1  0.62154046  0.87845954  0.50000000  1.0
  Zr  Zr15  1  0.12154046  0.62154046  0.50000000  1.0
  Zr  Zr16  1  0.50000000  0.50000000  0.00000000  1.0
  Zr  Zr17  1  0.00000000  0.00000000  0.00000000  1.0
  Co  Co18  1  0.24995196  0.25004804  0.00000000  1.0
  Co  Co19  1  0.74995196  0.24995196  0.00000000  1.0
  Co  Co20  1  0.75004804  0.74995196  0.00000000  1.0
  Co  Co21  1  0.25004804  0.75004804  0.00000000  1.0
  P  P22  1  0.27493647  0.55693848  0.00000000  1.0
  P  P23  1  0.77493647  0.94306152  0.00000000  1.0
  P  P24  1  0.44306152  0.27493647  0.00000000  1.0
  P  P25  1  0.94306152  0.22506353  0.00000000  1.0
  P  P26  1  0.72506353  0.44306152  0.00000000  1.0
  P  P27  1  0.22506353  0.05693848  0.00000000  1.0
  P  P28  1  0.55693848  0.72506353  0.00000000  1.0
  P  P29  1  0.05693848  0.77493647  0.00000000  1.0
