# generated using pymatgen
data_TaCo2
_symmetry_space_group_name_H-M   'P 1'
_cell_length_a   4.75154263
_cell_length_b   4.75154263
_cell_length_c   15.48847081
_cell_angle_alpha   90.00000000
_cell_angle_beta   90.00000000
_cell_angle_gamma   120.00000000
_symmetry_Int_Tables_number   1
_chemical_formula_structural   TaCo2
_chemical_formula_sum   'Ta8 Co16'
_cell_volume   302.83665008
_cell_formula_units_Z   8
loop_
 _symmetry_equiv_pos_site_id
 _symmetry_equiv_pos_as_xyz
  1  'x, y, z'
loop_
 _atom_site_type_symbol
 _atom_site_label
 _atom_site_symmetry_multiplicity
 _atom_site_fract_x
 _atom_site_fract_y
 _atom_site_fract_z
 _atom_site_occupancy
  Ta  Ta0  1  0.33333333  0.66666667  0.84458179  1.0
  Ta  Ta1  1  0.33333333  0.66666667  0.65541821  1.0
  Ta  Ta2  1  0.66666667  0.33333333  0.34458179  1.0
  Ta  Ta3  1  0.66666667  0.33333333  0.15541821  1.0
  Ta  Ta4  1  0.00000000  0.00000000  0.40829638  1.0
  Ta  Ta5  1  0.00000000  0.00000000  0.09170362  1.0
  Ta  Ta6  1  0.00000000  0.00000000  0.90829638  1.0
  Ta  Ta7  1  0.00000000  0.00000000  0.59170362  1.0
  Co  Co8  1  0.16426058  0.83573942  0.25000000  1.0
  Co  Co9  1  0.16426058  0.32852117  0.25000000  1.0
  Co  Co10  1  0.83573942  0.16426058  0.75000000  1.0
  Co  Co11  1  0.83573942  0.67147883  0.75000000  1.0
  Co  Co12  1  0.67147883  0.83573942  0.25000000  1.0
  Co  Co13  1  0.32852117  0.16426058  0.75000000  1.0
  Co  Co14  1  0.50000000  0.50000000  0.50000000  1.0
  Co  Co15  1  0.50000000  0.50000000  0.00000000  1.0
  Co  Co16  1  0.50000000  0.00000000  0.50000000  1.0
  Co  Co17  1  0.50000000  0.00000000  0.00000000  1.0
  Co  Co18  1  -0.00000000  0.50000000  0.50000000  1.0
  Co  Co19  1  -0.00000000  0.50000000  0.00000000  1.0
  Co  Co20  1  0.33333333  0.66666667  0.37350246  1.0
  Co  Co21  1  0.33333333  0.66666667  0.12649754  1.0
  Co  Co22  1  0.66666667  0.33333333  0.87350246  1.0
  Co  Co23  1  0.66666667  0.33333333  0.62649754  1.0
