# generated using pymatgen
data_K2LaP2Se7
_symmetry_space_group_name_H-M   'P 1'
_cell_length_a   9.68554141
_cell_length_b   7.32173718
_cell_length_c   22.62742036
_cell_angle_alpha   90.00000000
_cell_angle_beta   110.17319319
_cell_angle_gamma   90.00000000
_symmetry_Int_Tables_number   1
_chemical_formula_structural   K2LaP2Se7
_chemical_formula_sum   'K8 La4 P8 Se28'
_cell_volume   1506.18679995
_cell_formula_units_Z   4
loop_
 _symmetry_equiv_pos_site_id
 _symmetry_equiv_pos_as_xyz
  1  'x, y, z'
loop_
 _atom_site_type_symbol
 _atom_site_label
 _atom_site_symmetry_multiplicity
 _atom_site_fract_x
 _atom_site_fract_y
 _atom_site_fract_z
 _atom_site_occupancy
  K  K0  1  0.85046453  0.41874059  0.17639775  1.0
  K  K1  1  0.85046453  0.08125941  0.67639775  1.0
  K  K2  1  0.14953547  0.91874059  0.32360225  1.0
  K  K3  1  0.14953547  0.58125941  0.82360225  1.0
  K  K4  1  0.75331607  0.97391805  0.01377902  1.0
  K  K5  1  0.75331607  0.52608195  0.51377902  1.0
  K  K6  1  0.24668393  0.47391805  0.48622098  1.0
  K  K7  1  0.24668393  0.02608195  0.98622098  1.0
  La  La8  1  0.64966027  0.02321850  0.35008756  1.0
  La  La9  1  0.64966027  0.47678150  0.85008756  1.0
  La  La10  1  0.35033973  0.52321850  0.14991244  1.0
  La  La11  1  0.35033973  0.97678150  0.64991244  1.0
  P  P12  1  0.96318431  0.47804921  0.04156163  1.0
  P  P13  1  0.96318431  0.02195079  0.54156163  1.0
  P  P14  1  0.03681569  0.97804921  0.45843837  1.0
  P  P15  1  0.03681569  0.52195079  0.95843837  1.0
  P  P16  1  0.42183085  0.47726087  0.32887310  1.0
  P  P17  1  0.42183085  0.02273913  0.82887310  1.0
  P  P18  1  0.57816915  0.97726087  0.17112690  1.0
  P  P19  1  0.57816915  0.52273913  0.67112690  1.0
  Se  Se20  1  0.95736417  0.21975593  0.39748617  1.0
  Se  Se21  1  0.95736417  0.28024407  0.89748617  1.0
  Se  Se22  1  0.04263583  0.71975593  0.10251383  1.0
  Se  Se23  1  0.04263583  0.78024407  0.60251383  1.0
  Se  Se24  1  0.91598639  0.73717378  0.40787515  1.0
  Se  Se25  1  0.91598639  0.76282622  0.90787515  1.0
  Se  Se26  1  0.08401362  0.23717378  0.09212485  1.0
  Se  Se27  1  0.08401362  0.26282622  0.59212485  1.0
  Se  Se28  1  0.79017067  0.03834006  0.24839963  1.0
  Se  Se29  1  0.79017067  0.46165994  0.74839963  1.0
  Se  Se30  1  0.20982933  0.53834006  0.25160037  1.0
  Se  Se31  1  0.20982933  0.96165994  0.75160037  1.0
  Se  Se32  1  0.72300562  0.43930862  0.00035420  1.0
  Se  Se33  1  0.72300562  0.06069138  0.50035420  1.0
  Se  Se34  1  0.27699438  0.93930862  0.49964580  1.0
  Se  Se35  1  0.27699438  0.56069138  0.99964580  1.0
  Se  Se36  1  0.58609117  0.40605833  0.28260893  1.0
  Se  Se37  1  0.58609117  0.09394167  0.78260893  1.0
  Se  Se38  1  0.41390883  0.90605833  0.21739107  1.0
  Se  Se39  1  0.41390883  0.59394167  0.71739107  1.0
  Se  Se40  1  0.51576751  0.21335503  0.10495528  1.0
  Se  Se41  1  0.51576751  0.28664497  0.60495528  1.0
  Se  Se42  1  0.48423249  0.71335503  0.39504472  1.0
  Se  Se43  1  0.48423249  0.78664497  0.89504472  1.0
  Se  Se44  1  0.40787033  0.23493846  0.38583654  1.0
  Se  Se45  1  0.40787033  0.26506154  0.88583654  1.0
  Se  Se46  1  0.59212967  0.73493846  0.11416346  1.0
  Se  Se47  1  0.59212967  0.76506154  0.61416346  1.0
