# generated using pymatgen
data_MoH8(NO2)2
_symmetry_space_group_name_H-M   'P 1'
_cell_length_a   6.37947323
_cell_length_b   7.76234278
_cell_length_c   12.32209183
_cell_angle_alpha   90.00000000
_cell_angle_beta   113.04670517
_cell_angle_gamma   90.00000000
_symmetry_Int_Tables_number   1
_chemical_formula_structural   MoH8(NO2)2
_chemical_formula_sum   'Mo4 H32 N8 O16'
_cell_volume   561.48442997
_cell_formula_units_Z   4
loop_
 _symmetry_equiv_pos_site_id
 _symmetry_equiv_pos_as_xyz
  1  'x, y, z'
loop_
 _atom_site_type_symbol
 _atom_site_label
 _atom_site_symmetry_multiplicity
 _atom_site_fract_x
 _atom_site_fract_y
 _atom_site_fract_z
 _atom_site_occupancy
  Mo  Mo0  1  0.90844717  0.13757349  0.18404215  1.0
  Mo  Mo1  1  0.90844717  0.36242651  0.68404215  1.0
  Mo  Mo2  1  0.09155283  0.63757349  0.31595785  1.0
  Mo  Mo3  1  0.09155283  0.86242651  0.81595785  1.0
  H  H4  1  0.77920204  0.90505061  0.41285948  1.0
  H  H5  1  0.77920204  0.59494939  0.91285948  1.0
  H  H6  1  0.22079796  0.40505061  0.08714052  1.0
  H  H7  1  0.22079796  0.09494939  0.58714052  1.0
  H  H8  1  0.70949811  0.27441845  0.34273548  1.0
  H  H9  1  0.70949811  0.22558155  0.84273548  1.0
  H  H10  1  0.29050189  0.77441845  0.15726452  1.0
  H  H11  1  0.29050189  0.72558155  0.65726452  1.0
  H  H12  1  0.66819187  0.42053423  0.43752962  1.0
  H  H13  1  0.66819187  0.07946577  0.93752962  1.0
  H  H14  1  0.33180813  0.92053423  0.06247038  1.0
  H  H15  1  0.33180813  0.57946577  0.56247038  1.0
  H  H16  1  0.64965032  0.48568176  0.30509616  1.0
  H  H17  1  0.64965032  0.01431824  0.80509616  1.0
  H  H18  1  0.35034968  0.98568176  0.19490384  1.0
  H  H19  1  0.35034968  0.51431824  0.69490384  1.0
  H  H20  1  0.44511348  0.34796207  0.31480170  1.0
  H  H21  1  0.44511348  0.15203793  0.81480170  1.0
  H  H22  1  0.55488652  0.84796207  0.18519830  1.0
  H  H23  1  0.55488652  0.65203793  0.68519830  1.0
  H  H24  1  0.45792911  0.35630669  0.06156147  1.0
  H  H25  1  0.45792911  0.14369331  0.56156147  1.0
  H  H26  1  0.54207089  0.85630669  0.43843853  1.0
  H  H27  1  0.54207089  0.64369331  0.93843853  1.0
  H  H28  1  0.24217947  0.02462031  0.46237852  1.0
  H  H29  1  0.24217947  0.47537969  0.96237852  1.0
  H  H30  1  0.75782053  0.52462031  0.03762148  1.0
  H  H31  1  0.75782053  0.97537969  0.53762148  1.0
  H  H32  1  0.20941478  0.24069194  0.47982769  1.0
  H  H33  1  0.20941478  0.25930806  0.97982769  1.0
  H  H34  1  0.79058522  0.74069194  0.02017231  1.0
  H  H35  1  0.79058522  0.75930806  0.52017231  1.0
  N  N36  1  0.71948655  0.87363198  0.47718948  1.0
  N  N37  1  0.71948655  0.62636802  0.97718948  1.0
  N  N38  1  0.28051345  0.37363198  0.02281052  1.0
  N  N39  1  0.28051345  0.12636802  0.52281052  1.0
  N  N40  1  0.61559473  0.38212725  0.34997981  1.0
  N  N41  1  0.61559473  0.11787275  0.84997981  1.0
  N  N42  1  0.38440527  0.88212725  0.15002019  1.0
  N  N43  1  0.38440527  0.61787275  0.65002019  1.0
  O  O44  1  0.82111203  0.96302125  0.08237376  1.0
  O  O45  1  0.82111203  0.53697875  0.58237376  1.0
  O  O46  1  0.17888797  0.46302125  0.41762624  1.0
  O  O47  1  0.17888797  0.03697875  0.91762624  1.0
  O  O48  1  0.83359621  0.09621172  0.30688995  1.0
  O  O49  1  0.83359621  0.40378828  0.80688995  1.0
  O  O50  1  0.16640379  0.59621172  0.19311005  1.0
  O  O51  1  0.16640379  0.90378828  0.69311005  1.0
  O  O52  1  0.75358846  0.32348135  0.10901419  1.0
  O  O53  1  0.75358846  0.17651865  0.60901419  1.0
  O  O54  1  0.24641154  0.82348135  0.39098581  1.0
  O  O55  1  0.24641154  0.67651865  0.89098581  1.0
  O  O56  1  0.20690440  0.16991570  0.22892430  1.0
  O  O57  1  0.20690440  0.33008430  0.72892430  1.0
  O  O58  1  0.79309560  0.66991570  0.27107570  1.0
  O  O59  1  0.79309560  0.83008430  0.77107570  1.0
