# generated using pymatgen
data_Tl4Sn5S12
_symmetry_space_group_name_H-M   'P 1'
_cell_length_a   7.53161481
_cell_length_b   17.59590231
_cell_length_c   9.93242385
_cell_angle_alpha   72.12249298
_cell_angle_beta   68.23046915
_cell_angle_gamma   77.60788974
_symmetry_Int_Tables_number   1
_chemical_formula_structural   Tl4Sn5S12
_chemical_formula_sum   'Tl8 Sn10 S24'
_cell_volume   1155.81773800
_cell_formula_units_Z   2
loop_
 _symmetry_equiv_pos_site_id
 _symmetry_equiv_pos_as_xyz
  1  'x, y, z'
loop_
 _atom_site_type_symbol
 _atom_site_label
 _atom_site_symmetry_multiplicity
 _atom_site_fract_x
 _atom_site_fract_y
 _atom_site_fract_z
 _atom_site_occupancy
  Tl  Tl0  1  -0.87244734  0.63979714  -0.16214120  1.0
  Tl  Tl1  1  -0.12755266  0.36020286  0.16214120  1.0
  Tl  Tl2  1  -0.81631033  0.19882136  0.56030934  1.0
  Tl  Tl3  1  -0.18368967  0.80117864  -0.56030934  1.0
  Tl  Tl4  1  -0.40107419  0.64597835  -0.10077214  1.0
  Tl  Tl5  1  -0.59892581  0.35402165  0.10077214  1.0
  Tl  Tl6  1  -0.08286335  0.88267384  -0.04339740  1.0
  Tl  Tl7  1  -0.91713665  0.11732616  0.04339740  1.0
  Sn  Sn8  1  -0.80528019  0.92021229  -0.49949127  1.0
  Sn  Sn9  1  -0.19471981  0.07978771  0.49949127  1.0
  Sn  Sn10  1  -0.81322257  0.55115905  0.32153633  1.0
  Sn  Sn11  1  -0.18677743  0.44884095  -0.32153633  1.0
  Sn  Sn12  1  -0.61929234  0.76938771  0.20088263  1.0
  Sn  Sn13  1  -0.38070766  0.23061229  -0.20088263  1.0
  Sn  Sn14  1  -0.48955482  0.89919294  -0.22165701  1.0
  Sn  Sn15  1  -0.51044518  0.10080706  0.22165701  1.0
  Sn  Sn16  1  -0.31665953  0.55766848  0.32449537  1.0
  Sn  Sn17  1  -0.68334047  0.44233152  -0.32449537  1.0
  S  S18  1  -0.97329922  0.02025895  0.65368605  1.0
  S  S19  1  -0.02670078  0.97974105  -0.65368605  1.0
  S  S20  1  -0.97199402  0.51636006  0.16386179  1.0
  S  S21  1  -0.02800598  0.48363994  -0.16386179  1.0
  S  S22  1  -0.83779372  0.40737131  0.50746958  1.0
  S  S23  1  -0.16220628  0.59262869  -0.50746958  1.0
  S  S24  1  -0.80755354  0.69564603  0.14112566  1.0
  S  S25  1  -0.19244646  0.30435397  -0.14112566  1.0
  S  S26  1  -0.76788686  0.78007163  -0.54104825  1.0
  S  S27  1  -0.23211314  0.21992837  0.54104825  1.0
  S  S28  1  -0.69295312  0.82818333  -0.27199338  1.0
  S  S29  1  -0.30704688  0.17181667  0.27199338  1.0
  S  S30  1  -0.62653425  0.90640896  0.04231287  1.0
  S  S31  1  -0.37346575  0.09359104  -0.04231287  1.0
  S  S32  1  -0.48063339  0.95697941  -0.66654649  1.0
  S  S33  1  -0.51936661  0.04302059  0.66654649  1.0
  S  S34  1  -0.46255878  0.50659111  0.17470838  1.0
  S  S35  1  -0.53744122  0.49340889  -0.17470838  1.0
  S  S36  1  -0.32870675  0.41221281  0.50647041  1.0
  S  S37  1  -0.67129325  0.58778719  -0.50647041  1.0
  S  S38  1  -0.29320856  0.70160135  0.14804585  1.0
  S  S39  1  -0.70679144  0.29839865  -0.14804585  1.0
  S  S40  1  -0.17840111  0.82389158  -0.26787333  1.0
  S  S41  1  -0.82159889  0.17610842  0.26787333  1.0
