# generated using pymatgen
data_Sm(BIr)2
_symmetry_space_group_name_H-M   'P 1'
_cell_length_a   7.07632328
_cell_length_b   6.11591239
_cell_length_c   5.58479546
_cell_angle_alpha   74.26980849
_cell_angle_beta   56.29546428
_cell_angle_gamma   49.43472723
_symmetry_Int_Tables_number   1
_chemical_formula_structural   Sm(BIr)2
_chemical_formula_sum   'Sm2 B4 Ir4'
_cell_volume   151.19938078
_cell_formula_units_Z   2
loop_
 _symmetry_equiv_pos_site_id
 _symmetry_equiv_pos_as_xyz
  1  'x, y, z'
loop_
 _atom_site_type_symbol
 _atom_site_label
 _atom_site_symmetry_multiplicity
 _atom_site_fract_x
 _atom_site_fract_y
 _atom_site_fract_z
 _atom_site_occupancy
  Sm  Sm0  1  0.50000000  -0.50000000  0.50000000  1.0
  Sm  Sm1  1  0.75000000  0.75000000  0.75000000  1.0
  B  B2  1  0.82156348  -0.82156348  0.82156348  1.0
  B  B3  1  1.42843652  0.07156348  0.42843652  1.0
  B  B4  1  0.17843652  -0.17843652  0.17843652  1.0
  B  B5  1  1.07156348  0.42843652  0.07156348  1.0
  Ir  Ir6  1  0.86904065  0.86904065  -0.86904065  1.0
  Ir  Ir7  1  0.13095935  0.13095935  -0.13095935  1.0
  Ir  Ir8  1  1.38095935  0.38095935  0.11904065  1.0
  Ir  Ir9  1  0.11904065  0.11904065  1.38095935  1.0
