# generated using pymatgen
data_K3(FeS2)2
_symmetry_space_group_name_H-M   'P 1'
_cell_length_a   7.18952286
_cell_length_b   10.73322124
_cell_length_c   11.74775505
_cell_angle_alpha   90.00000000
_cell_angle_beta   90.00000000
_cell_angle_gamma   90.00000000
_symmetry_Int_Tables_number   1
_chemical_formula_structural   K3(FeS2)2
_chemical_formula_sum   'K12 Fe8 S16'
_cell_volume   906.53595334
_cell_formula_units_Z   4
loop_
 _symmetry_equiv_pos_site_id
 _symmetry_equiv_pos_as_xyz
  1  'x, y, z'
loop_
 _atom_site_type_symbol
 _atom_site_label
 _atom_site_symmetry_multiplicity
 _atom_site_fract_x
 _atom_site_fract_y
 _atom_site_fract_z
 _atom_site_occupancy
  K  K0  1  0.43113891  0.92579612  0.63865153  1.0
  K  K1  1  0.43113891  0.57420388  0.63865153  1.0
  K  K2  1  0.93113891  0.92579612  0.86134847  1.0
  K  K3  1  0.93113891  0.57420388  0.86134847  1.0
  K  K4  1  0.56886109  0.42579612  0.36134847  1.0
  K  K5  1  0.56886109  0.07420388  0.36134847  1.0
  K  K6  1  0.06886109  0.42579612  0.13865153  1.0
  K  K7  1  0.06886109  0.07420388  0.13865153  1.0
  K  K8  1  0.40681393  0.75000000  0.26749723  1.0
  K  K9  1  0.90681393  0.75000000  0.23250277  1.0
  K  K10  1  0.59318607  0.25000000  0.73250277  1.0
  K  K11  1  0.09318607  0.25000000  0.76749723  1.0
  Fe  Fe12  1  0.44767971  0.87088498  0.97230376  1.0
  Fe  Fe13  1  0.44767971  0.62911502  0.97230376  1.0
  Fe  Fe14  1  0.94767971  0.87088498  0.52769624  1.0
  Fe  Fe15  1  0.94767971  0.62911502  0.52769624  1.0
  Fe  Fe16  1  0.55232029  0.37088498  0.02769624  1.0
  Fe  Fe17  1  0.55232029  0.12911502  0.02769624  1.0
  Fe  Fe18  1  0.05232029  0.37088498  0.47230376  1.0
  Fe  Fe19  1  0.05232029  0.12911502  0.47230376  1.0
  S  S20  1  0.35293235  0.44876310  0.89123695  1.0
  S  S21  1  0.35293235  0.05123690  0.89123695  1.0
  S  S22  1  0.85293235  0.44876310  0.60876305  1.0
  S  S23  1  0.85293235  0.05123690  0.60876305  1.0
  S  S24  1  0.64706765  0.94876310  0.10876305  1.0
  S  S25  1  0.64706765  0.55123690  0.10876305  1.0
  S  S26  1  0.14706765  0.94876310  0.39123695  1.0
  S  S27  1  0.14706765  0.55123690  0.39123695  1.0
  S  S28  1  0.20391563  0.75000000  0.03379859  1.0
  S  S29  1  0.70391563  0.75000000  0.46620141  1.0
  S  S30  1  0.79608437  0.25000000  0.96620141  1.0
  S  S31  1  0.29608437  0.25000000  0.53379859  1.0
  S  S32  1  0.08419835  0.75000000  0.65986465  1.0
  S  S33  1  0.58419835  0.75000000  0.84013535  1.0
  S  S34  1  0.91580165  0.25000000  0.34013535  1.0
  S  S35  1  0.41580165  0.25000000  0.15986465  1.0
