# generated using pymatgen
data_Mn3(AsO4)2
_symmetry_space_group_name_H-M   'P 1'
_cell_length_a   9.45018596
_cell_length_b   11.81375192
_cell_length_c   6.52017269
_cell_angle_alpha   90.00000000
_cell_angle_beta   99.70035727
_cell_angle_gamma   90.00000000
_symmetry_Int_Tables_number   1
_chemical_formula_structural   Mn3(AsO4)2
_chemical_formula_sum   'Mn12 As8 O32'
_cell_volume   717.51853097
_cell_formula_units_Z   4
loop_
 _symmetry_equiv_pos_site_id
 _symmetry_equiv_pos_as_xyz
  1  'x, y, z'
loop_
 _atom_site_type_symbol
 _atom_site_label
 _atom_site_symmetry_multiplicity
 _atom_site_fract_x
 _atom_site_fract_y
 _atom_site_fract_z
 _atom_site_occupancy
  Mn  Mn0  1  0.92370258  0.38496082  0.38252295  1.0
  Mn  Mn1  1  0.07629742  0.88496082  0.11747705  1.0
  Mn  Mn2  1  0.07629742  0.61503918  0.61747705  1.0
  Mn  Mn3  1  0.92370258  0.11503918  0.88252295  1.0
  Mn  Mn4  1  0.73301952  0.41434587  0.83926126  1.0
  Mn  Mn5  1  0.26698048  0.91434587  0.66073874  1.0
  Mn  Mn6  1  0.26698048  0.58565413  0.16073874  1.0
  Mn  Mn7  1  0.73301952  0.08565413  0.33926126  1.0
  Mn  Mn8  1  0.36349287  0.30053152  0.62180459  1.0
  Mn  Mn9  1  0.63650713  0.80053152  0.87819541  1.0
  Mn  Mn10  1  0.63650713  0.69946848  0.37819541  1.0
  Mn  Mn11  1  0.36349287  0.19946848  0.12180459  1.0
  As  As12  1  0.09083659  0.36611321  0.89207809  1.0
  As  As13  1  0.90916341  0.86611321  0.60792191  1.0
  As  As14  1  0.90916341  0.63388679  0.10792191  1.0
  As  As15  1  0.09083659  0.13388679  0.39207809  1.0
  As  As16  1  0.60242201  0.41721708  0.31183662  1.0
  As  As17  1  0.39757799  0.91721708  0.18816338  1.0
  As  As18  1  0.39757799  0.58278292  0.68816338  1.0
  As  As19  1  0.60242201  0.08278292  0.81183662  1.0
  O  O20  1  0.07030430  0.43891133  0.65474994  1.0
  O  O21  1  0.92969570  0.93891133  0.84525006  1.0
  O  O22  1  0.92969570  0.56108867  0.34525006  1.0
  O  O23  1  0.07030430  0.06108867  0.15474994  1.0
  O  O24  1  0.47369983  0.31503506  0.33020335  1.0
  O  O25  1  0.52630017  0.81503506  0.16979665  1.0
  O  O26  1  0.52630017  0.68496494  0.66979665  1.0
  O  O27  1  0.47369983  0.18496494  0.83020335  1.0
  O  O28  1  0.93240792  0.28989782  0.89812771  1.0
  O  O29  1  0.06759208  0.78989782  0.60187229  1.0
  O  O30  1  0.06759208  0.71010218  0.10187229  1.0
  O  O31  1  0.93240792  0.21010218  0.39812771  1.0
  O  O32  1  0.71339920  0.38044317  0.13322470  1.0
  O  O33  1  0.28660080  0.88044317  0.36677530  1.0
  O  O34  1  0.28660080  0.61955683  0.86677530  1.0
  O  O35  1  0.71339920  0.11955683  0.63322470  1.0
  O  O36  1  0.23281420  0.27406097  0.87287625  1.0
  O  O37  1  0.76718580  0.77406097  0.62712375  1.0
  O  O38  1  0.76718580  0.72593903  0.12712375  1.0
  O  O39  1  0.23281420  0.22593903  0.37287625  1.0
  O  O40  1  0.73546411  0.41151070  0.53383073  1.0
  O  O41  1  0.26453589  0.91151070  0.96616927  1.0
  O  O42  1  0.26453589  0.58848930  0.46616927  1.0
  O  O43  1  0.73546411  0.08848930  0.03383073  1.0
  O  O44  1  0.13214832  0.44748893  0.11346122  1.0
  O  O45  1  0.86785168  0.94748893  0.38653878  1.0
  O  O46  1  0.86785168  0.55251107  0.88653878  1.0
  O  O47  1  0.13214832  0.05251107  0.61346122  1.0
  O  O48  1  0.52508288  0.55112995  0.26736180  1.0
  O  O49  1  0.47491712  0.05112995  0.23263820  1.0
  O  O50  1  0.47491712  0.44887005  0.73263820  1.0
  O  O51  1  0.52508288  0.94887005  0.76736180  1.0
