# generated using pymatgen
data_SrH6C4O7
_symmetry_space_group_name_H-M   'P 1'
_cell_length_a   7.45553880
_cell_length_b   7.45553880
_cell_length_c   8.52396438
_cell_angle_alpha   82.80897290
_cell_angle_beta   97.19102710
_cell_angle_gamma   126.53596459
_symmetry_Int_Tables_number   1
_chemical_formula_structural   SrH6C4O7
_chemical_formula_sum   'Sr2 H12 C8 O14'
_cell_volume   376.93669627
_cell_formula_units_Z   2
loop_
 _symmetry_equiv_pos_site_id
 _symmetry_equiv_pos_as_xyz
  1  'x, y, z'
loop_
 _atom_site_type_symbol
 _atom_site_label
 _atom_site_symmetry_multiplicity
 _atom_site_fract_x
 _atom_site_fract_y
 _atom_site_fract_z
 _atom_site_occupancy
  Sr  Sr0  1  0.99028504  0.99028504  0.75000000  1.0
  Sr  Sr1  1  0.00971496  0.00971496  0.25000000  1.0
  H  H2  1  0.46640730  -0.44217469  0.68376686  1.0
  H  H3  1  1.44217469  0.53359270  0.18376686  1.0
  H  H4  1  0.55782531  0.46640730  0.81623314  1.0
  H  H5  1  0.53359270  0.44217469  0.31623314  1.0
  H  H6  1  0.48696407  0.11510984  0.85367397  1.0
  H  H7  1  0.88489016  0.51303593  0.35367397  1.0
  H  H8  1  1.11510984  0.48696407  0.64632603  1.0
  H  H9  1  0.51303593  -0.11510984  0.14632603  1.0
  H  H10  1  0.41363483  0.14785275  1.00805952  1.0
  H  H11  1  0.85214725  0.58636517  0.50805952  1.0
  H  H12  1  1.14785275  0.41363483  0.49194048  1.0
  H  H13  1  0.58636517  -0.14785275  -0.00805952  1.0
  C  C14  1  0.62165067  -0.02177695  0.48340685  1.0
  C  C15  1  1.02177695  0.37834933  0.98340685  1.0
  C  C16  1  0.97822305  0.62165067  0.01659315  1.0
  C  C17  1  0.37834933  0.02177695  0.51659315  1.0
  C  C18  1  0.54588617  0.01186114  0.62095291  1.0
  C  C19  1  0.98813886  0.45411383  0.12095291  1.0
  C  C20  1  1.01186114  0.54588617  0.87904709  1.0
  C  C21  1  0.45411383  -0.01186114  0.37904709  1.0
  O  O22  1  0.77209356  -0.04689861  0.47042245  1.0
  O  O23  1  1.04689861  0.22790644  0.97042245  1.0
  O  O24  1  0.95310139  0.77209356  0.02957755  1.0
  O  O25  1  0.22790644  0.04689861  0.52957755  1.0
  O  O26  1  0.60963036  0.02749739  0.76612853  1.0
  O  O27  1  0.97250261  0.39036964  0.26612853  1.0
  O  O28  1  1.02749739  0.60963036  0.73387147  1.0
  O  O29  1  0.39036964  -0.02749739  0.23387147  1.0
  O  O30  1  0.40730640  0.17067274  0.89260514  1.0
  O  O31  1  0.82932726  0.59269360  0.39260514  1.0
  O  O32  1  1.17067274  0.40730640  0.60739486  1.0
  O  O33  1  0.59269360  -0.17067274  0.10739486  1.0
  O  O34  1  0.60411700  0.60411700  0.75000000  1.0
  O  O35  1  0.39588300  0.39588300  0.25000000  1.0
