# generated using pymatgen
data_La10S19
_symmetry_space_group_name_H-M   'P 1'
_cell_length_a   9.15927210
_cell_length_b   9.15927210
_cell_length_c   16.40098771
_cell_angle_alpha   90.00000000
_cell_angle_beta   90.00000000
_cell_angle_gamma   90.00000000
_symmetry_Int_Tables_number   1
_chemical_formula_structural   La10S19
_chemical_formula_sum   'La20 S38'
_cell_volume   1375.91601332
_cell_formula_units_Z   2
loop_
 _symmetry_equiv_pos_site_id
 _symmetry_equiv_pos_as_xyz
  1  'x, y, z'
loop_
 _atom_site_type_symbol
 _atom_site_label
 _atom_site_symmetry_multiplicity
 _atom_site_fract_x
 _atom_site_fract_y
 _atom_site_fract_z
 _atom_site_occupancy
  La  La0  1  0.50000000  -0.00000000  0.63664325  1.0
  La  La1  1  0.50000000  -0.00000000  0.13664325  1.0
  La  La2  1  0.00000000  0.50000000  0.86335675  1.0
  La  La3  1  0.00000000  0.50000000  0.36335675  1.0
  La  La4  1  0.09781599  0.20861445  0.12752291  1.0
  La  La5  1  0.90218401  0.79138555  0.12752291  1.0
  La  La6  1  0.70861445  0.40218401  0.62752291  1.0
  La  La7  1  0.29138555  0.59781599  0.62752291  1.0
  La  La8  1  0.40218401  0.29138555  0.37247709  1.0
  La  La9  1  0.59781599  0.70861445  0.37247709  1.0
  La  La10  1  0.79138555  0.09781599  0.87247709  1.0
  La  La11  1  0.20861445  0.90218401  0.87247709  1.0
  La  La12  1  0.10319721  0.19420466  0.64850839  1.0
  La  La13  1  0.89680279  0.80579534  0.64850839  1.0
  La  La14  1  0.69420466  0.39680279  0.14850839  1.0
  La  La15  1  0.30579534  0.60319721  0.14850839  1.0
  La  La16  1  0.39680279  0.30579534  0.85149161  1.0
  La  La17  1  0.60319721  0.69420466  0.85149161  1.0
  La  La18  1  0.80579534  0.10319721  0.35149161  1.0
  La  La19  1  0.19420466  0.89680279  0.35149161  1.0
  S  S20  1  0.50000000  -0.00000000  0.81699326  1.0
  S  S21  1  0.50000000  -0.00000000  0.31699326  1.0
  S  S22  1  0.00000000  0.50000000  0.68300674  1.0
  S  S23  1  0.00000000  0.50000000  0.18300674  1.0
  S  S24  1  0.09886005  0.20142211  0.82545255  1.0
  S  S25  1  0.90113995  0.79857789  0.82545255  1.0
  S  S26  1  0.70142211  0.40113995  0.32545255  1.0
  S  S27  1  0.29857789  0.59886005  0.32545255  1.0
  S  S28  1  0.40113995  0.29857789  0.67454745  1.0
  S  S29  1  0.59886005  0.70142211  0.67454745  1.0
  S  S30  1  0.79857789  0.09886005  0.17454745  1.0
  S  S31  1  0.20142211  0.90113995  0.17454745  1.0
  S  S32  1  0.10203347  0.19629806  0.31230742  1.0
  S  S33  1  0.89796653  0.80370194  0.31230742  1.0
  S  S34  1  0.69629806  0.39796653  0.81230742  1.0
  S  S35  1  0.30370194  0.60203347  0.81230742  1.0
  S  S36  1  0.39796653  0.30370194  0.18769258  1.0
  S  S37  1  0.60203347  0.69629806  0.18769258  1.0
  S  S38  1  0.80370194  0.10203347  0.68769258  1.0
  S  S39  1  0.19629806  0.89796653  0.68769258  1.0
  S  S40  1  0.50000000  0.50000000  0.50000000  1.0
  S  S41  1  0.00000000  0.00000000  0.00000000  1.0
  S  S42  1  0.44768253  0.78033889  0.00118499  1.0
  S  S43  1  0.55231747  0.21966111  0.00118499  1.0
  S  S44  1  0.28033889  0.05231747  0.50118499  1.0
  S  S45  1  0.71966111  0.94768253  0.50118499  1.0
  S  S46  1  0.05231747  0.71966111  0.49881501  1.0
  S  S47  1  0.94768253  0.28033889  0.49881501  1.0
  S  S48  1  0.21966111  0.44768253  0.99881501  1.0
  S  S49  1  0.78033889  0.55231747  0.99881501  1.0
  S  S50  1  0.35874806  0.83069415  0.49988646  1.0
  S  S51  1  0.64125194  0.16930585  0.49988646  1.0
  S  S52  1  0.33069415  0.14125194  -0.00011354  1.0
  S  S53  1  0.66930585  0.85874806  -0.00011354  1.0
  S  S54  1  0.14125194  0.66930585  1.00011354  1.0
  S  S55  1  0.85874806  0.33069415  1.00011354  1.0
  S  S56  1  0.16930585  0.35874806  0.50011354  1.0
  S  S57  1  0.83069415  0.64125194  0.50011354  1.0
