# generated using pymatgen
data_LiFeAs
_symmetry_space_group_name_H-M   'P 1'
_cell_length_a   4.04954354
_cell_length_b   4.04954354
_cell_length_c   10.30240694
_cell_angle_alpha   90.00000000
_cell_angle_beta   90.00000000
_cell_angle_gamma   120.00000000
_symmetry_Int_Tables_number   1
_chemical_formula_structural   LiFeAs
_chemical_formula_sum   'Li4 Fe4 As4'
_cell_volume   146.31251551
_cell_formula_units_Z   4
loop_
 _symmetry_equiv_pos_site_id
 _symmetry_equiv_pos_as_xyz
  1  'x, y, z'
loop_
 _atom_site_type_symbol
 _atom_site_label
 _atom_site_symmetry_multiplicity
 _atom_site_fract_x
 _atom_site_fract_y
 _atom_site_fract_z
 _atom_site_occupancy
  Li  Li0  1  0.66666667  0.33333333  0.36183858  1.0
  Li  Li1  1  0.33333333  0.66666667  0.63816142  1.0
  Li  Li2  1  -0.00000000  -0.00000000  0.74969909  1.0
  Li  Li3  1  0.00000000  0.00000000  0.25030091  1.0
  Fe  Fe4  1  0.00000000  -0.00000000  0.50000000  1.0
  Fe  Fe5  1  0.66666667  0.33333333  0.86273137  1.0
  Fe  Fe6  1  0.33333333  0.66666667  0.13726863  1.0
  Fe  Fe7  1  -0.00000000  -0.00000000  0.00000000  1.0
  As  As8  1  0.66666667  0.33333333  0.10551249  1.0
  As  As9  1  0.33333333  0.66666667  0.89448751  1.0
  As  As10  1  0.66666667  0.33333333  0.61767519  1.0
  As  As11  1  0.33333333  0.66666667  0.38232481  1.0
