# generated using pymatgen
data_GeS2
_symmetry_space_group_name_H-M   'P 1'
_cell_length_a   12.25062438
_cell_length_b   6.93837272
_cell_length_c   12.77363015
_cell_angle_alpha   69.79224173
_cell_angle_beta   32.10731851
_cell_angle_gamma   78.10043976
_symmetry_Int_Tables_number   1
_chemical_formula_structural   GeS2
_chemical_formula_sum   'Ge6 S12'
_cell_volume   533.37619121
_cell_formula_units_Z   6
loop_
 _symmetry_equiv_pos_site_id
 _symmetry_equiv_pos_as_xyz
  1  'x, y, z'
loop_
 _atom_site_type_symbol
 _atom_site_label
 _atom_site_symmetry_multiplicity
 _atom_site_fract_x
 _atom_site_fract_y
 _atom_site_fract_z
 _atom_site_occupancy
  Ge  Ge0  1  1.01800462  0.01800462  -0.01800462  1.0
  Ge  Ge1  1  0.26800462  0.26800462  1.23199538  1.0
  Ge  Ge2  1  0.27711434  0.72476536  0.99651290  1.0
  Ge  Ge3  1  1.25348710  0.24839260  -0.02711434  1.0
  Ge  Ge4  1  0.72476536  -0.72288566  1.00160740  1.0
  Ge  Ge5  1  0.24839260  0.25348710  1.52523464  1.0
  S  S6  1  0.47971445  1.04229629  0.77655615  1.0
  S  S7  1  0.47344385  -0.45143310  0.77028555  1.0
  S  S8  1  1.04229629  -0.52028555  0.70143310  1.0
  S  S9  1  0.54856690  0.47344385  1.20770371  1.0
  S  S10  1  -0.03897796  0.72817940  1.18248350  1.0
  S  S11  1  0.06751650  0.12168494  1.28897796  1.0
  S  S12  1  1.72817940  -0.03897796  0.12831506  1.0
  S  S13  1  0.12168494  0.06751650  1.52182060  1.0
  S  S14  1  0.22361037  0.60089311  1.22706397  1.0
  S  S15  1  1.02293603  0.30156745  0.02638963  1.0
  S  S16  1  1.60089311  0.22361037  -0.05156745  1.0
  S  S17  1  0.30156745  0.02293603  1.64910689  1.0
