# generated using pymatgen
data_Na3Mg2(MoO4)3
_symmetry_space_group_name_H-M   'P 1'
_cell_length_a   9.18227164
_cell_length_b   9.18227164
_cell_length_c   7.13802320
_cell_angle_alpha   75.15969377
_cell_angle_beta   104.84030623
_cell_angle_gamma   86.14335263
_symmetry_Int_Tables_number   1
_chemical_formula_structural   Na3Mg2(MoO4)3
_chemical_formula_sum   'Na6 Mg4 Mo6 O24'
_cell_volume   556.64162566
_cell_formula_units_Z   2
loop_
 _symmetry_equiv_pos_site_id
 _symmetry_equiv_pos_as_xyz
  1  'x, y, z'
loop_
 _atom_site_type_symbol
 _atom_site_label
 _atom_site_symmetry_multiplicity
 _atom_site_fract_x
 _atom_site_fract_y
 _atom_site_fract_z
 _atom_site_occupancy
  Mg  Mg0  1  1.55444301  0.12662097  0.62325286  1.0
  Mg  Mg1  1  0.87337903  -0.55444301  0.12325286  1.0
  Mg  Mg2  1  1.12662097  0.55444301  0.87674714  1.0
  Mg  Mg3  1  0.44555699  -0.12662097  0.37674714  1.0
  O  O4  1  0.65987858  -0.25581203  0.52836927  1.0
  O  O5  1  1.25581203  0.34012142  0.02836927  1.0
  O  O6  1  0.74418797  -0.34012142  0.97163073  1.0
  O  O7  1  1.34012142  0.25581203  0.47163073  1.0
  O  O8  1  0.75578925  -0.02355639  0.75646307  1.0
  O  O9  1  1.02355639  0.24421075  0.25646307  1.0
  O  O10  1  0.97644361  -0.24421075  0.74353693  1.0
  O  O11  1  1.24421075  0.02355639  0.24353693  1.0
  O  O12  1  0.45723776  -0.09551540  0.66659276  1.0
  O  O13  1  1.09551540  0.54276224  0.16659276  1.0
  O  O14  1  0.90448460  -0.54276224  0.83340724  1.0
  O  O15  1  1.54276224  0.09551540  0.33340724  1.0
  O  O16  1  1.50632493  0.15345840  0.88151023  1.0
  O  O17  1  0.84654160  -0.50632493  0.38151023  1.0
  O  O18  1  1.15345840  0.50632493  0.61848977  1.0
  O  O19  1  0.49367507  -0.15345840  0.11848977  1.0
  O  O20  1  1.64864138  0.33572905  0.59495794  1.0
  O  O21  1  0.66427095  -0.64864138  0.09495794  1.0
  O  O22  1  1.33572905  0.64864138  0.90504206  1.0
  O  O23  1  0.35135862  -0.33572905  0.40504206  1.0
  O  O24  1  0.20369092  -0.03395736  0.81378655  1.0
  O  O25  1  1.03395736  0.79630908  0.31378655  1.0
  O  O26  1  0.96604264  -0.79630908  0.68621345  1.0
  O  O27  1  1.79630908  0.03395736  0.18621345  1.0
  Mo  Mo28  1  0.37532645  -0.15686190  0.87702862  1.0
  Mo  Mo29  1  1.15686190  0.62467355  0.37702862  1.0
  Mo  Mo30  1  0.84313810  -0.62467355  0.62297138  1.0
  Mo  Mo31  1  1.62467355  0.15686190  0.12297138  1.0
  Mo  Mo32  1  0.78150709  -0.21849291  0.75000000  1.0
  Mo  Mo33  1  1.21849291  0.21849291  0.25000000  1.0
  Na  Na34  1  0.51926181  -0.48073819  0.75000000  1.0
  Na  Na35  1  1.48073819  0.48073819  0.25000000  1.0
  Na  Na36  1  1.23561402  0.23561402  0.75000000  1.0
  Na  Na37  1  0.76438598  -0.23561402  0.25000000  1.0
  Na  Na38  1  0.00000000  0.00000000  0.00000000  1.0
  Na  Na39  1  0.00000000  -0.00000000  0.50000000  1.0
