# generated using pymatgen
data_Sr2H3NO6
_symmetry_space_group_name_H-M   'P 1'
_cell_length_a   6.68526477
_cell_length_b   6.68526477
_cell_length_c   3.58816750
_cell_angle_alpha   90.00000000
_cell_angle_beta   90.00000000
_cell_angle_gamma   120.00000000
_symmetry_Int_Tables_number   1
_chemical_formula_structural   Sr2H3NO6
_chemical_formula_sum   'Sr2 H3 N1 O6'
_cell_volume   138.88027406
_cell_formula_units_Z   1
loop_
 _symmetry_equiv_pos_site_id
 _symmetry_equiv_pos_as_xyz
  1  'x, y, z'
loop_
 _atom_site_type_symbol
 _atom_site_label
 _atom_site_symmetry_multiplicity
 _atom_site_fract_x
 _atom_site_fract_y
 _atom_site_fract_z
 _atom_site_occupancy
  Sr  Sr0  1  0.33333333  0.66666667  0.00000000  1.0
  Sr  Sr1  1  0.66666667  0.33333333  0.00000000  1.0
  H  H2  1  0.31061507  0.31061507  0.50000000  1.0
  H  H3  1  0.00000000  0.68938493  0.50000000  1.0
  H  H4  1  0.68938493  0.00000000  0.50000000  1.0
  N  N5  1  0.00000000  0.00000000  0.00000000  1.0
  O  O6  1  0.45615200  0.45615200  0.50000000  1.0
  O  O7  1  0.00000000  0.54384800  0.50000000  1.0
  O  O8  1  0.54384800  0.00000000  0.50000000  1.0
  O  O9  1  0.81116604  0.81116604  0.00000000  1.0
  O  O10  1  -0.00000000  0.18883396  0.00000000  1.0
  O  O11  1  0.18883396  0.00000000  0.00000000  1.0
