# generated using pymatgen
data_Be2SiO4
_symmetry_space_group_name_H-M   'P 1'
_cell_length_a   7.77615611
_cell_length_b   7.77615611
_cell_length_c   7.77615611
_cell_angle_alpha   108.01161310
_cell_angle_beta   108.01161310
_cell_angle_gamma   108.01161310
_symmetry_Int_Tables_number   1
_chemical_formula_structural   Be2SiO4
_chemical_formula_sum   'Be12 Si6 O24'
_cell_volume   380.27451886
_cell_formula_units_Z   6
loop_
 _symmetry_equiv_pos_site_id
 _symmetry_equiv_pos_as_xyz
  1  'x, y, z'
loop_
 _atom_site_type_symbol
 _atom_site_label
 _atom_site_symmetry_multiplicity
 _atom_site_fract_x
 _atom_site_fract_y
 _atom_site_fract_z
 _atom_site_occupancy
  Be  Be0  1  0.70581554  1.10992140  -0.06884533  1.0
  Be  Be1  1  0.89007860  0.06884533  0.29418446  1.0
  Be  Be2  1  1.06884533  0.29418446  -0.10992140  1.0
  Be  Be3  1  1.29418446  -0.10992140  0.06884533  1.0
  Be  Be4  1  1.10992140  0.93115467  -0.29418446  1.0
  Be  Be5  1  0.93115467  0.70581554  0.10992140  1.0
  Be  Be6  1  1.37293002  0.77872282  -0.39856200  1.0
  Be  Be7  1  1.22127718  0.39856200  -0.37293002  1.0
  Be  Be8  1  1.39856200  -0.37293002  0.22127718  1.0
  Be  Be9  1  0.62706998  0.22127718  0.39856200  1.0
  Be  Be10  1  0.77872282  0.60143800  0.37293002  1.0
  Be  Be11  1  0.60143800  1.37293002  -0.22127718  1.0
  Si  Si12  1  1.55438291  0.73433192  -0.03862393  1.0
  Si  Si13  1  0.26566808  1.03862393  -0.55438291  1.0
  Si  Si14  1  1.03862393  0.44561709  -0.73433192  1.0
  Si  Si15  1  0.44561709  0.26566808  0.03862393  1.0
  Si  Si16  1  1.73433192  -0.03862393  0.55438291  1.0
  Si  Si17  1  0.96137607  0.55438291  0.73433192  1.0
  O  O18  1  0.79343896  0.82900863  0.12389554  1.0
  O  O19  1  1.17099137  -0.12389554  0.20656104  1.0
  O  O20  1  0.87610446  0.20656104  0.17099137  1.0
  O  O21  1  1.20656104  0.17099137  -0.12389554  1.0
  O  O22  1  0.82900863  1.12389554  -0.20656104  1.0
  O  O23  1  1.12389554  0.79343896  -0.17099137  1.0
  O  O24  1  1.46238670  0.49708981  -0.20592985  1.0
  O  O25  1  0.50291019  1.20592985  -0.46238670  1.0
  O  O26  1  1.20592985  0.53761330  -0.49708981  1.0
  O  O27  1  0.53761330  0.50291019  0.20592985  1.0
  O  O28  1  1.49708981  -0.20592985  0.46238670  1.0
  O  O29  1  0.79407015  0.46238670  0.49708981  1.0
  O  O30  1  1.54048369  0.87135091  -0.16272909  1.0
  O  O31  1  1.12864909  0.16272909  -0.54048369  1.0
  O  O32  1  1.16272909  -0.54048369  0.12864909  1.0
  O  O33  1  0.45951631  0.12864909  0.16272909  1.0
  O  O34  1  0.87135091  0.83727091  0.54048369  1.0
  O  O35  1  0.83727091  1.54048369  -0.12864909  1.0
  O  O36  1  0.58378463  1.24944025  -0.08354739  1.0
  O  O37  1  0.75055975  0.08354739  0.41621537  1.0
  O  O38  1  1.08354739  0.41621537  -0.24944025  1.0
  O  O39  1  1.41621537  -0.24944025  0.08354739  1.0
  O  O40  1  1.24944025  0.91645261  -0.41621537  1.0
  O  O41  1  0.91645261  0.58378463  0.24944025  1.0
