# generated using pymatgen
data_Bi2Te4Pb
_symmetry_space_group_name_H-M   'P 1'
_cell_length_a   14.00112731
_cell_length_b   14.00112731
_cell_length_c   14.00112731
_cell_angle_alpha   18.48919047
_cell_angle_beta   18.48919047
_cell_angle_gamma   18.48919047
_symmetry_Int_Tables_number   1
_chemical_formula_structural   Bi2Te4Pb
_chemical_formula_sum   'Bi2 Te4 Pb1'
_cell_volume   241.12061073
_cell_formula_units_Z   1
loop_
 _symmetry_equiv_pos_site_id
 _symmetry_equiv_pos_as_xyz
  1  'x, y, z'
loop_
 _atom_site_type_symbol
 _atom_site_label
 _atom_site_symmetry_multiplicity
 _atom_site_fract_x
 _atom_site_fract_y
 _atom_site_fract_z
 _atom_site_occupancy
  Bi  Bi0  1  0.86198352  0.86198352  0.86198352  1.0
  Bi  Bi1  1  1.13801648  1.13801648  0.13801648  1.0
  Te  Te2  1  1.56979646  0.56979646  0.56979646  1.0
  Te  Te3  1  1.43020354  0.43020354  0.43020354  1.0
  Te  Te4  1  0.71316388  0.71316388  0.71316388  1.0
  Te  Te5  1  1.28683612  1.28683612  0.28683612  1.0
  Pb  Pb6  1  0.00000000  0.00000000  0.00000000  1.0
