# generated using pymatgen
data_LaTe3
_symmetry_space_group_name_H-M   'P 1'
_cell_length_a   14.16545009
_cell_length_b   14.16545009
_cell_length_c   4.43131138
_cell_angle_alpha   90.00000000
_cell_angle_beta   90.00000000
_cell_angle_gamma   162.01172625
_symmetry_Int_Tables_number   1
_chemical_formula_structural   LaTe3
_chemical_formula_sum   'La2 Te6'
_cell_volume   274.60076226
_cell_formula_units_Z   2
loop_
 _symmetry_equiv_pos_site_id
 _symmetry_equiv_pos_as_xyz
  1  'x, y, z'
loop_
 _atom_site_type_symbol
 _atom_site_label
 _atom_site_symmetry_multiplicity
 _atom_site_fract_x
 _atom_site_fract_y
 _atom_site_fract_z
 _atom_site_occupancy
  La  La0  1  -0.82723337  0.82723337  0.25000000  1.0
  La  La1  1  -0.17276663  1.17276663  0.75000000  1.0
  Te  Te2  1  -0.42149700  1.42149700  0.25000000  1.0
  Te  Te3  1  -0.57850300  0.57850300  0.75000000  1.0
  Te  Te4  1  -0.70655493  0.70655493  0.25000000  1.0
  Te  Te5  1  -0.29344507  1.29344507  0.75000000  1.0
  Te  Te6  1  -0.07850754  1.07850754  0.25000000  1.0
  Te  Te7  1  -0.92149246  0.92149246  0.75000000  1.0
