# generated using pymatgen
data_Sr2Fe(PO4)3
_symmetry_space_group_name_H-M   'P 1'
_cell_length_a   8.32263533
_cell_length_b   8.32263533
_cell_length_c   9.07697320
_cell_angle_alpha   65.87438886
_cell_angle_beta   114.12561114
_cell_angle_gamma   82.86013999
_symmetry_Int_Tables_number   1
_chemical_formula_structural   Sr2Fe(PO4)3
_chemical_formula_sum   'Sr4 Fe2 P6 O24'
_cell_volume   490.60411821
_cell_formula_units_Z   2
loop_
 _symmetry_equiv_pos_site_id
 _symmetry_equiv_pos_as_xyz
  1  'x, y, z'
loop_
 _atom_site_type_symbol
 _atom_site_label
 _atom_site_symmetry_multiplicity
 _atom_site_fract_x
 _atom_site_fract_y
 _atom_site_fract_z
 _atom_site_occupancy
  Fe  Fe0  1  1.50000000  0.00000000  0.50000000  1.0
  Fe  Fe1  1  1.00000000  -0.50000000  -0.00000000  1.0
  O  O2  1  1.48671654  0.32949213  0.97281017  1.0
  O  O3  1  0.67050787  -0.48671654  0.47281017  1.0
  O  O4  1  1.32949213  0.48671654  0.52718983  1.0
  O  O5  1  0.51328346  -0.32949213  0.02718983  1.0
  O  O6  1  1.90536009  0.08360156  0.29420597  1.0
  O  O7  1  0.91639844  -0.90536009  0.79420597  1.0
  O  O8  1  1.08360156  0.90536009  0.20579403  1.0
  O  O9  1  0.09463991  -0.08360156  0.70579403  1.0
  O  O10  1  0.69109838  -0.09766664  0.97718712  1.0
  O  O11  1  1.09766664  0.30890162  0.47718712  1.0
  O  O12  1  0.90233336  -0.30890162  0.52281288  1.0
  O  O13  1  1.30890162  0.09766664  0.02281288  1.0
  O  O14  1  1.74561986  -0.01404670  0.57681567  1.0
  O  O15  1  1.01404670  -0.74561986  0.07681567  1.0
  O  O16  1  0.98595330  0.74561986  0.92318433  1.0
  O  O17  1  0.25438014  0.01404670  0.42318433  1.0
  O  O18  1  0.54085629  -0.19611540  0.73397105  1.0
  O  O19  1  1.19611540  0.45914371  0.23397105  1.0
  O  O20  1  0.80388460  -0.45914371  0.76602895  1.0
  O  O21  1  1.45914371  0.19611540  0.26602895  1.0
  O  O22  1  1.44876104  0.18802427  0.55786141  1.0
  O  O23  1  0.81197573  -0.44876104  0.05786141  1.0
  O  O24  1  1.18802427  0.44876104  0.94213859  1.0
  O  O25  1  0.55123896  -0.18802427  0.44213859  1.0
  Sr  Sr26  1  1.67411125  0.23014564  0.83864866  1.0
  Sr  Sr27  1  0.76985436  -0.67411125  0.33864866  1.0
  Sr  Sr28  1  1.23014564  0.67411125  0.66135134  1.0
  Sr  Sr29  1  0.32588875  -0.23014564  0.16135134  1.0
  P  P30  1  0.63897658  -0.25400254  0.94969457  1.0
  P  P31  1  1.25400254  0.36102342  0.44969457  1.0
  P  P32  1  0.74599746  -0.36102342  0.55030543  1.0
  P  P33  1  1.36102342  0.25400254  0.05030543  1.0
  P  P34  1  0.93950973  -0.06049027  0.75000000  1.0
  P  P35  1  1.06049027  0.06049027  0.25000000  1.0
