# generated using pymatgen
data_BTe3(OF5)3
_symmetry_space_group_name_H-M   'P 1'
_cell_length_a   9.76831488
_cell_length_b   9.76831488
_cell_length_c   10.26949780
_cell_angle_alpha   90.00000000
_cell_angle_beta   90.00000000
_cell_angle_gamma   120.00000000
_symmetry_Int_Tables_number   1
_chemical_formula_structural   BTe3(OF5)3
_chemical_formula_sum   'B2 Te6 O6 F30'
_cell_volume   848.63148168
_cell_formula_units_Z   2
loop_
 _symmetry_equiv_pos_site_id
 _symmetry_equiv_pos_as_xyz
  1  'x, y, z'
loop_
 _atom_site_type_symbol
 _atom_site_label
 _atom_site_symmetry_multiplicity
 _atom_site_fract_x
 _atom_site_fract_y
 _atom_site_fract_z
 _atom_site_occupancy
  B  B0  1  0.33333333  0.66666667  0.25000000  1.0
  B  B1  1  0.66666667  0.33333333  0.75000000  1.0
  Te  Te2  1  0.35161916  0.98628844  0.25000000  1.0
  Te  Te3  1  0.98628844  0.63466928  0.75000000  1.0
  Te  Te4  1  0.63466928  0.64838084  0.25000000  1.0
  Te  Te5  1  0.01371156  0.36533072  0.25000000  1.0
  Te  Te6  1  0.64838084  0.01371156  0.75000000  1.0
  Te  Te7  1  0.36533072  0.35161916  0.75000000  1.0
  O  O8  1  0.42377651  0.82931510  0.25000000  1.0
  O  O9  1  0.82931510  0.40553858  0.75000000  1.0
  O  O10  1  0.40553858  0.57622349  0.25000000  1.0
  O  O11  1  0.17068490  0.59446142  0.25000000  1.0
  O  O12  1  0.57622349  0.17068490  0.75000000  1.0
  O  O13  1  0.59446142  0.42377651  0.75000000  1.0
  F  F14  1  0.19677923  0.87616834  0.38420260  1.0
  F  F15  1  0.19677923  0.87616834  0.11579740  1.0
  F  F16  1  0.87616834  0.67938911  0.88420260  1.0
  F  F17  1  0.87616834  0.67938911  0.61579740  1.0
  F  F18  1  0.67938911  0.80322077  0.38420260  1.0
  F  F19  1  0.67938911  0.80322077  0.11579740  1.0
  F  F20  1  0.12383166  0.32061089  0.38420260  1.0
  F  F21  1  0.12383166  0.32061089  0.11579740  1.0
  F  F22  1  0.80322077  0.12383166  0.88420260  1.0
  F  F23  1  0.80322077  0.12383166  0.61579740  1.0
  F  F24  1  0.32061089  0.19677923  0.88420260  1.0
  F  F25  1  0.32061089  0.19677923  0.61579740  1.0
  F  F26  1  0.59470086  0.49211292  0.38119530  1.0
  F  F27  1  0.59470086  0.49211292  0.11880470  1.0
  F  F28  1  0.49211292  0.89741206  0.88119530  1.0
  F  F29  1  0.49211292  0.89741206  0.61880470  1.0
  F  F30  1  0.89741206  0.40529914  0.38119530  1.0
  F  F31  1  0.89741206  0.40529914  0.11880470  1.0
  F  F32  1  0.50788708  0.10258794  0.38119530  1.0
  F  F33  1  0.50788708  0.10258794  0.11880470  1.0
  F  F34  1  0.40529914  0.50788708  0.88119530  1.0
  F  F35  1  0.40529914  0.50788708  0.61880470  1.0
  F  F36  1  0.10258794  0.59470086  0.88119530  1.0
  F  F37  1  0.10258794  0.59470086  0.61880470  1.0
  F  F38  1  0.85429834  0.70734413  0.25000000  1.0
  F  F39  1  0.70734413  0.85304580  0.75000000  1.0
  F  F40  1  0.85304580  0.14570166  0.25000000  1.0
  F  F41  1  0.29265587  0.14695420  0.25000000  1.0
  F  F42  1  0.14570166  0.29265587  0.75000000  1.0
  F  F43  1  0.14695420  0.85429834  0.75000000  1.0
