# generated using pymatgen
data_MgXe
_symmetry_space_group_name_H-M   'P 1'
_cell_length_a   4.27669377
_cell_length_b   4.27669377
_cell_length_c   13.01007103
_cell_angle_alpha   90.00000000
_cell_angle_beta   90.00000000
_cell_angle_gamma   90.00000000
_symmetry_Int_Tables_number   1
_chemical_formula_structural   MgXe
_chemical_formula_sum   'Mg2 Xe2'
_cell_volume   237.95562542
_cell_formula_units_Z   2
loop_
 _symmetry_equiv_pos_site_id
 _symmetry_equiv_pos_as_xyz
  1  'x, y, z'
loop_
 _atom_site_type_symbol
 _atom_site_label
 _atom_site_symmetry_multiplicity
 _atom_site_fract_x
 _atom_site_fract_y
 _atom_site_fract_z
 _atom_site_occupancy
  Mg  Mg0  1  0.00000000  0.50000000  0.49891519  1.0
  Mg  Mg1  1  0.50000000  0.00000000  0.50108481  1.0
  Xe  Xe2  1  0.00000000  0.50000000  0.84432618  1.0
  Xe  Xe3  1  0.50000000  0.00000000  0.15567382  1.0
