# generated using pymatgen
data_IO2
_symmetry_space_group_name_H-M   'P 1'
_cell_length_a   8.10685000
_cell_length_b   7.14003807
_cell_length_c   8.10248267
_cell_angle_alpha   90.00000000
_cell_angle_beta   115.62848602
_cell_angle_gamma   90.00000000
_symmetry_Int_Tables_number   1
_chemical_formula_structural   IO2
_chemical_formula_sum   'I8 O16'
_cell_volume   422.85663808
_cell_formula_units_Z   8
loop_
 _symmetry_equiv_pos_site_id
 _symmetry_equiv_pos_as_xyz
  1  'x, y, z'
loop_
 _atom_site_type_symbol
 _atom_site_label
 _atom_site_symmetry_multiplicity
 _atom_site_fract_x
 _atom_site_fract_y
 _atom_site_fract_z
 _atom_site_occupancy
  I  I0  1  0.69454386  0.25828232  0.35291148  1.0
  I  I1  1  0.69454386  0.24171768  0.85291148  1.0
  I  I2  1  0.30545614  0.75828232  0.14708852  1.0
  I  I3  1  0.30545614  0.74171768  0.64708852  1.0
  I  I4  1  0.86473305  0.87589471  0.18683016  1.0
  I  I5  1  0.86473305  0.62410529  0.68683016  1.0
  I  I6  1  0.13526695  0.37589471  0.31316984  1.0
  I  I7  1  0.13526695  0.12410529  0.81316984  1.0
  O  O8  1  0.69421009  0.34682668  0.13285654  1.0
  O  O9  1  0.69421009  0.15317332  0.63285654  1.0
  O  O10  1  0.30578991  0.84682668  0.36714346  1.0
  O  O11  1  0.30578991  0.65317332  0.86714346  1.0
  O  O12  1  0.95584294  0.24673743  0.48678104  1.0
  O  O13  1  0.95584294  0.25326257  0.98678104  1.0
  O  O14  1  0.04415706  0.74673743  0.01321896  1.0
  O  O15  1  0.04415706  0.75326257  0.51321896  1.0
  O  O16  1  0.69558428  0.96440665  0.28978433  1.0
  O  O17  1  0.69558428  0.53559335  0.78978433  1.0
  O  O18  1  0.30441572  0.46440665  0.21021567  1.0
  O  O19  1  0.30441572  0.03559335  0.71021567  1.0
  O  O20  1  0.70049064  0.95488314  0.93305152  1.0
  O  O21  1  0.70049064  0.54511686  0.43305152  1.0
  O  O22  1  0.29950936  0.45488314  0.56694848  1.0
  O  O23  1  0.29950936  0.04511686  0.06694848  1.0
