# generated using pymatgen
data_K4SnSe4
_symmetry_space_group_name_H-M   'P 1'
_cell_length_a   14.97935883
_cell_length_b   10.45783554
_cell_length_c   8.37368540
_cell_angle_alpha   90.00000000
_cell_angle_beta   90.00000000
_cell_angle_gamma   90.00000000
_symmetry_Int_Tables_number   1
_chemical_formula_structural   K4SnSe4
_chemical_formula_sum   'K16 Sn4 Se16'
_cell_volume   1311.75181096
_cell_formula_units_Z   4
loop_
 _symmetry_equiv_pos_site_id
 _symmetry_equiv_pos_as_xyz
  1  'x, y, z'
loop_
 _atom_site_type_symbol
 _atom_site_label
 _atom_site_symmetry_multiplicity
 _atom_site_fract_x
 _atom_site_fract_y
 _atom_site_fract_z
 _atom_site_occupancy
  K  K0  1  0.77131064  0.95028092  0.34233241  1.0
  K  K1  1  0.77131064  0.54971908  0.34233241  1.0
  K  K2  1  0.27131064  0.95028092  0.15766759  1.0
  K  K3  1  0.27131064  0.54971908  0.15766759  1.0
  K  K4  1  0.22868936  0.45028092  0.65766759  1.0
  K  K5  1  0.22868936  0.04971908  0.65766759  1.0
  K  K6  1  0.72868936  0.45028092  0.84233241  1.0
  K  K7  1  0.72868936  0.04971908  0.84233241  1.0
  K  K8  1  0.92366210  0.25000000  0.48340408  1.0
  K  K9  1  0.42366210  0.25000000  0.01659592  1.0
  K  K10  1  0.07633790  0.75000000  0.51659592  1.0
  K  K11  1  0.57633790  0.75000000  0.98340408  1.0
  K  K12  1  0.00000000  0.50000000  0.00000000  1.0
  K  K13  1  0.00000000  0.00000000  0.00000000  1.0
  K  K14  1  0.50000000  0.50000000  0.50000000  1.0
  K  K15  1  0.50000000  0.00000000  0.50000000  1.0
  Sn  Sn16  1  0.66588323  0.25000000  0.23902224  1.0
  Sn  Sn17  1  0.16588323  0.25000000  0.26097776  1.0
  Sn  Sn18  1  0.33411677  0.75000000  0.76097776  1.0
  Sn  Sn19  1  0.83411677  0.75000000  0.73902224  1.0
  Se  Se20  1  0.58461797  0.44983920  0.14303210  1.0
  Se  Se21  1  0.58461797  0.05016080  0.14303210  1.0
  Se  Se22  1  0.08461797  0.44983920  0.35696790  1.0
  Se  Se23  1  0.08461797  0.05016080  0.35696790  1.0
  Se  Se24  1  0.41538203  0.94983920  0.85696790  1.0
  Se  Se25  1  0.41538203  0.55016080  0.85696790  1.0
  Se  Se26  1  0.91538203  0.94983920  0.64303210  1.0
  Se  Se27  1  0.91538203  0.55016080  0.64303210  1.0
  Se  Se28  1  0.82552151  0.25000000  0.12095541  1.0
  Se  Se29  1  0.32552151  0.25000000  0.37904459  1.0
  Se  Se30  1  0.17447849  0.75000000  0.87904459  1.0
  Se  Se31  1  0.67447849  0.75000000  0.62095541  1.0
  Se  Se32  1  0.67223434  0.25000000  0.54617847  1.0
  Se  Se33  1  0.17223434  0.25000000  0.95382153  1.0
  Se  Se34  1  0.32776566  0.75000000  0.45382153  1.0
  Se  Se35  1  0.82776566  0.75000000  0.04617847  1.0
