# generated using pymatgen
data_Y2PbAu2
_symmetry_space_group_name_H-M   'P 1'
_cell_length_a   8.05144252
_cell_length_b   8.05144252
_cell_length_c   7.47699902
_cell_angle_alpha   90.00000000
_cell_angle_beta   90.00000000
_cell_angle_gamma   90.00000000
_symmetry_Int_Tables_number   1
_chemical_formula_structural   Y2PbAu2
_chemical_formula_sum   'Y8 Pb4 Au8'
_cell_volume   484.70189490
_cell_formula_units_Z   4
loop_
 _symmetry_equiv_pos_site_id
 _symmetry_equiv_pos_as_xyz
  1  'x, y, z'
loop_
 _atom_site_type_symbol
 _atom_site_label
 _atom_site_symmetry_multiplicity
 _atom_site_fract_x
 _atom_site_fract_y
 _atom_site_fract_z
 _atom_site_occupancy
  Y  Y0  1  0.18378796  0.18378796  0.50000000  1.0
  Y  Y1  1  0.68378796  0.31621204  0.00000000  1.0
  Y  Y2  1  0.81621204  0.81621204  0.50000000  1.0
  Y  Y3  1  0.31621204  0.68378796  0.00000000  1.0
  Y  Y4  1  0.34440485  0.65559515  0.50000000  1.0
  Y  Y5  1  0.84440485  0.84440485  0.00000000  1.0
  Y  Y6  1  0.65559515  0.34440485  0.50000000  1.0
  Y  Y7  1  0.15559515  0.15559515  0.00000000  1.0
  Pb  Pb8  1  0.50000000  0.00000000  0.25000000  1.0
  Pb  Pb9  1  0.50000000  0.00000000  0.75000000  1.0
  Pb  Pb10  1  0.00000000  0.50000000  0.75000000  1.0
  Pb  Pb11  1  0.00000000  0.50000000  0.25000000  1.0
  Au  Au12  1  0.12581987  0.87418013  0.28165676  1.0
  Au  Au13  1  0.12581987  0.87418013  0.71834324  1.0
  Au  Au14  1  0.62581987  0.62581987  0.78165676  1.0
  Au  Au15  1  0.62581987  0.62581987  0.21834324  1.0
  Au  Au16  1  0.87418013  0.12581987  0.28165676  1.0
  Au  Au17  1  0.87418013  0.12581987  0.71834324  1.0
  Au  Au18  1  0.37418013  0.37418013  0.78165676  1.0
  Au  Au19  1  0.37418013  0.37418013  0.21834324  1.0
