# generated using pymatgen
data_ZnSnO3
_symmetry_space_group_name_H-M   'P 1'
_cell_length_a   5.68040190
_cell_length_b   5.68040190
_cell_length_c   5.68040190
_cell_angle_alpha   56.47184964
_cell_angle_beta   56.47184964
_cell_angle_gamma   56.47184965
_symmetry_Int_Tables_number   1
_chemical_formula_structural   ZnSnO3
_chemical_formula_sum   'Zn2 Sn2 O6'
_cell_volume   119.03466713
_cell_formula_units_Z   2
loop_
 _symmetry_equiv_pos_site_id
 _symmetry_equiv_pos_as_xyz
  1  'x, y, z'
loop_
 _atom_site_type_symbol
 _atom_site_label
 _atom_site_symmetry_multiplicity
 _atom_site_fract_x
 _atom_site_fract_y
 _atom_site_fract_z
 _atom_site_occupancy
  Zn  Zn0  1  0.36626091  0.36626091  -0.63373909  1.0
  Zn  Zn1  1  0.63373909  0.63373909  -0.36626091  1.0
  Sn  Sn2  1  0.15000873  0.15000873  0.15000873  1.0
  Sn  Sn3  1  0.84999127  -0.15000873  -0.15000873  1.0
  O  O4  1  0.44560208  0.05028932  -0.24045190  1.0
  O  O5  1  1.24045190  -0.44560208  -0.05028932  1.0
  O  O6  1  0.94971068  0.24045190  -0.44560208  1.0
  O  O7  1  0.55439792  -0.05028932  0.24045190  1.0
  O  O8  1  0.75954810  -0.55439792  0.05028932  1.0
  O  O9  1  1.05028932  -0.24045190  -0.55439792  1.0
