# generated using pymatgen
data_Ga16Rh3
_symmetry_space_group_name_H-M   'P 1'
_cell_length_a   15.74429636
_cell_length_b   15.74429636
_cell_length_c   6.52509191
_cell_angle_alpha   90.00000000
_cell_angle_beta   90.00000000
_cell_angle_gamma   156.04831797
_symmetry_Int_Tables_number   1
_chemical_formula_structural   Ga16Rh3
_chemical_formula_sum   'Ga32 Rh6'
_cell_volume   656.63331517
_cell_formula_units_Z   2
loop_
 _symmetry_equiv_pos_site_id
 _symmetry_equiv_pos_as_xyz
  1  'x, y, z'
loop_
 _atom_site_type_symbol
 _atom_site_label
 _atom_site_symmetry_multiplicity
 _atom_site_fract_x
 _atom_site_fract_y
 _atom_site_fract_z
 _atom_site_occupancy
  Ga  Ga0  1  0.07962809  0.92037191  0.50000000  1.0
  Ga  Ga1  1  -0.07962809  0.07962809  0.50000000  1.0
  Ga  Ga2  1  0.42037191  0.57962809  0.00000000  1.0
  Ga  Ga3  1  -0.42037191  0.42037191  0.00000000  1.0
  Ga  Ga4  1  0.24086863  0.75913137  0.50000000  1.0
  Ga  Ga5  1  -0.24086863  0.24086863  0.50000000  1.0
  Ga  Ga6  1  0.25913137  0.74086863  0.00000000  1.0
  Ga  Ga7  1  -0.25913137  0.25913137  0.00000000  1.0
  Ga  Ga8  1  0.18231802  1.11534938  0.85115483  1.0
  Ga  Ga9  1  0.81768198  0.88465062  0.85115483  1.0
  Ga  Ga10  1  0.11534938  0.18231802  0.14884517  1.0
  Ga  Ga11  1  -0.11534938  0.81768198  0.14884517  1.0
  Ga  Ga12  1  0.31768198  0.38465062  0.64884517  1.0
  Ga  Ga13  1  -0.31768198  0.61534938  0.64884517  1.0
  Ga  Ga14  1  0.38465062  1.31768198  0.35115483  1.0
  Ga  Ga15  1  0.61534938  0.68231802  0.35115483  1.0
  Ga  Ga16  1  0.35088435  0.97236139  0.16087579  1.0
  Ga  Ga17  1  0.64911565  1.02763861  0.16087579  1.0
  Ga  Ga18  1  -0.02763861  0.35088435  0.83912421  1.0
  Ga  Ga19  1  0.02763861  0.64911565  0.83912421  1.0
  Ga  Ga20  1  0.14911565  0.52763861  0.33912421  1.0
  Ga  Ga21  1  -0.14911565  0.47236139  0.33912421  1.0
  Ga  Ga22  1  0.52763861  1.14911565  0.66087579  1.0
  Ga  Ga23  1  0.47236139  0.85088435  0.66087579  1.0
  Ga  Ga24  1  0.47823792  1.23361554  0.35479478  1.0
  Ga  Ga25  1  0.52176208  0.76638446  0.35479478  1.0
  Ga  Ga26  1  0.23361554  0.47823792  0.64520522  1.0
  Ga  Ga27  1  -0.23361554  0.52176208  0.64520522  1.0
  Ga  Ga28  1  0.02176208  0.26638446  0.14520522  1.0
  Ga  Ga29  1  -0.02176208  0.73361554  0.14520522  1.0
  Ga  Ga30  1  0.26638446  1.02176208  0.85479478  1.0
  Ga  Ga31  1  0.73361554  0.97823792  0.85479478  1.0
  Rh  Rh32  1  0.00000000  0.00000000  0.50000000  1.0
  Rh  Rh33  1  0.50000000  0.50000000  0.00000000  1.0
  Rh  Rh34  1  0.15999785  0.84000215  0.50000000  1.0
  Rh  Rh35  1  -0.15999785  0.15999785  0.50000000  1.0
  Rh  Rh36  1  0.34000215  0.65999785  0.00000000  1.0
  Rh  Rh37  1  -0.34000215  0.34000215  0.00000000  1.0
