# generated using pymatgen
data_H7C3N8Cl
_symmetry_space_group_name_H-M   'P 1'
_cell_length_a   8.36691095
_cell_length_b   7.58903179
_cell_length_c   6.97577734
_cell_angle_alpha   106.32606627
_cell_angle_beta   102.61003552
_cell_angle_gamma   80.79908783
_symmetry_Int_Tables_number   1
_chemical_formula_structural   H7C3N8Cl
_chemical_formula_sum   'H14 C6 N16 Cl2'
_cell_volume   412.52320028
_cell_formula_units_Z   2
loop_
 _symmetry_equiv_pos_site_id
 _symmetry_equiv_pos_as_xyz
  1  'x, y, z'
loop_
 _atom_site_type_symbol
 _atom_site_label
 _atom_site_symmetry_multiplicity
 _atom_site_fract_x
 _atom_site_fract_y
 _atom_site_fract_z
 _atom_site_occupancy
  H  H0  1  0.67931624  0.38133749  -0.97985841  1.0
  H  H1  1  0.32068376  0.61866251  -0.02014159  1.0
  H  H2  1  0.61444016  0.92775592  -0.87930018  1.0
  H  H3  1  0.38555984  0.07224408  -0.12069982  1.0
  H  H4  1  0.61261371  0.45049067  -0.74502338  1.0
  H  H5  1  0.38738629  0.54950933  -0.25497662  1.0
  H  H6  1  0.78659143  0.84185914  -0.71635442  1.0
  H  H7  1  0.21340857  0.15814086  -0.28364558  1.0
  H  H8  1  0.38983605  0.95062875  -0.70950344  1.0
  H  H9  1  0.61016395  0.04937125  -0.29049656  1.0
  H  H10  1  0.83361843  0.30842364  -0.44906351  1.0
  H  H11  1  0.16638157  0.69157636  -0.55093649  1.0
  H  H12  1  0.54502161  0.83458870  -0.37843683  1.0
  H  H13  1  0.45497839  0.16541130  -0.62156317  1.0
  C  C14  1  0.82468105  0.82559620  -0.99687824  1.0
  C  C15  1  0.17531895  0.17440380  -0.00312176  1.0
  C  C16  1  0.84904615  0.31932959  -0.74526399  1.0
  C  C17  1  0.15095385  0.68067041  -0.25473601  1.0
  C  C18  1  0.89114116  0.79493675  -0.29559289  1.0
  C  C19  1  0.10885884  0.20506325  -0.70440711  1.0
  N  N20  1  0.98277108  0.75716162  -0.97157336  1.0
  N  N21  1  0.01722892  0.24283838  -0.02842664  1.0
  N  N22  1  0.73231306  0.86767621  -0.85409559  1.0
  N  N23  1  0.26768694  0.13232379  -0.14590441  1.0
  N  N24  1  0.98074761  0.26081999  -0.83979155  1.0
  N  N25  1  0.01925239  0.73918001  -0.16020845  1.0
  N  N26  1  0.69899205  0.37794739  -0.83008310  1.0
  N  N27  1  0.30100795  0.62205261  -0.16991690  1.0
  N  N28  1  0.90687586  0.29771955  -0.55501299  1.0
  N  N29  1  0.09312414  0.70228045  -0.44498701  1.0
  N  N30  1  0.92811674  0.77638875  -0.47413758  1.0
  N  N31  1  0.07188326  0.22361125  -0.52586242  1.0
  N  N32  1  0.60394813  0.92740142  -0.25451260  1.0
  N  N33  1  0.39605187  0.07259858  -0.74548740  1.0
  N  N34  1  0.76243633  0.85117873  -0.19217308  1.0
  N  N35  1  0.23756367  0.14882127  -0.80782692  1.0
  Cl  Cl36  1  0.39134527  0.66388062  -0.67170743  1.0
  Cl  Cl37  1  0.60865473  0.33611938  -0.32829257  1.0
