# generated using pymatgen
data_RbNb(PO4)2
_symmetry_space_group_name_H-M   'P 1'
_cell_length_a   5.28868733
_cell_length_b   12.22143117
_cell_length_c   13.27738843
_cell_angle_alpha   90.00000000
_cell_angle_beta   113.25166344
_cell_angle_gamma   90.00000000
_symmetry_Int_Tables_number   1
_chemical_formula_structural   RbNb(PO4)2
_chemical_formula_sum   'Rb4 Nb4 P8 O32'
_cell_volume   788.48608517
_cell_formula_units_Z   4
loop_
 _symmetry_equiv_pos_site_id
 _symmetry_equiv_pos_as_xyz
  1  'x, y, z'
loop_
 _atom_site_type_symbol
 _atom_site_label
 _atom_site_symmetry_multiplicity
 _atom_site_fract_x
 _atom_site_fract_y
 _atom_site_fract_z
 _atom_site_occupancy
  Rb  Rb0  1  0.30038925  0.12968301  0.04570956  1.0
  Rb  Rb1  1  0.30038925  0.37031699  0.54570956  1.0
  Rb  Rb2  1  0.69961075  0.62968301  0.45429044  1.0
  Rb  Rb3  1  0.69961075  0.87031699  0.95429044  1.0
  Nb  Nb4  1  0.92110415  0.61498996  0.17318769  1.0
  Nb  Nb5  1  0.92110415  0.88501004  0.67318769  1.0
  Nb  Nb6  1  0.07889585  0.11498996  0.32681231  1.0
  Nb  Nb7  1  0.07889585  0.38501004  0.82681231  1.0
  P  P8  1  0.61506995  0.93287874  0.36961056  1.0
  P  P9  1  0.61506995  0.56712126  0.86961056  1.0
  P  P10  1  0.38493005  0.43287874  0.13038944  1.0
  P  P11  1  0.38493005  0.06712126  0.63038944  1.0
  P  P12  1  0.59272075  0.30187588  0.33804313  1.0
  P  P13  1  0.59272075  0.19812412  0.83804313  1.0
  P  P14  1  0.40727925  0.80187588  0.16195687  1.0
  P  P15  1  0.40727925  0.69812412  0.66195687  1.0
  O  O16  1  0.95285898  0.12531809  0.18516155  1.0
  O  O17  1  0.95285898  0.37468191  0.68516155  1.0
  O  O18  1  0.04714102  0.62531809  0.31483845  1.0
  O  O19  1  0.04714102  0.87468191  0.81483845  1.0
  O  O20  1  0.86410556  0.24279775  0.35224091  1.0
  O  O21  1  0.86410556  0.25720225  0.85224091  1.0
  O  O22  1  0.13589444  0.74279775  0.14775909  1.0
  O  O23  1  0.13589444  0.75720225  0.64775909  1.0
  O  O24  1  0.75689289  0.89097933  0.48503200  1.0
  O  O25  1  0.75689289  0.60902067  0.98503200  1.0
  O  O26  1  0.24310711  0.39097933  0.01496800  1.0
  O  O27  1  0.24310711  0.10902067  0.51496800  1.0
  O  O28  1  0.78838310  0.01083481  0.33099766  1.0
  O  O29  1  0.78838310  0.48916519  0.83099766  1.0
  O  O30  1  0.21161690  0.51083481  0.16900234  1.0
  O  O31  1  0.21161690  0.98916519  0.66900234  1.0
  O  O32  1  0.66924902  0.48521128  0.15685113  1.0
  O  O33  1  0.66924902  0.01478872  0.65685113  1.0
  O  O34  1  0.33075098  0.98521128  0.34314887  1.0
  O  O35  1  0.33075098  0.51478872  0.84314887  1.0
  O  O36  1  0.63556136  0.40490104  0.40355363  1.0
  O  O37  1  0.63556136  0.09509896  0.90355363  1.0
  O  O38  1  0.36443864  0.90490104  0.09644637  1.0
  O  O39  1  0.36443864  0.59509896  0.59644637  1.0
  O  O40  1  0.43843395  0.32355089  0.20583449  1.0
  O  O41  1  0.43843395  0.17644911  0.70583449  1.0
  O  O42  1  0.56156605  0.82355089  0.29416551  1.0
  O  O43  1  0.56156605  0.67644911  0.79416551  1.0
  O  O44  1  0.40093894  0.21772436  0.36049713  1.0
  O  O45  1  0.40093894  0.28227564  0.86049713  1.0
  O  O46  1  0.59906106  0.71772436  0.13950287  1.0
  O  O47  1  0.59906106  0.78227564  0.63950287  1.0
