# generated using pymatgen
data_YSn3
_symmetry_space_group_name_H-M   'P 1'
_cell_length_a   11.28775411
_cell_length_b   11.28775411
_cell_length_c   4.44107599
_cell_angle_alpha   90.00000000
_cell_angle_beta   90.00000000
_cell_angle_gamma   157.19703033
_symmetry_Int_Tables_number   1
_chemical_formula_structural   YSn3
_chemical_formula_sum   'Y2 Sn6'
_cell_volume   219.30372299
_cell_formula_units_Z   2
loop_
 _symmetry_equiv_pos_site_id
 _symmetry_equiv_pos_as_xyz
  1  'x, y, z'
loop_
 _atom_site_type_symbol
 _atom_site_label
 _atom_site_symmetry_multiplicity
 _atom_site_fract_x
 _atom_site_fract_y
 _atom_site_fract_z
 _atom_site_occupancy
  Y  Y0  1  -0.20982477  0.20982477  0.00000000  1.0
  Y  Y1  1  -0.48240839  0.48240839  0.50000000  1.0
  Sn  Sn2  1  0.40182618  0.59817382  0.00000000  1.0
  Sn  Sn3  1  -0.35998034  0.35998034  0.00000000  1.0
  Sn  Sn4  1  -0.09811328  0.09811328  0.50000000  1.0
  Sn  Sn5  1  0.26640474  0.73359526  0.50000000  1.0
  Sn  Sn6  1  0.13162276  0.86837724  0.50000000  1.0
  Sn  Sn7  1  0.02447310  -0.02447310  0.00000000  1.0
