# generated using pymatgen
data_P(C2F5)3
_symmetry_space_group_name_H-M   'P 1'
_cell_length_a   9.08265162
_cell_length_b   9.08265162
_cell_length_c   9.08265162
_cell_angle_alpha   102.92088974
_cell_angle_beta   102.92088974
_cell_angle_gamma   102.92088974
_symmetry_Int_Tables_number   1
_chemical_formula_structural   P(C2F5)3
_chemical_formula_sum   'P2 C12 F30'
_cell_volume   681.64631090
_cell_formula_units_Z   2
loop_
 _symmetry_equiv_pos_site_id
 _symmetry_equiv_pos_as_xyz
  1  'x, y, z'
loop_
 _atom_site_type_symbol
 _atom_site_label
 _atom_site_symmetry_multiplicity
 _atom_site_fract_x
 _atom_site_fract_y
 _atom_site_fract_z
 _atom_site_occupancy
  P  P0  1  0.81028934  0.81028934  0.81028934  1.0
  P  P1  1  0.18971066  0.18971066  0.18971066  1.0
  C  C2  1  0.76108520  0.62557709  0.02617253  1.0
  C  C3  1  1.37442291  -0.02617253  0.23891480  1.0
  C  C4  1  0.97382747  0.23891480  0.37442291  1.0
  C  C5  1  1.23891480  0.37442291  -0.02617253  1.0
  C  C6  1  0.62557709  1.02617253  -0.23891480  1.0
  C  C7  1  1.02617253  0.76108520  -0.37442291  1.0
  C  C8  1  1.60697592  0.84659097  -0.25963107  1.0
  C  C9  1  1.15340903  0.25963107  -0.60697592  1.0
  C  C10  1  1.25963107  -0.60697592  0.15340903  1.0
  C  C11  1  0.39302408  0.15340903  0.25963107  1.0
  C  C12  1  0.84659097  0.74036893  0.60697592  1.0
  C  C13  1  0.74036893  1.60697592  -0.15340903  1.0
  F  F14  1  1.58837914  0.52262322  -0.23555375  1.0
  F  F15  1  0.47737678  1.23555375  -0.58837914  1.0
  F  F16  1  1.23555375  0.41162086  -0.52262322  1.0
  F  F17  1  0.41162086  0.47737678  0.23555375  1.0
  F  F18  1  1.52262322  -0.23555375  0.58837914  1.0
  F  F19  1  0.76444625  0.58837914  0.52262322  1.0
  F  F20  1  0.71202315  0.48315841  0.04925701  1.0
  F  F21  1  1.51684159  -0.04925701  0.28797685  1.0
  F  F22  1  0.95074299  0.28797685  0.51684159  1.0
  F  F23  1  1.28797685  0.51684159  -0.04925701  1.0
  F  F24  1  0.48315841  1.04925701  -0.28797685  1.0
  F  F25  1  1.04925701  0.71202315  -0.51684159  1.0
  F  F26  1  0.67768653  0.71893869  0.08327968  1.0
  F  F27  1  1.28106131  -0.08327968  0.32231347  1.0
  F  F28  1  0.91672032  0.32231347  0.28106131  1.0
  F  F29  1  1.32231347  0.28106131  -0.08327968  1.0
  F  F30  1  0.71893869  1.08327968  -0.32231347  1.0
  F  F31  1  1.08327968  0.67768653  -0.28106131  1.0
  F  F32  1  1.51852272  0.80468377  -0.16333153  1.0
  F  F33  1  1.19531623  0.16333153  -0.51852272  1.0
  F  F34  1  1.16333153  -0.51852272  0.19531623  1.0
  F  F35  1  0.48147728  0.19531623  0.16333153  1.0
  F  F36  1  0.80468377  0.83666847  0.51852272  1.0
  F  F37  1  0.83666847  1.51852272  -0.19531623  1.0
  F  F38  1  0.69180967  1.10787705  -0.08445854  1.0
  F  F39  1  0.89212295  0.08445854  0.30819033  1.0
  F  F40  1  1.08445854  0.30819033  -0.10787705  1.0
  F  F41  1  1.30819033  -0.10787705  0.08445854  1.0
  F  F42  1  1.10787705  0.91554146  -0.30819033  1.0
  F  F43  1  0.91554146  0.69180967  0.10787705  1.0
