# generated using pymatgen
data_Na2CoH8(CO5)2
_symmetry_space_group_name_H-M   'P 1'
_cell_length_a   5.63836100
_cell_length_b   5.63836100
_cell_length_c   14.40772630
_cell_angle_alpha   84.38383943
_cell_angle_beta   95.61616057
_cell_angle_gamma   100.46079950
_symmetry_Int_Tables_number   1
_chemical_formula_structural   Na2CoH8(CO5)2
_chemical_formula_sum   'Na4 Co2 H16 C4 O20'
_cell_volume   446.75891603
_cell_formula_units_Z   2
loop_
 _symmetry_equiv_pos_site_id
 _symmetry_equiv_pos_as_xyz
  1  'x, y, z'
loop_
 _atom_site_type_symbol
 _atom_site_label
 _atom_site_symmetry_multiplicity
 _atom_site_fract_x
 _atom_site_fract_y
 _atom_site_fract_z
 _atom_site_occupancy
  Na  Na0  1  1.59551364  -0.24409287  0.56129631  1.0
  Na  Na1  1  1.24409287  -0.59551364  0.06129631  1.0
  Na  Na2  1  0.75590713  0.59551364  0.93870369  1.0
  Na  Na3  1  0.40448636  0.24409287  0.43870369  1.0
  Co  Co4  1  0.96440730  0.96440730  0.75000000  1.0
  Co  Co5  1  0.03559270  0.03559270  0.25000000  1.0
  H  H6  1  0.79135444  0.10951182  0.95379428  1.0
  H  H7  1  0.89048818  0.20864556  0.45379428  1.0
  H  H8  1  1.10951182  -0.20864556  0.54620572  1.0
  H  H9  1  1.20864556  -0.10951182  0.04620572  1.0
  H  H10  1  1.24321597  -0.13127571  0.93945444  1.0
  H  H11  1  1.13127571  -0.24321597  0.43945444  1.0
  H  H12  1  0.86872429  0.24321597  0.56054556  1.0
  H  H13  1  0.75678403  0.13127571  0.06054556  1.0
  H  H14  1  0.46674558  0.21417954  0.63218232  1.0
  H  H15  1  0.78582046  0.53325442  0.13218232  1.0
  H  H16  1  1.21417954  -0.53325442  0.86781768  1.0
  H  H17  1  1.53325442  -0.21417954  0.36781768  1.0
  H  H18  1  0.35446267  0.25326317  0.87436748  1.0
  H  H19  1  0.74673683  0.64553733  0.37436748  1.0
  H  H20  1  1.25326317  -0.64553733  0.62563252  1.0
  H  H21  1  1.64553733  -0.25326317  0.12563252  1.0
  C  C22  1  1.52150360  -0.03116282  0.78521326  1.0
  C  C23  1  1.03116282  -0.52150360  0.28521326  1.0
  C  C24  1  0.96883718  0.52150360  0.71478674  1.0
  C  C25  1  0.47849640  0.03116282  0.21478674  1.0
  O  O26  1  1.71332331  -0.03819184  0.84447776  1.0
  O  O27  1  1.03819184  -0.71332331  0.34447776  1.0
  O  O28  1  0.96180816  0.71332331  0.65552224  1.0
  O  O29  1  0.28667669  0.03819184  0.15552224  1.0
  O  O30  1  0.78630616  0.16148875  0.50604043  1.0
  O  O31  1  0.83851125  0.21369384  0.00604043  1.0
  O  O32  1  1.16148875  -0.21369384  0.99395957  1.0
  O  O33  1  1.21369384  -0.16148875  0.49395957  1.0
  O  O34  1  1.54863914  -0.04379591  0.69881375  1.0
  O  O35  1  1.04379591  -0.54863914  0.19881375  1.0
  O  O36  1  0.95620409  0.54863914  0.80118625  1.0
  O  O37  1  0.45136086  0.04379591  0.30118625  1.0
  O  O38  1  1.31823587  -0.00837613  0.81612050  1.0
  O  O39  1  1.00837613  -0.31823587  0.31612050  1.0
  O  O40  1  0.99162387  0.31823587  0.68387950  1.0
  O  O41  1  0.68176413  0.00837613  0.18387950  1.0
  O  O42  1  1.35255745  -0.59552386  0.90339152  1.0
  O  O43  1  1.59552386  -0.35255745  0.40339152  1.0
  O  O44  1  0.40447614  0.35255745  0.59660848  1.0
  O  O45  1  0.64744255  0.59552386  0.09660848  1.0
