# generated using pymatgen
data_HAuO2
_symmetry_space_group_name_H-M   'P 1'
_cell_length_a   4.14808226
_cell_length_b   5.45067020
_cell_length_c   4.69971767
_cell_angle_alpha   92.39427096
_cell_angle_beta   114.75019836
_cell_angle_gamma   90.65403820
_symmetry_Int_Tables_number   1
_chemical_formula_structural   HAuO2
_chemical_formula_sum   'H2 Au2 O4'
_cell_volume   96.36578990
_cell_formula_units_Z   2
loop_
 _symmetry_equiv_pos_site_id
 _symmetry_equiv_pos_as_xyz
  1  'x, y, z'
loop_
 _atom_site_type_symbol
 _atom_site_label
 _atom_site_symmetry_multiplicity
 _atom_site_fract_x
 _atom_site_fract_y
 _atom_site_fract_z
 _atom_site_occupancy
  H  H0  1  -0.92450319  -0.24776027  -0.97177949  1.0
  H  H1  1  -0.07549681  -0.75223973  -0.02822051  1.0
  Au  Au2  1  -0.50000000  -0.50000000  -0.50000000  1.0
  Au  Au3  1  0.00000000  0.00000000  -0.50000000  1.0
  O  O4  1  -0.05217932  -0.29414627  -0.27768567  1.0
  O  O5  1  -0.94782068  -0.70585373  -0.72231433  1.0
  O  O6  1  -0.75827636  -0.20304293  -0.71663877  1.0
  O  O7  1  -0.24172364  -0.79695707  -0.28336123  1.0
