# generated using pymatgen
data_MnB2F8
_symmetry_space_group_name_H-M   'P 1'
_cell_length_a   8.70670667
_cell_length_b   5.56155646
_cell_length_c   11.25570242
_cell_angle_alpha   90.00000000
_cell_angle_beta   90.00000000
_cell_angle_gamma   90.00000000
_symmetry_Int_Tables_number   1
_chemical_formula_structural   MnB2F8
_chemical_formula_sum   'Mn4 B8 F32'
_cell_volume   545.03308570
_cell_formula_units_Z   4
loop_
 _symmetry_equiv_pos_site_id
 _symmetry_equiv_pos_as_xyz
  1  'x, y, z'
loop_
 _atom_site_type_symbol
 _atom_site_label
 _atom_site_symmetry_multiplicity
 _atom_site_fract_x
 _atom_site_fract_y
 _atom_site_fract_z
 _atom_site_occupancy
  Mn  Mn0  1  0.75278160  0.75000000  0.40218362  1.0
  Mn  Mn1  1  0.25278160  0.75000000  0.09781638  1.0
  Mn  Mn2  1  0.24721840  0.25000000  0.59781638  1.0
  Mn  Mn3  1  0.74721840  0.25000000  0.90218362  1.0
  B  B4  1  0.85525095  0.75000000  0.09473692  1.0
  B  B5  1  0.35525095  0.75000000  0.40526308  1.0
  B  B6  1  0.14474905  0.25000000  0.90526308  1.0
  B  B7  1  0.64474905  0.25000000  0.59473692  1.0
  B  B8  1  0.00887331  0.75000000  0.65222782  1.0
  B  B9  1  0.50887331  0.75000000  0.84777218  1.0
  B  B10  1  0.99112669  0.25000000  0.34777218  1.0
  B  B11  1  0.49112669  0.25000000  0.15222782  1.0
  F  F12  1  0.93347611  0.75000000  0.53987500  1.0
  F  F13  1  0.43347611  0.75000000  0.96012500  1.0
  F  F14  1  0.06652389  0.25000000  0.46012500  1.0
  F  F15  1  0.56652389  0.25000000  0.03987500  1.0
  F  F16  1  0.50937178  0.75000000  0.36064543  1.0
  F  F17  1  0.00937178  0.75000000  0.13935457  1.0
  F  F18  1  0.49062822  0.25000000  0.63935457  1.0
  F  F19  1  0.99062822  0.25000000  0.86064543  1.0
  F  F20  1  0.75020356  0.75000000  0.18930308  1.0
  F  F21  1  0.25020356  0.75000000  0.31069692  1.0
  F  F22  1  0.24979644  0.25000000  0.81069692  1.0
  F  F23  1  0.74979644  0.25000000  0.68930308  1.0
  F  F24  1  0.90785312  0.75000000  0.74511629  1.0
  F  F25  1  0.40785312  0.75000000  0.75488371  1.0
  F  F26  1  0.09214688  0.25000000  0.25488371  1.0
  F  F27  1  0.59214688  0.25000000  0.24511629  1.0
  F  F28  1  0.83433456  0.95872842  0.02413873  1.0
  F  F29  1  0.83433456  0.54127158  0.02413873  1.0
  F  F30  1  0.33433456  0.95872842  0.47586127  1.0
  F  F31  1  0.33433456  0.54127158  0.47586127  1.0
  F  F32  1  0.16566544  0.45872842  0.97586127  1.0
  F  F33  1  0.16566544  0.04127158  0.97586127  1.0
  F  F34  1  0.66566544  0.45872842  0.52413873  1.0
  F  F35  1  0.66566544  0.04127158  0.52413873  1.0
  F  F36  1  0.89334175  0.45764210  0.34316162  1.0
  F  F37  1  0.89334175  0.04235790  0.34316162  1.0
  F  F38  1  0.39334175  0.45764210  0.15683838  1.0
  F  F39  1  0.39334175  0.04235790  0.15683838  1.0
  F  F40  1  0.10665825  0.95764210  0.65683838  1.0
  F  F41  1  0.10665825  0.54235790  0.65683838  1.0
  F  F42  1  0.60665825  0.95764210  0.84316162  1.0
  F  F43  1  0.60665825  0.54235790  0.84316162  1.0
