# generated using pymatgen
data_Mg(SiB6)2
_symmetry_space_group_name_H-M   'P 1'
_cell_length_a   11.02191294
_cell_length_b   6.11566493
_cell_length_c   8.38679516
_cell_angle_alpha   90.00000000
_cell_angle_beta   90.00000000
_cell_angle_gamma   90.00000000
_symmetry_Int_Tables_number   1
_chemical_formula_structural   Mg(SiB6)2
_chemical_formula_sum   'Mg4 Si8 B48'
_cell_volume   565.32305186
_cell_formula_units_Z   4
loop_
 _symmetry_equiv_pos_site_id
 _symmetry_equiv_pos_as_xyz
  1  'x, y, z'
loop_
 _atom_site_type_symbol
 _atom_site_label
 _atom_site_symmetry_multiplicity
 _atom_site_fract_x
 _atom_site_fract_y
 _atom_site_fract_z
 _atom_site_occupancy
  Mg  Mg0  1  0.42941260  0.75000000  0.65903580  1.0
  Mg  Mg1  1  0.92941260  0.75000000  0.84096420  1.0
  Mg  Mg2  1  0.57058740  0.25000000  0.34096420  1.0
  Mg  Mg3  1  0.07058740  0.25000000  0.15903580  1.0
  Si  Si4  1  0.08445036  0.75000000  0.60135093  1.0
  Si  Si5  1  0.58445036  0.75000000  0.89864907  1.0
  Si  Si6  1  0.91554964  0.25000000  0.39864907  1.0
  Si  Si7  1  0.41554964  0.25000000  0.10135093  1.0
  Si  Si8  1  0.91864523  0.75000000  0.13241076  1.0
  Si  Si9  1  0.41864523  0.75000000  0.36758924  1.0
  Si  Si10  1  0.08135477  0.25000000  0.86758924  1.0
  Si  Si11  1  0.58135477  0.25000000  0.63241076  1.0
  B  B12  1  0.32694344  0.98283301  0.03019557  1.0
  B  B13  1  0.32694344  0.51716699  0.03019557  1.0
  B  B14  1  0.82694344  0.98283301  0.46980443  1.0
  B  B15  1  0.82694344  0.51716699  0.46980443  1.0
  B  B16  1  0.67305656  0.48283301  0.96980443  1.0
  B  B17  1  0.67305656  0.01716699  0.96980443  1.0
  B  B18  1  0.17305656  0.48283301  0.53019557  1.0
  B  B19  1  0.17305656  0.01716699  0.53019557  1.0
  B  B20  1  0.29151190  0.40800518  0.66650836  1.0
  B  B21  1  0.29151190  0.09199482  0.66650836  1.0
  B  B22  1  0.79151190  0.40800518  0.83349164  1.0
  B  B23  1  0.79151190  0.09199482  0.83349164  1.0
  B  B24  1  0.70848810  0.90800518  0.33349164  1.0
  B  B25  1  0.70848810  0.59199482  0.33349164  1.0
  B  B26  1  0.20848810  0.90800518  0.16650836  1.0
  B  B27  1  0.20848810  0.59199482  0.16650836  1.0
  B  B28  1  0.28673892  0.90895239  0.83348993  1.0
  B  B29  1  0.28673892  0.59104761  0.83348993  1.0
  B  B30  1  0.78673892  0.90895239  0.66651007  1.0
  B  B31  1  0.78673892  0.59104761  0.66651007  1.0
  B  B32  1  0.71326108  0.40895239  0.16651007  1.0
  B  B33  1  0.71326108  0.09104761  0.16651007  1.0
  B  B34  1  0.21326108  0.40895239  0.33348993  1.0
  B  B35  1  0.21326108  0.09104761  0.33348993  1.0
  B  B36  1  0.16938331  0.98504558  0.96714139  1.0
  B  B37  1  0.16938331  0.51495442  0.96714139  1.0
  B  B38  1  0.66938331  0.98504558  0.53285861  1.0
  B  B39  1  0.66938331  0.51495442  0.53285861  1.0
  B  B40  1  0.83061669  0.48504558  0.03285861  1.0
  B  B41  1  0.83061669  0.01495442  0.03285861  1.0
  B  B42  1  0.33061669  0.48504558  0.46714139  1.0
  B  B43  1  0.33061669  0.01495442  0.46714139  1.0
  B  B44  1  0.39898029  0.75000000  0.94546467  1.0
  B  B45  1  0.89898029  0.75000000  0.55453533  1.0
  B  B46  1  0.60101971  0.25000000  0.05453533  1.0
  B  B47  1  0.10101971  0.25000000  0.44546467  1.0
  B  B48  1  0.34646297  0.75000000  0.14866288  1.0
  B  B49  1  0.84646297  0.75000000  0.35133712  1.0
  B  B50  1  0.65353703  0.25000000  0.85133712  1.0
  B  B51  1  0.15353703  0.25000000  0.64866288  1.0
  B  B52  1  0.14750701  0.75000000  0.84580189  1.0
  B  B53  1  0.64750701  0.75000000  0.65419811  1.0
  B  B54  1  0.85249299  0.25000000  0.15419811  1.0
  B  B55  1  0.35249299  0.25000000  0.34580189  1.0
  B  B56  1  0.09739723  0.75000000  0.05727441  1.0
  B  B57  1  0.59739723  0.75000000  0.44272559  1.0
  B  B58  1  0.90260277  0.25000000  0.94272559  1.0
  B  B59  1  0.40260277  0.25000000  0.55727441  1.0
