# generated using pymatgen
data_BaPIr
_symmetry_space_group_name_H-M   'P 1'
_cell_length_a   6.53298340
_cell_length_b   6.53298340
_cell_length_c   6.53298340
_cell_angle_alpha   90.00000000
_cell_angle_beta   90.00000000
_cell_angle_gamma   90.00000000
_symmetry_Int_Tables_number   1
_chemical_formula_structural   BaPIr
_chemical_formula_sum   'Ba4 P4 Ir4'
_cell_volume   278.82689554
_cell_formula_units_Z   4
loop_
 _symmetry_equiv_pos_site_id
 _symmetry_equiv_pos_as_xyz
  1  'x, y, z'
loop_
 _atom_site_type_symbol
 _atom_site_label
 _atom_site_symmetry_multiplicity
 _atom_site_fract_x
 _atom_site_fract_y
 _atom_site_fract_z
 _atom_site_occupancy
  Ba  Ba0  1  0.12303891  0.62303891  0.87696109  1.0
  Ba  Ba1  1  0.62303891  0.87696109  0.12303891  1.0
  Ba  Ba2  1  0.87696109  0.12303891  0.62303891  1.0
  Ba  Ba3  1  0.37696109  0.37696109  0.37696109  1.0
  P  P4  1  0.40421718  0.90421718  0.59578282  1.0
  P  P5  1  0.90421718  0.59578282  0.40421718  1.0
  P  P6  1  0.59578282  0.40421718  0.90421718  1.0
  P  P7  1  0.09578282  0.09578282  0.09578282  1.0
  Ir  Ir8  1  0.84661117  0.34661117  0.15338883  1.0
  Ir  Ir9  1  0.34661117  0.15338883  0.84661117  1.0
  Ir  Ir10  1  0.15338883  0.84661117  0.34661117  1.0
  Ir  Ir11  1  0.65338883  0.65338883  0.65338883  1.0
