# generated using pymatgen
data_Lu3Al3FeGe2
_symmetry_space_group_name_H-M   'P 1'
_cell_length_a   6.83939176
_cell_length_b   6.83939176
_cell_length_c   4.10467630
_cell_angle_alpha   90.00000000
_cell_angle_beta   90.00000000
_cell_angle_gamma   120.00000000
_symmetry_Int_Tables_number   1
_chemical_formula_structural   Lu3Al3FeGe2
_chemical_formula_sum   'Lu3 Al3 Fe1 Ge2'
_cell_volume   166.28171968
_cell_formula_units_Z   1
loop_
 _symmetry_equiv_pos_site_id
 _symmetry_equiv_pos_as_xyz
  1  'x, y, z'
loop_
 _atom_site_type_symbol
 _atom_site_label
 _atom_site_symmetry_multiplicity
 _atom_site_fract_x
 _atom_site_fract_y
 _atom_site_fract_z
 _atom_site_occupancy
  Lu  Lu0  1  0.40698284  0.40698284  0.00000000  1.0
  Lu  Lu1  1  0.00000000  0.59301716  0.00000000  1.0
  Lu  Lu2  1  0.59301716  0.00000000  0.00000000  1.0
  Al  Al3  1  0.77405717  0.77405717  0.50000000  1.0
  Al  Al4  1  -0.00000000  0.22594283  0.50000000  1.0
  Al  Al5  1  0.22594283  0.00000000  0.50000000  1.0
  Fe  Fe6  1  0.00000000  0.00000000  0.00000000  1.0
  Ge  Ge7  1  0.33333333  0.66666667  0.50000000  1.0
  Ge  Ge8  1  0.66666667  0.33333333  0.50000000  1.0
