# generated using pymatgen
data_KTiH2S2O9
_symmetry_space_group_name_H-M   'P 1'
_cell_length_a   7.89913436
_cell_length_b   5.30751275
_cell_length_c   9.33004023
_cell_angle_alpha   90.00000000
_cell_angle_beta   100.91565453
_cell_angle_gamma   90.00000000
_symmetry_Int_Tables_number   1
_chemical_formula_structural   KTiH2S2O9
_chemical_formula_sum   'K2 Ti2 H4 S4 O18'
_cell_volume   384.08241519
_cell_formula_units_Z   2
loop_
 _symmetry_equiv_pos_site_id
 _symmetry_equiv_pos_as_xyz
  1  'x, y, z'
loop_
 _atom_site_type_symbol
 _atom_site_label
 _atom_site_symmetry_multiplicity
 _atom_site_fract_x
 _atom_site_fract_y
 _atom_site_fract_z
 _atom_site_occupancy
  K  K0  1  0.43696974  0.25000000  0.27927319  1.0
  K  K1  1  0.56303026  0.75000000  0.72072681  1.0
  Ti  Ti2  1  0.92434772  0.25000000  0.26980593  1.0
  Ti  Ti3  1  0.07565228  0.75000000  0.73019407  1.0
  H  H4  1  0.83590190  0.25000000  0.97181781  1.0
  H  H5  1  0.16409810  0.75000000  0.02818219  1.0
  H  H6  1  0.04510596  0.25000000  1.01098617  1.0
  H  H7  1  0.95489404  0.75000000  -0.01098617  1.0
  S  S8  1  0.83111211  0.25000000  0.60850667  1.0
  S  S9  1  0.16888789  0.75000000  0.39149333  1.0
  S  S10  1  0.32266331  0.25000000  0.85406624  1.0
  S  S11  1  0.67733669  0.75000000  0.14593376  1.0
  O  O12  1  0.88247287  0.47920335  0.70391176  1.0
  O  O13  1  0.88247287  0.02079665  0.70391176  1.0
  O  O14  1  0.11752713  0.97920335  0.29608824  1.0
  O  O15  1  0.11752713  0.52079665  0.29608824  1.0
  O  O16  1  0.25788773  0.47915774  0.76037069  1.0
  O  O17  1  0.25788773  0.02084226  0.76037069  1.0
  O  O18  1  0.74211227  0.97915774  0.23962931  1.0
  O  O19  1  0.74211227  0.52084226  0.23962931  1.0
  O  O20  1  0.93381133  0.25000000  0.48956628  1.0
  O  O21  1  0.06618867  0.75000000  0.51043372  1.0
  O  O22  1  0.93581682  0.25000000  0.05099444  1.0
  O  O23  1  0.06418318  0.75000000  0.94900556  1.0
  O  O24  1  0.64469061  0.25000000  0.55664149  1.0
  O  O25  1  0.35530939  0.75000000  0.44335851  1.0
  O  O26  1  0.51087409  0.25000000  0.88029577  1.0
  O  O27  1  0.48912591  0.75000000  0.11970423  1.0
  O  O28  1  0.24944581  0.25000000  0.98868727  1.0
  O  O29  1  0.75055419  0.75000000  0.01131273  1.0
