# generated using pymatgen
data_K2Na(H2N)3
_symmetry_space_group_name_H-M   'P 1'
_cell_length_a   7.10965530
_cell_length_b   7.10965530
_cell_length_c   12.64547273
_cell_angle_alpha   90.00000000
_cell_angle_beta   90.00000000
_cell_angle_gamma   90.00000000
_symmetry_Int_Tables_number   1
_chemical_formula_structural   K2Na(H2N)3
_chemical_formula_sum   'K8 Na4 H24 N12'
_cell_volume   639.19321950
_cell_formula_units_Z   4
loop_
 _symmetry_equiv_pos_site_id
 _symmetry_equiv_pos_as_xyz
  1  'x, y, z'
loop_
 _atom_site_type_symbol
 _atom_site_label
 _atom_site_symmetry_multiplicity
 _atom_site_fract_x
 _atom_site_fract_y
 _atom_site_fract_z
 _atom_site_occupancy
  K  K0  1  0.00000000  0.50000000  0.85007036  1.0
  K  K1  1  0.00000000  0.50000000  0.14992964  1.0
  K  K2  1  0.50000000  0.00000000  0.35007036  1.0
  K  K3  1  0.50000000  0.00000000  0.64992964  1.0
  K  K4  1  0.50000000  0.50000000  0.75000000  1.0
  K  K5  1  0.50000000  0.50000000  0.25000000  1.0
  K  K6  1  0.00000000  0.00000000  0.00000000  1.0
  K  K7  1  0.00000000  0.00000000  0.50000000  1.0
  Na  Na8  1  0.63599998  0.66837195  0.00000000  1.0
  Na  Na9  1  0.66837195  0.36400002  0.50000000  1.0
  Na  Na10  1  0.36400002  0.33162805  0.00000000  1.0
  Na  Na11  1  0.33162805  0.63599998  0.50000000  1.0
  H  H12  1  0.83311469  0.84386937  0.78341689  1.0
  H  H13  1  0.83311469  0.84386937  0.21658311  1.0
  H  H14  1  0.84386937  0.16688531  0.28341689  1.0
  H  H15  1  0.84386937  0.16688531  0.71658311  1.0
  H  H16  1  0.16688531  0.15613063  0.78341689  1.0
  H  H17  1  0.16688531  0.15613063  0.21658311  1.0
  H  H18  1  0.15613063  0.83311469  0.28341689  1.0
  H  H19  1  0.15613063  0.83311469  0.71658311  1.0
  H  H20  1  0.74874132  0.70747814  0.56360421  1.0
  H  H21  1  0.74874132  0.70747814  0.43639579  1.0
  H  H22  1  0.70747814  0.25125868  0.06360421  1.0
  H  H23  1  0.70747814  0.25125868  0.93639579  1.0
  H  H24  1  0.25125868  0.29252186  0.56360421  1.0
  H  H25  1  0.25125868  0.29252186  0.43639579  1.0
  H  H26  1  0.29252186  0.74874132  0.06360421  1.0
  H  H27  1  0.29252186  0.74874132  0.93639579  1.0
  H  H28  1  0.66533622  0.93302423  0.85184887  1.0
  H  H29  1  0.66533622  0.93302423  0.14815113  1.0
  H  H30  1  0.93302423  0.33466378  0.35184887  1.0
  H  H31  1  0.93302423  0.33466378  0.64815113  1.0
  H  H32  1  0.33466378  0.06697577  0.85184887  1.0
  H  H33  1  0.33466378  0.06697577  0.14815113  1.0
  H  H34  1  0.06697577  0.66533622  0.35184887  1.0
  H  H35  1  0.06697577  0.66533622  0.64815113  1.0
  N  N36  1  0.73033825  0.80623421  0.83673295  1.0
  N  N37  1  0.73033825  0.80623421  0.16326705  1.0
  N  N38  1  0.80623421  0.26966175  0.33673295  1.0
  N  N39  1  0.80623421  0.26966175  0.66326705  1.0
  N  N40  1  0.26966175  0.19376579  0.83673295  1.0
  N  N41  1  0.26966175  0.19376579  0.16326705  1.0
  N  N42  1  0.19376579  0.73033825  0.33673295  1.0
  N  N43  1  0.19376579  0.73033825  0.66326705  1.0
  N  N44  1  0.72687248  0.33986202  0.00000000  1.0
  N  N45  1  0.33986202  0.27312752  0.50000000  1.0
  N  N46  1  0.27312752  0.66013798  0.00000000  1.0
  N  N47  1  0.66013798  0.72687248  0.50000000  1.0
