# generated using pymatgen
data_Zn8Au5
_symmetry_space_group_name_H-M   'P 1'
_cell_length_a   8.13314634
_cell_length_b   8.13314634
_cell_length_c   8.13314634
_cell_angle_alpha   109.47122063
_cell_angle_beta   109.47122063
_cell_angle_gamma   109.47122063
_symmetry_Int_Tables_number   1
_chemical_formula_structural   Zn8Au5
_chemical_formula_sum   'Zn16 Au10'
_cell_volume   414.14637947
_cell_formula_units_Z   2
loop_
 _symmetry_equiv_pos_site_id
 _symmetry_equiv_pos_as_xyz
  1  'x, y, z'
loop_
 _atom_site_type_symbol
 _atom_site_label
 _atom_site_symmetry_multiplicity
 _atom_site_fract_x
 _atom_site_fract_y
 _atom_site_fract_z
 _atom_site_occupancy
  Zn  Zn0  1  0.21703620  1.00000000  1.00000000  1.0
  Zn  Zn1  1  1.00000000  1.00000000  0.21703620  1.0
  Zn  Zn2  1  0.78296380  0.78296380  0.78296380  1.0
  Zn  Zn3  1  1.00000000  0.21703620  1.00000000  1.0
  Zn  Zn4  1  0.63391716  1.29097304  1.29097304  1.0
  Zn  Zn5  1  0.70902696  1.00000000  1.34294411  1.0
  Zn  Zn6  1  0.65705589  0.36608284  0.65705589  1.0
  Zn  Zn7  1  0.65705589  0.65705589  0.36608284  1.0
  Zn  Zn8  1  0.70902696  1.34294411  1.00000000  1.0
  Zn  Zn9  1  1.00000000  1.34294411  0.70902696  1.0
  Zn  Zn10  1  1.00000000  0.70902696  1.34294411  1.0
  Zn  Zn11  1  1.34294411  0.70902696  1.00000000  1.0
  Zn  Zn12  1  1.34294411  1.00000000  0.70902696  1.0
  Zn  Zn13  1  1.29097304  1.29097304  0.63391716  1.0
  Zn  Zn14  1  1.29097304  0.63391716  1.29097304  1.0
  Zn  Zn15  1  0.36608284  0.65705589  0.65705589  1.0
  Au  Au16  1  0.62311528  1.00000000  1.00000000  1.0
  Au  Au17  1  1.00000000  1.00000000  0.62311528  1.0
  Au  Au18  1  0.37688472  0.37688472  0.37688472  1.0
  Au  Au19  1  1.00000000  0.62311528  1.00000000  1.0
  Au  Au20  1  0.35164966  0.35164966  0.00000000  1.0
  Au  Au21  1  0.64835034  0.64835034  0.00000000  1.0
  Au  Au22  1  -0.00000000  0.64835034  0.64835034  1.0
  Au  Au23  1  -0.00000000  0.35164966  0.35164966  1.0
  Au  Au24  1  0.64835034  -0.00000000  0.64835034  1.0
  Au  Au25  1  0.35164966  0.00000000  0.35164966  1.0
