# generated using pymatgen
data_Hf5Sb9
_symmetry_space_group_name_H-M   'P 1'
_cell_length_a   8.83624284
_cell_length_b   8.83624284
_cell_length_c   8.73468677
_cell_angle_alpha   90.00000000
_cell_angle_beta   90.00000000
_cell_angle_gamma   90.00000000
_symmetry_Int_Tables_number   1
_chemical_formula_structural   Hf5Sb9
_chemical_formula_sum   'Hf10 Sb18'
_cell_volume   681.99724640
_cell_formula_units_Z   2
loop_
 _symmetry_equiv_pos_site_id
 _symmetry_equiv_pos_as_xyz
  1  'x, y, z'
loop_
 _atom_site_type_symbol
 _atom_site_label
 _atom_site_symmetry_multiplicity
 _atom_site_fract_x
 _atom_site_fract_y
 _atom_site_fract_z
 _atom_site_occupancy
  Hf  Hf0  1  0.00000000  0.50000000  0.25522018  1.0
  Hf  Hf1  1  0.50000000  -0.00000000  0.74477982  1.0
  Hf  Hf2  1  0.70729756  0.39460169  0.73333821  1.0
  Hf  Hf3  1  0.29270244  0.60539831  0.73333821  1.0
  Hf  Hf4  1  0.89460169  0.79270244  0.73333821  1.0
  Hf  Hf5  1  0.10539831  0.20729756  0.73333821  1.0
  Hf  Hf6  1  0.79270244  0.10539831  0.26666179  1.0
  Hf  Hf7  1  0.20729756  0.89460169  0.26666179  1.0
  Hf  Hf8  1  0.60539831  0.70729756  0.26666179  1.0
  Hf  Hf9  1  0.39460169  0.29270244  0.26666179  1.0
  Sb  Sb10  1  0.00000000  0.50000000  0.60735060  1.0
  Sb  Sb11  1  0.50000000  -0.00000000  0.39264940  1.0
  Sb  Sb12  1  0.40330334  0.30346552  0.61804396  1.0
  Sb  Sb13  1  0.59669666  0.69653448  0.61804396  1.0
  Sb  Sb14  1  0.80346552  0.09669666  0.61804396  1.0
  Sb  Sb15  1  0.19653448  0.90330334  0.61804396  1.0
  Sb  Sb16  1  0.09669666  0.19653448  0.38195604  1.0
  Sb  Sb17  1  0.90330334  0.80346552  0.38195604  1.0
  Sb  Sb18  1  0.69653448  0.40330334  0.38195604  1.0
  Sb  Sb19  1  0.30346552  0.59669666  0.38195604  1.0
  Sb  Sb20  1  0.23144077  0.42005861  0.00236608  1.0
  Sb  Sb21  1  0.76855923  0.57994139  0.00236608  1.0
  Sb  Sb22  1  0.92005861  0.26855923  0.00236608  1.0
  Sb  Sb23  1  0.07994139  0.73144077  0.00236608  1.0
  Sb  Sb24  1  0.26855923  0.07994139  0.99763392  1.0
  Sb  Sb25  1  0.73144077  0.92005861  0.99763392  1.0
  Sb  Sb26  1  0.57994139  0.23144077  0.99763392  1.0
  Sb  Sb27  1  0.42005861  0.76855923  0.99763392  1.0
