# generated using pymatgen
data_SrZn11
_symmetry_space_group_name_H-M   'P 1'
_cell_length_a   8.35368252
_cell_length_b   8.35368252
_cell_length_c   8.35368252
_cell_angle_alpha   99.83037721
_cell_angle_beta   99.83037721
_cell_angle_gamma   131.18832719
_symmetry_Int_Tables_number   1
_chemical_formula_structural   SrZn11
_chemical_formula_sum   'Sr2 Zn22'
_cell_volume   399.49946860
_cell_formula_units_Z   2
loop_
 _symmetry_equiv_pos_site_id
 _symmetry_equiv_pos_as_xyz
  1  'x, y, z'
loop_
 _atom_site_type_symbol
 _atom_site_label
 _atom_site_symmetry_multiplicity
 _atom_site_fract_x
 _atom_site_fract_y
 _atom_site_fract_z
 _atom_site_occupancy
  Sr  Sr0  1  0.75000000  1.25000000  0.50000000  1.0
  Sr  Sr1  1  0.00000000  0.00000000  0.00000000  1.0
  Zn  Zn2  1  0.25000000  0.75000000  0.50000000  1.0
  Zn  Zn3  1  0.50000000  0.50000000  -0.00000000  1.0
  Zn  Zn4  1  0.37500000  1.12500000  0.75000000  1.0
  Zn  Zn5  1  0.37500000  0.62500000  0.25000000  1.0
  Zn  Zn6  1  0.87500000  0.62500000  1.25000000  1.0
  Zn  Zn7  1  0.37500000  0.62500000  0.75000000  1.0
  Zn  Zn8  1  0.93292022  0.76128163  1.58399850  1.0
  Zn  Zn9  1  0.17728313  0.34892173  0.41600150  1.0
  Zn  Zn10  1  1.57271687  0.90107827  1.08399850  1.0
  Zn  Zn11  1  0.81707978  1.48871837  0.91600150  1.0
  Zn  Zn12  1  0.93292022  0.34892173  1.17163860  1.0
  Zn  Zn13  1  0.17728313  0.76128163  0.82836140  1.0
  Zn  Zn14  1  1.57271687  1.48871837  1.67163860  1.0
  Zn  Zn15  1  0.81707978  0.90107827  0.32836140  1.0
  Zn  Zn16  1  1.23871837  1.06707978  1.41600150  1.0
  Zn  Zn17  1  0.65107827  0.82271687  0.58399850  1.0
  Zn  Zn18  1  1.09892173  1.42728313  0.91600150  1.0
  Zn  Zn19  1  1.51128163  1.18292022  1.08399850  1.0
  Zn  Zn20  1  1.23871837  0.82271687  1.17163860  1.0
  Zn  Zn21  1  0.65107827  1.06707978  0.82836140  1.0
  Zn  Zn22  1  1.09892173  1.18292022  0.67163860  1.0
  Zn  Zn23  1  1.51128163  1.42728313  1.32836140  1.0
