# generated using pymatgen
data_Na2Co(SO5)2
_symmetry_space_group_name_H-M   'P 1'
_cell_length_a   5.99944027
_cell_length_b   14.45868684
_cell_length_c   5.10993219
_cell_angle_alpha   90.00000000
_cell_angle_beta   108.20368378
_cell_angle_gamma   90.00000000
_symmetry_Int_Tables_number   1
_chemical_formula_structural   Na2Co(SO5)2
_chemical_formula_sum   'Na4 Co2 S4 O20'
_cell_volume   421.07200592
_cell_formula_units_Z   2
loop_
 _symmetry_equiv_pos_site_id
 _symmetry_equiv_pos_as_xyz
  1  'x, y, z'
loop_
 _atom_site_type_symbol
 _atom_site_label
 _atom_site_symmetry_multiplicity
 _atom_site_fract_x
 _atom_site_fract_y
 _atom_site_fract_z
 _atom_site_occupancy
  O  O0  1  0.35753392  0.31244241  0.01982506  1.0
  O  O1  1  0.64246608  0.81244241  0.48017494  1.0
  O  O2  1  0.64246608  0.68755759  0.98017494  1.0
  O  O3  1  0.35753392  0.18755759  0.51982506  1.0
  O  O4  1  0.80265066  0.40977866  0.46653346  1.0
  O  O5  1  0.19734934  0.90977866  0.03346654  1.0
  O  O6  1  0.19734934  0.59022134  0.53346654  1.0
  O  O7  1  0.80265066  0.09022134  0.96653346  1.0
  O  O8  1  0.22391295  0.41393896  0.31724395  1.0
  O  O9  1  0.77608705  0.91393896  0.18275605  1.0
  O  O10  1  0.77608705  0.58606104  0.68275605  1.0
  O  O11  1  0.22391295  0.08606104  0.81724395  1.0
  O  O12  1  0.19281283  0.46182810  0.85138005  1.0
  O  O13  1  0.80718717  0.96182810  0.64861995  1.0
  O  O14  1  0.80718717  0.53817190  0.14861995  1.0
  O  O15  1  0.19281283  0.03817190  0.35138005  1.0
  O  O16  1  0.93222978  0.33763718  -0.07264094  1.0
  O  O17  1  0.06777022  0.83763718  0.57264094  1.0
  O  O18  1  0.06777022  0.66236282  1.07264094  1.0
  O  O19  1  0.93222978  0.16236282  0.42735906  1.0
  Co  Co20  1  0.00000000  0.50000000  0.50000000  1.0
  Co  Co21  1  0.00000000  0.00000000  0.00000000  1.0
  S  S22  1  0.16893947  0.37650269  0.03009951  1.0
  S  S23  1  0.83106053  0.87650269  0.46990049  1.0
  S  S24  1  0.83106053  0.62349731  0.96990049  1.0
  S  S25  1  0.16893947  0.12349731  0.53009951  1.0
  Na  Na26  1  0.53558311  0.34154657  0.66967501  1.0
  Na  Na27  1  0.46441689  0.84154657  0.83032499  1.0
  Na  Na28  1  0.46441689  0.65845343  0.33032499  1.0
  Na  Na29  1  0.53558311  0.15845343  0.16967501  1.0
