# generated using pymatgen
data_Mg(BH4)2
_symmetry_space_group_name_H-M   'P 1'
_cell_length_a   5.61598698
_cell_length_b   5.61598698
_cell_length_c   5.93094971
_cell_angle_alpha   90.00000000
_cell_angle_beta   90.00000000
_cell_angle_gamma   90.00000000
_symmetry_Int_Tables_number   1
_chemical_formula_structural   Mg(BH4)2
_chemical_formula_sum   'Mg2 B4 H16'
_cell_volume   187.05805997
_cell_formula_units_Z   2
loop_
 _symmetry_equiv_pos_site_id
 _symmetry_equiv_pos_as_xyz
  1  'x, y, z'
loop_
 _atom_site_type_symbol
 _atom_site_label
 _atom_site_symmetry_multiplicity
 _atom_site_fract_x
 _atom_site_fract_y
 _atom_site_fract_z
 _atom_site_occupancy
  Mg  Mg0  1  0.00000000  0.00000000  0.00000000  1.0
  Mg  Mg1  1  0.50000000  0.50000000  0.50000000  1.0
  B  B2  1  0.75052988  0.75017869  0.74963548  1.0
  B  B3  1  0.24947012  0.24982131  0.74963548  1.0
  B  B4  1  0.24982131  0.75052988  0.25036452  1.0
  B  B5  1  0.75017869  0.24947012  0.25036452  1.0
  H  H6  1  0.53948831  0.71837324  0.78994402  1.0
  H  H7  1  0.46051169  0.28162676  0.78994402  1.0
  H  H8  1  0.28162676  0.53948831  0.21005598  1.0
  H  H9  1  0.71837324  0.46051169  0.21005598  1.0
  H  H10  1  0.86082010  0.67320450  0.91247603  1.0
  H  H11  1  0.13917990  0.32679550  0.91247603  1.0
  H  H12  1  0.32679550  0.86082010  0.08752397  1.0
  H  H13  1  0.67320450  0.13917990  0.08752397  1.0
  H  H14  1  0.77935766  0.96225631  0.71228559  1.0
  H  H15  1  0.22064234  0.03774369  0.71228559  1.0
  H  H16  1  0.03774369  0.77935766  0.28771441  1.0
  H  H17  1  0.96225631  0.22064234  0.28771441  1.0
  H  H18  1  0.82567387  0.64399558  0.58360818  1.0
  H  H19  1  0.17432613  0.35600442  0.58360818  1.0
  H  H20  1  0.35600442  0.82567387  0.41639182  1.0
  H  H21  1  0.64399558  0.17432613  0.41639182  1.0
