# generated using pymatgen
data_PtF5
_symmetry_space_group_name_H-M   'P 1'
_cell_length_a   5.91762155
_cell_length_b   10.42709230
_cell_length_c   12.90931132
_cell_angle_alpha   90.00000000
_cell_angle_beta   101.75106666
_cell_angle_gamma   90.00000000
_symmetry_Int_Tables_number   1
_chemical_formula_structural   PtF5
_chemical_formula_sum   'Pt8 F40'
_cell_volume   779.85643667
_cell_formula_units_Z   8
loop_
 _symmetry_equiv_pos_site_id
 _symmetry_equiv_pos_as_xyz
  1  'x, y, z'
loop_
 _atom_site_type_symbol
 _atom_site_label
 _atom_site_symmetry_multiplicity
 _atom_site_fract_x
 _atom_site_fract_y
 _atom_site_fract_z
 _atom_site_occupancy
  F  F0  1  0.90048445  0.67801765  0.86629526  1.0
  F  F1  1  0.90048445  0.82198235  0.36629526  1.0
  F  F2  1  0.09951555  0.17801765  0.63370474  1.0
  F  F3  1  0.09951555  0.32198235  0.13370474  1.0
  F  F4  1  0.89682871  0.16199304  0.85469340  1.0
  F  F5  1  0.89682871  0.33800696  0.35469340  1.0
  F  F6  1  0.10317129  0.66199304  0.64530660  1.0
  F  F7  1  0.10317129  0.83800696  0.14530660  1.0
  F  F8  1  0.82607002  0.38784003  0.94911107  1.0
  F  F9  1  0.82607002  0.11215997  0.44911107  1.0
  F  F10  1  0.17392998  0.88784003  0.55088893  1.0
  F  F11  1  0.17392998  0.61215997  0.05088893  1.0
  F  F12  1  0.81186986  0.91780068  0.95002233  1.0
  F  F13  1  0.81186986  0.58219932  0.45002233  1.0
  F  F14  1  0.18813014  0.41780068  0.54997767  1.0
  F  F15  1  0.18813014  0.08219932  0.04997767  1.0
  F  F16  1  0.53608831  0.85566102  0.75336779  1.0
  F  F17  1  0.53608831  0.64433898  0.25336779  1.0
  F  F18  1  0.46391169  0.35566102  0.74663221  1.0
  F  F19  1  0.46391169  0.14433898  0.24663221  1.0
  F  F20  1  0.38483730  0.58486860  0.82637026  1.0
  F  F21  1  0.38483730  0.91513140  0.32637026  1.0
  F  F22  1  0.61516270  0.08486860  0.67362974  1.0
  F  F23  1  0.61516270  0.41513140  0.17362974  1.0
  F  F24  1  0.73879845  0.80745555  0.54599005  1.0
  F  F25  1  0.73879845  0.69254445  0.04599005  1.0
  F  F26  1  0.26120155  0.30745555  0.95400995  1.0
  F  F27  1  0.26120155  0.19254445  0.45400995  1.0
  F  F28  1  0.25497287  0.83233068  0.95482992  1.0
  F  F29  1  0.25497287  0.66766932  0.45482992  1.0
  F  F30  1  0.74502713  0.33233068  0.54517008  1.0
  F  F31  1  0.74502713  0.16766932  0.04517008  1.0
  F  F32  1  0.97409008  0.93450048  0.76257071  1.0
  F  F33  1  0.97409008  0.56549952  0.26257071  1.0
  F  F34  1  0.02590992  0.43450048  0.73742929  1.0
  F  F35  1  0.02590992  0.06549952  0.23742929  1.0
  F  F36  1  0.54521426  0.57104920  0.64672236  1.0
  F  F37  1  0.54521426  0.92895080  0.14672236  1.0
  F  F38  1  0.45478574  0.07104920  0.85327764  1.0
  F  F39  1  0.45478574  0.42895080  0.35327764  1.0
  Pt  Pt40  1  -0.00097214  0.75705802  0.99901622  1.0
  Pt  Pt41  1  -0.00097214  0.74294198  0.49901622  1.0
  Pt  Pt42  1  1.00097214  0.25705802  0.50098378  1.0
  Pt  Pt43  1  1.00097214  0.24294198  0.00098378  1.0
  Pt  Pt44  1  0.70959512  0.00144802  0.80458938  1.0
  Pt  Pt45  1  0.70959512  0.49855198  0.30458938  1.0
  Pt  Pt46  1  0.29040488  0.50144802  0.69541062  1.0
  Pt  Pt47  1  0.29040488  0.99855198  0.19541062  1.0
