# generated using pymatgen
data_LuGe2Os
_symmetry_space_group_name_H-M   'P 1'
_cell_length_a   9.56206509
_cell_length_b   10.55189982
_cell_length_c   8.32196185
_cell_angle_alpha   90.00000000
_cell_angle_beta   90.00000000
_cell_angle_gamma   90.00000000
_symmetry_Int_Tables_number   1
_chemical_formula_structural   LuGe2Os
_chemical_formula_sum   'Lu12 Ge24 Os12'
_cell_volume   839.66891465
_cell_formula_units_Z   12
loop_
 _symmetry_equiv_pos_site_id
 _symmetry_equiv_pos_as_xyz
  1  'x, y, z'
loop_
 _atom_site_type_symbol
 _atom_site_label
 _atom_site_symmetry_multiplicity
 _atom_site_fract_x
 _atom_site_fract_y
 _atom_site_fract_z
 _atom_site_occupancy
  Lu  Lu0  1  0.17808299  0.55201467  0.75197738  1.0
  Lu  Lu1  1  0.17808299  0.55201467  0.24802262  1.0
  Lu  Lu2  1  0.67808299  0.94798533  0.75197738  1.0
  Lu  Lu3  1  0.67808299  0.94798533  0.24802262  1.0
  Lu  Lu4  1  0.82191701  0.44798533  0.75197738  1.0
  Lu  Lu5  1  0.82191701  0.44798533  0.24802262  1.0
  Lu  Lu6  1  0.32191701  0.05201467  0.75197738  1.0
  Lu  Lu7  1  0.32191701  0.05201467  0.24802262  1.0
  Lu  Lu8  1  0.16382051  0.82305619  0.00000000  1.0
  Lu  Lu9  1  0.66382051  0.67694381  0.00000000  1.0
  Lu  Lu10  1  0.83617949  0.17694381  0.00000000  1.0
  Lu  Lu11  1  0.33617949  0.32305619  0.00000000  1.0
  Ge  Ge12  1  0.16194170  0.82134216  0.65176341  1.0
  Ge  Ge13  1  0.16194170  0.82134216  0.34823659  1.0
  Ge  Ge14  1  0.66194170  0.67865784  0.65176341  1.0
  Ge  Ge15  1  0.66194170  0.67865784  0.34823659  1.0
  Ge  Ge16  1  0.83805830  0.17865784  0.65176341  1.0
  Ge  Ge17  1  0.83805830  0.17865784  0.34823659  1.0
  Ge  Ge18  1  0.33805830  0.32134216  0.65176341  1.0
  Ge  Ge19  1  0.33805830  0.32134216  0.34823659  1.0
  Ge  Ge20  1  0.45937186  0.88468646  0.50000000  1.0
  Ge  Ge21  1  0.95937186  0.61531354  0.50000000  1.0
  Ge  Ge22  1  0.54062814  0.11531354  0.50000000  1.0
  Ge  Ge23  1  0.04062814  0.38468646  0.50000000  1.0
  Ge  Ge24  1  0.37570371  0.60189261  0.50000000  1.0
  Ge  Ge25  1  0.87570371  0.89810739  0.50000000  1.0
  Ge  Ge26  1  0.62429629  0.39810739  0.50000000  1.0
  Ge  Ge27  1  0.12429629  0.10189261  0.50000000  1.0
  Ge  Ge28  1  0.46270706  0.88434446  0.00000000  1.0
  Ge  Ge29  1  0.96270706  0.61565554  0.00000000  1.0
  Ge  Ge30  1  0.53729294  0.11565554  0.00000000  1.0
  Ge  Ge31  1  0.03729294  0.38434446  0.00000000  1.0
  Ge  Ge32  1  0.36859051  0.60409644  0.00000000  1.0
  Ge  Ge33  1  0.86859051  0.89590356  0.00000000  1.0
  Ge  Ge34  1  0.63140949  0.39590356  0.00000000  1.0
  Ge  Ge35  1  0.13140949  0.10409644  0.00000000  1.0
  Os  Os36  1  0.41612653  0.76410069  0.74947048  1.0
  Os  Os37  1  0.41612653  0.76410069  0.25052952  1.0
  Os  Os38  1  0.91612653  0.73589931  0.74947048  1.0
  Os  Os39  1  0.91612653  0.73589931  0.25052952  1.0
  Os  Os40  1  0.58387347  0.23589931  0.74947048  1.0
  Os  Os41  1  0.58387347  0.23589931  0.25052952  1.0
  Os  Os42  1  0.08387347  0.26410069  0.74947048  1.0
  Os  Os43  1  0.08387347  0.26410069  0.25052952  1.0
  Os  Os44  1  0.50000000  0.50000000  0.75097990  1.0
  Os  Os45  1  0.50000000  0.50000000  0.24902010  1.0
  Os  Os46  1  0.00000000  0.00000000  0.75097990  1.0
  Os  Os47  1  0.00000000  0.00000000  0.24902010  1.0
