# generated using pymatgen
data_Ca2Sb2S5
_symmetry_space_group_name_H-M   'P 1'
_cell_length_a   15.20475231
_cell_length_b   5.73691807
_cell_length_c   11.43435652
_cell_angle_alpha   90.00000000
_cell_angle_beta   110.89153923
_cell_angle_gamma   90.00000000
_symmetry_Int_Tables_number   1
_chemical_formula_structural   Ca2Sb2S5
_chemical_formula_sum   'Ca8 Sb8 S20'
_cell_volume   931.82885355
_cell_formula_units_Z   4
loop_
 _symmetry_equiv_pos_site_id
 _symmetry_equiv_pos_as_xyz
  1  'x, y, z'
loop_
 _atom_site_type_symbol
 _atom_site_label
 _atom_site_symmetry_multiplicity
 _atom_site_fract_x
 _atom_site_fract_y
 _atom_site_fract_z
 _atom_site_occupancy
  Ca  Ca0  1  0.83455317  0.73796365  0.66852532  1.0
  Ca  Ca1  1  0.83455317  0.76203635  0.16852532  1.0
  Ca  Ca2  1  0.16544683  0.23796365  0.83147468  1.0
  Ca  Ca3  1  0.16544683  0.26203635  0.33147468  1.0
  Ca  Ca4  1  0.60698354  0.73244231  0.80716027  1.0
  Ca  Ca5  1  0.60698354  0.76755769  0.30716027  1.0
  Ca  Ca6  1  0.39301646  0.23244231  0.69283973  1.0
  Ca  Ca7  1  0.39301646  0.26755769  0.19283973  1.0
  Sb  Sb8  1  0.88367586  0.34570876  0.94400549  1.0
  Sb  Sb9  1  0.88367586  0.15429124  0.44400549  1.0
  Sb  Sb10  1  0.11632414  0.84570876  0.55599451  1.0
  Sb  Sb11  1  0.11632414  0.65429124  0.05599451  1.0
  Sb  Sb12  1  0.37469553  0.76611532  0.92358084  1.0
  Sb  Sb13  1  0.37469553  0.73388468  0.42358084  1.0
  Sb  Sb14  1  0.62530447  0.26611532  0.57641916  1.0
  Sb  Sb15  1  0.62530447  0.23388468  0.07641916  1.0
  S  S16  1  0.99945186  0.99400499  0.65314909  1.0
  S  S17  1  0.99945186  0.50599501  0.15314909  1.0
  S  S18  1  0.00054814  0.49400499  0.84685091  1.0
  S  S19  1  0.00054814  0.00599501  0.34685091  1.0
  S  S20  1  0.80502401  0.72880353  0.90463042  1.0
  S  S21  1  0.80502401  0.77119647  0.40463042  1.0
  S  S22  1  0.19497599  0.22880353  0.59536958  1.0
  S  S23  1  0.19497599  0.27119647  0.09536958  1.0
  S  S24  1  0.62107060  0.70297843  0.56408435  1.0
  S  S25  1  0.62107060  0.79702157  0.06408435  1.0
  S  S26  1  0.37892940  0.20297843  0.93591565  1.0
  S  S27  1  0.37892940  0.29702157  0.43591565  1.0
  S  S28  1  0.40416698  0.73510009  0.72096681  1.0
  S  S29  1  0.40416698  0.76489991  0.22096681  1.0
  S  S30  1  0.59583302  0.23510009  0.77903319  1.0
  S  S31  1  0.59583302  0.26489991  0.27903319  1.0
  S  S32  1  0.20087910  0.73924059  0.84044489  1.0
  S  S33  1  0.20087910  0.76075941  0.34044489  1.0
  S  S34  1  0.79912090  0.23924059  0.65955511  1.0
  S  S35  1  0.79912090  0.26075941  0.15955511  1.0
