# generated using pymatgen
data_KInS2
_symmetry_space_group_name_H-M   'P 1'
_cell_length_a   6.55320912
_cell_length_b   6.55320912
_cell_length_c   6.55320912
_cell_angle_alpha   105.56447861
_cell_angle_beta   105.56447861
_cell_angle_gamma   117.60379400
_symmetry_Int_Tables_number   1
_chemical_formula_structural   KInS2
_chemical_formula_sum   'K2 In2 S4'
_cell_volume   213.32431145
_cell_formula_units_Z   2
loop_
 _symmetry_equiv_pos_site_id
 _symmetry_equiv_pos_as_xyz
  1  'x, y, z'
loop_
 _atom_site_type_symbol
 _atom_site_label
 _atom_site_symmetry_multiplicity
 _atom_site_fract_x
 _atom_site_fract_y
 _atom_site_fract_z
 _atom_site_occupancy
  K  K0  1  0.25000000  0.25000000  0.00000000  1.0
  K  K1  1  0.75000000  0.75000000  0.00000000  1.0
  In  In2  1  0.75000000  0.25000000  0.50000000  1.0
  In  In3  1  0.25000000  0.75000000  0.50000000  1.0
  S  S4  1  0.83383120  0.33383120  1.16766240  1.0
  S  S5  1  0.66616880  0.83383120  0.50000000  1.0
  S  S6  1  0.33383120  0.16616880  0.50000000  1.0
  S  S7  1  1.16616880  0.66616880  0.83233760  1.0
