# generated using pymatgen
data_Rb2Ti(AgS2)2
_symmetry_space_group_name_H-M   'P 1'
_cell_length_a   6.02587248
_cell_length_b   6.02587248
_cell_length_c   13.48688012
_cell_angle_alpha   90.00000000
_cell_angle_beta   90.00000000
_cell_angle_gamma   90.00000000
_symmetry_Int_Tables_number   1
_chemical_formula_structural   Rb2Ti(AgS2)2
_chemical_formula_sum   'Rb4 Ti2 Ag4 S8'
_cell_volume   489.72398135
_cell_formula_units_Z   2
loop_
 _symmetry_equiv_pos_site_id
 _symmetry_equiv_pos_as_xyz
  1  'x, y, z'
loop_
 _atom_site_type_symbol
 _atom_site_label
 _atom_site_symmetry_multiplicity
 _atom_site_fract_x
 _atom_site_fract_y
 _atom_site_fract_z
 _atom_site_occupancy
  Rb  Rb0  1  0.73853132  0.73853132  0.00000000  1.0
  Rb  Rb1  1  0.73853132  0.26146868  0.50000000  1.0
  Rb  Rb2  1  0.26146868  0.73853132  0.50000000  1.0
  Rb  Rb3  1  0.26146868  0.26146868  0.00000000  1.0
  Ti  Ti4  1  0.00000000  0.00000000  0.75000000  1.0
  Ti  Ti5  1  0.00000000  0.00000000  0.25000000  1.0
  Ag  Ag6  1  0.00000000  0.50000000  0.75000000  1.0
  Ag  Ag7  1  0.00000000  0.50000000  0.25000000  1.0
  Ag  Ag8  1  0.50000000  0.00000000  0.75000000  1.0
  Ag  Ag9  1  0.50000000  0.00000000  0.25000000  1.0
  S  S10  1  0.78484926  0.78484926  0.64626745  1.0
  S  S11  1  0.78484926  0.78484926  0.35373255  1.0
  S  S12  1  0.78484926  0.21515074  0.14626745  1.0
  S  S13  1  0.78484926  0.21515074  0.85373255  1.0
  S  S14  1  0.21515074  0.78484926  0.14626745  1.0
  S  S15  1  0.21515074  0.78484926  0.85373255  1.0
  S  S16  1  0.21515074  0.21515074  0.64626745  1.0
  S  S17  1  0.21515074  0.21515074  0.35373255  1.0
