# generated using pymatgen
data_Ba2SiSe4
_symmetry_space_group_name_H-M   'P 1'
_cell_length_a   7.04995094
_cell_length_b   7.11229101
_cell_length_c   9.27492639
_cell_angle_alpha   90.00000000
_cell_angle_beta   108.46610978
_cell_angle_gamma   90.00000000
_symmetry_Int_Tables_number   1
_chemical_formula_structural   Ba2SiSe4
_chemical_formula_sum   'Ba4 Si2 Se8'
_cell_volume   441.11165836
_cell_formula_units_Z   2
loop_
 _symmetry_equiv_pos_site_id
 _symmetry_equiv_pos_as_xyz
  1  'x, y, z'
loop_
 _atom_site_type_symbol
 _atom_site_label
 _atom_site_symmetry_multiplicity
 _atom_site_fract_x
 _atom_site_fract_y
 _atom_site_fract_z
 _atom_site_occupancy
  Ba  Ba0  1  0.78461955  0.75000000  0.45555342  1.0
  Ba  Ba1  1  0.21538045  0.25000000  0.54444658  1.0
  Ba  Ba2  1  0.71873373  0.75000000  0.92694718  1.0
  Ba  Ba3  1  0.28126627  0.25000000  0.07305282  1.0
  Si  Si4  1  0.20512544  0.75000000  0.28910153  1.0
  Si  Si5  1  0.79487456  0.25000000  0.71089847  1.0
  Se  Se6  1  0.00365143  0.99611467  0.77163527  1.0
  Se  Se7  1  0.00365143  0.50388533  0.77163527  1.0
  Se  Se8  1  0.99634857  0.49611467  0.22836473  1.0
  Se  Se9  1  0.99634857  0.00388533  0.22836473  1.0
  Se  Se10  1  0.41070701  0.75000000  0.13974396  1.0
  Se  Se11  1  0.58929299  0.25000000  0.86025604  1.0
  Se  Se12  1  0.35814037  0.75000000  0.54757298  1.0
  Se  Se13  1  0.64185963  0.25000000  0.45242702  1.0
