# generated using pymatgen
data_BaZnPF
_symmetry_space_group_name_H-M   'P 1'
_cell_length_a   4.17503896
_cell_length_b   4.17503896
_cell_length_c   9.54675203
_cell_angle_alpha   90.00000000
_cell_angle_beta   90.00000000
_cell_angle_gamma   90.00000000
_symmetry_Int_Tables_number   1
_chemical_formula_structural   BaZnPF
_chemical_formula_sum   'Ba2 Zn2 P2 F2'
_cell_volume   166.40895998
_cell_formula_units_Z   2
loop_
 _symmetry_equiv_pos_site_id
 _symmetry_equiv_pos_as_xyz
  1  'x, y, z'
loop_
 _atom_site_type_symbol
 _atom_site_label
 _atom_site_symmetry_multiplicity
 _atom_site_fract_x
 _atom_site_fract_y
 _atom_site_fract_z
 _atom_site_occupancy
  Ba  Ba0  1  0.50000000  0.00000000  0.16938406  1.0
  Ba  Ba1  1  0.00000000  0.50000000  0.83061594  1.0
  Zn  Zn2  1  0.00000000  0.00000000  0.50000000  1.0
  Zn  Zn3  1  0.50000000  0.50000000  0.50000000  1.0
  P  P4  1  0.50000000  0.00000000  0.64813338  1.0
  P  P5  1  0.00000000  0.50000000  0.35186662  1.0
  F  F6  1  0.00000000  0.00000000  0.00000000  1.0
  F  F7  1  0.50000000  0.50000000  0.00000000  1.0
