# generated using pymatgen
data_CsLa2CuSe4
_symmetry_space_group_name_H-M   'P 1'
_cell_length_a   7.90916860
_cell_length_b   7.90916860
_cell_length_c   14.90708766
_cell_angle_alpha   90.00000000
_cell_angle_beta   90.00000000
_cell_angle_gamma   148.08026568
_symmetry_Int_Tables_number   1
_chemical_formula_structural   CsLa2CuSe4
_chemical_formula_sum   'Cs2 La4 Cu2 Se8'
_cell_volume   493.04778480
_cell_formula_units_Z   2
loop_
 _symmetry_equiv_pos_site_id
 _symmetry_equiv_pos_as_xyz
  1  'x, y, z'
loop_
 _atom_site_type_symbol
 _atom_site_label
 _atom_site_symmetry_multiplicity
 _atom_site_fract_x
 _atom_site_fract_y
 _atom_site_fract_z
 _atom_site_occupancy
  Cs  Cs0  1  0.10502331  0.89497669  0.75000000  1.0
  Cs  Cs1  1  -0.10502331  0.10502331  0.25000000  1.0
  La  La2  1  0.36548021  0.63451979  0.93944974  1.0
  La  La3  1  0.36548021  0.63451979  0.56055026  1.0
  La  La4  1  -0.36548021  0.36548021  0.43944974  1.0
  La  La5  1  -0.36548021  0.36548021  0.06055026  1.0
  Cu  Cu6  1  -0.16533838  0.16533838  0.75000000  1.0
  Cu  Cu7  1  0.16533838  0.83466162  0.25000000  1.0
  Se  Se8  1  0.25847555  0.74152445  0.38815864  1.0
  Se  Se9  1  0.25847555  0.74152445  0.11184136  1.0
  Se  Se10  1  -0.25847555  0.25847555  0.88815864  1.0
  Se  Se11  1  -0.25847555  0.25847555  0.61184136  1.0
  Se  Se12  1  0.41984674  0.58015326  0.75000000  1.0
  Se  Se13  1  -0.41984674  0.41984674  0.25000000  1.0
  Se  Se14  1  0.00000000  0.00000000  0.00000000  1.0
  Se  Se15  1  0.00000000  0.00000000  0.50000000  1.0
