# generated using pymatgen
data_Ge3H
_symmetry_space_group_name_H-M   'P 1'
_cell_length_a   5.40674639
_cell_length_b   5.40674639
_cell_length_c   4.84621922
_cell_angle_alpha   90.00000000
_cell_angle_beta   90.00000000
_cell_angle_gamma   120.00000000
_symmetry_Int_Tables_number   1
_chemical_formula_structural   Ge3H
_chemical_formula_sum   'Ge6 H2'
_cell_volume   122.68901659
_cell_formula_units_Z   2
loop_
 _symmetry_equiv_pos_site_id
 _symmetry_equiv_pos_as_xyz
  1  'x, y, z'
loop_
 _atom_site_type_symbol
 _atom_site_label
 _atom_site_symmetry_multiplicity
 _atom_site_fract_x
 _atom_site_fract_y
 _atom_site_fract_z
 _atom_site_occupancy
  Ge  Ge0  1  0.33567709  0.02917001  0.25000000  1.0
  Ge  Ge1  1  0.69349291  0.66432291  0.25000000  1.0
  Ge  Ge2  1  0.97082999  0.30650709  0.25000000  1.0
  Ge  Ge3  1  0.66432291  0.97082999  0.75000000  1.0
  Ge  Ge4  1  0.30650709  0.33567709  0.75000000  1.0
  Ge  Ge5  1  0.02917001  0.69349291  0.75000000  1.0
  H  H6  1  0.33333333  0.66666667  0.25000000  1.0
  H  H7  1  0.66666667  0.33333333  0.75000000  1.0
