# generated using pymatgen
data_KBiF6
_symmetry_space_group_name_H-M   'P 1'
_cell_length_a   5.48995861
_cell_length_b   5.48995861
_cell_length_c   10.15171663
_cell_angle_alpha   90.00000000
_cell_angle_beta   90.00000000
_cell_angle_gamma   90.00000000
_symmetry_Int_Tables_number   1
_chemical_formula_structural   KBiF6
_chemical_formula_sum   'K2 Bi2 F12'
_cell_volume   305.96914139
_cell_formula_units_Z   2
loop_
 _symmetry_equiv_pos_site_id
 _symmetry_equiv_pos_as_xyz
  1  'x, y, z'
loop_
 _atom_site_type_symbol
 _atom_site_label
 _atom_site_symmetry_multiplicity
 _atom_site_fract_x
 _atom_site_fract_y
 _atom_site_fract_z
 _atom_site_occupancy
  K  K0  1  0.50000000  0.50000000  0.50000000  1.0
  K  K1  1  0.50000000  0.50000000  0.00000000  1.0
  Bi  Bi2  1  0.00000000  0.00000000  0.25000000  1.0
  Bi  Bi3  1  0.00000000  0.00000000  0.75000000  1.0
  F  F4  1  0.73719746  0.73719746  0.25000000  1.0
  F  F5  1  0.26280254  0.26280254  0.25000000  1.0
  F  F6  1  0.26280254  0.73719746  0.75000000  1.0
  F  F7  1  0.73719746  0.26280254  0.75000000  1.0
  F  F8  1  0.81270524  0.18730019  0.39003361  1.0
  F  F9  1  0.18729476  0.81269981  0.39003361  1.0
  F  F10  1  0.18729476  0.18730019  0.89003361  1.0
  F  F11  1  0.81270524  0.81269981  0.89003361  1.0
  F  F12  1  0.18730019  0.18729476  0.60996639  1.0
  F  F13  1  0.81269981  0.81270524  0.60996639  1.0
  F  F14  1  0.18730019  0.81270524  0.10996639  1.0
  F  F15  1  0.81269981  0.18729476  0.10996639  1.0
