# generated using pymatgen
data_MnSn2
_symmetry_space_group_name_H-M   'P 1'
_cell_length_a   5.42914772
_cell_length_b   5.42914772
_cell_length_c   5.42914772
_cell_angle_alpha   104.43295319
_cell_angle_beta   104.43295319
_cell_angle_gamma   120.09969706
_symmetry_Int_Tables_number   1
_chemical_formula_structural   MnSn2
_chemical_formula_sum   'Mn2 Sn4'
_cell_volume   119.96014805
_cell_formula_units_Z   2
loop_
 _symmetry_equiv_pos_site_id
 _symmetry_equiv_pos_as_xyz
  1  'x, y, z'
loop_
 _atom_site_type_symbol
 _atom_site_label
 _atom_site_symmetry_multiplicity
 _atom_site_fract_x
 _atom_site_fract_y
 _atom_site_fract_z
 _atom_site_occupancy
  Mn  Mn0  1  0.25000000  0.25000000  0.00000000  1.0
  Mn  Mn1  1  0.75000000  0.75000000  0.00000000  1.0
  Sn  Sn2  1  0.83538723  0.33538723  1.17077446  1.0
  Sn  Sn3  1  0.66461277  0.83538723  0.50000000  1.0
  Sn  Sn4  1  0.33538723  0.16461277  0.50000000  1.0
  Sn  Sn5  1  1.16461277  0.66461277  0.82922554  1.0
