# generated using pymatgen
data_C2S7Cl6
_symmetry_space_group_name_H-M   'P 1'
_cell_length_a   6.31049524
_cell_length_b   13.81646646
_cell_length_c   11.87635340
_cell_angle_alpha   99.65355689
_cell_angle_beta   95.02377114
_cell_angle_gamma   95.08375343
_symmetry_Int_Tables_number   1
_chemical_formula_structural   C2S7Cl6
_chemical_formula_sum   'C4 S14 Cl12'
_cell_volume   1011.25908979
_cell_formula_units_Z   2
loop_
 _symmetry_equiv_pos_site_id
 _symmetry_equiv_pos_as_xyz
  1  'x, y, z'
loop_
 _atom_site_type_symbol
 _atom_site_label
 _atom_site_symmetry_multiplicity
 _atom_site_fract_x
 _atom_site_fract_y
 _atom_site_fract_z
 _atom_site_occupancy
  C  C0  1  -0.99044244  -0.69117250  -0.45312612  1.0
  C  C1  1  -0.00955756  -0.30882750  -0.54687388  1.0
  C  C2  1  -0.43593832  -0.68304821  -0.94834095  1.0
  C  C3  1  -0.56406168  -0.31695179  -0.05165905  1.0
  S  S4  1  -0.93693327  -0.17399611  -0.50744314  1.0
  S  S5  1  -0.06306673  -0.82600389  -0.49255686  1.0
  S  S6  1  -0.93671427  -0.88222240  -0.35622800  1.0
  S  S7  1  -0.06328573  -0.11777760  -0.64377200  1.0
  S  S8  1  -0.83729042  -0.11600134  -0.76196832  1.0
  S  S9  1  -0.16270958  -0.88399866  -0.23803168  1.0
  S  S10  1  -0.76180971  -0.87226833  -0.76924946  1.0
  S  S11  1  -0.23819029  -0.12773167  -0.23075054  1.0
  S  S12  1  -0.70533215  -0.87937274  -0.94090159  1.0
  S  S13  1  -0.29466785  -0.12062726  -0.05909841  1.0
  S  S14  1  -0.62978280  -0.98874846  -0.71102110  1.0
  S  S15  1  -0.37021720  -0.01125154  -0.28897890  1.0
  S  S16  1  -0.40395882  -0.81464364  -0.94704315  1.0
  S  S17  1  -0.59604118  -0.18535636  -0.05295685  1.0
  Cl  Cl18  1  -0.88987265  -0.36223051  -0.67033752  1.0
  Cl  Cl19  1  -0.11012735  -0.63776949  -0.32966248  1.0
  Cl  Cl20  1  -0.90171060  -0.35213279  -0.42253062  1.0
  Cl  Cl21  1  -0.09828940  -0.64786721  -0.57746938  1.0
  Cl  Cl22  1  -0.70859395  -0.65880589  -0.42848340  1.0
  Cl  Cl23  1  -0.29140605  -0.34119411  -0.57151660  1.0
  Cl  Cl24  1  -0.53238123  -0.62371690  -0.82040537  1.0
  Cl  Cl25  1  -0.46761877  -0.37628310  -0.17959463  1.0
  Cl  Cl26  1  -0.39308186  -0.33434482  -0.93068597  1.0
  Cl  Cl27  1  -0.60691814  -0.66565518  -0.06931403  1.0
  Cl  Cl28  1  -0.16800352  -0.63278670  -0.95749269  1.0
  Cl  Cl29  1  -0.83199648  -0.36721330  -0.04250731  1.0
