# generated using pymatgen
data_CrAsO4
_symmetry_space_group_name_H-M   'P 1'
_cell_length_a   9.23550542
_cell_length_b   9.23550542
_cell_length_c   9.23550542
_cell_angle_alpha   85.76894015
_cell_angle_beta   109.07294187
_cell_angle_gamma   138.33179484
_symmetry_Int_Tables_number   1
_chemical_formula_structural   CrAsO4
_chemical_formula_sum   'Cr6 As6 O24'
_cell_volume   476.41968055
_cell_formula_units_Z   6
loop_
 _symmetry_equiv_pos_site_id
 _symmetry_equiv_pos_as_xyz
  1  'x, y, z'
loop_
 _atom_site_type_symbol
 _atom_site_label
 _atom_site_symmetry_multiplicity
 _atom_site_fract_x
 _atom_site_fract_y
 _atom_site_fract_z
 _atom_site_occupancy
  Cr  Cr0  1  1.00000000  1.00000000  0.50000000  1.0
  Cr  Cr1  1  1.00000000  0.50000000  1.00000000  1.0
  Cr  Cr2  1  0.00000000  0.11496431  0.11496431  1.0
  Cr  Cr3  1  0.50000000  0.11496431  0.61496431  1.0
  Cr  Cr4  1  0.50000000  0.88503569  0.38503569  1.0
  Cr  Cr5  1  1.00000000  0.88503569  0.88503569  1.0
  As  As6  1  1.05816395  0.80816395  1.25000000  1.0
  As  As7  1  0.94183605  0.19183605  0.75000000  1.0
  As  As8  1  1.00000000  0.67546983  0.67546983  1.0
  As  As9  1  0.50000000  0.67546983  0.17546983  1.0
  As  As10  1  0.50000000  0.32453017  0.82453017  1.0
  As  As11  1  -0.00000000  0.32453017  0.32453017  1.0
  O  O12  1  1.07260521  1.18608011  0.34498092  1.0
  O  O13  1  0.65890080  0.27237571  0.84498092  1.0
  O  O14  1  0.65890080  0.81391989  0.38652510  1.0
  O  O15  1  1.07260521  0.72762429  0.88652510  1.0
  O  O16  1  1.34109920  1.18608011  0.61347490  1.0
  O  O17  1  0.92739479  0.27237571  1.11347490  1.0
  O  O18  1  0.92739479  0.81391989  0.65501908  1.0
  O  O19  1  1.34109920  0.72762429  1.15501908  1.0
  O  O20  1  1.08147955  0.43937198  0.85789243  1.0
  O  O21  1  0.91852045  0.77641288  1.35789243  1.0
  O  O22  1  0.91852045  0.56062802  1.14210757  1.0
  O  O23  1  1.08147955  1.22358712  1.64210757  1.0
  O  O24  1  1.09057235  0.97157572  1.11899663  1.0
  O  O25  1  0.64742090  0.02842428  0.61899663  1.0
  O  O26  1  1.35257910  0.97157572  1.38100337  1.0
  O  O27  1  0.90942765  0.02842428  0.88100337  1.0
  O  O28  1  0.33058351  0.39903808  0.14506887  1.0
  O  O29  1  1.24603079  0.81448536  0.64506887  1.0
  O  O30  1  0.24603079  0.60096192  0.43154543  1.0
  O  O31  1  1.33058351  1.18551464  0.93154543  1.0
  O  O32  1  0.75396921  0.39903808  0.56845457  1.0
  O  O33  1  1.66941649  0.81448536  1.06845457  1.0
  O  O34  1  0.66941649  0.60096192  0.85493113  1.0
  O  O35  1  1.75396921  1.18551464  1.35493113  1.0
