# generated using pymatgen
data_VFeO4
_symmetry_space_group_name_H-M   'P 1'
_cell_length_a   9.51053758
_cell_length_b   8.12963835
_cell_length_c   6.80964515
_cell_angle_alpha   101.83814334
_cell_angle_beta   106.80360846
_cell_angle_gamma   97.10000429
_symmetry_Int_Tables_number   1
_chemical_formula_structural   VFeO4
_chemical_formula_sum   'V6 Fe6 O24'
_cell_volume   483.81064911
_cell_formula_units_Z   6
loop_
 _symmetry_equiv_pos_site_id
 _symmetry_equiv_pos_as_xyz
  1  'x, y, z'
loop_
 _atom_site_type_symbol
 _atom_site_label
 _atom_site_symmetry_multiplicity
 _atom_site_fract_x
 _atom_site_fract_y
 _atom_site_fract_z
 _atom_site_occupancy
  V  V0  1  -0.84053024  -0.60210211  -0.69938335  1.0
  V  V1  1  -0.15946976  -0.39789789  -0.30061665  1.0
  V  V2  1  -0.75658134  -0.99579831  -0.50583663  1.0
  V  V3  1  -0.24341866  -0.00420169  -0.49416337  1.0
  V  V4  1  -0.37286520  -0.70352057  -0.97804946  1.0
  V  V5  1  -0.62713480  -0.29647943  -0.02195054  1.0
  Fe  Fe6  1  -0.71033813  -0.88585081  -0.96903593  1.0
  Fe  Fe7  1  -0.28966187  -0.11414919  -0.03096407  1.0
  Fe  Fe8  1  -0.48264720  -0.69927953  -0.52154884  1.0
  Fe  Fe9  1  -0.51735280  -0.30072047  -0.47845116  1.0
  Fe  Fe10  1  -0.91245520  -0.69011484  -0.26024799  1.0
  Fe  Fe11  1  -0.08754480  -0.30988516  -0.73975201  1.0
  O  O12  1  -0.85686433  -0.73636905  -0.94979619  1.0
  O  O13  1  -0.14313567  -0.26363095  -0.05020381  1.0
  O  O14  1  -0.51636934  -0.73178054  -0.85919884  1.0
  O  O15  1  -0.48363066  -0.26821946  -0.14080116  1.0
  O  O16  1  -0.24685610  -0.51778419  -0.85408119  1.0
  O  O17  1  -0.75314390  -0.48221581  -0.14591881  1.0
  O  O18  1  -0.53941682  -0.29590833  -0.76589579  1.0
  O  O19  1  -0.46058318  -0.70409167  -0.23410421  1.0
  O  O20  1  -0.92837343  -0.44157106  -0.75034789  1.0
  O  O21  1  -0.07162657  -0.55842894  -0.24965211  1.0
  O  O22  1  -0.92745003  -0.10115445  -0.65865461  1.0
  O  O23  1  -0.07254997  -0.89884555  -0.34134539  1.0
  O  O24  1  -0.67784312  -0.87063518  -0.64812904  1.0
  O  O25  1  -0.32215688  -0.12936482  -0.35187096  1.0
  O  O26  1  -0.92127967  -0.70279881  -0.55166220  1.0
  O  O27  1  -0.07872033  -0.29720119  -0.44833780  1.0
  O  O28  1  -0.64799182  -0.52451619  -0.55562940  1.0
  O  O29  1  -0.35200818  -0.47548381  -0.44437060  1.0
  O  O30  1  -0.35033013  -0.85760795  -0.54944495  1.0
  O  O31  1  -0.64966987  -0.14239205  -0.45055505  1.0
  O  O32  1  -0.76492689  -0.86982517  -0.26354737  1.0
  O  O33  1  -0.23507311  -0.13017483  -0.73645263  1.0
  O  O34  1  -0.28593973  -0.87744959  -0.97777199  1.0
  O  O35  1  -0.71406027  -0.12255041  -0.02222801  1.0
