# generated using pymatgen
data_SrIn2Pt
_symmetry_space_group_name_H-M   'P 1'
_cell_length_a   5.95514754
_cell_length_b   5.95514754
_cell_length_c   8.06873454
_cell_angle_alpha   90.00000000
_cell_angle_beta   90.00000000
_cell_angle_gamma   135.31216558
_symmetry_Int_Tables_number   1
_chemical_formula_structural   SrIn2Pt
_chemical_formula_sum   'Sr2 In4 Pt2'
_cell_volume   201.23168683
_cell_formula_units_Z   2
loop_
 _symmetry_equiv_pos_site_id
 _symmetry_equiv_pos_as_xyz
  1  'x, y, z'
loop_
 _atom_site_type_symbol
 _atom_site_label
 _atom_site_symmetry_multiplicity
 _atom_site_fract_x
 _atom_site_fract_y
 _atom_site_fract_z
 _atom_site_occupancy
  Sr  Sr0  1  0.43819369  0.56180631  0.75000000  1.0
  Sr  Sr1  1  -0.43819369  0.43819369  0.25000000  1.0
  In  In2  1  0.15159854  0.84840146  0.94632934  1.0
  In  In3  1  0.15159854  0.84840146  0.55367066  1.0
  In  In4  1  -0.15159854  0.15159854  0.44632934  1.0
  In  In5  1  -0.15159854  0.15159854  0.05367066  1.0
  Pt  Pt6  1  -0.27953702  0.27953702  0.75000000  1.0
  Pt  Pt7  1  0.27953702  0.72046298  0.25000000  1.0
