# generated using pymatgen
data_Sr3EuRhO6
_symmetry_space_group_name_H-M   'P 1'
_cell_length_a   6.88247625
_cell_length_b   6.88247625
_cell_length_c   6.88247625
_cell_angle_alpha   91.67981948
_cell_angle_beta   91.67981948
_cell_angle_gamma   91.67981948
_symmetry_Int_Tables_number   1
_chemical_formula_structural   Sr3EuRhO6
_chemical_formula_sum   'Sr6 Eu2 Rh2 O12'
_cell_volume   325.58371496
_cell_formula_units_Z   2
loop_
 _symmetry_equiv_pos_site_id
 _symmetry_equiv_pos_as_xyz
  1  'x, y, z'
loop_
 _atom_site_type_symbol
 _atom_site_label
 _atom_site_symmetry_multiplicity
 _atom_site_fract_x
 _atom_site_fract_y
 _atom_site_fract_z
 _atom_site_occupancy
  Sr  Sr0  1  0.88144833  1.25000000  -0.38144833  1.0
  Sr  Sr1  1  1.38144833  0.11855167  -0.25000000  1.0
  Sr  Sr2  1  0.75000000  0.38144833  0.11855167  1.0
  Sr  Sr3  1  1.25000000  0.61855167  -0.11855167  1.0
  Sr  Sr4  1  1.11855167  -0.25000000  0.38144833  1.0
  Sr  Sr5  1  0.61855167  0.88144833  0.25000000  1.0
  Eu  Eu6  1  0.25000000  0.25000000  0.25000000  1.0
  Eu  Eu7  1  0.75000000  0.75000000  0.75000000  1.0
  Rh  Rh8  1  0.50000000  0.50000000  0.50000000  1.0
  Rh  Rh9  1  0.00000000  0.00000000  0.00000000  1.0
  O  O10  1  1.21022099  0.41730374  -0.45020677  1.0
  O  O11  1  0.71022099  1.04979323  -0.08269626  1.0
  O  O12  1  0.95020677  0.08269626  0.28977901  1.0
  O  O13  1  1.45020677  -0.21022099  0.58269626  1.0
  O  O14  1  1.58269626  0.45020677  -0.21022099  1.0
  O  O15  1  1.08269626  0.28977901  -0.04979323  1.0
  O  O16  1  0.78977901  0.58269626  0.45020677  1.0
  O  O17  1  1.28977901  -0.04979323  0.08269626  1.0
  O  O18  1  0.54979323  1.21022099  -0.58269626  1.0
  O  O19  1  1.04979323  0.91730374  -0.28977901  1.0
  O  O20  1  0.91730374  0.71022099  0.04979323  1.0
  O  O21  1  0.41730374  0.54979323  0.21022099  1.0
