# generated using pymatgen
data_Ni3P4PbO14
_symmetry_space_group_name_H-M   'P 1'
_cell_length_a   7.53476165
_cell_length_b   7.81440131
_cell_length_c   9.56380952
_cell_angle_alpha   90.00000000
_cell_angle_beta   112.35061609
_cell_angle_gamma   90.00000000
_symmetry_Int_Tables_number   1
_chemical_formula_structural   Ni3P4PbO14
_chemical_formula_sum   'Ni6 P8 Pb2 O28'
_cell_volume   520.80936286
_cell_formula_units_Z   2
loop_
 _symmetry_equiv_pos_site_id
 _symmetry_equiv_pos_as_xyz
  1  'x, y, z'
loop_
 _atom_site_type_symbol
 _atom_site_label
 _atom_site_symmetry_multiplicity
 _atom_site_fract_x
 _atom_site_fract_y
 _atom_site_fract_z
 _atom_site_occupancy
  Ni  Ni0  1  0.81772098  0.37445502  0.97751693  1.0
  Ni  Ni1  1  0.81772098  0.12554498  0.47751693  1.0
  Ni  Ni2  1  0.18227902  0.87445502  0.52248307  1.0
  Ni  Ni3  1  0.18227902  0.62554498  0.02248307  1.0
  Ni  Ni4  1  0.00000000  0.00000000  0.00000000  1.0
  Ni  Ni5  1  0.00000000  0.50000000  0.50000000  1.0
  O  O6  1  0.37290158  0.67724927  0.91822523  1.0
  O  O7  1  0.37290158  0.82275073  0.41822523  1.0
  O  O8  1  0.62709842  0.17724927  0.58177477  1.0
  O  O9  1  0.62709842  0.32275073  0.08177477  1.0
  O  O10  1  0.26693065  0.61617491  0.63482667  1.0
  O  O11  1  0.26693065  0.88382509  0.13482667  1.0
  O  O12  1  0.73306935  0.11617491  0.86517333  1.0
  O  O13  1  0.73306935  0.38382509  0.36517333  1.0
  O  O14  1  0.84925695  0.62527908  0.61176760  1.0
  O  O15  1  0.84925695  0.87472092  0.11176760  1.0
  O  O16  1  0.15074305  0.12527908  0.88823240  1.0
  O  O17  1  0.15074305  0.37472092  0.38823240  1.0
  O  O18  1  0.68372220  0.87023737  0.67734715  1.0
  O  O19  1  0.68372220  0.62976263  0.17734715  1.0
  O  O20  1  0.31627780  0.37023737  0.82265285  1.0
  O  O21  1  0.31627780  0.12976263  0.32265285  1.0
  O  O22  1  0.59979354  0.51984152  0.80966899  1.0
  O  O23  1  0.59979354  0.98015848  0.30966899  1.0
  O  O24  1  0.40020646  0.01984152  0.69033101  1.0
  O  O25  1  0.40020646  0.48015848  0.19033101  1.0
  O  O26  1  1.00154097  0.79166714  0.86665909  1.0
  O  O27  1  1.00154097  0.70833286  0.36665909  1.0
  O  O28  1  -0.00154097  0.29166714  0.63334091  1.0
  O  O29  1  -0.00154097  0.20833286  0.13334091  1.0
  O  O30  1  0.97576294  0.92681884  0.61240692  1.0
  O  O31  1  0.97576294  0.57318116  0.11240692  1.0
  O  O32  1  0.02423706  0.42681884  0.88759308  1.0
  O  O33  1  0.02423706  0.07318116  0.38759308  1.0
  Pb  Pb34  1  0.50000000  0.00000000  0.00000000  1.0
  Pb  Pb35  1  0.50000000  0.50000000  0.50000000  1.0
  P  P36  1  0.89142156  0.79799636  0.69347780  1.0
  P  P37  1  0.89142156  0.70200364  0.19347780  1.0
  P  P38  1  0.10857844  0.29799636  0.80652220  1.0
  P  P39  1  0.10857844  0.20200364  0.30652220  1.0
  P  P40  1  0.39505556  0.55678937  0.79945106  1.0
  P  P41  1  0.39505556  0.94321063  0.29945106  1.0
  P  P42  1  0.60494444  0.05678937  0.70054894  1.0
  P  P43  1  0.60494444  0.44321063  0.20054894  1.0
