# generated using pymatgen
data_GaBr2
_symmetry_space_group_name_H-M   'P 1'
_cell_length_a   14.10096130
_cell_length_b   14.10096130
_cell_length_c   14.10096130
_cell_angle_alpha   115.95381322
_cell_angle_beta   115.95381322
_cell_angle_gamma   115.95381322
_symmetry_Int_Tables_number   1
_chemical_formula_structural   GaBr2
_chemical_formula_sum   'Ga12 Br24'
_cell_volume   1423.45507360
_cell_formula_units_Z   12
loop_
 _symmetry_equiv_pos_site_id
 _symmetry_equiv_pos_as_xyz
  1  'x, y, z'
loop_
 _atom_site_type_symbol
 _atom_site_label
 _atom_site_symmetry_multiplicity
 _atom_site_fract_x
 _atom_site_fract_y
 _atom_site_fract_z
 _atom_site_occupancy
  Ga  Ga0  1  0.71468007  0.14470314  -0.00608328  1.0
  Ga  Ga1  1  0.64470314  1.21468007  -0.50608328  1.0
  Ga  Ga2  1  1.21468007  0.49391672  0.64470314  1.0
  Ga  Ga3  1  0.99391672  0.71468007  0.14470314  1.0
  Ga  Ga4  1  0.49391672  0.64470314  -0.78531993  1.0
  Ga  Ga5  1  1.14470314  0.99391672  0.71468007  1.0
  Ga  Ga6  1  0.80162073  0.02801758  0.19460984  1.0
  Ga  Ga7  1  0.52801758  0.30162073  -0.30539016  1.0
  Ga  Ga8  1  1.30162073  0.69460984  0.52801758  1.0
  Ga  Ga9  1  0.19460984  0.80162073  -0.97198242  1.0
  Ga  Ga10  1  0.69460984  0.52801758  0.30162073  1.0
  Ga  Ga11  1  1.02801758  1.19460984  -0.19837927  1.0
  Br  Br12  1  0.79138215  1.06863389  -0.44265457  1.0
  Br  Br13  1  0.56863389  0.29138215  0.05734543  1.0
  Br  Br14  1  1.29138215  1.05734543  0.56863389  1.0
  Br  Br15  1  0.55734543  -0.20861785  0.06863389  1.0
  Br  Br16  1  1.05734543  0.56863389  0.29138215  1.0
  Br  Br17  1  1.06863389  0.55734543  0.79138215  1.0
  Br  Br18  1  0.77176802  -0.03698156  -0.01002880  1.0
  Br  Br19  1  0.46301844  0.27176802  -0.51002880  1.0
  Br  Br20  1  1.27176802  0.48997120  0.46301844  1.0
  Br  Br21  1  0.98997120  1.77176802  -0.03698156  1.0
  Br  Br22  1  0.48997120  0.46301844  0.27176802  1.0
  Br  Br23  1  0.96301844  0.98997120  -0.22823198  1.0
  Br  Br24  1  0.54350834  -0.08815710  -0.36353022  1.0
  Br  Br25  1  0.41184290  0.04350834  0.13646978  1.0
  Br  Br26  1  1.04350834  0.13646978  0.41184290  1.0
  Br  Br27  1  0.63646978  0.54350834  -0.08815710  1.0
  Br  Br28  1  1.13646978  1.41184290  0.04350834  1.0
  Br  Br29  1  0.91184290  0.63646978  0.54350834  1.0
  Br  Br30  1  1.34211070  0.81635177  0.74714930  1.0
  Br  Br31  1  0.31635177  0.84211070  -0.75285070  1.0
  Br  Br32  1  0.84211070  0.24714930  0.31635177  1.0
  Br  Br33  1  0.74714930  0.34211070  -0.18364823  1.0
  Br  Br34  1  1.24714930  1.31635177  -0.15788930  1.0
  Br  Br35  1  0.81635177  0.74714930  0.34211070  1.0
