# generated using pymatgen
data_Ca7(Mg3Si7)2
_symmetry_space_group_name_H-M   'P 1'
_cell_length_a   12.94794163
_cell_length_b   12.94794163
_cell_length_c   4.18940929
_cell_angle_alpha   90.00000000
_cell_angle_beta   90.00000000
_cell_angle_gamma   120.00000000
_symmetry_Int_Tables_number   1
_chemical_formula_structural   Ca7(Mg3Si7)2
_chemical_formula_sum   'Ca7 Mg6 Si14'
_cell_volume   608.25388167
_cell_formula_units_Z   1
loop_
 _symmetry_equiv_pos_site_id
 _symmetry_equiv_pos_as_xyz
  1  'x, y, z'
loop_
 _atom_site_type_symbol
 _atom_site_label
 _atom_site_symmetry_multiplicity
 _atom_site_fract_x
 _atom_site_fract_y
 _atom_site_fract_z
 _atom_site_occupancy
  Ca  Ca0  1  0.18580600  0.81419400  0.00000000  1.0
  Ca  Ca1  1  0.18580600  0.37161199  0.00000000  1.0
  Ca  Ca2  1  0.81419400  0.18580600  -0.00000000  1.0
  Ca  Ca3  1  0.81419400  0.62838801  0.00000000  1.0
  Ca  Ca4  1  0.62838801  0.81419400  0.00000000  1.0
  Ca  Ca5  1  0.37161199  0.18580600  -0.00000000  1.0
  Ca  Ca6  1  0.00000000  0.00000000  0.00000000  1.0
  Mg  Mg7  1  0.58609508  0.41390492  0.50000000  1.0
  Mg  Mg8  1  0.58609508  0.17219016  0.50000000  1.0
  Mg  Mg9  1  0.41390492  0.58609508  0.50000000  1.0
  Mg  Mg10  1  0.41390492  0.82780984  0.50000000  1.0
  Mg  Mg11  1  0.82780984  0.41390492  0.50000000  1.0
  Mg  Mg12  1  0.17219016  0.58609508  0.50000000  1.0
  Si  Si13  1  0.81936412  0.81936412  0.50000000  1.0
  Si  Si14  1  0.81936412  -0.00000000  0.50000000  1.0
  Si  Si15  1  -0.00000000  0.81936412  0.50000000  1.0
  Si  Si16  1  0.00000000  0.18063588  0.50000000  1.0
  Si  Si17  1  0.18063588  0.18063588  0.50000000  1.0
  Si  Si18  1  0.18063588  0.00000000  0.50000000  1.0
  Si  Si19  1  0.64330209  0.64330209  0.50000000  1.0
  Si  Si20  1  0.64330209  0.00000000  0.50000000  1.0
  Si  Si21  1  -0.00000000  0.64330209  0.50000000  1.0
  Si  Si22  1  -0.00000000  0.35669791  0.50000000  1.0
  Si  Si23  1  0.35669791  0.35669791  0.50000000  1.0
  Si  Si24  1  0.35669791  -0.00000000  0.50000000  1.0
  Si  Si25  1  0.33333333  0.66666667  0.00000000  1.0
  Si  Si26  1  0.66666667  0.33333333  -0.00000000  1.0
