# generated using pymatgen
data_KSc2F7
_symmetry_space_group_name_H-M   'P 1'
_cell_length_a   6.32832188
_cell_length_b   6.32832188
_cell_length_c   4.08621063
_cell_angle_alpha   90.00000000
_cell_angle_beta   90.00000000
_cell_angle_gamma   117.13211278
_symmetry_Int_Tables_number   1
_chemical_formula_structural   KSc2F7
_chemical_formula_sum   'K1 Sc2 F7'
_cell_volume   145.63543674
_cell_formula_units_Z   1
loop_
 _symmetry_equiv_pos_site_id
 _symmetry_equiv_pos_as_xyz
  1  'x, y, z'
loop_
 _atom_site_type_symbol
 _atom_site_label
 _atom_site_symmetry_multiplicity
 _atom_site_fract_x
 _atom_site_fract_y
 _atom_site_fract_z
 _atom_site_occupancy
  K  K0  1  0.50000000  0.50000000  0.50000000  1.0
  Sc  Sc1  1  0.19211530  0.80788470  0.00000000  1.0
  Sc  Sc2  1  -0.19211530  1.19211530  0.00000000  1.0
  F  F3  1  -0.16507485  1.54328213  0.00000000  1.0
  F  F4  1  0.54328213  0.83492515  0.00000000  1.0
  F  F5  1  -0.54328213  1.16507485  0.00000000  1.0
  F  F6  1  0.16507485  0.45671787  0.00000000  1.0
  F  F7  1  0.00000000  0.00000000  0.00000000  1.0
  F  F8  1  0.19983996  0.80016004  0.50000000  1.0
  F  F9  1  -0.19983996  1.19983996  0.50000000  1.0
