# generated using pymatgen
data_Cu3B6H2O13
_symmetry_space_group_name_H-M   'P 1'
_cell_length_a   8.82926797
_cell_length_b   8.63554410
_cell_length_c   11.67072618
_cell_angle_alpha   48.77997201
_cell_angle_beta   47.36477886
_cell_angle_gamma   83.85524913
_symmetry_Int_Tables_number   1
_chemical_formula_structural   Cu3B6H2O13
_chemical_formula_sum   'Cu6 B12 H4 O26'
_cell_volume   388.99438947
_cell_formula_units_Z   2
loop_
 _symmetry_equiv_pos_site_id
 _symmetry_equiv_pos_as_xyz
  1  'x, y, z'
loop_
 _atom_site_type_symbol
 _atom_site_label
 _atom_site_symmetry_multiplicity
 _atom_site_fract_x
 _atom_site_fract_y
 _atom_site_fract_z
 _atom_site_occupancy
  H  H0  1  0.18056874  0.14453659  0.40317501  1.0
  H  H1  1  0.84682499  -0.02171966  0.06943126  1.0
  H  H2  1  0.14453659  0.18056874  0.27171966  1.0
  H  H3  1  -0.02171966  0.84682499  0.10546341  1.0
  O  O4  1  0.58275868  0.71608497  0.01593915  1.0
  O  O5  1  1.23406085  0.56478279  -0.33275868  1.0
  O  O6  1  0.71608497  0.58275868  -0.31478279  1.0
  O  O7  1  0.56478279  1.23406085  -0.46608497  1.0
  O  O8  1  0.33462177  0.48025619  0.43547403  1.0
  O  O9  1  0.81452597  0.50035199  -0.08462177  1.0
  O  O10  1  0.48025619  0.33462177  -0.25035199  1.0
  O  O11  1  0.50035199  0.81452597  -0.23025619  1.0
  O  O12  1  0.27822832  -0.21470753  0.71953154  1.0
  O  O13  1  0.53046846  0.03305232  -0.02822832  1.0
  O  O14  1  -0.21470753  0.27822832  0.21694768  1.0
  O  O15  1  0.03305232  0.53046846  0.46470753  1.0
  O  O16  1  -0.05534765  0.11472756  0.72109462  1.0
  O  O17  1  0.52890538  0.03047453  0.30534765  1.0
  O  O18  1  0.11472756  -0.05534765  0.21952547  1.0
  O  O19  1  0.03047453  0.52890538  0.13527244  1.0
  O  O20  1  0.43367828  0.27950328  0.34079648  1.0
  O  O21  1  0.90920352  0.30397803  -0.18367828  1.0
  O  O22  1  0.27950328  0.43367828  -0.05397803  1.0
  O  O23  1  0.30397803  0.90920352  -0.02950328  1.0
  O  O24  1  1.00815065  0.00815065  -0.00815065  1.0
  O  O25  1  0.25815065  0.25815065  0.24184935  1.0
  O  O26  1  1.12678277  0.76319786  -0.51983326  1.0
  O  O27  1  0.76319786  1.12678277  -0.37014738  1.0
  O  O28  1  0.76983326  0.62014738  0.12321723  1.0
  O  O29  1  0.62014738  0.76983326  -0.51319786  1.0
  Cu  Cu30  1  0.10816637  -0.05469184  0.73427392  1.0
  Cu  Cu31  1  0.51572608  0.03774844  0.14183363  1.0
  Cu  Cu32  1  -0.05469184  0.10816637  0.21225156  1.0
  Cu  Cu33  1  0.03774844  0.51572608  0.30469184  1.0
  Cu  Cu34  1  1.38849074  0.38849074  -0.38849074  1.0
  Cu  Cu35  1  0.63849074  0.63849074  -0.13849074  1.0
  B  B36  1  0.05757005  0.35822171  0.60675544  1.0
  B  B37  1  0.64324456  0.27254720  0.19242995  1.0
  B  B38  1  0.35822171  0.05757005  -0.02254720  1.0
  B  B39  1  0.27254720  0.64324456  -0.10822171  1.0
  B  B40  1  0.41083745  -0.21426297  0.54757426  1.0
  B  B41  1  0.70242574  0.99414874  -0.16083745  1.0
  B  B42  1  -0.21426297  0.41083745  0.25585126  1.0
  B  B43  1  0.99414874  0.70242574  -0.53573703  1.0
  B  B44  1  0.52834736  0.52808066  0.22724347  1.0
  B  B45  1  1.02275653  0.53367150  -0.27834736  1.0
  B  B46  1  0.52808066  0.52834736  -0.28367150  1.0
  B  B47  1  0.53367150  1.02275653  -0.27808066  1.0
