# generated using pymatgen
data_Nb3Te4
_symmetry_space_group_name_H-M   'P 1'
_cell_length_a   10.81272847
_cell_length_b   10.81272847
_cell_length_c   3.65620340
_cell_angle_alpha   90.00000000
_cell_angle_beta   90.00000000
_cell_angle_gamma   120.00000000
_symmetry_Int_Tables_number   1
_chemical_formula_structural   Nb3Te4
_chemical_formula_sum   'Nb6 Te8'
_cell_volume   370.19587402
_cell_formula_units_Z   2
loop_
 _symmetry_equiv_pos_site_id
 _symmetry_equiv_pos_as_xyz
  1  'x, y, z'
loop_
 _atom_site_type_symbol
 _atom_site_label
 _atom_site_symmetry_multiplicity
 _atom_site_fract_x
 _atom_site_fract_y
 _atom_site_fract_z
 _atom_site_occupancy
  Nb  Nb0  1  0.38692939  0.89813742  0.25000000  1.0
  Nb  Nb1  1  0.89813742  0.51120803  0.75000000  1.0
  Nb  Nb2  1  0.51120803  0.61307061  0.25000000  1.0
  Nb  Nb3  1  0.10186258  0.48879197  0.25000000  1.0
  Nb  Nb4  1  0.61307061  0.10186258  0.75000000  1.0
  Nb  Nb5  1  0.48879197  0.38692939  0.75000000  1.0
  Te  Te6  1  0.06613019  0.72842854  0.25000000  1.0
  Te  Te7  1  0.72842854  0.66229836  0.75000000  1.0
  Te  Te8  1  0.66229836  0.93386981  0.25000000  1.0
  Te  Te9  1  0.27157146  0.33770164  0.25000000  1.0
  Te  Te10  1  0.93386981  0.27157146  0.75000000  1.0
  Te  Te11  1  0.33770164  0.06613019  0.75000000  1.0
  Te  Te12  1  0.66666667  0.33333333  0.25000000  1.0
  Te  Te13  1  0.33333333  0.66666667  0.75000000  1.0
