# generated using pymatgen
data_KCa7Si3(O4F)3
_symmetry_space_group_name_H-M   'P 1'
_cell_length_a   10.89866991
_cell_length_b   10.89866991
_cell_length_c   6.69896716
_cell_angle_alpha   90.00000000
_cell_angle_beta   90.00000000
_cell_angle_gamma   120.00000000
_symmetry_Int_Tables_number   1
_chemical_formula_structural   KCa7Si3(O4F)3
_chemical_formula_sum   'K2 Ca14 Si6 O24 F6'
_cell_volume   689.10512323
_cell_formula_units_Z   2
loop_
 _symmetry_equiv_pos_site_id
 _symmetry_equiv_pos_as_xyz
  1  'x, y, z'
loop_
 _atom_site_type_symbol
 _atom_site_label
 _atom_site_symmetry_multiplicity
 _atom_site_fract_x
 _atom_site_fract_y
 _atom_site_fract_z
 _atom_site_occupancy
  K  K0  1  0.66666667  0.33333333  0.81094309  1.0
  K  K1  1  0.33333333  0.66666667  0.31094309  1.0
  Ca  Ca2  1  0.00000000  0.00000000  0.84963197  1.0
  Ca  Ca3  1  0.00000000  0.00000000  0.34963197  1.0
  Ca  Ca4  1  0.06155285  0.51824550  0.94350649  1.0
  Ca  Ca5  1  0.48175450  0.54330735  0.94350649  1.0
  Ca  Ca6  1  0.45669265  0.93844715  0.94350649  1.0
  Ca  Ca7  1  0.51824550  0.06155285  0.44350649  1.0
  Ca  Ca8  1  0.54330735  0.48175450  0.44350649  1.0
  Ca  Ca9  1  0.93844715  0.45669265  0.44350649  1.0
  Ca  Ca10  1  0.17539989  0.80678087  0.62756384  1.0
  Ca  Ca11  1  0.19321913  0.36861902  0.62756384  1.0
  Ca  Ca12  1  0.63138098  0.82460011  0.62756384  1.0
  Ca  Ca13  1  0.80678087  0.17539989  0.12756384  1.0
  Ca  Ca14  1  0.36861902  0.19321913  0.12756384  1.0
  Ca  Ca15  1  0.82460011  0.63138098  0.12756384  1.0
  Si  Si16  1  0.84725937  0.66330894  0.64951092  1.0
  Si  Si17  1  0.33669106  0.18395042  0.64951092  1.0
  Si  Si18  1  0.81604958  0.15274063  0.64951092  1.0
  Si  Si19  1  0.66330894  0.84725937  0.14951092  1.0
  Si  Si20  1  0.18395042  0.33669106  0.14951092  1.0
  Si  Si21  1  0.15274063  0.81604958  0.14951092  1.0
  O  O22  1  0.78323801  0.55413151  0.45667438  1.0
  O  O23  1  0.44586849  0.22910651  0.45667438  1.0
  O  O24  1  0.77089349  0.21676199  0.45667438  1.0
  O  O25  1  0.55413151  0.78323801  0.95667438  1.0
  O  O26  1  0.22910651  0.44586849  0.95667438  1.0
  O  O27  1  0.21676199  0.77089349  0.95667438  1.0
  O  O28  1  0.92489138  0.59572225  0.78643098  1.0
  O  O29  1  0.40427775  0.32916912  0.78643098  1.0
  O  O30  1  0.67083088  0.07510862  0.78643098  1.0
  O  O31  1  0.59572225  0.92489138  0.28643098  1.0
  O  O32  1  0.32916912  0.40427775  0.28643098  1.0
  O  O33  1  0.07510862  0.67083088  0.28643098  1.0
  O  O34  1  0.71438011  0.65995971  0.77223805  1.0
  O  O35  1  0.34004029  0.05442039  0.77223805  1.0
  O  O36  1  0.94557961  0.28561989  0.77223805  1.0
  O  O37  1  0.65995971  0.71438011  0.27223805  1.0
  O  O38  1  0.05442039  0.34004029  0.27223805  1.0
  O  O39  1  0.28561989  0.94557961  0.27223805  1.0
  O  O40  1  0.17238695  0.14178711  0.59260638  1.0
  O  O41  1  0.85821289  0.03059985  0.59260638  1.0
  O  O42  1  0.96940015  0.82761305  0.59260638  1.0
  O  O43  1  0.14178711  0.17238695  0.09260638  1.0
  O  O44  1  0.03059985  0.85821289  0.09260638  1.0
  O  O45  1  0.82761305  0.96940015  0.09260638  1.0
  F  F46  1  0.84945050  0.41113933  0.11651392  1.0
  F  F47  1  0.58886067  0.43831117  0.11651392  1.0
  F  F48  1  0.56168883  0.15054950  0.11651392  1.0
  F  F49  1  0.41113933  0.84945050  0.61651392  1.0
  F  F50  1  0.43831117  0.58886067  0.61651392  1.0
  F  F51  1  0.15054950  0.56168883  0.61651392  1.0
