# generated using pymatgen
data_Tb3B7W
_symmetry_space_group_name_H-M   'P 1'
_cell_length_a   8.13713568
_cell_length_b   8.13713568
_cell_length_c   9.43547846
_cell_angle_alpha   90.00000000
_cell_angle_beta   90.00000000
_cell_angle_gamma   155.37665822
_symmetry_Int_Tables_number   1
_chemical_formula_structural   Tb3B7W
_chemical_formula_sum   'Tb6 B14 W2'
_cell_volume   260.30328640
_cell_formula_units_Z   2
loop_
 _symmetry_equiv_pos_site_id
 _symmetry_equiv_pos_as_xyz
  1  'x, y, z'
loop_
 _atom_site_type_symbol
 _atom_site_label
 _atom_site_symmetry_multiplicity
 _atom_site_fract_x
 _atom_site_fract_y
 _atom_site_fract_z
 _atom_site_occupancy
  Tb  Tb0  1  0.39307954  0.60692046  0.93936593  1.0
  Tb  Tb1  1  0.39307954  0.60692046  0.56063407  1.0
  Tb  Tb2  1  -0.39307954  0.39307954  0.43936593  1.0
  Tb  Tb3  1  -0.39307954  0.39307954  0.06063407  1.0
  Tb  Tb4  1  -0.25451271  0.25451271  0.75000000  1.0
  Tb  Tb5  1  0.25451271  0.74548729  0.25000000  1.0
  B  B6  1  0.01997557  0.98002443  0.90833313  1.0
  B  B7  1  0.01997557  0.98002443  0.59166687  1.0
  B  B8  1  -0.01997557  0.01997557  0.40833313  1.0
  B  B9  1  -0.01997557  0.01997557  0.09166687  1.0
  B  B10  1  0.13488758  0.86511242  0.85211750  1.0
  B  B11  1  0.13488758  0.86511242  0.64788250  1.0
  B  B12  1  -0.13488758  0.13488758  0.35211750  1.0
  B  B13  1  -0.13488758  0.13488758  0.14788250  1.0
  B  B14  1  0.22708296  0.77291704  0.96744904  1.0
  B  B15  1  0.22708296  0.77291704  0.53255096  1.0
  B  B16  1  -0.22708296  0.22708296  0.46744904  1.0
  B  B17  1  -0.22708296  0.22708296  0.03255096  1.0
  B  B18  1  -0.04404399  0.04404399  0.75000000  1.0
  B  B19  1  0.04404399  0.95595601  0.25000000  1.0
  W  W20  1  -0.44660440  0.44660440  0.75000000  1.0
  W  W21  1  0.44660440  0.55339560  0.25000000  1.0
