# generated using pymatgen
data_Zr(SO4)2
_symmetry_space_group_name_H-M   'P 1'
_cell_length_a   8.73873914
_cell_length_b   5.53830977
_cell_length_c   11.19073656
_cell_angle_alpha   90.00000000
_cell_angle_beta   90.00000000
_cell_angle_gamma   90.00000000
_symmetry_Int_Tables_number   1
_chemical_formula_structural   Zr(SO4)2
_chemical_formula_sum   'Zr4 S8 O32'
_cell_volume   541.60752585
_cell_formula_units_Z   4
loop_
 _symmetry_equiv_pos_site_id
 _symmetry_equiv_pos_as_xyz
  1  'x, y, z'
loop_
 _atom_site_type_symbol
 _atom_site_label
 _atom_site_symmetry_multiplicity
 _atom_site_fract_x
 _atom_site_fract_y
 _atom_site_fract_z
 _atom_site_occupancy
  Zr  Zr0  1  0.75526448  0.75000000  0.40155737  1.0
  Zr  Zr1  1  0.25526448  0.75000000  0.09844263  1.0
  Zr  Zr2  1  0.24473552  0.25000000  0.59844263  1.0
  Zr  Zr3  1  0.74473552  0.25000000  0.90155737  1.0
  S  S4  1  1.00563441  0.75000000  0.65328918  1.0
  S  S5  1  0.50563441  0.75000000  0.84671082  1.0
  S  S6  1  -0.00563441  0.25000000  0.34671082  1.0
  S  S7  1  0.49436559  0.25000000  0.15328918  1.0
  S  S8  1  0.85484924  0.75000000  0.09470010  1.0
  S  S9  1  0.35484924  0.75000000  0.40529990  1.0
  S  S10  1  0.14515076  0.25000000  0.90529990  1.0
  S  S11  1  0.64515076  0.25000000  0.59470010  1.0
  O  O12  1  0.88984796  0.46604182  0.34301473  1.0
  O  O13  1  0.88984796  0.03395818  0.34301473  1.0
  O  O14  1  0.38984796  0.46604182  0.15698527  1.0
  O  O15  1  0.38984796  0.03395818  0.15698527  1.0
  O  O16  1  0.11015204  0.96604182  0.65698527  1.0
  O  O17  1  0.11015204  0.53395818  0.65698527  1.0
  O  O18  1  0.61015204  0.96604182  0.84301473  1.0
  O  O19  1  0.61015204  0.53395818  0.84301473  1.0
  O  O20  1  0.83328407  0.97012551  0.02040779  1.0
  O  O21  1  0.83328407  0.52987449  0.02040779  1.0
  O  O22  1  0.33328407  0.97012551  0.47959221  1.0
  O  O23  1  0.33328407  0.52987449  0.47959221  1.0
  O  O24  1  0.16671593  0.47012551  0.97959221  1.0
  O  O25  1  0.16671593  0.02987449  0.97959221  1.0
  O  O26  1  0.66671593  0.47012551  0.52040779  1.0
  O  O27  1  0.66671593  0.02987449  0.52040779  1.0
  O  O28  1  0.92981378  0.75000000  0.53360279  1.0
  O  O29  1  0.42981378  0.75000000  0.96639721  1.0
  O  O30  1  0.07018622  0.25000000  0.46639721  1.0
  O  O31  1  0.57018622  0.25000000  0.03360279  1.0
  O  O32  1  0.90137511  0.75000000  0.75265025  1.0
  O  O33  1  0.40137511  0.75000000  0.74734975  1.0
  O  O34  1  0.09862489  0.25000000  0.24734975  1.0
  O  O35  1  0.59862489  0.25000000  0.25265025  1.0
  O  O36  1  0.74422982  0.75000000  0.19502470  1.0
  O  O37  1  0.24422982  0.75000000  0.30497530  1.0
  O  O38  1  0.25577018  0.25000000  0.80497530  1.0
  O  O39  1  0.75577018  0.25000000  0.69502470  1.0
  O  O40  1  0.51581641  0.75000000  0.35850105  1.0
  O  O41  1  0.01581641  0.75000000  0.14149895  1.0
  O  O42  1  0.48418359  0.25000000  0.64149895  1.0
  O  O43  1  0.98418359  0.25000000  0.85850105  1.0
