# generated using pymatgen
data_KBiF6
_symmetry_space_group_name_H-M   'P 1'
_cell_length_a   9.23834937
_cell_length_b   9.23834937
_cell_length_c   9.23834937
_cell_angle_alpha   109.47122063
_cell_angle_beta   109.47122063
_cell_angle_gamma   109.47122063
_symmetry_Int_Tables_number   1
_chemical_formula_structural   KBiF6
_chemical_formula_sum   'K4 Bi4 F24'
_cell_volume   606.96165473
_cell_formula_units_Z   4
loop_
 _symmetry_equiv_pos_site_id
 _symmetry_equiv_pos_as_xyz
  1  'x, y, z'
loop_
 _atom_site_type_symbol
 _atom_site_label
 _atom_site_symmetry_multiplicity
 _atom_site_fract_x
 _atom_site_fract_y
 _atom_site_fract_z
 _atom_site_occupancy
  K  K0  1  1.00000000  0.50000000  1.00000000  1.0
  K  K1  1  0.50000000  0.50000000  0.50000000  1.0
  K  K2  1  1.00000000  1.00000000  1.50000000  1.0
  K  K3  1  1.50000000  1.00000000  1.00000000  1.0
  Bi  Bi4  1  0.50000000  0.50000000  0.00000000  1.0
  Bi  Bi5  1  1.00000000  1.00000000  1.00000000  1.0
  Bi  Bi6  1  0.00000000  0.50000000  0.50000000  1.0
  Bi  Bi7  1  0.50000000  1.00000000  0.50000000  1.0
  F  F8  1  0.75443163  0.70130627  0.17492625  1.0
  F  F9  1  1.25443163  1.07950538  1.05312535  1.0
  F  F10  1  1.02638003  0.57950538  1.32507375  1.0
  F  F11  1  1.52638003  1.20130627  1.44687465  1.0
  F  F12  1  1.55312535  1.47361997  1.79869373  1.0
  F  F13  1  1.05312535  1.25443163  1.07950538  1.0
  F  F14  1  0.17492625  0.75443163  0.70130627  1.0
  F  F15  1  0.67492625  0.97361997  0.42049462  1.0
  F  F16  1  1.57950538  1.32507375  1.02638003  1.0
  F  F17  1  1.07950538  1.05312535  1.25443163  1.0
  F  F18  1  0.79869373  0.55312535  0.47361997  1.0
  F  F19  1  1.29869373  0.82507375  1.24556837  1.0
  F  F20  1  0.97361997  1.42049462  0.67492625  1.0
  F  F21  1  0.47361997  0.79869373  0.55312535  1.0
  F  F22  1  1.24556837  1.29869373  1.82507375  1.0
  F  F23  1  0.74556837  0.92049462  0.94687465  1.0
  F  F24  1  1.82507375  1.24556837  1.29869373  1.0
  F  F25  1  1.32507375  1.02638003  1.57950538  1.0
  F  F26  1  0.44687465  0.52638003  0.20130627  1.0
  F  F27  1  0.94687465  0.74556837  0.92049462  1.0
  F  F28  1  1.20130627  1.44687465  1.52638003  1.0
  F  F29  1  0.70130627  1.17492625  0.75443163  1.0
  F  F30  1  0.42049462  0.67492625  0.97361997  1.0
  F  F31  1  0.92049462  0.94687465  0.74556837  1.0
