# generated using pymatgen
data_ScO2
_symmetry_space_group_name_H-M   'P 1'
_cell_length_a   3.27995181
_cell_length_b   4.33582679
_cell_length_c   5.04746430
_cell_angle_alpha   90.00000000
_cell_angle_beta   90.00000000
_cell_angle_gamma   90.00000000
_symmetry_Int_Tables_number   1
_chemical_formula_structural   ScO2
_chemical_formula_sum   'Sc2 O4'
_cell_volume   71.78151894
_cell_formula_units_Z   2
loop_
 _symmetry_equiv_pos_site_id
 _symmetry_equiv_pos_as_xyz
  1  'x, y, z'
loop_
 _atom_site_type_symbol
 _atom_site_label
 _atom_site_symmetry_multiplicity
 _atom_site_fract_x
 _atom_site_fract_y
 _atom_site_fract_z
 _atom_site_occupancy
  Sc  Sc0  1  0.50000000  0.74992043  0.13601034  1.0
  Sc  Sc1  1  0.00000000  0.25007957  0.63601034  1.0
  O  O2  1  0.50000000  0.97008799  0.50883928  1.0
  O  O3  1  0.00000000  0.02991201  0.00883928  1.0
  O  O4  1  0.50000000  0.53008524  0.76295039  1.0
  O  O5  1  -0.00000000  0.46991476  0.26295039  1.0
