# generated using pymatgen
data_Ga2I3
_symmetry_space_group_name_H-M   'P 1'
_cell_length_a   7.99398965
_cell_length_b   8.49070356
_cell_length_c   14.51274627
_cell_angle_alpha   90.00000000
_cell_angle_beta   118.44082082
_cell_angle_gamma   90.00000000
_symmetry_Int_Tables_number   1
_chemical_formula_structural   Ga2I3
_chemical_formula_sum   'Ga8 I12'
_cell_volume   866.16099365
_cell_formula_units_Z   4
loop_
 _symmetry_equiv_pos_site_id
 _symmetry_equiv_pos_as_xyz
  1  'x, y, z'
loop_
 _atom_site_type_symbol
 _atom_site_label
 _atom_site_symmetry_multiplicity
 _atom_site_fract_x
 _atom_site_fract_y
 _atom_site_fract_z
 _atom_site_occupancy
  Ga  Ga0  1  0.37520921  0.08770170  0.43785172  1.0
  Ga  Ga1  1  0.37520921  0.41229830  0.93785172  1.0
  Ga  Ga2  1  0.62479079  0.58770170  0.06214828  1.0
  Ga  Ga3  1  0.62479079  0.91229830  0.56214828  1.0
  Ga  Ga4  1  0.79299188  0.07941618  0.31616818  1.0
  Ga  Ga5  1  0.79299188  0.42058382  0.81616818  1.0
  Ga  Ga6  1  0.20700812  0.57941618  0.18383182  1.0
  Ga  Ga7  1  0.20700812  0.92058382  0.68383182  1.0
  I  I8  1  0.51769984  0.32295918  0.37952484  1.0
  I  I9  1  0.51769984  0.17704082  0.87952484  1.0
  I  I10  1  0.48230016  0.82295918  0.12047516  1.0
  I  I11  1  0.48230016  0.67704082  0.62047516  1.0
  I  I12  1  0.88005001  0.44545679  0.23442110  1.0
  I  I13  1  0.88005001  0.05454321  0.73442110  1.0
  I  I14  1  0.11994999  0.94545679  0.26557890  1.0
  I  I15  1  0.11994999  0.55454321  0.76557890  1.0
  I  I16  1  0.82802342  0.78772092  0.47812757  1.0
  I  I17  1  0.82802342  0.71227908  0.97812757  1.0
  I  I18  1  0.17197658  0.28772092  0.02187243  1.0
  I  I19  1  0.17197658  0.21227908  0.52187243  1.0
