# generated using pymatgen
data_TiMnO3
_symmetry_space_group_name_H-M   'P 1'
_cell_length_a   5.53762859
_cell_length_b   5.53762859
_cell_length_c   5.53762859
_cell_angle_alpha   56.03395432
_cell_angle_beta   56.03395432
_cell_angle_gamma   56.03395432
_symmetry_Int_Tables_number   1
_chemical_formula_structural   TiMnO3
_chemical_formula_sum   'Ti2 Mn2 O6'
_cell_volume   109.04498114
_cell_formula_units_Z   2
loop_
 _symmetry_equiv_pos_site_id
 _symmetry_equiv_pos_as_xyz
  1  'x, y, z'
loop_
 _atom_site_type_symbol
 _atom_site_label
 _atom_site_symmetry_multiplicity
 _atom_site_fract_x
 _atom_site_fract_y
 _atom_site_fract_z
 _atom_site_occupancy
  Ti  Ti0  1  0.00491924  0.00491924  0.00491924  1.0
  Ti  Ti1  1  0.50491924  0.50491924  -0.49508076  1.0
  Mn  Mn2  1  0.78488203  -0.21511797  -0.21511797  1.0
  Mn  Mn3  1  0.28488203  0.28488203  0.28488203  1.0
  O  O4  1  0.61580407  -0.14191191  0.22420657  1.0
  O  O5  1  0.11580407  0.72420657  -0.64191191  1.0
  O  O6  1  0.72420657  0.35808809  -0.88419593  1.0
  O  O7  1  1.22420657  -0.38419593  -0.14191191  1.0
  O  O8  1  0.35808809  0.11580407  -0.27579343  1.0
  O  O9  1  0.85808809  0.22420657  -0.38419593  1.0
