# generated using pymatgen
data_Ca(BH)2
_symmetry_space_group_name_H-M   'P 1'
_cell_length_a   3.47133920
_cell_length_b   3.47133920
_cell_length_c   3.97385304
_cell_angle_alpha   90.00000000
_cell_angle_beta   90.00000000
_cell_angle_gamma   120.00000000
_symmetry_Int_Tables_number   1
_chemical_formula_structural   Ca(BH)2
_chemical_formula_sum   'Ca1 B2 H2'
_cell_volume   41.47023899
_cell_formula_units_Z   1
loop_
 _symmetry_equiv_pos_site_id
 _symmetry_equiv_pos_as_xyz
  1  'x, y, z'
loop_
 _atom_site_type_symbol
 _atom_site_label
 _atom_site_symmetry_multiplicity
 _atom_site_fract_x
 _atom_site_fract_y
 _atom_site_fract_z
 _atom_site_occupancy
  Ca  Ca0  1  0.00000000  0.00000000  0.00000000  1.0
  B  B1  1  0.66666667  0.33333333  0.53744756  1.0
  B  B2  1  0.33333333  0.66666667  0.46255244  1.0
  H  H3  1  0.66666667  0.33333333  0.84879323  1.0
  H  H4  1  0.33333333  0.66666667  0.15120677  1.0
