# generated using pymatgen
data_NaIO4
_symmetry_space_group_name_H-M   'P 1'
_cell_length_a   7.18209813
_cell_length_b   7.18209813
_cell_length_c   9.05746189
_cell_angle_alpha   68.11561533
_cell_angle_beta   111.88438467
_cell_angle_gamma   148.75876193
_symmetry_Int_Tables_number   1
_chemical_formula_structural   NaIO4
_chemical_formula_sum   'Na2 I2 O8'
_cell_volume   223.42919699
_cell_formula_units_Z   2
loop_
 _symmetry_equiv_pos_site_id
 _symmetry_equiv_pos_as_xyz
  1  'x, y, z'
loop_
 _atom_site_type_symbol
 _atom_site_label
 _atom_site_symmetry_multiplicity
 _atom_site_fract_x
 _atom_site_fract_y
 _atom_site_fract_z
 _atom_site_occupancy
  O  O0  1  0.83199595  0.21597272  0.91270089  1.0
  O  O1  1  1.21597272  -0.16800405  0.08729911  1.0
  O  O2  1  0.89347898  -0.87360685  0.26482553  1.0
  O  O3  1  0.12639315  -0.10652102  0.73517447  1.0
  O  O4  1  0.70547400  -0.85678732  0.38486147  1.0
  O  O5  1  0.14321268  -0.29452600  0.61513853  1.0
  O  O6  1  1.38256556  0.50393471  0.80297295  1.0
  O  O7  1  1.50393471  0.38256556  0.19702705  1.0
  Na  Na8  1  0.64418200  0.39426257  0.90172817  1.0
  Na  Na9  1  1.39426257  -0.35581800  0.09827183  1.0
  I  I10  1  0.94568210  0.28184557  0.72582537  1.0
  I  I11  1  1.28184557  -0.05431790  0.27417463  1.0
