# generated using pymatgen
data_SrZnCl4
_symmetry_space_group_name_H-M   'P 1'
_cell_length_a   8.65553614
_cell_length_b   8.65553614
_cell_length_c   8.65553614
_cell_angle_alpha   135.41552196
_cell_angle_beta   135.41552196
_cell_angle_gamma   64.88525351
_symmetry_Int_Tables_number   1
_chemical_formula_structural   SrZnCl4
_chemical_formula_sum   'Sr2 Zn2 Cl8'
_cell_volume   314.98084022
_cell_formula_units_Z   2
loop_
 _symmetry_equiv_pos_site_id
 _symmetry_equiv_pos_as_xyz
  1  'x, y, z'
loop_
 _atom_site_type_symbol
 _atom_site_label
 _atom_site_symmetry_multiplicity
 _atom_site_fract_x
 _atom_site_fract_y
 _atom_site_fract_z
 _atom_site_occupancy
  Sr  Sr0  1  0.75000000  0.25000000  0.50000000  1.0
  Sr  Sr1  1  1.00000000  1.00000000  1.00000000  1.0
  Zn  Zn2  1  0.25000000  0.75000000  0.50000000  1.0
  Zn  Zn3  1  0.50000000  0.50000000  0.00000000  1.0
  Cl  Cl4  1  1.07039069  0.98612182  1.39550842  1.0
  Cl  Cl5  1  0.59061340  0.67488227  0.60449158  1.0
  Cl  Cl6  1  1.42488227  1.32039069  1.58426887  1.0
  Cl  Cl7  1  0.73612182  0.84061340  0.41573113  1.0
  Cl  Cl8  1  0.67960931  1.26387818  1.10449158  1.0
  Cl  Cl9  1  1.15938660  0.57511773  0.89550842  1.0
  Cl  Cl10  1  0.32511773  0.92960931  0.91573113  1.0
  Cl  Cl11  1  1.01387818  0.40938660  1.08426887  1.0
