# generated using pymatgen
data_KSbS2
_symmetry_space_group_name_H-M   'P 1'
_cell_length_a   6.47115664
_cell_length_b   6.47115664
_cell_length_c   6.99106422
_cell_angle_alpha   68.85974731
_cell_angle_beta   111.14025269
_cell_angle_gamma   86.37022247
_symmetry_Int_Tables_number   1
_chemical_formula_structural   KSbS2
_chemical_formula_sum   'K2 Sb2 S4'
_cell_volume   248.30594692
_cell_formula_units_Z   2
loop_
 _symmetry_equiv_pos_site_id
 _symmetry_equiv_pos_as_xyz
  1  'x, y, z'
loop_
 _atom_site_type_symbol
 _atom_site_label
 _atom_site_symmetry_multiplicity
 _atom_site_fract_x
 _atom_site_fract_y
 _atom_site_fract_z
 _atom_site_occupancy
  K  K0  1  0.85777004  -0.14222996  0.75000000  1.0
  K  K1  1  1.14222996  0.14222996  0.25000000  1.0
  Sb  Sb2  1  1.41496278  0.41496278  0.75000000  1.0
  Sb  Sb3  1  0.58503722  -0.41496278  0.25000000  1.0
  S  S4  1  0.37321666  -0.21848229  0.77956188  1.0
  S  S5  1  1.21848229  0.62678334  0.27956188  1.0
  S  S6  1  0.78151771  -0.62678334  0.72043812  1.0
  S  S7  1  1.62678334  0.21848229  0.22043812  1.0
