# generated using pymatgen
data_KRb3CdCl6
_symmetry_space_group_name_H-M   'P 1'
_cell_length_a   8.95163550
_cell_length_b   8.95163550
_cell_length_c   8.95163550
_cell_angle_alpha   90.71109649
_cell_angle_beta   90.71109649
_cell_angle_gamma   90.71109649
_symmetry_Int_Tables_number   1
_chemical_formula_structural   KRb3CdCl6
_chemical_formula_sum   'K2 Rb6 Cd2 Cl12'
_cell_volume   717.14335434
_cell_formula_units_Z   2
loop_
 _symmetry_equiv_pos_site_id
 _symmetry_equiv_pos_as_xyz
  1  'x, y, z'
loop_
 _atom_site_type_symbol
 _atom_site_label
 _atom_site_symmetry_multiplicity
 _atom_site_fract_x
 _atom_site_fract_y
 _atom_site_fract_z
 _atom_site_occupancy
  K  K0  1  0.00211266  0.00211266  0.00211266  1.0
  K  K1  1  0.50211266  0.50211266  0.50211266  1.0
  Rb  Rb2  1  0.62750063  1.00225855  -0.62320189  1.0
  Rb  Rb3  1  1.12750063  -0.12320189  0.50225855  1.0
  Rb  Rb4  1  1.50225855  0.12750063  -0.12320189  1.0
  Rb  Rb5  1  1.00225855  0.37679811  -0.37249937  1.0
  Rb  Rb6  1  0.87679811  0.50225855  0.12750063  1.0
  Rb  Rb7  1  0.37679811  0.62750063  0.00225855  1.0
  Cd  Cd8  1  0.25209060  0.25209060  0.25209060  1.0
  Cd  Cd9  1  0.75209060  0.75209060  0.75209060  1.0
  Cl  Cl10  1  0.96617624  0.17655557  -0.69506495  1.0
  Cl  Cl11  1  1.46617624  -0.19506495  0.67655557  1.0
  Cl  Cl12  1  1.67655557  0.46617624  -0.19506495  1.0
  Cl  Cl13  1  1.17655557  -0.69506495  -0.03382376  1.0
  Cl  Cl14  1  0.80493505  0.67655557  0.46617624  1.0
  Cl  Cl15  1  0.30493505  -0.03382376  0.17655557  1.0
  Cl  Cl16  1  1.32789859  0.19932260  -0.46194861  1.0
  Cl  Cl17  1  0.82789859  1.03805139  -0.30067740  1.0
  Cl  Cl18  1  0.69932260  0.82789859  0.03805139  1.0
  Cl  Cl19  1  1.19932260  -0.46194861  0.32789859  1.0
  Cl  Cl20  1  1.03805139  0.69932260  -0.17210141  1.0
  Cl  Cl21  1  0.53805139  0.32789859  0.19932260  1.0
