# generated using pymatgen
data_KAsO4
_symmetry_space_group_name_H-M   'P 1'
_cell_length_a   6.41390852
_cell_length_b   6.41390852
_cell_length_c   6.41390852
_cell_angle_alpha   109.07300967
_cell_angle_beta   109.07300967
_cell_angle_gamma   110.27061216
_symmetry_Int_Tables_number   1
_chemical_formula_structural   KAsO4
_chemical_formula_sum   'K2 As2 O8'
_cell_volume   203.08735446
_cell_formula_units_Z   2
loop_
 _symmetry_equiv_pos_site_id
 _symmetry_equiv_pos_as_xyz
  1  'x, y, z'
loop_
 _atom_site_type_symbol
 _atom_site_label
 _atom_site_symmetry_multiplicity
 _atom_site_fract_x
 _atom_site_fract_y
 _atom_site_fract_z
 _atom_site_occupancy
  K  K0  1  0.50000000  0.50000000  0.00000000  1.0
  K  K1  1  1.25000000  0.75000000  0.50000000  1.0
  As  As2  1  0.00000000  0.00000000  0.00000000  1.0
  As  As3  1  0.75000000  1.25000000  0.50000000  1.0
  O  O4  1  1.04352782  0.98863084  0.74146779  1.0
  O  O5  1  0.70647218  0.94793996  0.44510302  1.0
  O  O6  1  0.73863084  1.29352782  1.24146779  1.0
  O  O7  1  1.01136916  1.75283695  1.05489698  1.0
  O  O8  1  0.50283695  0.26136916  0.55489698  1.0
  O  O9  1  1.24716305  1.30206004  1.25853221  1.0
  O  O10  1  1.69793996  0.95647218  0.94510302  1.0
  O  O11  1  1.05206004  1.49716305  0.75853221  1.0
