# generated using pymatgen
data_Zr5CdSb2
_symmetry_space_group_name_H-M   'P 1'
_cell_length_a   8.44065440
_cell_length_b   8.44065440
_cell_length_c   8.44065440
_cell_angle_alpha   96.37570586
_cell_angle_beta   96.37570586
_cell_angle_gamma   141.06914790
_symmetry_Int_Tables_number   1
_chemical_formula_structural   Zr5CdSb2
_chemical_formula_sum   'Zr10 Cd2 Sb4'
_cell_volume   356.27994466
_cell_formula_units_Z   2
loop_
 _symmetry_equiv_pos_site_id
 _symmetry_equiv_pos_as_xyz
  1  'x, y, z'
loop_
 _atom_site_type_symbol
 _atom_site_label
 _atom_site_symmetry_multiplicity
 _atom_site_fract_x
 _atom_site_fract_y
 _atom_site_fract_z
 _atom_site_occupancy
  Zr  Zr0  1  0.27606394  0.42189349  0.69795743  1.0
  Zr  Zr1  1  1.22393606  0.92189349  1.14582954  1.0
  Zr  Zr2  1  0.92189349  0.77606394  1.69795743  1.0
  Zr  Zr3  1  0.57810651  1.27606394  0.85417046  1.0
  Zr  Zr4  1  0.77606394  1.07810651  0.85417046  1.0
  Zr  Zr5  1  0.72393606  0.57810651  1.30204257  1.0
  Zr  Zr6  1  1.42189349  0.72393606  1.14582954  1.0
  Zr  Zr7  1  0.07810651  0.22393606  0.30204257  1.0
  Zr  Zr8  1  0.75000000  1.25000000  0.50000000  1.0
  Zr  Zr9  1  0.25000000  0.75000000  0.50000000  1.0
  Cd  Cd10  1  0.25000000  0.25000000  0.00000000  1.0
  Cd  Cd11  1  0.75000000  0.75000000  -0.00000000  1.0
  Sb  Sb12  1  0.83667897  0.33667897  1.17335794  1.0
  Sb  Sb13  1  0.66332103  0.83667897  0.50000000  1.0
  Sb  Sb14  1  1.33667897  1.16332103  1.50000000  1.0
  Sb  Sb15  1  0.16332103  0.66332103  0.82664206  1.0
