# generated using pymatgen
data_Zr6Co(SnH5)2
_symmetry_space_group_name_H-M   'P 1'
_cell_length_a   8.13128415
_cell_length_b   8.13128415
_cell_length_c   7.36904775
_cell_angle_alpha   90.00000000
_cell_angle_beta   90.00000000
_cell_angle_gamma   120.00000000
_symmetry_Int_Tables_number   1
_chemical_formula_structural   Zr6Co(SnH5)2
_chemical_formula_sum   'Zr12 Co2 Sn4 H20'
_cell_volume   421.94930753
_cell_formula_units_Z   2
loop_
 _symmetry_equiv_pos_site_id
 _symmetry_equiv_pos_as_xyz
  1  'x, y, z'
loop_
 _atom_site_type_symbol
 _atom_site_label
 _atom_site_symmetry_multiplicity
 _atom_site_fract_x
 _atom_site_fract_y
 _atom_site_fract_z
 _atom_site_occupancy
  Zr  Zr0  1  0.63150372  0.58392688  0.25000000  1.0
  Zr  Zr1  1  0.58392688  0.63150372  0.75000000  1.0
  Zr  Zr2  1  0.95242316  0.36849628  0.25000000  1.0
  Zr  Zr3  1  0.41607312  0.04757684  0.25000000  1.0
  Zr  Zr4  1  0.36849628  0.95242316  0.75000000  1.0
  Zr  Zr5  1  0.04757684  0.41607312  0.75000000  1.0
  Zr  Zr6  1  0.25489169  0.25489169  0.50000000  1.0
  Zr  Zr7  1  0.25489169  0.25489169  0.00000000  1.0
  Zr  Zr8  1  0.00000000  0.74510831  0.50000000  1.0
  Zr  Zr9  1  0.00000000  0.74510831  0.00000000  1.0
  Zr  Zr10  1  0.74510831  0.00000000  0.50000000  1.0
  Zr  Zr11  1  0.74510831  0.00000000  0.00000000  1.0
  Co  Co12  1  0.00000000  0.00000000  0.25000000  1.0
  Co  Co13  1  0.00000000  0.00000000  0.75000000  1.0
  Sn  Sn14  1  0.33333333  0.66666667  0.45864177  1.0
  Sn  Sn15  1  0.33333333  0.66666667  0.04135823  1.0
  Sn  Sn16  1  0.66666667  0.33333333  0.95864177  1.0
  Sn  Sn17  1  0.66666667  0.33333333  0.54135823  1.0
  H  H18  1  0.11684011  0.88210811  0.25000000  1.0
  H  H19  1  0.88210811  0.11684011  0.75000000  1.0
  H  H20  1  0.76526800  0.88315989  0.25000000  1.0
  H  H21  1  0.11789189  0.23473200  0.25000000  1.0
  H  H22  1  0.88315989  0.76526800  0.75000000  1.0
  H  H23  1  0.23473200  0.11789189  0.75000000  1.0
  H  H24  1  0.89341142  0.59775805  0.25000000  1.0
  H  H25  1  0.59775805  0.89341142  0.75000000  1.0
  H  H26  1  0.70434663  0.10658858  0.25000000  1.0
  H  H27  1  0.40224195  0.29565337  0.25000000  1.0
  H  H28  1  0.10658858  0.70434663  0.75000000  1.0
  H  H29  1  0.29565337  0.40224195  0.75000000  1.0
  H  H30  1  0.72443345  0.72443345  0.50000000  1.0
  H  H31  1  0.72443345  0.72443345  0.00000000  1.0
  H  H32  1  0.00000000  0.27556655  0.50000000  1.0
  H  H33  1  0.00000000  0.27556655  0.00000000  1.0
  H  H34  1  0.27556655  0.00000000  0.50000000  1.0
  H  H35  1  0.27556655  0.00000000  0.00000000  1.0
  H  H36  1  0.00000000  0.00000000  0.50000000  1.0
  H  H37  1  0.00000000  0.00000000  0.00000000  1.0
