# generated using pymatgen
data_Fe2N
_symmetry_space_group_name_H-M   'P 1'
_cell_length_a   4.33424947
_cell_length_b   5.46768271
_cell_length_c   4.74113190
_cell_angle_alpha   90.00000000
_cell_angle_beta   90.00000000
_cell_angle_gamma   90.00000000
_symmetry_Int_Tables_number   1
_chemical_formula_structural   Fe2N
_chemical_formula_sum   'Fe8 N4'
_cell_volume   112.35677032
_cell_formula_units_Z   4
loop_
 _symmetry_equiv_pos_site_id
 _symmetry_equiv_pos_as_xyz
  1  'x, y, z'
loop_
 _atom_site_type_symbol
 _atom_site_label
 _atom_site_symmetry_multiplicity
 _atom_site_fract_x
 _atom_site_fract_y
 _atom_site_fract_z
 _atom_site_occupancy
  Fe  Fe0  1  0.24890884  0.37353365  0.08471557  1.0
  Fe  Fe1  1  0.24890884  0.62646635  0.58471557  1.0
  Fe  Fe2  1  0.74890884  0.87353365  0.41528443  1.0
  Fe  Fe3  1  0.74890884  0.12646635  0.91528443  1.0
  Fe  Fe4  1  0.75109116  0.37353365  0.41528443  1.0
  Fe  Fe5  1  0.75109116  0.62646635  0.91528443  1.0
  Fe  Fe6  1  0.25109116  0.87353365  0.08471557  1.0
  Fe  Fe7  1  0.25109116  0.12646635  0.58471557  1.0
  N  N8  1  0.50000000  0.13498195  0.25000000  1.0
  N  N9  1  0.50000000  0.86501805  0.75000000  1.0
  N  N10  1  0.00000000  0.63498195  0.25000000  1.0
  N  N11  1  0.00000000  0.36501805  0.75000000  1.0
