# generated using pymatgen
data_Ca3Mn2(Si2O7)2
_symmetry_space_group_name_H-M   'P 1'
_cell_length_a   9.37770250
_cell_length_b   9.37770250
_cell_length_c   10.14087732
_cell_angle_alpha   60.12931398
_cell_angle_beta   119.87068602
_cell_angle_gamma   131.26015401
_symmetry_Int_Tables_number   1
_chemical_formula_structural   Ca3Mn2(Si2O7)2
_chemical_formula_sum   'Ca6 Mn4 Si8 O28'
_cell_volume   561.30863862
_cell_formula_units_Z   2
loop_
 _symmetry_equiv_pos_site_id
 _symmetry_equiv_pos_as_xyz
  1  'x, y, z'
loop_
 _atom_site_type_symbol
 _atom_site_label
 _atom_site_symmetry_multiplicity
 _atom_site_fract_x
 _atom_site_fract_y
 _atom_site_fract_z
 _atom_site_occupancy
  Ca  Ca0  1  0.23076020  -0.15866926  0.45813500  1.0
  Ca  Ca1  1  1.15866926  0.76923980  0.95813500  1.0
  Ca  Ca2  1  0.84133074  -0.76923980  0.04186500  1.0
  Ca  Ca3  1  1.76923980  0.15866926  0.54186500  1.0
  Ca  Ca4  1  0.34926931  0.34926931  0.25000000  1.0
  Ca  Ca5  1  0.65073069  0.65073069  0.75000000  1.0
  Mn  Mn6  1  0.78680432  0.78680432  0.25000000  1.0
  Mn  Mn7  1  0.21319568  0.21319568  0.75000000  1.0
  Mn  Mn8  1  -0.00000000  0.00000000  0.50000000  1.0
  Mn  Mn9  1  0.00000000  0.00000000  0.00000000  1.0
  Si  Si10  1  0.53156129  -0.21622178  0.35534778  1.0
  Si  Si11  1  1.21622178  -0.53156129  0.85534778  1.0
  Si  Si12  1  0.78377822  0.53156129  0.14465222  1.0
  Si  Si13  1  1.46843871  0.21622178  0.64465222  1.0
  Si  Si14  1  0.46348060  0.10883070  0.15959972  1.0
  Si  Si15  1  0.89116930  -0.46348060  0.65959972  1.0
  Si  Si16  1  1.10883070  0.46348060  0.34040028  1.0
  Si  Si17  1  1.53651940  -0.10883070  0.84040028  1.0
  O  O18  1  1.54605490  -0.35035883  0.31143116  1.0
  O  O19  1  1.35035883  -0.54605490  0.81143116  1.0
  O  O20  1  0.64964117  0.54605490  0.18856884  1.0
  O  O21  1  0.45394510  0.35035883  0.68856884  1.0
  O  O22  1  1.89346781  0.02330751  0.28380148  1.0
  O  O23  1  0.97669249  -0.89346781  0.78380148  1.0
  O  O24  1  1.02330751  0.89346781  0.21619852  1.0
  O  O25  1  0.10653219  -0.02330751  0.71619852  1.0
  O  O26  1  1.74085316  -0.05262561  0.97890209  1.0
  O  O27  1  1.05262561  0.25914684  0.47890209  1.0
  O  O28  1  0.94737439  -0.25914684  0.52109791  1.0
  O  O29  1  0.25914684  0.05262561  0.02109791  1.0
  O  O30  1  0.50523453  -0.05327806  0.18567367  1.0
  O  O31  1  1.05327806  -0.50523453  0.68567367  1.0
  O  O32  1  0.94672194  0.50523453  0.31432633  1.0
  O  O33  1  1.49476547  0.05327806  0.81432633  1.0
  O  O34  1  0.47068545  0.10608580  0.32305537  1.0
  O  O35  1  0.89391420  -0.47068545  0.82305537  1.0
  O  O36  1  1.10608580  0.47068545  0.17694463  1.0
  O  O37  1  1.52931455  -0.10608580  0.67694463  1.0
  O  O38  1  0.65248967  0.32239353  0.09235375  1.0
  O  O39  1  0.67760647  -0.65248967  0.59235375  1.0
  O  O40  1  1.32239353  0.65248967  0.40764625  1.0
  O  O41  1  1.34751033  -0.32239353  0.90764625  1.0
  O  O42  1  0.29947039  0.12609616  0.49482657  1.0
  O  O43  1  0.87390384  0.70052961  0.99482657  1.0
  O  O44  1  1.12609616  -0.70052961  0.00517343  1.0
  O  O45  1  1.70052961  -0.12609616  0.50517343  1.0
