# generated using pymatgen
data_La(ClO4)3
_symmetry_space_group_name_H-M   'P 1'
_cell_length_a   9.95378618
_cell_length_b   9.95378618
_cell_length_c   5.89995802
_cell_angle_alpha   90.00000000
_cell_angle_beta   90.00000000
_cell_angle_gamma   120.00000000
_symmetry_Int_Tables_number   1
_chemical_formula_structural   La(ClO4)3
_chemical_formula_sum   'La2 Cl6 O24'
_cell_volume   506.23966250
_cell_formula_units_Z   2
loop_
 _symmetry_equiv_pos_site_id
 _symmetry_equiv_pos_as_xyz
  1  'x, y, z'
loop_
 _atom_site_type_symbol
 _atom_site_label
 _atom_site_symmetry_multiplicity
 _atom_site_fract_x
 _atom_site_fract_y
 _atom_site_fract_z
 _atom_site_occupancy
  La  La0  1  0.66666667  0.33333333  0.25000000  1.0
  La  La1  1  0.33333333  0.66666667  0.75000000  1.0
  Cl  Cl2  1  0.30058036  0.90764969  0.25000000  1.0
  Cl  Cl3  1  0.90764969  0.60706933  0.75000000  1.0
  Cl  Cl4  1  0.60706933  0.69941964  0.25000000  1.0
  Cl  Cl5  1  0.09235031  0.39293067  0.25000000  1.0
  Cl  Cl6  1  0.69941964  0.09235031  0.75000000  1.0
  Cl  Cl7  1  0.39293067  0.30058036  0.75000000  1.0
  O  O8  1  0.68831303  0.61080728  0.25000000  1.0
  O  O9  1  0.61080728  0.92249425  0.75000000  1.0
  O  O10  1  0.92249425  0.31168697  0.25000000  1.0
  O  O11  1  0.38919272  0.07750575  0.25000000  1.0
  O  O12  1  0.31168697  0.38919272  0.75000000  1.0
  O  O13  1  0.07750575  0.68831303  0.75000000  1.0
  O  O14  1  0.34797140  0.85285242  0.45175232  1.0
  O  O15  1  0.34797140  0.85285242  0.04824768  1.0
  O  O16  1  0.85285242  0.50488101  0.95175232  1.0
  O  O17  1  0.85285242  0.50488101  0.54824768  1.0
  O  O18  1  0.50488101  0.65202860  0.45175232  1.0
  O  O19  1  0.50488101  0.65202860  0.04824768  1.0
  O  O20  1  0.14714758  0.49511899  0.45175232  1.0
  O  O21  1  0.14714758  0.49511899  0.04824768  1.0
  O  O22  1  0.65202860  0.14714758  0.95175232  1.0
  O  O23  1  0.65202860  0.14714758  0.54824768  1.0
  O  O24  1  0.49511899  0.34797140  0.95175232  1.0
  O  O25  1  0.49511899  0.34797140  0.54824768  1.0
  O  O26  1  0.13754417  0.85182729  0.25000000  1.0
  O  O27  1  0.85182729  0.71428311  0.75000000  1.0
  O  O28  1  0.71428311  0.86245583  0.25000000  1.0
  O  O29  1  0.14817271  0.28571689  0.25000000  1.0
  O  O30  1  0.86245583  0.14817271  0.75000000  1.0
  O  O31  1  0.28571689  0.13754417  0.75000000  1.0
