# generated using pymatgen
data_Y3(CoGe2)2
_symmetry_space_group_name_H-M   'P 1'
_cell_length_a   5.72592197
_cell_length_b   5.72592197
_cell_length_c   8.02264495
_cell_angle_alpha   73.63396704
_cell_angle_beta   106.36603296
_cell_angle_gamma   137.48871367
_symmetry_Int_Tables_number   1
_chemical_formula_structural   Y3(CoGe2)2
_chemical_formula_sum   'Y3 Co2 Ge4'
_cell_volume   169.42175580
_cell_formula_units_Z   1
loop_
 _symmetry_equiv_pos_site_id
 _symmetry_equiv_pos_as_xyz
  1  'x, y, z'
loop_
 _atom_site_type_symbol
 _atom_site_label
 _atom_site_symmetry_multiplicity
 _atom_site_fract_x
 _atom_site_fract_y
 _atom_site_fract_z
 _atom_site_occupancy
  Y  Y0  1  0.62266380  0.37733620  0.69361843  1.0
  Y  Y1  1  0.37733620  -0.37733620  0.30638157  1.0
  Y  Y2  1  0.00000000  0.00000000  0.00000000  1.0
  Co  Co3  1  0.69279859  0.30720141  0.37328576  1.0
  Co  Co4  1  0.30720141  -0.30720141  0.62671424  1.0
  Ge  Ge5  1  0.90164012  0.09835988  0.60059226  1.0
  Ge  Ge6  1  0.09835988  -0.09835988  0.39940774  1.0
  Ge  Ge7  1  0.29147615  -0.29147615  0.91851826  1.0
  Ge  Ge8  1  0.70852385  0.29147615  0.08148174  1.0
