# generated using pymatgen
data_BaCo2(PO4)2
_symmetry_space_group_name_H-M   'P 1'
_cell_length_a   5.37682800
_cell_length_b   5.37682800
_cell_length_c   8.16793527
_cell_angle_alpha   90.00000000
_cell_angle_beta   90.00000000
_cell_angle_gamma   120.00000000
_symmetry_Int_Tables_number   1
_chemical_formula_structural   BaCo2(PO4)2
_chemical_formula_sum   'Ba1 Co2 P2 O8'
_cell_volume   204.50089251
_cell_formula_units_Z   1
loop_
 _symmetry_equiv_pos_site_id
 _symmetry_equiv_pos_as_xyz
  1  'x, y, z'
loop_
 _atom_site_type_symbol
 _atom_site_label
 _atom_site_symmetry_multiplicity
 _atom_site_fract_x
 _atom_site_fract_y
 _atom_site_fract_z
 _atom_site_occupancy
  P  P0  1  0.33333333  0.66666667  0.27430539  1.0
  P  P1  1  0.66666667  0.33333333  0.72569461  1.0
  Co  Co2  1  0.33333333  0.66666667  0.69238762  1.0
  Co  Co3  1  0.66666667  0.33333333  0.30761238  1.0
  O  O4  1  0.39019461  0.96282399  0.20402405  1.0
  O  O5  1  0.96282399  0.57262938  0.79597595  1.0
  O  O6  1  0.57262938  0.60980539  0.20402405  1.0
  O  O7  1  0.03717601  0.42737062  0.20402405  1.0
  O  O8  1  0.60980539  0.03717601  0.79597595  1.0
  O  O9  1  0.42737062  0.39019461  0.79597595  1.0
  O  O10  1  0.33333333  0.66666667  0.46043785  1.0
  O  O11  1  0.66666667  0.33333333  0.53956215  1.0
  Ba  Ba12  1  0.00000000  0.00000000  -0.00000000  1.0
