# generated using pymatgen
data_AsCClO2F3
_symmetry_space_group_name_H-M   'P 1'
_cell_length_a   5.67776365
_cell_length_b   10.10942137
_cell_length_c   13.11898576
_cell_angle_alpha   90.00000000
_cell_angle_beta   116.45024498
_cell_angle_gamma   90.00000000
_symmetry_Int_Tables_number   1
_chemical_formula_structural   AsCClO2F3
_chemical_formula_sum   'As4 C4 Cl4 O8 F12'
_cell_volume   674.19089283
_cell_formula_units_Z   4
loop_
 _symmetry_equiv_pos_site_id
 _symmetry_equiv_pos_as_xyz
  1  'x, y, z'
loop_
 _atom_site_type_symbol
 _atom_site_label
 _atom_site_symmetry_multiplicity
 _atom_site_fract_x
 _atom_site_fract_y
 _atom_site_fract_z
 _atom_site_occupancy
  C  C0  1  0.53803636  0.88838740  0.20604259  1.0
  C  C1  1  0.53803636  0.61161260  0.70604259  1.0
  C  C2  1  0.46196364  0.38838740  0.29395741  1.0
  C  C3  1  0.46196364  0.11161260  0.79395741  1.0
  O  O4  1  0.71063198  0.54030912  0.50414155  1.0
  O  O5  1  0.71063198  0.95969088  1.00414155  1.0
  O  O6  1  0.28936802  0.04030912  -0.00414155  1.0
  O  O7  1  0.28936802  0.45969088  0.49585845  1.0
  O  O8  1  0.78189539  0.22414168  0.05641603  1.0
  O  O9  1  0.78189539  0.27585832  0.55641603  1.0
  O  O10  1  0.21810461  0.72414168  0.44358397  1.0
  O  O11  1  0.21810461  0.77585832  0.94358397  1.0
  As  As12  1  0.52671130  0.37568839  0.46280477  1.0
  As  As13  1  0.52671130  0.12431161  0.96280477  1.0
  As  As14  1  0.47328870  0.87568839  0.03719523  1.0
  As  As15  1  0.47328870  0.62431161  0.53719523  1.0
  Cl  Cl16  1  0.66914662  0.67200024  0.05036198  1.0
  Cl  Cl17  1  0.66914662  0.82799976  0.55036198  1.0
  Cl  Cl18  1  0.33085338  0.17200024  0.44963802  1.0
  Cl  Cl19  1  0.33085338  0.32799976  0.94963802  1.0
  F  F20  1  0.61627845  0.77270466  0.25987715  1.0
  F  F21  1  0.61627845  0.72729534  0.75987715  1.0
  F  F22  1  0.38372155  0.27270466  0.24012285  1.0
  F  F23  1  0.38372155  0.22729534  0.74012285  1.0
  F  F24  1  0.72419808  0.98100437  0.25746882  1.0
  F  F25  1  0.72419808  0.51899563  0.75746882  1.0
  F  F26  1  0.27580192  0.48100437  0.24253118  1.0
  F  F27  1  0.27580192  0.01899563  0.74253118  1.0
  F  F28  1  0.68805436  0.42601894  0.29333909  1.0
  F  F29  1  0.68805436  0.07398106  0.79333909  1.0
  F  F30  1  0.31194564  0.92601894  0.20666091  1.0
  F  F31  1  0.31194564  0.57398106  0.70666091  1.0
