# generated using pymatgen
data_Al2O3
_symmetry_space_group_name_H-M   'P 1'
_cell_length_a   4.88996548
_cell_length_b   8.40557107
_cell_length_c   9.03727189
_cell_angle_alpha   90.00000000
_cell_angle_beta   90.00000000
_cell_angle_gamma   90.00000000
_symmetry_Int_Tables_number   1
_chemical_formula_structural   Al2O3
_chemical_formula_sum   'Al16 O24'
_cell_volume   371.45855564
_cell_formula_units_Z   8
loop_
 _symmetry_equiv_pos_site_id
 _symmetry_equiv_pos_as_xyz
  1  'x, y, z'
loop_
 _atom_site_type_symbol
 _atom_site_label
 _atom_site_symmetry_multiplicity
 _atom_site_fract_x
 _atom_site_fract_y
 _atom_site_fract_z
 _atom_site_occupancy
  Al  Al0  1  0.32304547  0.65236132  0.55740305  1.0
  Al  Al1  1  0.82304547  0.84763868  0.55740305  1.0
  Al  Al2  1  0.67695453  0.34763868  0.05740305  1.0
  Al  Al3  1  0.17695453  0.15236132  0.05740305  1.0
  Al  Al4  1  0.31362619  0.65366349  0.14499702  1.0
  Al  Al5  1  0.81362619  0.84633651  0.14499702  1.0
  Al  Al6  1  0.68637381  0.34633651  0.64499702  1.0
  Al  Al7  1  0.18637381  0.15366349  0.64499702  1.0
  Al  Al8  1  0.17341870  0.46909976  0.85648284  1.0
  Al  Al9  1  0.67341870  0.03090024  0.85648284  1.0
  Al  Al10  1  0.82658130  0.53090024  0.35648284  1.0
  Al  Al11  1  0.32658130  0.96909976  0.35648284  1.0
  Al  Al12  1  0.18416016  0.83982339  0.86658116  1.0
  Al  Al13  1  0.68416016  0.66017661  0.86658116  1.0
  Al  Al14  1  0.81583984  0.16017661  0.36658116  1.0
  Al  Al15  1  0.31583984  0.33982339  0.36658116  1.0
  O  O16  1  0.52203112  0.48816137  0.49202142  1.0
  O  O17  1  0.02203112  0.01183863  0.49202142  1.0
  O  O18  1  0.47796888  0.51183863  0.99202142  1.0
  O  O19  1  0.97796888  0.98816137  0.99202142  1.0
  O  O20  1  0.48144337  0.83134521  0.49779686  1.0
  O  O21  1  0.98144337  0.66865479  0.49779686  1.0
  O  O22  1  0.51855663  0.16865479  -0.00220314  1.0
  O  O23  1  0.01855663  0.33134521  -0.00220314  1.0
  O  O24  1  0.52142367  0.82421857  0.98518468  1.0
  O  O25  1  0.02142367  0.67578143  0.98518468  1.0
  O  O26  1  0.47857633  0.17578143  0.48518468  1.0
  O  O27  1  0.97857633  0.32421857  0.48518468  1.0
  O  O28  1  0.34388479  0.66090900  0.75627396  1.0
  O  O29  1  0.84388479  0.83909100  0.75627396  1.0
  O  O30  1  0.65611521  0.33909100  0.25627396  1.0
  O  O31  1  0.15611521  0.16090900  0.25627396  1.0
  O  O32  1  0.34319777  0.00111440  0.76255652  1.0
  O  O33  1  0.84319777  0.49888560  0.76255652  1.0
  O  O34  1  0.65680223  0.99888560  0.26255652  1.0
  O  O35  1  0.15680223  0.50111440  0.26255652  1.0
  O  O36  1  0.34331639  0.33126272  0.73040250  1.0
  O  O37  1  0.84331639  0.16873728  0.73040250  1.0
  O  O38  1  0.65668361  0.66873728  0.23040250  1.0
  O  O39  1  0.15668361  0.83126272  0.23040250  1.0
