# generated using pymatgen
data_Tl4SnS3
_symmetry_space_group_name_H-M   'P 1'
_cell_length_a   8.12683457
_cell_length_b   8.12683457
_cell_length_c   14.34205814
_cell_angle_alpha   90.00000000
_cell_angle_beta   90.00000000
_cell_angle_gamma   90.00000000
_symmetry_Int_Tables_number   1
_chemical_formula_structural   Tl4SnS3
_chemical_formula_sum   'Tl16 Sn4 S12'
_cell_volume   947.22754138
_cell_formula_units_Z   4
loop_
 _symmetry_equiv_pos_site_id
 _symmetry_equiv_pos_as_xyz
  1  'x, y, z'
loop_
 _atom_site_type_symbol
 _atom_site_label
 _atom_site_symmetry_multiplicity
 _atom_site_fract_x
 _atom_site_fract_y
 _atom_site_fract_z
 _atom_site_occupancy
  Tl  Tl0  1  0.64169498  0.65879899  0.39221650  1.0
  Tl  Tl1  1  0.35830502  0.65879899  0.89221650  1.0
  Tl  Tl2  1  0.64169498  0.34120101  0.89221650  1.0
  Tl  Tl3  1  0.35830502  0.34120101  0.39221650  1.0
  Tl  Tl4  1  0.15879899  0.14169498  0.89221650  1.0
  Tl  Tl5  1  0.84120101  0.14169498  0.39221650  1.0
  Tl  Tl6  1  0.15879899  0.85830502  0.39221650  1.0
  Tl  Tl7  1  0.84120101  0.85830502  0.89221650  1.0
  Tl  Tl8  1  0.85830502  0.84120101  0.60778350  1.0
  Tl  Tl9  1  0.14169498  0.84120101  0.10778350  1.0
  Tl  Tl10  1  0.85830502  0.15879899  0.10778350  1.0
  Tl  Tl11  1  0.14169498  0.15879899  0.60778350  1.0
  Tl  Tl12  1  0.34120101  0.35830502  0.10778350  1.0
  Tl  Tl13  1  0.65879899  0.35830502  0.60778350  1.0
  Tl  Tl14  1  0.34120101  0.64169498  0.60778350  1.0
  Tl  Tl15  1  0.65879899  0.64169498  0.10778350  1.0
  Sn  Sn16  1  0.00000000  0.50000000  0.25904837  1.0
  Sn  Sn17  1  0.00000000  0.50000000  0.75904837  1.0
  Sn  Sn18  1  0.50000000  0.00000000  0.74095163  1.0
  Sn  Sn19  1  0.50000000  0.00000000  0.24095163  1.0
  S  S20  1  0.00000000  0.50000000  0.08217104  1.0
  S  S21  1  0.00000000  0.50000000  0.58217104  1.0
  S  S22  1  0.50000000  0.00000000  0.91782896  1.0
  S  S23  1  0.50000000  0.00000000  0.41782896  1.0
  S  S24  1  0.33013956  0.66986044  0.25000000  1.0
  S  S25  1  0.66986044  0.66986044  0.75000000  1.0
  S  S26  1  0.33013956  0.33013956  0.75000000  1.0
  S  S27  1  0.66986044  0.33013956  0.25000000  1.0
  S  S28  1  0.16986044  0.83013956  0.75000000  1.0
  S  S29  1  0.83013956  0.83013956  0.25000000  1.0
  S  S30  1  0.16986044  0.16986044  0.25000000  1.0
  S  S31  1  0.83013956  0.16986044  0.75000000  1.0
