# generated using pymatgen
data_KPHNO2
_symmetry_space_group_name_H-M   'P 1'
_cell_length_a   8.19070544
_cell_length_b   8.19070544
_cell_length_c   8.19070544
_cell_angle_alpha   103.69412481
_cell_angle_beta   103.69412481
_cell_angle_gamma   103.69412481
_symmetry_Int_Tables_number   1
_chemical_formula_structural   KPHNO2
_chemical_formula_sum   'K6 P6 H6 N6 O12'
_cell_volume   493.11755925
_cell_formula_units_Z   6
loop_
 _symmetry_equiv_pos_site_id
 _symmetry_equiv_pos_as_xyz
  1  'x, y, z'
loop_
 _atom_site_type_symbol
 _atom_site_label
 _atom_site_symmetry_multiplicity
 _atom_site_fract_x
 _atom_site_fract_y
 _atom_site_fract_z
 _atom_site_occupancy
  K  K0  1  0.62840122  0.81525597  0.32759722  1.0
  K  K1  1  1.18474403  -0.32759722  0.37159878  1.0
  K  K2  1  0.67240278  0.37159878  0.18474403  1.0
  K  K3  1  1.37159878  0.18474403  -0.32759722  1.0
  K  K4  1  0.81525597  1.32759722  -0.37159878  1.0
  K  K5  1  1.32759722  0.62840122  -0.18474403  1.0
  P  P6  1  1.77825846  0.67992675  -0.05162118  1.0
  P  P7  1  0.32007325  1.05162118  -0.77825846  1.0
  P  P8  1  1.05162118  0.22174154  -0.67992675  1.0
  P  P9  1  0.22174154  0.32007325  0.05162118  1.0
  P  P10  1  1.67992675  -0.05162118  0.77825846  1.0
  P  P11  1  0.94837882  0.77825846  0.67992675  1.0
  H  H12  1  0.76076988  0.95854559  0.06823161  1.0
  H  H13  1  1.04145441  -0.06823161  0.23923012  1.0
  H  H14  1  0.93176839  0.23923012  0.04145441  1.0
  H  H15  1  1.23923012  0.04145441  -0.06823161  1.0
  H  H16  1  0.95854559  1.06823161  -0.23923012  1.0
  H  H17  1  1.06823161  0.76076988  -0.04145441  1.0
  N  N18  1  1.70471754  0.85933573  -0.05210138  1.0
  N  N19  1  1.14066427  0.05210138  -0.70471754  1.0
  N  N20  1  1.05210138  -0.70471754  0.14066427  1.0
  N  N21  1  0.29528246  0.14066427  0.05210138  1.0
  N  N22  1  0.85933573  0.94789862  0.70471754  1.0
  N  N23  1  0.94789862  1.70471754  -0.14066427  1.0
  O  O24  1  1.62870810  0.51475117  -0.16748983  1.0
  O  O25  1  0.48524883  1.16748983  -0.62870810  1.0
  O  O26  1  1.16748983  0.37129190  -0.51475117  1.0
  O  O27  1  0.37129190  0.48524883  0.16748983  1.0
  O  O28  1  1.51475117  -0.16748983  0.62870810  1.0
  O  O29  1  0.83251017  0.62870810  0.51475117  1.0
  O  O30  1  0.85880304  0.69840898  0.14227767  1.0
  O  O31  1  1.30159102  -0.14227767  0.14119696  1.0
  O  O32  1  0.85772233  0.14119696  0.30159102  1.0
  O  O33  1  1.14119696  0.30159102  -0.14227767  1.0
  O  O34  1  0.69840898  1.14227767  -0.14119696  1.0
  O  O35  1  1.14227767  0.85880304  -0.30159102  1.0
