# generated using pymatgen
data_LiMgPO4
_symmetry_space_group_name_H-M   'P 1'
_cell_length_a   10.34616611
_cell_length_b   6.23031830
_cell_length_c   4.71198851
_cell_angle_alpha   90.00000000
_cell_angle_beta   90.00000000
_cell_angle_gamma   90.00000000
_symmetry_Int_Tables_number   1
_chemical_formula_structural   LiMgPO4
_chemical_formula_sum   'Li4 Mg4 P4 O16'
_cell_volume   303.73434593
_cell_formula_units_Z   4
loop_
 _symmetry_equiv_pos_site_id
 _symmetry_equiv_pos_as_xyz
  1  'x, y, z'
loop_
 _atom_site_type_symbol
 _atom_site_label
 _atom_site_symmetry_multiplicity
 _atom_site_fract_x
 _atom_site_fract_y
 _atom_site_fract_z
 _atom_site_occupancy
  Li  Li0  1  0.78884677  0.25000000  0.49865306  1.0
  Li  Li1  1  0.28884677  0.25000000  1.00134694  1.0
  Li  Li2  1  0.21115323  0.75000000  0.50134694  1.0
  Li  Li3  1  0.71115323  0.75000000  -0.00134694  1.0
  Mg  Mg4  1  0.00000000  0.50000000  0.00000000  1.0
  Mg  Mg5  1  0.00000000  0.00000000  0.00000000  1.0
  Mg  Mg6  1  0.50000000  0.50000000  0.50000000  1.0
  Mg  Mg7  1  0.50000000  0.00000000  0.50000000  1.0
  P  P8  1  0.59169198  0.25000000  0.08547897  1.0
  P  P9  1  0.09169198  0.25000000  0.41452103  1.0
  P  P10  1  0.40830802  0.75000000  0.91452103  1.0
  P  P11  1  0.90830802  0.75000000  0.58547897  1.0
  O  O12  1  0.65650662  0.45523960  0.20749613  1.0
  O  O13  1  0.65650662  0.04476040  0.20749613  1.0
  O  O14  1  0.15650662  0.45523960  0.29250387  1.0
  O  O15  1  0.15650662  0.04476040  0.29250387  1.0
  O  O16  1  0.34349338  0.95523960  0.79250387  1.0
  O  O17  1  0.34349338  0.54476040  0.79250387  1.0
  O  O18  1  0.84349338  0.95523960  0.70749613  1.0
  O  O19  1  0.84349338  0.54476040  0.70749613  1.0
  O  O20  1  0.95186133  0.25000000  0.26734114  1.0
  O  O21  1  0.45186133  0.25000000  0.23265886  1.0
  O  O22  1  0.04813867  0.75000000  0.73265886  1.0
  O  O23  1  0.54813867  0.75000000  0.76734114  1.0
  O  O24  1  0.58028771  0.25000000  0.75621891  1.0
  O  O25  1  0.08028771  0.25000000  0.74378109  1.0
  O  O26  1  0.41971229  0.75000000  0.24378109  1.0
  O  O27  1  0.91971229  0.75000000  0.25621891  1.0
