# generated using pymatgen
data_Ba4Rh
_symmetry_space_group_name_H-M   'P 1'
_cell_length_a   9.25953434
_cell_length_b   9.25953434
_cell_length_c   9.25953434
_cell_angle_alpha   60.00000000
_cell_angle_beta   60.00000000
_cell_angle_gamma   60.00000000
_symmetry_Int_Tables_number   1
_chemical_formula_structural   Ba4Rh
_chemical_formula_sum   'Ba8 Rh2'
_cell_volume   561.37419089
_cell_formula_units_Z   2
loop_
 _symmetry_equiv_pos_site_id
 _symmetry_equiv_pos_as_xyz
  1  'x, y, z'
loop_
 _atom_site_type_symbol
 _atom_site_label
 _atom_site_symmetry_multiplicity
 _atom_site_fract_x
 _atom_site_fract_y
 _atom_site_fract_z
 _atom_site_occupancy
  Ba  Ba0  1  -0.12466717  0.87533283  0.37400152  1.0
  Ba  Ba1  1  0.87533283  -0.62599848  0.87533283  1.0
  Ba  Ba2  1  0.37466717  0.37466717  0.37466717  1.0
  Ba  Ba3  1  -0.12400152  0.37466717  0.37466717  1.0
  Ba  Ba4  1  -0.62599848  0.87533283  0.87533283  1.0
  Ba  Ba5  1  0.87533283  -0.12466717  0.87533283  1.0
  Ba  Ba6  1  0.37466717  -0.12400152  0.37466717  1.0
  Ba  Ba7  1  0.37466717  0.37466717  -0.12400152  1.0
  Rh  Rh8  1  0.50000000  0.50000000  -0.50000000  1.0
  Rh  Rh9  1  0.75000000  -0.25000000  0.75000000  1.0
