# generated using pymatgen
data_InI3O11
_symmetry_space_group_name_H-M   'P 1'
_cell_length_a   5.11212862
_cell_length_b   12.43752817
_cell_length_c   14.66265237
_cell_angle_alpha   90.00000000
_cell_angle_beta   90.00000000
_cell_angle_gamma   90.00000000
_symmetry_Int_Tables_number   1
_chemical_formula_structural   InI3O11
_chemical_formula_sum   'In4 I12 O44'
_cell_volume   932.28433605
_cell_formula_units_Z   4
loop_
 _symmetry_equiv_pos_site_id
 _symmetry_equiv_pos_as_xyz
  1  'x, y, z'
loop_
 _atom_site_type_symbol
 _atom_site_label
 _atom_site_symmetry_multiplicity
 _atom_site_fract_x
 _atom_site_fract_y
 _atom_site_fract_z
 _atom_site_occupancy
  O  O0  1  0.47374546  0.85694819  0.17148710  1.0
  O  O1  1  0.97374546  0.64305181  0.82851290  1.0
  O  O2  1  0.52625454  0.35694819  0.32851290  1.0
  O  O3  1  0.02625454  0.14305181  0.67148710  1.0
  O  O4  1  0.37444153  1.00041838  0.60941571  1.0
  O  O5  1  0.87444153  0.49958162  0.39058429  1.0
  O  O6  1  0.62555847  0.50041838  0.89058429  1.0
  O  O7  1  0.12555847  -0.00041838  0.10941571  1.0
  O  O8  1  0.38936159  0.56356150  0.70223902  1.0
  O  O9  1  0.88936159  0.93643850  0.29776098  1.0
  O  O10  1  0.61063841  0.06356150  0.79776098  1.0
  O  O11  1  0.11063841  0.43643850  0.20223902  1.0
  O  O12  1  0.31382003  0.81971099  -0.01844648  1.0
  O  O13  1  0.81382003  0.68028901  1.01844648  1.0
  O  O14  1  0.68617997  0.31971099  0.51844648  1.0
  O  O15  1  0.18617997  0.18028901  0.48155352  1.0
  O  O16  1  0.14073853  0.49502714  0.98128932  1.0
  O  O17  1  0.64073853  1.00497286  0.01871068  1.0
  O  O18  1  0.85926147  -0.00497286  0.51871068  1.0
  O  O19  1  0.35926147  0.50497286  0.48128932  1.0
  O  O20  1  0.28685156  0.71971715  0.56295738  1.0
  O  O21  1  0.78685156  0.78028285  0.43704262  1.0
  O  O22  1  0.71314844  0.21971715  0.93704262  1.0
  O  O23  1  0.21314844  0.28028285  0.06295738  1.0
  O  O24  1  0.87945109  0.57698964  0.57478393  1.0
  O  O25  1  0.37945109  0.92301036  0.42521607  1.0
  O  O26  1  0.12054891  0.07698964  0.92521607  1.0
  O  O27  1  0.62054891  0.42301036  0.07478393  1.0
  O  O28  1  0.96268285  0.83269905  0.66720844  1.0
  O  O29  1  0.46268285  0.66730095  0.33279156  1.0
  O  O30  1  0.03731715  0.33269905  0.83279156  1.0
  O  O31  1  0.53731715  0.16730095  0.16720844  1.0
  O  O32  1  0.13846228  0.89711542  0.79177130  1.0
  O  O33  1  0.63846228  0.60288458  0.20822870  1.0
  O  O34  1  0.86153772  0.39711542  0.70822870  1.0
  O  O35  1  0.36153772  0.10288458  0.29177130  1.0
  O  O36  1  0.41663613  0.77017505  0.75318306  1.0
  O  O37  1  0.91663613  0.72982495  0.24681694  1.0
  O  O38  1  0.58336387  0.27017505  0.74681694  1.0
  O  O39  1  0.08336387  0.22982495  0.25318306  1.0
  O  O40  1  0.23294541  0.34269119  0.61753542  1.0
  O  O41  1  0.73294541  0.15730881  0.38246458  1.0
  O  O42  1  0.76705459  0.84269119  0.88246458  1.0
  O  O43  1  0.26705459  0.65730881  0.11753542  1.0
  In  In44  1  0.43802668  0.95814577  0.89676342  1.0
  In  In45  1  0.93802668  0.54185423  0.10323658  1.0
  In  In46  1  0.56197332  0.45814577  0.60323658  1.0
  In  In47  1  0.06197332  0.04185423  0.39676342  1.0
  I  I48  1  0.42613061  0.40323008  0.96032781  1.0
  I  I49  1  0.92613061  0.09676992  0.03967219  1.0
  I  I50  1  0.57386939  0.90323008  0.53967219  1.0
  I  I51  1  0.07386939  0.59676992  0.46032781  1.0
  I  I52  1  0.18131323  0.80848332  0.10394958  1.0
  I  I53  1  0.68131323  0.69151668  0.89605042  1.0
  I  I54  1  0.81868677  0.30848332  0.39605042  1.0
  I  I55  1  0.31868677  0.19151668  0.60394958  1.0
  I  I56  1  0.16261980  0.68912292  0.68519794  1.0
  I  I57  1  0.66261980  0.81087708  0.31480206  1.0
  I  I58  1  0.83738020  0.18912292  0.81480206  1.0
  I  I59  1  0.33738020  0.31087708  0.18519794  1.0
