# generated using pymatgen
data_VZnHPbO5
_symmetry_space_group_name_H-M   'P 1'
_cell_length_a   7.67967842
_cell_length_b   6.15374665
_cell_length_c   9.51611948
_cell_angle_alpha   90.00000000
_cell_angle_beta   90.00000000
_cell_angle_gamma   90.00000000
_symmetry_Int_Tables_number   1
_chemical_formula_structural   VZnHPbO5
_chemical_formula_sum   'V4 Zn4 H4 Pb4 O20'
_cell_volume   449.72034310
_cell_formula_units_Z   4
loop_
 _symmetry_equiv_pos_site_id
 _symmetry_equiv_pos_as_xyz
  1  'x, y, z'
loop_
 _atom_site_type_symbol
 _atom_site_label
 _atom_site_symmetry_multiplicity
 _atom_site_fract_x
 _atom_site_fract_y
 _atom_site_fract_z
 _atom_site_occupancy
  V  V0  1  0.37168148  0.75000000  0.68223479  1.0
  V  V1  1  0.87168148  0.75000000  0.81776521  1.0
  V  V2  1  0.62831852  0.25000000  0.31776521  1.0
  V  V3  1  0.12831852  0.25000000  0.18223479  1.0
  Zn  Zn4  1  0.00000000  0.00000000  0.50000000  1.0
  Zn  Zn5  1  0.50000000  0.50000000  0.00000000  1.0
  Zn  Zn6  1  0.00000000  0.50000000  0.50000000  1.0
  Zn  Zn7  1  0.50000000  0.00000000  0.00000000  1.0
  H  H8  1  0.25743399  0.25000000  0.51369579  1.0
  H  H9  1  0.75743399  0.25000000  0.98630421  1.0
  H  H10  1  0.74256601  0.75000000  0.48630421  1.0
  H  H11  1  0.24256601  0.75000000  0.01369579  1.0
  Pb  Pb12  1  0.13157197  0.25000000  0.82287644  1.0
  Pb  Pb13  1  0.63157197  0.25000000  0.67712356  1.0
  Pb  Pb14  1  0.86842803  0.75000000  0.17712356  1.0
  Pb  Pb15  1  0.36842803  0.75000000  0.32287644  1.0
  O  O16  1  0.19153915  0.75000000  0.56974956  1.0
  O  O17  1  0.69153915  0.75000000  0.93025044  1.0
  O  O18  1  0.80846085  0.25000000  0.43025044  1.0
  O  O19  1  0.30846085  0.25000000  0.06974956  1.0
  O  O20  1  0.54618374  0.75000000  0.57484975  1.0
  O  O21  1  0.04618374  0.75000000  0.92515025  1.0
  O  O22  1  0.45381626  0.25000000  0.42515025  1.0
  O  O23  1  0.95381626  0.25000000  0.07484975  1.0
  O  O24  1  0.38022513  0.98618562  0.78504796  1.0
  O  O25  1  0.88022513  0.51381438  0.71495204  1.0
  O  O26  1  0.61977487  0.48618562  0.21495204  1.0
  O  O27  1  0.11977487  0.01381438  0.28504796  1.0
  O  O28  1  0.61977487  0.01381438  0.21495204  1.0
  O  O29  1  0.11977487  0.48618562  0.28504796  1.0
  O  O30  1  0.38022513  0.51381438  0.78504796  1.0
  O  O31  1  0.88022513  0.98618562  0.71495204  1.0
  O  O32  1  0.14341135  0.25000000  0.56388282  1.0
  O  O33  1  0.64341135  0.25000000  0.93611718  1.0
  O  O34  1  0.85658865  0.75000000  0.43611718  1.0
  O  O35  1  0.35658865  0.75000000  0.06388282  1.0
