# generated using pymatgen
data_Ca3Co(SeO3)4
_symmetry_space_group_name_H-M   'P 1'
_cell_length_a   12.61652716
_cell_length_b   12.61652716
_cell_length_c   12.61652716
_cell_angle_alpha   144.52050765
_cell_angle_beta   144.52050765
_cell_angle_gamma   51.04965624
_symmetry_Int_Tables_number   1
_chemical_formula_structural   Ca3Co(SeO3)4
_chemical_formula_sum   'Ca6 Co2 Se8 O24'
_cell_volume   672.98484619
_cell_formula_units_Z   2
loop_
 _symmetry_equiv_pos_site_id
 _symmetry_equiv_pos_as_xyz
  1  'x, y, z'
loop_
 _atom_site_type_symbol
 _atom_site_label
 _atom_site_symmetry_multiplicity
 _atom_site_fract_x
 _atom_site_fract_y
 _atom_site_fract_z
 _atom_site_occupancy
  Ca  Ca0  1  0.42621951  0.92621951  0.50000000  1.0
  Ca  Ca1  1  0.67621951  0.67621951  1.00000000  1.0
  Ca  Ca2  1  0.32378049  0.32378049  -0.00000000  1.0
  Ca  Ca3  1  1.07378049  0.57378049  0.50000000  1.0
  Ca  Ca4  1  0.25000000  0.75000000  0.50000000  1.0
  Ca  Ca5  1  0.50000000  0.50000000  -0.00000000  1.0
  Co  Co6  1  0.75000000  0.25000000  0.50000000  1.0
  Co  Co7  1  1.00000000  1.00000000  1.00000000  1.0
  Se  Se8  1  1.00449790  1.01550715  1.65179907  1.0
  Se  Se9  1  0.36370808  0.35269883  0.34820093  1.0
  Se  Se10  1  1.10269883  1.25449790  1.48899075  1.0
  Se  Se11  1  0.76550715  0.61370808  0.51100925  1.0
  Se  Se12  1  0.74550210  1.23449285  0.84820093  1.0
  Se  Se13  1  1.38629192  0.89730117  1.15179907  1.0
  Se  Se14  1  0.64730117  0.99550210  1.01100925  1.0
  Se  Se15  1  0.98449285  0.63629192  0.98899075  1.0
  O  O16  1  1.00981086  0.78458821  1.48410433  1.0
  O  O17  1  0.30048389  0.52570654  0.51589567  1.0
  O  O18  1  1.27570654  1.25981086  1.72522265  1.0
  O  O19  1  0.53458821  0.55048389  0.27477735  1.0
  O  O20  1  0.74018914  1.46541179  1.01589567  1.0
  O  O21  1  1.44951611  0.72429346  0.98410433  1.0
  O  O22  1  0.47429346  0.99018914  0.77477735  1.0
  O  O23  1  1.21541179  0.69951611  1.22522265  1.0
  O  O24  1  0.80043160  1.01262492  1.40951785  1.0
  O  O25  1  0.60310708  0.39091376  0.59048215  1.0
  O  O26  1  1.14091376  1.05043160  1.28780668  1.0
  O  O27  1  0.76262492  0.85310708  0.71219332  1.0
  O  O28  1  0.94956840  1.23737508  1.09048215  1.0
  O  O29  1  1.14689292  0.85908624  0.90951785  1.0
  O  O30  1  0.60908624  1.19956840  1.21219332  1.0
  O  O31  1  0.98737508  0.39689292  0.78780668  1.0
  O  O32  1  1.17104487  1.05336284  1.72358836  1.0
  O  O33  1  0.32977448  0.44745651  0.27641164  1.0
  O  O34  1  1.19745651  1.42104487  1.61768203  1.0
  O  O35  1  0.80336284  0.57977448  0.38231797  1.0
  O  O36  1  0.57895513  1.19663716  0.77641164  1.0
  O  O37  1  1.42022552  0.80254349  1.22358836  1.0
  O  O38  1  0.55254349  0.82895513  0.88231797  1.0
  O  O39  1  0.94663716  0.67022552  1.11768203  1.0
