# generated using pymatgen
data_KRuO4
_symmetry_space_group_name_H-M   'P 1'
_cell_length_a   7.67779470
_cell_length_b   7.67779470
_cell_length_c   7.67779470
_cell_angle_alpha   136.08393836
_cell_angle_beta   136.08393836
_cell_angle_gamma   63.85059189
_symmetry_Int_Tables_number   1
_chemical_formula_structural   KRuO4
_chemical_formula_sum   'K2 Ru2 O8'
_cell_volume   214.84126231
_cell_formula_units_Z   2
loop_
 _symmetry_equiv_pos_site_id
 _symmetry_equiv_pos_as_xyz
  1  'x, y, z'
loop_
 _atom_site_type_symbol
 _atom_site_label
 _atom_site_symmetry_multiplicity
 _atom_site_fract_x
 _atom_site_fract_y
 _atom_site_fract_z
 _atom_site_occupancy
  K  K0  1  0.25000000  0.75000000  0.50000000  1.0
  K  K1  1  0.50000000  0.50000000  0.00000000  1.0
  Ru  Ru2  1  0.75000000  0.25000000  0.50000000  1.0
  Ru  Ru3  1  1.00000000  1.00000000  1.00000000  1.0
  O  O4  1  0.78672802  0.39952454  0.83627512  1.0
  O  O5  1  0.56324942  0.95045290  1.16372488  1.0
  O  O6  1  0.70045290  1.03672802  0.88720348  1.0
  O  O7  1  1.14952454  0.81324942  1.11279652  1.0
  O  O8  1  0.96327198  0.85047546  0.66372488  1.0
  O  O9  1  1.18675058  1.29954710  1.33627512  1.0
  O  O10  1  1.04954710  1.21327198  1.61279652  1.0
  O  O11  1  0.60047546  0.43675058  0.38720348  1.0
