# generated using pymatgen
data_Sc6Te2Ru
_symmetry_space_group_name_H-M   'P 1'
_cell_length_a   7.76016097
_cell_length_b   7.76016097
_cell_length_c   3.83248537
_cell_angle_alpha   90.00000000
_cell_angle_beta   90.00000000
_cell_angle_gamma   120.00000000
_symmetry_Int_Tables_number   1
_chemical_formula_structural   Sc6Te2Ru
_chemical_formula_sum   'Sc6 Te2 Ru1'
_cell_volume   199.87229455
_cell_formula_units_Z   1
loop_
 _symmetry_equiv_pos_site_id
 _symmetry_equiv_pos_as_xyz
  1  'x, y, z'
loop_
 _atom_site_type_symbol
 _atom_site_label
 _atom_site_symmetry_multiplicity
 _atom_site_fract_x
 _atom_site_fract_y
 _atom_site_fract_z
 _atom_site_occupancy
  Sc  Sc0  1  0.76102733  0.76102733  0.50000000  1.0
  Sc  Sc1  1  0.00000000  0.23897267  0.50000000  1.0
  Sc  Sc2  1  0.23897267  0.00000000  0.50000000  1.0
  Sc  Sc3  1  0.38755895  0.38755895  0.00000000  1.0
  Sc  Sc4  1  -0.00000000  0.61244105  0.00000000  1.0
  Sc  Sc5  1  0.61244105  0.00000000  0.00000000  1.0
  Te  Te6  1  0.33333333  0.66666667  0.50000000  1.0
  Te  Te7  1  0.66666667  0.33333333  0.50000000  1.0
  Ru  Ru8  1  0.00000000  0.00000000  0.00000000  1.0
