# generated using pymatgen
data_GeH3CNO
_symmetry_space_group_name_H-M   'P 1'
_cell_length_a   8.22668742
_cell_length_b   7.50698858
_cell_length_c   7.20489296
_cell_angle_alpha   90.00000000
_cell_angle_beta   90.00000000
_cell_angle_gamma   90.00000000
_symmetry_Int_Tables_number   1
_chemical_formula_structural   GeH3CNO
_chemical_formula_sum   'Ge4 H12 C4 N4 O4'
_cell_volume   444.95724706
_cell_formula_units_Z   4
loop_
 _symmetry_equiv_pos_site_id
 _symmetry_equiv_pos_as_xyz
  1  'x, y, z'
loop_
 _atom_site_type_symbol
 _atom_site_label
 _atom_site_symmetry_multiplicity
 _atom_site_fract_x
 _atom_site_fract_y
 _atom_site_fract_z
 _atom_site_occupancy
  Ge  Ge0  1  0.26054223  0.75000000  0.19904748  1.0
  Ge  Ge1  1  0.76054223  0.75000000  0.30095252  1.0
  Ge  Ge2  1  0.73945777  0.25000000  0.80095252  1.0
  Ge  Ge3  1  0.23945777  0.25000000  0.69904748  1.0
  H  H4  1  0.32780515  0.42103957  0.64417559  1.0
  H  H5  1  0.32780515  0.07896043  0.64417559  1.0
  H  H6  1  0.82780515  0.42103957  0.85582441  1.0
  H  H7  1  0.82780515  0.07896043  0.85582441  1.0
  H  H8  1  0.67219485  0.92103957  0.35582441  1.0
  H  H9  1  0.67219485  0.57896043  0.35582441  1.0
  H  H10  1  0.17219485  0.92103957  0.14417559  1.0
  H  H11  1  0.17219485  0.57896043  0.14417559  1.0
  H  H12  1  0.32517970  0.75000000  0.39767282  1.0
  H  H13  1  0.82517970  0.75000000  0.10232718  1.0
  H  H14  1  0.67482030  0.25000000  0.60232718  1.0
  H  H15  1  0.17482030  0.25000000  0.89767282  1.0
  C  C16  1  0.49722820  0.75000000  0.89794551  1.0
  C  C17  1  0.99722820  0.75000000  0.60205449  1.0
  C  C18  1  0.50277180  0.25000000  0.10205449  1.0
  C  C19  1  0.00277180  0.25000000  0.39794551  1.0
  N  N20  1  0.45469774  0.75000000  0.05855287  1.0
  N  N21  1  0.95469774  0.75000000  0.44144713  1.0
  N  N22  1  0.54530226  0.25000000  0.94144713  1.0
  N  N23  1  0.04530226  0.25000000  0.55855287  1.0
  O  O24  1  0.05044898  0.75000000  0.75515396  1.0
  O  O25  1  0.55044898  0.75000000  0.74484604  1.0
  O  O26  1  0.94955102  0.25000000  0.24484604  1.0
  O  O27  1  0.44955102  0.25000000  0.25515396  1.0
