# generated using pymatgen
data_PdS(NO)3
_symmetry_space_group_name_H-M   'P 1'
_cell_length_a   10.01783946
_cell_length_b   5.46414445
_cell_length_c   9.89325496
_cell_angle_alpha   90.00000000
_cell_angle_beta   102.91751920
_cell_angle_gamma   90.00000000
_symmetry_Int_Tables_number   1
_chemical_formula_structural   PdS(NO)3
_chemical_formula_sum   'Pd4 S4 N12 O12'
_cell_volume   527.84114061
_cell_formula_units_Z   4
loop_
 _symmetry_equiv_pos_site_id
 _symmetry_equiv_pos_as_xyz
  1  'x, y, z'
loop_
 _atom_site_type_symbol
 _atom_site_label
 _atom_site_symmetry_multiplicity
 _atom_site_fract_x
 _atom_site_fract_y
 _atom_site_fract_z
 _atom_site_occupancy
  Pd  Pd0  1  0.91885530  0.25012082  0.49009525  1.0
  Pd  Pd1  1  0.91885530  0.24987918  0.99009525  1.0
  Pd  Pd2  1  0.08114470  0.75012082  0.00990475  1.0
  Pd  Pd3  1  0.08114470  0.74987918  0.50990475  1.0
  S  S4  1  0.68143828  0.31842353  0.20168767  1.0
  S  S5  1  0.68143828  0.18157647  0.70168767  1.0
  S  S6  1  0.31856172  0.81842353  0.29831233  1.0
  S  S7  1  0.31856172  0.68157647  0.79831233  1.0
  N  N8  1  0.93077667  0.92054048  0.38902677  1.0
  N  N9  1  0.93077667  0.57945952  0.88902677  1.0
  N  N10  1  0.06922333  0.42054048  0.11097323  1.0
  N  N11  1  0.06922333  0.07945952  0.61097323  1.0
  N  N12  1  0.95021717  0.92724453  0.09711754  1.0
  N  N13  1  0.95021717  0.57275547  0.59711754  1.0
  N  N14  1  0.04978283  0.42724453  0.40288246  1.0
  N  N15  1  0.04978283  0.07275547  0.90288246  1.0
  N  N16  1  0.77868617  0.09676767  0.59597686  1.0
  N  N17  1  0.77868617  0.40323233  1.09597686  1.0
  N  N18  1  0.22131383  0.59676767  -0.09597686  1.0
  N  N19  1  0.22131383  0.90323233  0.40402314  1.0
  O  O20  1  0.75622373  0.41964159  0.34079457  1.0
  O  O21  1  0.75622373  0.08035841  0.84079457  1.0
  O  O22  1  0.24377627  0.91964159  0.15920543  1.0
  O  O23  1  0.24377627  0.58035841  0.65920543  1.0
  O  O24  1  0.68622800  0.05139187  0.19429872  1.0
  O  O25  1  0.68622800  0.44860813  0.69429872  1.0
  O  O26  1  0.31377200  0.55139187  0.30570128  1.0
  O  O27  1  0.31377200  0.94860813  0.80570128  1.0
  O  O28  1  0.55198140  0.44178902  0.15460314  1.0
  O  O29  1  0.55198140  0.05821098  0.65460314  1.0
  O  O30  1  0.44801860  0.94178902  0.34539686  1.0
  O  O31  1  0.44801860  0.55821098  0.84539686  1.0
