# generated using pymatgen
data_K8In11
_symmetry_space_group_name_H-M   'P 1'
_cell_length_a   18.10122353
_cell_length_b   18.10122353
_cell_length_c   18.10122353
_cell_angle_alpha   32.45997689
_cell_angle_beta   32.45997689
_cell_angle_gamma   32.45997689
_symmetry_Int_Tables_number   1
_chemical_formula_structural   K8In11
_chemical_formula_sum   'K16 In22'
_cell_volume   1519.05918618
_cell_formula_units_Z   2
loop_
 _symmetry_equiv_pos_site_id
 _symmetry_equiv_pos_as_xyz
  1  'x, y, z'
loop_
 _atom_site_type_symbol
 _atom_site_label
 _atom_site_symmetry_multiplicity
 _atom_site_fract_x
 _atom_site_fract_y
 _atom_site_fract_z
 _atom_site_occupancy
  K  K0  1  0.59032803  0.15136697  -0.17670450  1.0
  K  K1  1  1.09032803  0.32329550  -0.34863303  1.0
  K  K2  1  0.67670450  0.34863303  -0.09032803  1.0
  K  K3  1  1.17670450  0.40967197  -0.15136697  1.0
  K  K4  1  0.84863303  0.17670450  0.40967197  1.0
  K  K5  1  0.34863303  0.90967197  -0.32329550  1.0
  K  K6  1  1.40967197  -0.15136697  0.17670450  1.0
  K  K7  1  0.90967197  0.67670450  -0.65136697  1.0
  K  K8  1  0.82329550  -0.40967197  0.15136697  1.0
  K  K9  1  1.32329550  -0.34863303  0.09032803  1.0
  K  K10  1  0.65136697  0.09032803  0.32329550  1.0
  K  K11  1  1.15136697  -0.17670450  -0.40967197  1.0
  K  K12  1  0.92087002  -0.07912998  -0.07912998  1.0
  K  K13  1  0.42087002  0.42087002  0.42087002  1.0
  K  K14  1  0.57912998  0.57912998  -0.42087002  1.0
  K  K15  1  1.07912998  0.07912998  0.07912998  1.0
  In  In16  1  0.57531598  -0.00483815  0.27140801  1.0
  In  In17  1  1.07531598  0.77140801  -0.50483815  1.0
  In  In18  1  0.22859199  0.50483815  -0.07531598  1.0
  In  In19  1  0.72859199  0.42468402  0.00483815  1.0
  In  In20  1  1.00483815  0.72859199  -0.57531598  1.0
  In  In21  1  0.50483815  0.92468402  -0.77140801  1.0
  In  In22  1  0.42468402  1.00483815  -0.27140801  1.0
  In  In23  1  0.92468402  0.22859199  -0.49516185  1.0
  In  In24  1  1.27140801  -0.42468402  -0.00483815  1.0
  In  In25  1  0.77140801  0.49516185  0.07531598  1.0
  In  In26  1  0.49516185  1.07531598  -0.22859199  1.0
  In  In27  1  0.99516185  0.27140801  -0.42468402  1.0
  In  In28  1  0.53854301  0.75000000  -0.03854301  1.0
  In  In29  1  1.03854301  -0.53854301  0.25000000  1.0
  In  In30  1  0.25000000  1.03854301  -0.53854301  1.0
  In  In31  1  0.75000000  0.96145699  -0.46145699  1.0
  In  In32  1  0.46145699  0.25000000  0.03854301  1.0
  In  In33  1  0.96145699  0.53854301  -0.25000000  1.0
  In  In34  1  0.79988806  0.79988806  -0.20011194  1.0
  In  In35  1  0.29988806  0.29988806  0.29988806  1.0
  In  In36  1  0.70011194  0.70011194  -0.29988806  1.0
  In  In37  1  0.20011194  0.20011194  0.20011194  1.0
