# generated using pymatgen
data_HfNi3
_symmetry_space_group_name_H-M   'P 1'
_cell_length_a   5.28902340
_cell_length_b   5.28902340
_cell_length_c   21.45931216
_cell_angle_alpha   90.00000000
_cell_angle_beta   90.00000000
_cell_angle_gamma   120.00000000
_symmetry_Int_Tables_number   1
_chemical_formula_structural   HfNi3
_chemical_formula_sum   'Hf10 Ni30'
_cell_volume   519.87317176
_cell_formula_units_Z   10
loop_
 _symmetry_equiv_pos_site_id
 _symmetry_equiv_pos_as_xyz
  1  'x, y, z'
loop_
 _atom_site_type_symbol
 _atom_site_label
 _atom_site_symmetry_multiplicity
 _atom_site_fract_x
 _atom_site_fract_y
 _atom_site_fract_z
 _atom_site_occupancy
  Hf  Hf0  1  0.33333333  0.66666667  0.45404298  1.0
  Hf  Hf1  1  0.33333333  0.66666667  0.04595702  1.0
  Hf  Hf2  1  0.66666667  0.33333333  0.95404298  1.0
  Hf  Hf3  1  0.66666667  0.33333333  0.54595702  1.0
  Hf  Hf4  1  0.33333333  0.66666667  0.84885066  1.0
  Hf  Hf5  1  0.33333333  0.66666667  0.65114934  1.0
  Hf  Hf6  1  0.66666667  0.33333333  0.34885066  1.0
  Hf  Hf7  1  0.66666667  0.33333333  0.15114934  1.0
  Hf  Hf8  1  0.00000000  0.00000000  0.25000000  1.0
  Hf  Hf9  1  0.00000000  0.00000000  0.75000000  1.0
  Ni  Ni10  1  0.16788368  0.83211632  0.35045294  1.0
  Ni  Ni11  1  0.16788368  0.83211632  0.14954706  1.0
  Ni  Ni12  1  0.16788368  0.33576735  0.35045294  1.0
  Ni  Ni13  1  0.16788368  0.33576735  0.14954706  1.0
  Ni  Ni14  1  0.83211632  0.16788368  0.85045294  1.0
  Ni  Ni15  1  0.83211632  0.16788368  0.64954706  1.0
  Ni  Ni16  1  0.83211632  0.66423265  0.85045294  1.0
  Ni  Ni17  1  0.83211632  0.66423265  0.64954706  1.0
  Ni  Ni18  1  0.66423265  0.83211632  0.35045294  1.0
  Ni  Ni19  1  0.66423265  0.83211632  0.14954706  1.0
  Ni  Ni20  1  0.33576735  0.16788368  0.85045294  1.0
  Ni  Ni21  1  0.33576735  0.16788368  0.64954706  1.0
  Ni  Ni22  1  0.15569707  0.84430293  0.94871804  1.0
  Ni  Ni23  1  0.15569707  0.84430293  0.55128196  1.0
  Ni  Ni24  1  0.15569707  0.31139414  0.94871804  1.0
  Ni  Ni25  1  0.15569707  0.31139414  0.55128196  1.0
  Ni  Ni26  1  0.84430293  0.15569707  0.44871804  1.0
  Ni  Ni27  1  0.84430293  0.15569707  0.05128196  1.0
  Ni  Ni28  1  0.84430293  0.68860586  0.44871804  1.0
  Ni  Ni29  1  0.84430293  0.68860586  0.05128196  1.0
  Ni  Ni30  1  0.68860586  0.84430293  0.94871804  1.0
  Ni  Ni31  1  0.68860586  0.84430293  0.55128196  1.0
  Ni  Ni32  1  0.31139414  0.15569707  0.44871804  1.0
  Ni  Ni33  1  0.31139414  0.15569707  0.05128196  1.0
  Ni  Ni34  1  0.48872613  0.51127387  0.25000000  1.0
  Ni  Ni35  1  0.48872613  -0.02254773  0.25000000  1.0
  Ni  Ni36  1  0.51127387  0.48872613  0.75000000  1.0
  Ni  Ni37  1  0.51127387  0.02254773  0.75000000  1.0
  Ni  Ni38  1  0.02254773  0.51127387  0.25000000  1.0
  Ni  Ni39  1  -0.02254773  0.48872613  0.75000000  1.0
