# generated using pymatgen
data_YCo5As3
_symmetry_space_group_name_H-M   'P 1'
_cell_length_a   12.18009232
_cell_length_b   3.79063083
_cell_length_c   10.68475808
_cell_angle_alpha   90.00000000
_cell_angle_beta   90.00000000
_cell_angle_gamma   90.00000000
_symmetry_Int_Tables_number   1
_chemical_formula_structural   YCo5As3
_chemical_formula_sum   'Y4 Co20 As12'
_cell_volume   493.31777489
_cell_formula_units_Z   4
loop_
 _symmetry_equiv_pos_site_id
 _symmetry_equiv_pos_as_xyz
  1  'x, y, z'
loop_
 _atom_site_type_symbol
 _atom_site_label
 _atom_site_symmetry_multiplicity
 _atom_site_fract_x
 _atom_site_fract_y
 _atom_site_fract_z
 _atom_site_occupancy
  Y  Y0  1  0.20148195  0.75000000  0.41798143  1.0
  Y  Y1  1  0.70148195  0.75000000  0.08201857  1.0
  Y  Y2  1  0.79851805  0.25000000  0.58201857  1.0
  Y  Y3  1  0.29851805  0.25000000  0.91798143  1.0
  As  As4  1  0.39042699  0.75000000  0.10015892  1.0
  As  As5  1  0.89042699  0.75000000  0.39984108  1.0
  As  As6  1  0.60957301  0.25000000  0.89984108  1.0
  As  As7  1  0.10957301  0.25000000  0.60015892  1.0
  As  As8  1  0.37008618  0.75000000  0.73090563  1.0
  As  As9  1  0.87008618  0.75000000  0.76909437  1.0
  As  As10  1  0.62991382  0.25000000  0.26909437  1.0
  As  As11  1  0.12991382  0.25000000  0.23090563  1.0
  As  As12  1  0.11480293  0.75000000  0.91488228  1.0
  As  As13  1  0.61480293  0.75000000  0.58511772  1.0
  As  As14  1  0.88519707  0.25000000  0.08511772  1.0
  As  As15  1  0.38519707  0.25000000  0.41488228  1.0
  Co  Co16  1  0.43261170  0.75000000  0.53046790  1.0
  Co  Co17  1  0.93261170  0.75000000  0.96953210  1.0
  Co  Co18  1  0.56738830  0.25000000  0.46953210  1.0
  Co  Co19  1  0.06738830  0.25000000  0.03046790  1.0
  Co  Co20  1  0.19652722  0.75000000  0.11576803  1.0
  Co  Co21  1  0.69652722  0.75000000  0.38423197  1.0
  Co  Co22  1  0.80347278  0.25000000  0.88423197  1.0
  Co  Co23  1  0.30347278  0.25000000  0.61576803  1.0
  Co  Co24  1  0.17751095  0.75000000  0.71543940  1.0
  Co  Co25  1  0.67751095  0.75000000  0.78456060  1.0
  Co  Co26  1  0.82248905  0.25000000  0.28456060  1.0
  Co  Co27  1  0.32248905  0.25000000  0.21543940  1.0
  Co  Co28  1  0.48996397  0.75000000  0.28942213  1.0
  Co  Co29  1  0.98996397  0.75000000  0.21057787  1.0
  Co  Co30  1  0.51003603  0.25000000  0.71057787  1.0
  Co  Co31  1  0.01003603  0.25000000  0.78942213  1.0
  Co  Co32  1  0.48799807  0.75000000  0.90657103  1.0
  Co  Co33  1  0.98799807  0.75000000  0.59342897  1.0
  Co  Co34  1  0.51200193  0.25000000  0.09342897  1.0
  Co  Co35  1  0.01200193  0.25000000  0.40657103  1.0
