# generated using pymatgen
data_InCo2
_symmetry_space_group_name_H-M   'P 1'
_cell_length_a   12.97388539
_cell_length_b   12.60934589
_cell_length_c   5.40120550
_cell_angle_alpha   81.62178759
_cell_angle_beta   74.05581101
_cell_angle_gamma   24.32240140
_symmetry_Int_Tables_number   1
_chemical_formula_structural   InCo2
_chemical_formula_sum   'In8 Co16'
_cell_volume   337.49724326
_cell_formula_units_Z   8
loop_
 _symmetry_equiv_pos_site_id
 _symmetry_equiv_pos_as_xyz
  1  'x, y, z'
loop_
 _atom_site_type_symbol
 _atom_site_label
 _atom_site_symmetry_multiplicity
 _atom_site_fract_x
 _atom_site_fract_y
 _atom_site_fract_z
 _atom_site_occupancy
  Co  Co0  1  0.08191588  -0.00834402  1.72618068  1.0
  Co  Co1  1  0.20024746  0.72618068  0.99165598  1.0
  Co  Co2  1  0.25834402  0.16808412  1.04975254  1.0
  Co  Co3  1  0.52381932  0.04975254  1.16808412  1.0
  Co  Co4  1  0.72618068  0.20024746  1.08191588  1.0
  Co  Co5  1  -0.00834402  0.08191588  1.20024746  1.0
  Co  Co6  1  0.04975254  0.52381932  1.25834402  1.0
  Co  Co7  1  0.16808412  0.25834402  1.52381932  1.0
  Co  Co8  1  -0.05516890  0.31405944  0.30808657  1.0
  Co  Co9  1  0.43302289  0.30808657  1.31405944  1.0
  Co  Co10  1  -0.06405944  0.30516890  0.81697711  1.0
  Co  Co11  1  -0.05808657  0.81697711  0.30516890  1.0
  Co  Co12  1  0.30808657  0.43302289  -0.05516890  1.0
  Co  Co13  1  0.31405944  -0.05516890  1.43302289  1.0
  Co  Co14  1  -0.18302289  0.94191343  0.93594056  1.0
  Co  Co15  1  -0.69483110  0.93594056  0.94191343  1.0
  In  In16  1  0.50594676  0.60084198  1.20952594  1.0
  In  In17  1  -0.31631468  0.20952594  0.60084198  1.0
  In  In18  1  -0.35084198  0.74405324  0.56631468  1.0
  In  In19  1  0.04047406  0.56631468  0.74405324  1.0
  In  In20  1  0.20952594  -0.31631468  1.50594676  1.0
  In  In21  1  0.60084198  0.50594676  -0.31631468  1.0
  In  In22  1  -0.43368532  1.04047406  0.64915802  1.0
  In  In23  1  -0.25594676  0.64915802  1.04047406  1.0
