# generated using pymatgen
data_Cs2NiBi2
_symmetry_space_group_name_H-M   'P 1'
_cell_length_a   8.50509714
_cell_length_b   8.50509714
_cell_length_c   6.80423688
_cell_angle_alpha   90.00000000
_cell_angle_beta   90.00000000
_cell_angle_gamma   124.00228055
_symmetry_Int_Tables_number   1
_chemical_formula_structural   Cs2NiBi2
_chemical_formula_sum   'Cs4 Ni2 Bi4'
_cell_volume   408.03792918
_cell_formula_units_Z   2
loop_
 _symmetry_equiv_pos_site_id
 _symmetry_equiv_pos_as_xyz
  1  'x, y, z'
loop_
 _atom_site_type_symbol
 _atom_site_label
 _atom_site_symmetry_multiplicity
 _atom_site_fract_x
 _atom_site_fract_y
 _atom_site_fract_z
 _atom_site_occupancy
  Cs  Cs0  1  0.19523392  0.80476608  0.75000000  1.0
  Cs  Cs1  1  -0.19523392  0.19523392  0.25000000  1.0
  Cs  Cs2  1  -0.38686986  0.38686986  0.75000000  1.0
  Cs  Cs3  1  0.38686986  0.61313014  0.25000000  1.0
  Ni  Ni4  1  0.00000000  0.00000000  0.00000000  1.0
  Ni  Ni5  1  0.00000000  0.00000000  0.50000000  1.0
  Bi  Bi6  1  0.09748330  0.27800224  0.75000000  1.0
  Bi  Bi7  1  0.27800224  1.09748330  0.25000000  1.0
  Bi  Bi8  1  0.72199776  0.90251670  0.75000000  1.0
  Bi  Bi9  1  -0.09748330  0.72199776  0.25000000  1.0
