# generated using pymatgen
data_K(InAu2)2
_symmetry_space_group_name_H-M   'P 1'
_cell_length_a   7.57868239
_cell_length_b   7.57868239
_cell_length_c   7.57868239
_cell_angle_alpha   108.07339710
_cell_angle_beta   108.07339710
_cell_angle_gamma   112.30456491
_symmetry_Int_Tables_number   1
_chemical_formula_structural   K(InAu2)2
_chemical_formula_sum   'K2 In4 Au8'
_cell_volume   334.47038552
_cell_formula_units_Z   2
loop_
 _symmetry_equiv_pos_site_id
 _symmetry_equiv_pos_as_xyz
  1  'x, y, z'
loop_
 _atom_site_type_symbol
 _atom_site_label
 _atom_site_symmetry_multiplicity
 _atom_site_fract_x
 _atom_site_fract_y
 _atom_site_fract_z
 _atom_site_occupancy
  K  K0  1  0.25000000  0.25000000  0.00000000  1.0
  K  K1  1  0.75000000  0.75000000  0.00000000  1.0
  In  In2  1  0.85670254  0.35670254  1.21340508  1.0
  In  In3  1  0.64329746  0.85670254  0.50000000  1.0
  In  In4  1  0.35670254  0.14329746  0.50000000  1.0
  In  In5  1  1.14329746  0.64329746  0.78659492  1.0
  Au  Au6  1  1.18316736  0.68316736  1.19661592  1.0
  Au  Au7  1  0.51344856  1.01344856  1.19661592  1.0
  Au  Au8  1  0.98655144  1.18316736  1.50000000  1.0
  Au  Au9  1  0.31683264  0.51344856  0.50000000  1.0
  Au  Au10  1  0.68316736  0.48655144  0.50000000  1.0
  Au  Au11  1  1.01344856  0.81683264  1.50000000  1.0
  Au  Au12  1  0.48655144  0.98655144  0.80338408  1.0
  Au  Au13  1  0.81683264  0.31683264  0.80338408  1.0
