# generated using pymatgen
data_V16O3
_symmetry_space_group_name_H-M   'P 1'
_cell_length_a   8.97664835
_cell_length_b   8.97664835
_cell_length_c   8.97664835
_cell_angle_alpha   98.38055386
_cell_angle_beta   98.38055386
_cell_angle_gamma   135.11344648
_symmetry_Int_Tables_number   1
_chemical_formula_structural   V16O3
_chemical_formula_sum   'V32 O6'
_cell_volume   471.80138855
_cell_formula_units_Z   2
loop_
 _symmetry_equiv_pos_site_id
 _symmetry_equiv_pos_as_xyz
  1  'x, y, z'
loop_
 _atom_site_type_symbol
 _atom_site_label
 _atom_site_symmetry_multiplicity
 _atom_site_fract_x
 _atom_site_fract_y
 _atom_site_fract_z
 _atom_site_occupancy
  V  V0  1  0.58297274  0.58297274  0.74733356  1.0
  V  V1  1  1.16436081  1.16436081  0.74733356  1.0
  V  V2  1  0.83563919  0.58297274  1.00000000  1.0
  V  V3  1  1.41702726  1.16436081  1.00000000  1.0
  V  V4  1  1.58297274  0.83563919  1.00000000  1.0
  V  V5  1  1.16436081  0.41702726  1.00000000  1.0
  V  V6  1  0.83563919  0.83563919  0.25266644  1.0
  V  V7  1  0.41702726  0.41702726  0.25266644  1.0
  V  V8  1  1.12353759  0.62353759  1.24707518  1.0
  V  V9  1  1.62353759  1.12353759  1.24707518  1.0
  V  V10  1  0.37646241  0.62353759  0.50000000  1.0
  V  V11  1  0.87646241  1.12353759  0.50000000  1.0
  V  V12  1  1.12353759  0.87646241  1.50000000  1.0
  V  V13  1  1.62353759  1.37646241  1.50000000  1.0
  V  V14  1  0.37646241  0.87646241  0.75292482  1.0
  V  V15  1  0.87646241  1.37646241  0.75292482  1.0
  V  V16  1  0.50000000  0.75312791  0.25312791  1.0
  V  V17  1  0.75312791  0.50000000  1.25312791  1.0
  V  V18  1  0.24687209  0.50000000  0.74687209  1.0
  V  V19  1  0.50000000  1.24687209  0.74687209  1.0
  V  V20  1  0.00000000  0.74930247  0.74930247  1.0
  V  V21  1  0.74930247  1.00000000  0.74930247  1.0
  V  V22  1  1.25069753  1.00000000  1.25069753  1.0
  V  V23  1  0.00000000  0.25069753  0.25069753  1.0
  V  V24  1  0.75496314  0.75496314  0.50992629  1.0
  V  V25  1  1.24503686  0.75496314  1.00000000  1.0
  V  V26  1  0.75496314  0.24503686  1.00000000  1.0
  V  V27  1  0.24503686  0.24503686  0.49007371  1.0
  V  V28  1  0.50000000  1.00000000  0.50000000  1.0
  V  V29  1  0.00000000  0.50000000  0.50000000  1.0
  V  V30  1  0.00000000  0.00000000  0.00000000  1.0
  V  V31  1  0.50000000  0.50000000  -0.00000000  1.0
  O  O32  1  0.87852112  0.87852112  0.75704224  1.0
  O  O33  1  1.12147888  0.87852112  1.00000000  1.0
  O  O34  1  0.87852112  0.12147888  1.00000000  1.0
  O  O35  1  0.12147888  0.12147888  0.24295776  1.0
  O  O36  1  0.25000000  0.75000000  0.50000000  1.0
  O  O37  1  0.75000000  1.25000000  0.50000000  1.0
