# generated using pymatgen
data_GdAs2Au
_symmetry_space_group_name_H-M   'P 1'
_cell_length_a   4.05892437
_cell_length_b   4.05892437
_cell_length_c   10.13622667
_cell_angle_alpha   90.00000000
_cell_angle_beta   90.00000000
_cell_angle_gamma   90.00000000
_symmetry_Int_Tables_number   1
_chemical_formula_structural   GdAs2Au
_chemical_formula_sum   'Gd2 As4 Au2'
_cell_volume   166.99298693
_cell_formula_units_Z   2
loop_
 _symmetry_equiv_pos_site_id
 _symmetry_equiv_pos_as_xyz
  1  'x, y, z'
loop_
 _atom_site_type_symbol
 _atom_site_label
 _atom_site_symmetry_multiplicity
 _atom_site_fract_x
 _atom_site_fract_y
 _atom_site_fract_z
 _atom_site_occupancy
  Gd  Gd0  1  0.50000000  0.00000000  0.23291833  1.0
  Gd  Gd1  1  0.00000000  0.50000000  0.76708167  1.0
  As  As2  1  0.50000000  0.00000000  0.69153013  1.0
  As  As3  1  0.00000000  0.50000000  0.30846987  1.0
  As  As4  1  0.00000000  0.00000000  0.00000000  1.0
  As  As5  1  0.50000000  0.50000000  0.00000000  1.0
  Au  Au6  1  0.00000000  0.00000000  0.50000000  1.0
  Au  Au7  1  0.50000000  0.50000000  0.50000000  1.0
