# generated using pymatgen
data_Ga40Mo8Au
_symmetry_space_group_name_H-M   'P 1'
_cell_length_a   9.58515834
_cell_length_b   9.58515834
_cell_length_c   9.58515834
_cell_angle_alpha   94.68994701
_cell_angle_beta   94.68994701
_cell_angle_gamma   94.68994701
_symmetry_Int_Tables_number   1
_chemical_formula_structural   Ga40Mo8Au
_chemical_formula_sum   'Ga40 Mo8 Au1'
_cell_volume   871.27679065
_cell_formula_units_Z   1
loop_
 _symmetry_equiv_pos_site_id
 _symmetry_equiv_pos_as_xyz
  1  'x, y, z'
loop_
 _atom_site_type_symbol
 _atom_site_label
 _atom_site_symmetry_multiplicity
 _atom_site_fract_x
 _atom_site_fract_y
 _atom_site_fract_z
 _atom_site_occupancy
  Ga  Ga0  1  0.50000000  0.50000000  0.50000000  1.0
  Ga  Ga1  1  0.50000000  1.00000000  -0.50000000  1.0
  Ga  Ga2  1  1.00000000  0.50000000  -0.50000000  1.0
  Ga  Ga3  1  0.50000000  0.50000000  -0.00000000  1.0
  Ga  Ga4  1  0.63478305  1.26543431  -0.38897156  1.0
  Ga  Ga5  1  1.26543431  0.61102844  -0.36521695  1.0
  Ga  Ga6  1  0.61102844  0.63478305  0.26543431  1.0
  Ga  Ga7  1  1.36521695  -0.26543431  0.38897156  1.0
  Ga  Ga8  1  0.73456569  0.38897156  0.36521695  1.0
  Ga  Ga9  1  1.38897156  0.36521695  -0.26543431  1.0
  Ga  Ga10  1  0.77825744  0.67367372  0.53651050  1.0
  Ga  Ga11  1  0.67367372  1.53651050  -0.22174256  1.0
  Ga  Ga12  1  1.53651050  0.77825744  -0.32632628  1.0
  Ga  Ga13  1  1.22174256  0.32632628  -0.53651050  1.0
  Ga  Ga14  1  1.32632628  -0.53651050  0.22174256  1.0
  Ga  Ga15  1  0.46348950  0.22174256  0.32632628  1.0
  Ga  Ga16  1  1.07320735  0.77990465  -0.54916929  1.0
  Ga  Ga17  1  0.77990465  0.45083071  0.07320735  1.0
  Ga  Ga18  1  0.45083071  1.07320735  -0.22009535  1.0
  Ga  Ga19  1  0.92679265  0.22009535  0.54916929  1.0
  Ga  Ga20  1  1.22009535  0.54916929  -0.07320735  1.0
  Ga  Ga21  1  1.54916929  -0.07320735  0.22009535  1.0
  Ga  Ga22  1  0.78548270  0.96779254  0.59879288  1.0
  Ga  Ga23  1  0.96779254  1.59879288  -0.21451730  1.0
  Ga  Ga24  1  1.59879288  0.78548270  -0.03220746  1.0
  Ga  Ga25  1  1.21451730  0.03220746  -0.59879288  1.0
  Ga  Ga26  1  1.03220746  -0.59879288  0.21451730  1.0
  Ga  Ga27  1  0.40120712  0.21451730  0.03220746  1.0
  Ga  Ga28  1  0.74540895  1.05515014  -0.12366944  1.0
  Ga  Ga29  1  1.05515014  0.87633056  -0.25459105  1.0
  Ga  Ga30  1  0.87633056  0.74540895  0.05515014  1.0
  Ga  Ga31  1  1.25459105  -0.05515014  0.12366944  1.0
  Ga  Ga32  1  0.94484986  0.12366944  0.25459105  1.0
  Ga  Ga33  1  1.12366944  0.25459105  -0.05515014  1.0
  Ga  Ga34  1  1.17842381  0.12517730  -0.32045298  1.0
  Ga  Ga35  1  1.12517730  -0.32045298  0.17842381  1.0
  Ga  Ga36  1  0.67954702  0.17842381  0.12517730  1.0
  Ga  Ga37  1  0.82157619  0.87482270  0.32045298  1.0
  Ga  Ga38  1  0.87482270  1.32045298  -0.17842381  1.0
  Ga  Ga39  1  1.32045298  0.82157619  -0.12517730  1.0
  Mo  Mo40  1  0.79758465  0.79758465  0.79758465  1.0
  Mo  Mo41  1  0.20241535  0.20241535  0.20241535  1.0
  Mo  Mo42  1  0.61341081  1.29077165  -0.11208454  1.0
  Mo  Mo43  1  1.29077165  0.88791546  -0.38658919  1.0
  Mo  Mo44  1  0.88791546  0.61341081  0.29077165  1.0
  Mo  Mo45  1  1.38658919  -0.29077165  0.11208454  1.0
  Mo  Mo46  1  0.70922835  0.11208454  0.38658919  1.0
  Mo  Mo47  1  1.11208454  0.38658919  -0.29077165  1.0
  Au  Au48  1  0.00000000  0.00000000  0.00000000  1.0
