# generated using pymatgen
data_NaFe2H3(SO4)2
_symmetry_space_group_name_H-M   'P 1'
_cell_length_a   6.32903291
_cell_length_b   9.21507477
_cell_length_c   8.03783887
_cell_angle_alpha   64.47812201
_cell_angle_beta   68.63291279
_cell_angle_gamma   68.64832274
_symmetry_Int_Tables_number   1
_chemical_formula_structural   NaFe2H3(SO4)2
_chemical_formula_sum   'Na2 Fe4 H6 S4 O16'
_cell_volume   381.81396053
_cell_formula_units_Z   2
loop_
 _symmetry_equiv_pos_site_id
 _symmetry_equiv_pos_as_xyz
  1  'x, y, z'
loop_
 _atom_site_type_symbol
 _atom_site_label
 _atom_site_symmetry_multiplicity
 _atom_site_fract_x
 _atom_site_fract_y
 _atom_site_fract_z
 _atom_site_occupancy
  Na  Na0  1  -0.14850297  0.59233802  -0.82928408  1.0
  Na  Na1  1  0.14850297  0.40766198  -0.17071592  1.0
  Fe  Fe2  1  0.50904695  0.31050113  -0.83283806  1.0
  Fe  Fe3  1  -0.50904695  0.68949887  -0.16716194  1.0
  Fe  Fe4  1  0.50000000  0.00000000  -0.00000000  1.0
  Fe  Fe5  1  0.00000000  0.00000000  0.00000000  1.0
  H  H6  1  -0.21493733  0.77175149  -0.56213832  1.0
  H  H7  1  0.21493733  0.22824851  -0.43786168  1.0
  H  H8  1  -0.60890166  1.00457981  -0.28569892  1.0
  H  H9  1  0.60890166  -0.00457981  -0.71430108  1.0
  H  H10  1  -0.46496524  0.76809573  -0.55674869  1.0
  H  H11  1  0.46496524  0.23190427  -0.44325131  1.0
  S  S12  1  0.28384924  0.65685874  -0.70617289  1.0
  S  S13  1  -0.28384924  0.34314126  -0.29382711  1.0
  S  S14  1  -0.03858500  0.79746017  -0.25362043  1.0
  S  S15  1  0.03858500  0.20253983  -0.74637957  1.0
  O  O16  1  0.39124930  0.57578684  -0.86461885  1.0
  O  O17  1  -0.39124930  0.42421316  -0.13538115  1.0
  O  O18  1  0.21328872  0.69400847  -0.24434692  1.0
  O  O19  1  -0.21328872  0.30599153  -0.75565308  1.0
  O  O20  1  0.04939386  0.77790688  -0.75181070  1.0
  O  O21  1  -0.04939386  0.22209312  -0.24818930  1.0
  O  O22  1  -0.13153466  0.86642857  -0.08433824  1.0
  O  O23  1  0.13153466  0.13357143  -0.91566176  1.0
  O  O24  1  0.62940742  0.07082287  -0.84718412  1.0
  O  O25  1  -0.62940742  0.92917713  -0.15281588  1.0
  O  O26  1  0.16643318  0.34503464  -0.82906320  1.0
  O  O27  1  -0.16643318  0.65496536  -0.17093680  1.0
  O  O28  1  -0.38257357  0.79524145  -0.49449633  1.0
  O  O29  1  0.38257357  0.20475855  -0.50550367  1.0
  O  O30  1  -0.54772215  0.76506664  -0.75400197  1.0
  O  O31  1  0.54772215  0.23493336  -0.24599803  1.0
