# generated using pymatgen
data_Tb6Cu23
_symmetry_space_group_name_H-M   'P 1'
_cell_length_a   8.62963289
_cell_length_b   8.62963289
_cell_length_c   8.62963289
_cell_angle_alpha   60.00000000
_cell_angle_beta   60.00000000
_cell_angle_gamma   60.00000000
_symmetry_Int_Tables_number   1
_chemical_formula_structural   Tb6Cu23
_chemical_formula_sum   'Tb6 Cu23'
_cell_volume   454.42473791
_cell_formula_units_Z   1
loop_
 _symmetry_equiv_pos_site_id
 _symmetry_equiv_pos_as_xyz
  1  'x, y, z'
loop_
 _atom_site_type_symbol
 _atom_site_label
 _atom_site_symmetry_multiplicity
 _atom_site_fract_x
 _atom_site_fract_y
 _atom_site_fract_z
 _atom_site_occupancy
  Tb  Tb0  1  -0.71301975  0.71301975  0.71301975  1.0
  Tb  Tb1  1  -0.28698025  0.28698025  0.71301975  1.0
  Tb  Tb2  1  0.71301975  0.71301975  -0.71301975  1.0
  Tb  Tb3  1  0.28698025  1.28698025  -0.28698025  1.0
  Tb  Tb4  1  0.28698025  -0.28698025  1.28698025  1.0
  Tb  Tb5  1  -0.28698025  0.28698025  0.28698025  1.0
  Cu  Cu6  1  0.87733560  0.87733560  -0.12266440  1.0
  Cu  Cu7  1  1.12266440  0.12266440  0.63200681  1.0
  Cu  Cu8  1  1.12266440  0.63200681  0.12266440  1.0
  Cu  Cu9  1  0.36799319  0.87733560  -0.12266440  1.0
  Cu  Cu10  1  1.63200681  0.12266440  0.12266440  1.0
  Cu  Cu11  1  0.87733560  0.36799319  -0.12266440  1.0
  Cu  Cu12  1  0.87733560  0.87733560  -0.63200681  1.0
  Cu  Cu13  1  1.12266440  0.12266440  0.12266440  1.0
  Cu  Cu14  1  0.67413721  0.67413721  -0.32586279  1.0
  Cu  Cu15  1  1.32586279  0.32586279  0.02241164  1.0
  Cu  Cu16  1  1.32586279  0.02241164  0.32586279  1.0
  Cu  Cu17  1  0.97758836  0.67413721  -0.32586279  1.0
  Cu  Cu18  1  1.02241164  0.32586279  0.32586279  1.0
  Cu  Cu19  1  0.67413721  0.97758836  -0.32586279  1.0
  Cu  Cu20  1  0.67413721  0.67413721  -0.02241164  1.0
  Cu  Cu21  1  1.32586279  0.32586279  0.32586279  1.0
  Cu  Cu22  1  1.50000000  -0.00000000  0.00000000  1.0
  Cu  Cu23  1  1.00000000  0.50000000  -0.50000000  1.0
  Cu  Cu24  1  -0.00000000  1.50000000  0.00000000  1.0
  Cu  Cu25  1  0.50000000  1.00000000  -0.50000000  1.0
  Cu  Cu26  1  0.00000000  0.00000000  0.50000000  1.0
  Cu  Cu27  1  0.50000000  -0.50000000  1.00000000  1.0
  Cu  Cu28  1  0.00000000  0.00000000  0.00000000  1.0
