# generated using pymatgen
data_Sr2CoO4
_symmetry_space_group_name_H-M   'P 1'
_cell_length_a   6.85436127
_cell_length_b   6.85436127
_cell_length_c   6.85436127
_cell_angle_alpha   147.90622280
_cell_angle_beta   147.90622280
_cell_angle_gamma   46.02381940
_symmetry_Int_Tables_number   1
_chemical_formula_structural   Sr2CoO4
_chemical_formula_sum   'Sr2 Co1 O4'
_cell_volume   90.59411061
_cell_formula_units_Z   1
loop_
 _symmetry_equiv_pos_site_id
 _symmetry_equiv_pos_as_xyz
  1  'x, y, z'
loop_
 _atom_site_type_symbol
 _atom_site_label
 _atom_site_symmetry_multiplicity
 _atom_site_fract_x
 _atom_site_fract_y
 _atom_site_fract_z
 _atom_site_occupancy
  O  O0  1  0.84277357  0.84277357  1.00000000  1.0
  O  O1  1  0.15722643  0.15722643  0.00000000  1.0
  O  O2  1  0.50000000  0.00000000  0.50000000  1.0
  O  O3  1  0.00000000  0.50000000  0.50000000  1.0
  Co  Co4  1  0.00000000  0.00000000  0.00000000  1.0
  Sr  Sr5  1  0.64406925  0.64406925  1.00000000  1.0
  Sr  Sr6  1  0.35593075  0.35593075  -0.00000000  1.0
