# generated using pymatgen
data_Mg2Mn(PO4)2
_symmetry_space_group_name_H-M   'P 1'
_cell_length_a   5.13937730
_cell_length_b   8.50916724
_cell_length_c   9.04674546
_cell_angle_alpha   90.00000000
_cell_angle_beta   120.27320265
_cell_angle_gamma   90.00000000
_symmetry_Int_Tables_number   1
_chemical_formula_structural   Mg2Mn(PO4)2
_chemical_formula_sum   'Mg4 Mn2 P4 O16'
_cell_volume   341.67906367
_cell_formula_units_Z   2
loop_
 _symmetry_equiv_pos_site_id
 _symmetry_equiv_pos_as_xyz
  1  'x, y, z'
loop_
 _atom_site_type_symbol
 _atom_site_label
 _atom_site_symmetry_multiplicity
 _atom_site_fract_x
 _atom_site_fract_y
 _atom_site_fract_z
 _atom_site_occupancy
  Mg  Mg0  1  0.51925778  0.64165138  0.10838771  1.0
  Mg  Mg1  1  0.51925778  0.85834862  0.60838771  1.0
  Mg  Mg2  1  0.48074222  0.35834862  0.89161229  1.0
  Mg  Mg3  1  0.48074222  0.14165138  0.39161229  1.0
  Mn  Mn4  1  0.50000000  0.50000000  0.50000000  1.0
  Mn  Mn5  1  0.50000000  0.00000000  -0.00000000  1.0
  P  P6  1  0.17653382  0.69796460  0.70604492  1.0
  P  P7  1  0.17653382  0.80203540  0.20604492  1.0
  P  P8  1  0.82346618  0.30203540  0.29395508  1.0
  P  P9  1  0.82346618  0.19796460  0.79395508  1.0
  O  O10  1  0.24099205  0.65086594  0.56112449  1.0
  O  O11  1  0.24099205  0.84913406  0.06112449  1.0
  O  O12  1  0.75900795  0.34913406  0.43887551  1.0
  O  O13  1  0.75900795  0.15086594  0.93887551  1.0
  O  O14  1  0.83452513  0.70661059  0.63905423  1.0
  O  O15  1  0.83452513  0.79338941  0.13905423  1.0
  O  O16  1  0.16547487  0.29338941  0.36094577  1.0
  O  O17  1  0.16547487  0.20661059  0.86094577  1.0
  O  O18  1  0.33661980  0.86200673  0.76508868  1.0
  O  O19  1  0.33661980  0.63799327  0.26508868  1.0
  O  O20  1  0.66338020  0.13799327  0.23491132  1.0
  O  O21  1  0.66338020  0.36200673  0.73491132  1.0
  O  O22  1  0.32272870  0.57876759  0.85808985  1.0
  O  O23  1  0.32272870  0.92123241  0.35808985  1.0
  O  O24  1  0.67727130  0.42123241  0.14191015  1.0
  O  O25  1  0.67727130  0.07876759  0.64191015  1.0
