# generated using pymatgen
data_Ag2PSe3
_symmetry_space_group_name_H-M   'P 1'
_cell_length_a   6.61634546
_cell_length_b   11.74721072
_cell_length_c   14.65494854
_cell_angle_alpha   90.00000000
_cell_angle_beta   90.00000000
_cell_angle_gamma   90.00000000
_symmetry_Int_Tables_number   1
_chemical_formula_structural   Ag2PSe3
_chemical_formula_sum   'Ag16 P8 Se24'
_cell_volume   1139.03542207
_cell_formula_units_Z   8
loop_
 _symmetry_equiv_pos_site_id
 _symmetry_equiv_pos_as_xyz
  1  'x, y, z'
loop_
 _atom_site_type_symbol
 _atom_site_label
 _atom_site_symmetry_multiplicity
 _atom_site_fract_x
 _atom_site_fract_y
 _atom_site_fract_z
 _atom_site_occupancy
  Ag  Ag0  1  0.46607863  0.69515522  0.60648142  1.0
  Ag  Ag1  1  0.96607863  0.80484478  0.39351858  1.0
  Ag  Ag2  1  0.53392137  0.19515522  0.89351858  1.0
  Ag  Ag3  1  0.03392137  0.30484478  0.10648142  1.0
  Ag  Ag4  1  0.42322967  0.88538244  0.12641628  1.0
  Ag  Ag5  1  0.92322967  0.61461756  0.87358372  1.0
  Ag  Ag6  1  0.57677033  0.38538244  0.37358372  1.0
  Ag  Ag7  1  0.07677033  0.11461756  0.62641628  1.0
  Ag  Ag8  1  0.27784121  0.78538898  0.87169288  1.0
  Ag  Ag9  1  0.77784121  0.71461102  0.12830712  1.0
  Ag  Ag10  1  0.72215879  0.28538898  0.62830712  1.0
  Ag  Ag11  1  0.22215879  0.21461102  0.37169288  1.0
  Ag  Ag12  1  0.08379594  0.86065389  0.61116518  1.0
  Ag  Ag13  1  0.58379594  0.63934611  0.38883482  1.0
  Ag  Ag14  1  0.91620406  0.36065389  0.88883482  1.0
  Ag  Ag15  1  0.41620406  0.13934611  0.11116518  1.0
  P  P16  1  0.43704441  0.50507552  0.95583198  1.0
  P  P17  1  0.93704441  0.99492448  0.04416802  1.0
  P  P18  1  0.56295559  0.00507552  0.54416802  1.0
  P  P19  1  0.06295559  0.49492448  0.45583198  1.0
  P  P20  1  0.39262797  0.46887643  0.80037652  1.0
  P  P21  1  0.89262797  0.03112357  0.19962348  1.0
  P  P22  1  0.60737203  0.96887643  0.69962348  1.0
  P  P23  1  0.10737203  0.53112357  0.30037652  1.0
  Se  Se24  1  0.36586942  0.48566725  0.51890840  1.0
  Se  Se25  1  0.86586942  0.01433275  0.48109160  1.0
  Se  Se26  1  0.63413058  0.98566725  0.98109160  1.0
  Se  Se27  1  0.13413058  0.51433275  0.01890840  1.0
  Se  Se28  1  0.30177498  0.96886162  0.76120332  1.0
  Se  Se29  1  0.80177498  0.53113838  0.23879668  1.0
  Se  Se30  1  0.69822502  0.46886162  0.73879668  1.0
  Se  Se31  1  0.19822502  0.03113838  0.26120332  1.0
  Se  Se32  1  0.20902008  0.61583331  0.74550196  1.0
  Se  Se33  1  0.70902008  0.88416669  0.25449804  1.0
  Se  Se34  1  0.79097992  0.11583331  0.75449804  1.0
  Se  Se35  1  0.29097992  0.38416669  0.24550196  1.0
  Se  Se36  1  0.09176096  0.82367999  0.03736503  1.0
  Se  Se37  1  0.59176096  0.67632001  0.96263497  1.0
  Se  Se38  1  0.90823904  0.32367999  0.46263497  1.0
  Se  Se39  1  0.40823904  0.17632001  0.53736503  1.0
  Se  Se40  1  0.88213433  0.63759490  0.51455592  1.0
  Se  Se41  1  0.38213433  0.86240510  0.48544408  1.0
  Se  Se42  1  0.11786567  0.13759490  0.98544408  1.0
  Se  Se43  1  0.61786567  0.36240510  0.01455592  1.0
  Se  Se44  1  0.76098629  0.80099714  0.70995147  1.0
  Se  Se45  1  0.26098629  0.69900286  0.29004853  1.0
  Se  Se46  1  0.23901371  0.30099714  0.79004853  1.0
  Se  Se47  1  0.73901371  0.19900286  0.20995147  1.0
