# generated using pymatgen
data_Mn9Fe3Ge5
_symmetry_space_group_name_H-M   'P 1'
_cell_length_a   6.60797833
_cell_length_b   6.60797833
_cell_length_c   6.60797833
_cell_angle_alpha   62.32713711
_cell_angle_beta   62.32713711
_cell_angle_gamma   62.32713711
_symmetry_Int_Tables_number   1
_chemical_formula_structural   Mn9Fe3Ge5
_chemical_formula_sum   'Mn9 Fe3 Ge5'
_cell_volume   214.62323456
_cell_formula_units_Z   1
loop_
 _symmetry_equiv_pos_site_id
 _symmetry_equiv_pos_as_xyz
  1  'x, y, z'
loop_
 _atom_site_type_symbol
 _atom_site_label
 _atom_site_symmetry_multiplicity
 _atom_site_fract_x
 _atom_site_fract_y
 _atom_site_fract_z
 _atom_site_occupancy
  Mn  Mn0  1  0.43485676  0.03731175  -0.22592542  1.0
  Mn  Mn1  1  1.22592542  -0.03731175  -0.43485676  1.0
  Mn  Mn2  1  0.96268825  -0.43485676  0.22592542  1.0
  Mn  Mn3  1  0.56514324  0.22592542  -0.03731175  1.0
  Mn  Mn4  1  0.77407458  -0.56514324  0.03731175  1.0
  Mn  Mn5  1  1.03731175  -0.22592542  -0.56514324  1.0
  Mn  Mn6  1  0.24907328  0.50000000  -0.24907328  1.0
  Mn  Mn7  1  0.50000000  0.75092672  -0.75092672  1.0
  Mn  Mn8  1  0.75092672  0.24907328  -0.50000000  1.0
  Fe  Fe9  1  -0.00000000  -0.00000000  0.00000000  1.0
  Fe  Fe10  1  0.61306535  0.61306535  -0.38693465  1.0
  Fe  Fe11  1  0.38693465  0.38693465  -0.61306535  1.0
  Ge  Ge12  1  0.84391969  0.84391969  -0.15608031  1.0
  Ge  Ge13  1  1.15608031  1.15608031  0.15608031  1.0
  Ge  Ge14  1  0.65019484  1.00000000  -0.65019484  1.0
  Ge  Ge15  1  0.00000000  0.34980516  -0.34980516  1.0
  Ge  Ge16  1  0.34980516  -0.34980516  -0.00000000  1.0
