# generated using pymatgen
data_H5SeNO4
_symmetry_space_group_name_H-M   'P 1'
_cell_length_a   10.59316499
_cell_length_b   10.59316499
_cell_length_c   4.63270489
_cell_angle_alpha   79.98671112
_cell_angle_beta   100.01328888
_cell_angle_gamma   137.12016081
_symmetry_Int_Tables_number   1
_chemical_formula_structural   H5SeNO4
_chemical_formula_sum   'H15 Se3 N3 O12'
_cell_volume   347.51844340
_cell_formula_units_Z   3
loop_
 _symmetry_equiv_pos_site_id
 _symmetry_equiv_pos_as_xyz
  1  'x, y, z'
loop_
 _atom_site_type_symbol
 _atom_site_label
 _atom_site_symmetry_multiplicity
 _atom_site_fract_x
 _atom_site_fract_y
 _atom_site_fract_z
 _atom_site_occupancy
  H  H0  1  1.41978471  0.48062797  0.84124224  1.0
  H  H1  1  0.48062797  0.41978471  0.15875776  1.0
  H  H2  1  1.13135523  0.44870110  0.85256985  1.0
  H  H3  1  0.44870110  0.13135523  0.14743015  1.0
  H  H4  1  0.87506939  0.22914448  0.46966740  1.0
  H  H5  1  0.22914448  -0.12493061  0.53033260  1.0
  H  H6  1  1.03318008  0.76123495  0.69053106  1.0
  H  H7  1  0.76123495  0.03318008  0.30946894  1.0
  H  H8  1  1.02508282  0.75470329  0.32756216  1.0
  H  H9  1  0.75470329  0.02508282  0.67243784  1.0
  H  H10  1  1.06093413  0.64053396  0.56411425  1.0
  H  H11  1  0.64053396  0.06093413  0.43588575  1.0
  H  H12  1  0.63362540  0.57044599  0.90206377  1.0
  H  H13  1  0.57044599  -0.36637460  0.09793623  1.0
  H  H14  1  0.11339635  0.11339635  0.50000000  1.0
  Se  Se15  1  1.25459453  0.58730071  0.29381752  1.0
  Se  Se16  1  0.58730071  0.25459453  0.70618248  1.0
  Se  Se17  1  -0.00646710  -0.00646710  0.00000000  1.0
  N  N18  1  1.08589220  0.75649113  0.52973386  1.0
  N  N19  1  0.75649113  0.08589220  0.47026614  1.0
  N  N20  1  0.52406122  0.52406122  -0.00000000  1.0
  O  O21  1  1.09670359  0.15303593  0.70932153  1.0
  O  O22  1  0.15303593  0.09670359  0.29067847  1.0
  O  O23  1  1.08698658  0.48005042  0.52280480  1.0
  O  O24  1  0.48005042  0.08698658  0.47719520  1.0
  O  O25  1  0.76118945  0.30358914  0.90267138  1.0
  O  O26  1  0.30358914  -0.23881055  0.09732862  1.0
  O  O27  1  0.41363564  0.15374657  0.93833565  1.0
  O  O28  1  1.15374657  0.41363564  0.06166435  1.0
  O  O29  1  0.63434188  0.43301185  0.53133534  1.0
  O  O30  1  0.43301185  -0.36565812  0.46866466  1.0
  O  O31  1  0.93960436  0.80721204  0.94808059  1.0
  O  O32  1  0.80721204  -0.06039564  0.05191941  1.0
