# generated using pymatgen
data_Sr6LuAl(BO3)6
_symmetry_space_group_name_H-M   'P 1'
_cell_length_a   7.71307538
_cell_length_b   7.71307538
_cell_length_c   7.71307538
_cell_angle_alpha   105.44045711
_cell_angle_beta   105.44045711
_cell_angle_gamma   105.44045711
_symmetry_Int_Tables_number   1
_chemical_formula_structural   Sr6LuAl(BO3)6
_chemical_formula_sum   'Sr6 Lu1 Al1 B6 O18'
_cell_volume   397.28367757
_cell_formula_units_Z   1
loop_
 _symmetry_equiv_pos_site_id
 _symmetry_equiv_pos_as_xyz
  1  'x, y, z'
loop_
 _atom_site_type_symbol
 _atom_site_label
 _atom_site_symmetry_multiplicity
 _atom_site_fract_x
 _atom_site_fract_y
 _atom_site_fract_z
 _atom_site_occupancy
  Sr  Sr0  1  0.76621721  0.66533763  0.15277374  1.0
  Sr  Sr1  1  1.33466237  -0.15277374  0.23378279  1.0
  Sr  Sr2  1  0.84722626  0.23378279  0.33466237  1.0
  Sr  Sr3  1  1.23378279  0.33466237  -0.15277374  1.0
  Sr  Sr4  1  0.66533763  1.15277374  -0.23378279  1.0
  Sr  Sr5  1  1.15277374  0.76621721  -0.33466237  1.0
  Lu  Lu6  1  0.50000000  0.50000000  0.50000000  1.0
  Al  Al7  1  0.00000000  0.00000000  0.00000000  1.0
  B  B8  1  1.55402526  0.79683503  -0.12211787  1.0
  B  B9  1  1.20316497  0.12211787  -0.55402526  1.0
  B  B10  1  1.12211787  -0.55402526  0.20316497  1.0
  B  B11  1  0.44597474  0.20316497  0.12211787  1.0
  B  B12  1  0.79683503  0.87788213  0.55402526  1.0
  B  B13  1  0.87788213  1.55402526  -0.20316497  1.0
  O  O14  1  0.73874909  0.92786331  -0.00272270  1.0
  O  O15  1  1.07213669  0.00272270  -0.73874909  1.0
  O  O16  1  1.00272270  -0.73874909  0.07213669  1.0
  O  O17  1  0.26125091  0.07213669  0.00272270  1.0
  O  O18  1  0.92786331  0.99727730  -0.26125091  1.0
  O  O19  1  0.99727730  0.73874909  -0.07213669  1.0
  O  O20  1  1.48754910  0.77332821  -0.31704568  1.0
  O  O21  1  1.22667179  0.31704568  -0.48754910  1.0
  O  O22  1  1.31704568  -0.48754910  0.22667179  1.0
  O  O23  1  0.51245090  0.22667179  0.31704568  1.0
  O  O24  1  0.77332821  0.68295432  0.48754910  1.0
  O  O25  1  0.68295432  1.48754910  -0.22667179  1.0
  O  O26  1  0.56530250  0.29887748  0.04629454  1.0
  O  O27  1  0.70112252  0.95370546  0.43469750  1.0
  O  O28  1  0.95370546  1.43469750  -0.29887748  1.0
  O  O29  1  1.43469750  0.70112252  -0.04629454  1.0
  O  O30  1  1.29887748  0.04629454  -0.43469750  1.0
  O  O31  1  1.04629454  -0.43469750  0.29887748  1.0
