# generated using pymatgen
data_Ba3AlHO4
_symmetry_space_group_name_H-M   'P 1'
_cell_length_a   10.57773450
_cell_length_b   8.21914462
_cell_length_c   7.33209044
_cell_angle_alpha   90.00000000
_cell_angle_beta   90.00000000
_cell_angle_gamma   90.00000000
_symmetry_Int_Tables_number   1
_chemical_formula_structural   Ba3AlHO4
_chemical_formula_sum   'Ba12 Al4 H4 O16'
_cell_volume   637.45142727
_cell_formula_units_Z   4
loop_
 _symmetry_equiv_pos_site_id
 _symmetry_equiv_pos_as_xyz
  1  'x, y, z'
loop_
 _atom_site_type_symbol
 _atom_site_label
 _atom_site_symmetry_multiplicity
 _atom_site_fract_x
 _atom_site_fract_y
 _atom_site_fract_z
 _atom_site_occupancy
  Ba  Ba0  1  0.66519883  0.47431575  0.10109855  1.0
  Ba  Ba1  1  0.66519883  0.02568425  0.10109855  1.0
  Ba  Ba2  1  0.16519883  0.47431575  0.39890145  1.0
  Ba  Ba3  1  0.16519883  0.02568425  0.39890145  1.0
  Ba  Ba4  1  0.33480117  0.97431575  0.89890145  1.0
  Ba  Ba5  1  0.33480117  0.52568425  0.89890145  1.0
  Ba  Ba6  1  0.83480117  0.97431575  0.60109855  1.0
  Ba  Ba7  1  0.83480117  0.52568425  0.60109855  1.0
  Ba  Ba8  1  0.53609685  0.25000000  0.59658820  1.0
  Ba  Ba9  1  0.03609685  0.25000000  0.90341180  1.0
  Ba  Ba10  1  0.46390315  0.75000000  0.40341180  1.0
  Ba  Ba11  1  0.96390315  0.75000000  0.09658820  1.0
  Al  Al12  1  0.89580939  0.25000000  0.31019912  1.0
  Al  Al13  1  0.39580939  0.25000000  0.18980088  1.0
  Al  Al14  1  0.10419061  0.75000000  0.68980088  1.0
  Al  Al15  1  0.60419061  0.75000000  0.81019912  1.0
  H  H16  1  0.77058318  0.25000000  0.83926005  1.0
  H  H17  1  0.27058318  0.25000000  0.66073995  1.0
  H  H18  1  0.22941682  0.75000000  0.16073995  1.0
  H  H19  1  0.72941682  0.75000000  0.33926005  1.0
  O  O20  1  0.92717404  0.43503828  0.19368708  1.0
  O  O21  1  0.92717404  0.06496172  0.19368708  1.0
  O  O22  1  0.42717404  0.43503828  0.30631292  1.0
  O  O23  1  0.42717404  0.06496172  0.30631292  1.0
  O  O24  1  0.07282596  0.93503828  0.80631292  1.0
  O  O25  1  0.07282596  0.56496172  0.80631292  1.0
  O  O26  1  0.57282596  0.93503828  0.69368708  1.0
  O  O27  1  0.57282596  0.56496172  0.69368708  1.0
  O  O28  1  0.98808148  0.25000000  0.51616256  1.0
  O  O29  1  0.48808148  0.25000000  0.98383744  1.0
  O  O30  1  0.01191852  0.75000000  0.48383744  1.0
  O  O31  1  0.51191852  0.75000000  0.01616256  1.0
  O  O32  1  0.73109427  0.25000000  0.37055016  1.0
  O  O33  1  0.23109427  0.25000000  0.12944984  1.0
  O  O34  1  0.26890573  0.75000000  0.62944984  1.0
  O  O35  1  0.76890573  0.75000000  0.87055016  1.0
