# generated using pymatgen
data_Rb2Mn(TeS3)2
_symmetry_space_group_name_H-M   'P 1'
_cell_length_a   6.91824415
_cell_length_b   6.91824415
_cell_length_c   15.69118544
_cell_angle_alpha   90.00000000
_cell_angle_beta   90.00000000
_cell_angle_gamma   120.00000000
_symmetry_Int_Tables_number   1
_chemical_formula_structural   Rb2Mn(TeS3)2
_chemical_formula_sum   'Rb4 Mn2 Te4 S12'
_cell_volume   650.39644118
_cell_formula_units_Z   2
loop_
 _symmetry_equiv_pos_site_id
 _symmetry_equiv_pos_as_xyz
  1  'x, y, z'
loop_
 _atom_site_type_symbol
 _atom_site_label
 _atom_site_symmetry_multiplicity
 _atom_site_fract_x
 _atom_site_fract_y
 _atom_site_fract_z
 _atom_site_occupancy
  Rb  Rb0  1  0.33333333  0.66666667  0.27967838  1.0
  Rb  Rb1  1  0.33333333  0.66666667  0.77967838  1.0
  Rb  Rb2  1  0.66666667  0.33333333  0.22032162  1.0
  Rb  Rb3  1  0.66666667  0.33333333  0.72032162  1.0
  Mn  Mn4  1  0.00000000  0.00000000  0.00000000  1.0
  Mn  Mn5  1  0.00000000  0.00000000  0.50000000  1.0
  Te  Te6  1  0.33333333  0.66666667  0.02755986  1.0
  Te  Te7  1  0.33333333  0.66666667  0.52755986  1.0
  Te  Te8  1  0.66666667  0.33333333  0.47244014  1.0
  Te  Te9  1  0.66666667  0.33333333  0.97244014  1.0
  S  S10  1  0.25950205  0.93292346  0.10028249  1.0
  S  S11  1  0.25950205  0.32657859  0.60028249  1.0
  S  S12  1  0.93292346  0.25950205  0.39971751  1.0
  S  S13  1  0.93292346  0.67342141  0.89971751  1.0
  S  S14  1  0.67342141  0.93292346  0.60028249  1.0
  S  S15  1  0.67342141  0.74049795  0.10028249  1.0
  S  S16  1  0.06707654  0.74049795  0.60028249  1.0
  S  S17  1  0.06707654  0.32657859  0.10028249  1.0
  S  S18  1  0.74049795  0.67342141  0.39971751  1.0
  S  S19  1  0.74049795  0.06707654  0.89971751  1.0
  S  S20  1  0.32657859  0.25950205  0.89971751  1.0
  S  S21  1  0.32657859  0.06707654  0.39971751  1.0
