# generated using pymatgen
data_CuH4(OF)2
_symmetry_space_group_name_H-M   'P 1'
_cell_length_a   5.31447394
_cell_length_b   5.31447394
_cell_length_c   3.57144944
_cell_angle_alpha   67.78515862
_cell_angle_beta   112.21484138
_cell_angle_gamma   92.19849890
_symmetry_Int_Tables_number   1
_chemical_formula_structural   CuH4(OF)2
_chemical_formula_sum   'Cu1 H4 O2 F2'
_cell_volume   85.80568460
_cell_formula_units_Z   1
loop_
 _symmetry_equiv_pos_site_id
 _symmetry_equiv_pos_as_xyz
  1  'x, y, z'
loop_
 _atom_site_type_symbol
 _atom_site_label
 _atom_site_symmetry_multiplicity
 _atom_site_fract_x
 _atom_site_fract_y
 _atom_site_fract_z
 _atom_site_occupancy
  Cu  Cu0  1  0.00000000  0.00000000  0.00000000  1.0
  H  H1  1  1.22706565  0.44970876  -0.02220310  1.0
  H  H2  1  0.55029124  -0.22706565  -0.02220310  1.0
  H  H3  1  0.77293435  -0.44970876  1.02220310  1.0
  H  H4  1  1.44970876  0.22706565  1.02220310  1.0
  O  O5  1  1.26060178  0.26060178  -0.00000000  1.0
  O  O6  1  0.73939822  -0.26060178  -0.00000000  1.0
  F  F7  1  0.76943919  -0.76943919  0.08248037  1.0
  F  F8  1  0.23056081  -0.23056081  0.91751963  1.0
