# generated using pymatgen
data_K2PtI6
_symmetry_space_group_name_H-M   'P 1'
_cell_length_a   7.62711695
_cell_length_b   7.62711695
_cell_length_c   12.28010080
_cell_angle_alpha   90.00000000
_cell_angle_beta   90.00000000
_cell_angle_gamma   90.00000000
_symmetry_Int_Tables_number   1
_chemical_formula_structural   K2PtI6
_chemical_formula_sum   'K4 Pt2 I12'
_cell_volume   714.36923530
_cell_formula_units_Z   2
loop_
 _symmetry_equiv_pos_site_id
 _symmetry_equiv_pos_as_xyz
  1  'x, y, z'
loop_
 _atom_site_type_symbol
 _atom_site_label
 _atom_site_symmetry_multiplicity
 _atom_site_fract_x
 _atom_site_fract_y
 _atom_site_fract_z
 _atom_site_occupancy
  K  K0  1  0.50000000  0.00000000  0.25000000  1.0
  K  K1  1  0.50000000  0.00000000  0.75000000  1.0
  K  K2  1  0.00000000  0.50000000  0.75000000  1.0
  K  K3  1  0.00000000  0.50000000  0.25000000  1.0
  Pt  Pt4  1  0.50000000  0.50000000  0.50000000  1.0
  Pt  Pt5  1  0.00000000  0.00000000  0.00000000  1.0
  I  I6  1  0.30816085  0.80204519  0.50000000  1.0
  I  I7  1  0.80816085  0.69795481  0.00000000  1.0
  I  I8  1  0.19795481  0.30816085  0.50000000  1.0
  I  I9  1  0.69795481  0.19183915  0.00000000  1.0
  I  I10  1  0.69183915  0.19795481  0.50000000  1.0
  I  I11  1  0.19183915  0.30204519  0.00000000  1.0
  I  I12  1  0.80204519  0.69183915  0.50000000  1.0
  I  I13  1  0.30204519  0.80816085  0.00000000  1.0
  I  I14  1  0.50000000  0.50000000  0.27891656  1.0
  I  I15  1  0.50000000  0.50000000  0.72108344  1.0
  I  I16  1  0.00000000  0.00000000  0.77891656  1.0
  I  I17  1  0.00000000  0.00000000  0.22108344  1.0
