# generated using pymatgen
data_Rb2SbBr6
_symmetry_space_group_name_H-M   'P 1'
_cell_length_a   13.45713687
_cell_length_b   13.45713687
_cell_length_c   13.45713687
_cell_angle_alpha   131.75468335
_cell_angle_beta   131.75468335
_cell_angle_gamma   70.61675490
_symmetry_Int_Tables_number   1
_chemical_formula_structural   Rb2SbBr6
_chemical_formula_sum   'Rb8 Sb4 Br24'
_cell_volume   1328.70158860
_cell_formula_units_Z   4
loop_
 _symmetry_equiv_pos_site_id
 _symmetry_equiv_pos_as_xyz
  1  'x, y, z'
loop_
 _atom_site_type_symbol
 _atom_site_label
 _atom_site_symmetry_multiplicity
 _atom_site_fract_x
 _atom_site_fract_y
 _atom_site_fract_z
 _atom_site_occupancy
  Rb  Rb0  1  0.87500000  0.87492121  1.49992121  1.0
  Rb  Rb1  1  0.37500000  0.37507879  0.50007879  1.0
  Rb  Rb2  1  0.37500000  0.87492121  0.99992121  1.0
  Rb  Rb3  1  0.87500000  0.37507879  1.00007879  1.0
  Rb  Rb4  1  1.12507879  1.12500000  1.50007879  1.0
  Rb  Rb5  1  0.62492121  0.62500000  0.49992121  1.0
  Rb  Rb6  1  1.12507879  0.62500000  1.00007879  1.0
  Rb  Rb7  1  0.62492121  1.12500000  0.99992121  1.0
  Sb  Sb8  1  0.25000000  0.75000000  0.50000000  1.0
  Sb  Sb9  1  0.50000000  0.50000000  1.00000000  1.0
  Sb  Sb10  1  0.00000000  0.00000000  0.00000000  1.0
  Sb  Sb11  1  0.75000000  0.25000000  0.50000000  1.0
  Br  Br12  1  0.00008627  0.75309141  0.75300514  1.0
  Br  Br13  1  0.00008627  0.24708113  0.24699486  1.0
  Br  Br14  1  0.74991373  1.00291887  1.25300514  1.0
  Br  Br15  1  0.74991373  0.49690859  0.74699486  1.0
  Br  Br16  1  1.24690859  0.99991373  1.24699486  1.0
  Br  Br17  1  0.75291887  0.99991373  0.75300514  1.0
  Br  Br18  1  0.99708113  0.25008627  0.74699486  1.0
  Br  Br19  1  0.50309141  0.25008627  0.25300514  1.0
  Br  Br20  1  0.24997780  0.99699407  0.74701627  1.0
  Br  Br21  1  0.24997780  0.50296153  0.25298373  1.0
  Br  Br22  1  0.50002220  0.74703847  1.24701627  1.0
  Br  Br23  1  0.50002220  0.25300593  0.75298373  1.0
  Br  Br24  1  1.00300593  0.75002220  1.25298373  1.0
  Br  Br25  1  0.49703847  0.75002220  0.74701627  1.0
  Br  Br26  1  1.25296153  0.49997780  0.75298373  1.0
  Br  Br27  1  0.74699407  0.49997780  0.24701627  1.0
  Br  Br28  1  0.12369048  0.12369048  0.00000000  1.0
  Br  Br29  1  0.62630952  0.12630952  0.50000000  1.0
  Br  Br30  1  0.87630952  0.87630952  1.00000000  1.0
  Br  Br31  1  0.87369048  0.37369048  0.50000000  1.0
  Br  Br32  1  0.12630529  0.62630529  0.50000000  1.0
  Br  Br33  1  0.62369471  0.62369471  1.00000000  1.0
  Br  Br34  1  0.37369471  0.87369471  0.50000000  1.0
  Br  Br35  1  0.37630529  0.37630529  0.00000000  1.0
