# generated using pymatgen
data_Li3V(H6O5)2
_symmetry_space_group_name_H-M   'P 1'
_cell_length_a   6.30000265
_cell_length_b   6.30000265
_cell_length_c   6.30000265
_cell_angle_alpha   100.16548540
_cell_angle_beta   100.16548540
_cell_angle_gamma   100.16548540
_symmetry_Int_Tables_number   1
_chemical_formula_structural   Li3V(H6O5)2
_chemical_formula_sum   'Li3 V1 H12 O10'
_cell_volume   236.62941802
_cell_formula_units_Z   1
loop_
 _symmetry_equiv_pos_site_id
 _symmetry_equiv_pos_as_xyz
  1  'x, y, z'
loop_
 _atom_site_type_symbol
 _atom_site_label
 _atom_site_symmetry_multiplicity
 _atom_site_fract_x
 _atom_site_fract_y
 _atom_site_fract_z
 _atom_site_occupancy
  Li  Li0  1  0.96024552  0.81478121  0.55060600  1.0
  Li  Li1  1  0.81478121  1.55060600  -0.03975448  1.0
  Li  Li2  1  1.55060600  0.96024552  -0.18521879  1.0
  V  V3  1  0.34080823  0.34080823  0.34080823  1.0
  H  H4  1  1.55967283  -0.20982838  0.43403135  1.0
  H  H5  1  0.79017162  0.43403135  0.55967283  1.0
  H  H6  1  1.43403135  0.55967283  -0.20982838  1.0
  H  H7  1  0.65118132  1.04756143  -0.52290701  1.0
  H  H8  1  1.04756143  0.47709299  -0.34881868  1.0
  H  H9  1  0.47709299  0.65118132  0.04756143  1.0
  H  H10  1  1.05799645  -0.09809636  0.20161292  1.0
  H  H11  1  0.90190364  0.20161292  0.05799645  1.0
  H  H12  1  1.20161292  0.05799645  -0.09809636  1.0
  H  H13  1  1.15245029  -0.30667993  0.24799574  1.0
  H  H14  1  0.69332007  0.24799574  0.15245029  1.0
  H  H15  1  1.24799574  0.15245029  -0.30667993  1.0
  O  O16  1  1.26144595  0.37409111  -0.40912280  1.0
  O  O17  1  1.37409111  -0.40912280  0.26144595  1.0
  O  O18  1  0.59087720  0.26144595  0.37409111  1.0
  O  O19  1  0.14417971  0.14417971  0.14417971  1.0
  O  O20  1  1.67224058  -0.08492506  0.54070103  1.0
  O  O21  1  0.91507494  0.54070103  0.67224058  1.0
  O  O22  1  1.54070103  0.67224058  -0.08492506  1.0
  O  O23  1  1.01254699  -0.24783019  0.23617107  1.0
  O  O24  1  0.75216981  0.23617107  0.01254699  1.0
  O  O25  1  1.23617107  0.01254699  -0.24783019  1.0
