# generated using pymatgen
data_WF6
_symmetry_space_group_name_H-M   'P 1'
_cell_length_a   10.03392952
_cell_length_b   9.07621749
_cell_length_c   5.26069679
_cell_angle_alpha   90.00000000
_cell_angle_beta   90.00000000
_cell_angle_gamma   90.00000000
_symmetry_Int_Tables_number   1
_chemical_formula_structural   WF6
_chemical_formula_sum   'W4 F24'
_cell_volume   479.09232310
_cell_formula_units_Z   4
loop_
 _symmetry_equiv_pos_site_id
 _symmetry_equiv_pos_as_xyz
  1  'x, y, z'
loop_
 _atom_site_type_symbol
 _atom_site_label
 _atom_site_symmetry_multiplicity
 _atom_site_fract_x
 _atom_site_fract_y
 _atom_site_fract_z
 _atom_site_occupancy
  W  W0  1  0.87094954  0.25000000  0.42171040  1.0
  W  W1  1  0.37094954  0.25000000  0.07828960  1.0
  W  W2  1  0.12905046  0.75000000  0.57828960  1.0
  W  W3  1  0.62905046  0.75000000  0.92171040  1.0
  F  F4  1  0.97589472  0.39484470  0.27077230  1.0
  F  F5  1  0.97589472  0.10515530  0.27077230  1.0
  F  F6  1  0.47589472  0.39484470  0.22922770  1.0
  F  F7  1  0.47589472  0.10515530  0.22922770  1.0
  F  F8  1  0.02410528  0.89484470  0.72922770  1.0
  F  F9  1  0.02410528  0.60515530  0.72922770  1.0
  F  F10  1  0.52410528  0.89484470  0.77077230  1.0
  F  F11  1  0.52410528  0.60515530  0.77077230  1.0
  F  F12  1  0.76600246  0.39520588  0.57152761  1.0
  F  F13  1  0.76600246  0.10479412  0.57152761  1.0
  F  F14  1  0.26600246  0.39520588  0.92847239  1.0
  F  F15  1  0.26600246  0.10479412  0.92847239  1.0
  F  F16  1  0.23399754  0.89520588  0.42847239  1.0
  F  F17  1  0.23399754  0.60479412  0.42847239  1.0
  F  F18  1  0.73399754  0.89520588  0.07152761  1.0
  F  F19  1  0.73399754  0.60479412  0.07152761  1.0
  F  F20  1  0.98223675  0.25000000  0.70461169  1.0
  F  F21  1  0.48223675  0.25000000  0.79538831  1.0
  F  F22  1  0.01776325  0.75000000  0.29538831  1.0
  F  F23  1  0.51776325  0.75000000  0.20461169  1.0
  F  F24  1  0.75926341  0.25000000  0.13851023  1.0
  F  F25  1  0.25926341  0.25000000  0.36148977  1.0
  F  F26  1  0.24073659  0.75000000  0.86148977  1.0
  F  F27  1  0.74073659  0.75000000  0.63851023  1.0
