# generated using pymatgen
data_RbY(CO3)4
_symmetry_space_group_name_H-M   'P 1'
_cell_length_a   9.29263340
_cell_length_b   9.29263340
_cell_length_c   9.29263340
_cell_angle_alpha   102.18335423
_cell_angle_beta   102.18335423
_cell_angle_gamma   125.30426323
_symmetry_Int_Tables_number   1
_chemical_formula_structural   RbY(CO3)4
_chemical_formula_sum   'Rb2 Y2 C8 O24'
_cell_volume   581.68006141
_cell_formula_units_Z   2
loop_
 _symmetry_equiv_pos_site_id
 _symmetry_equiv_pos_as_xyz
  1  'x, y, z'
loop_
 _atom_site_type_symbol
 _atom_site_label
 _atom_site_symmetry_multiplicity
 _atom_site_fract_x
 _atom_site_fract_y
 _atom_site_fract_z
 _atom_site_occupancy
  Y  Y0  1  0.25000000  0.75000000  0.50000000  1.0
  Y  Y1  1  0.50000000  0.50000000  -0.00000000  1.0
  C  C2  1  0.26638342  0.54125758  0.72862246  1.0
  C  C3  1  0.81263512  0.53776096  1.27137754  1.0
  C  C4  1  0.29125758  1.06263512  0.77487416  1.0
  C  C5  1  1.28776096  0.51638342  1.22512584  1.0
  C  C6  1  1.48361658  1.70874242  1.77137754  1.0
  C  C7  1  0.93736488  0.71223904  0.22862246  1.0
  C  C8  1  1.45874242  1.18736488  1.72512584  1.0
  C  C9  1  0.46223904  0.73361658  0.27487416  1.0
  O  O10  1  0.14588542  0.52762930  0.62074891  1.0
  O  O11  1  0.90688039  0.52513651  1.37925109  1.0
  O  O12  1  1.27762930  1.15688039  1.88174387  1.0
  O  O13  1  0.27513651  0.39588542  0.11825613  1.0
  O  O14  1  1.60411458  0.72237070  0.87925109  1.0
  O  O15  1  0.84311961  1.72486349  1.12074891  1.0
  O  O16  1  0.47237070  1.09311961  0.61825613  1.0
  O  O17  1  1.47486349  0.85411458  1.38174387  1.0
  O  O18  1  1.51758089  1.43091063  1.50317456  1.0
  O  O19  1  0.92773608  1.01440633  1.49682544  1.0
  O  O20  1  1.18091063  1.17773608  1.41332975  1.0
  O  O21  1  1.76440633  1.76758089  1.58667025  1.0
  O  O22  1  0.23241911  0.81908937  0.99682544  1.0
  O  O23  1  0.82226392  1.23559367  1.00317456  1.0
  O  O24  1  0.56908937  1.07226392  1.08667025  1.0
  O  O25  1  0.98559367  1.48241911  0.91332975  1.0
  O  O26  1  1.23263722  1.43666585  1.80533669  1.0
  O  O27  1  1.63132916  1.42730053  1.19466331  1.0
  O  O28  1  1.18666585  0.88132916  1.70402863  1.0
  O  O29  1  1.17730053  1.48263722  1.29597137  1.0
  O  O30  1  0.51736278  0.81333415  0.69466331  1.0
  O  O31  1  1.11867084  1.82269947  1.30533669  1.0
  O  O32  1  0.56333415  1.36867084  0.79597137  1.0
  O  O33  1  0.57269947  0.76736278  1.20402863  1.0
  Rb  Rb34  1  0.75000000  1.25000000  0.50000000  1.0
  Rb  Rb35  1  0.00000000  0.00000000  0.00000000  1.0
