# generated using pymatgen
data_GdP5
_symmetry_space_group_name_H-M   'P 1'
_cell_length_a   4.97502414
_cell_length_b   9.50011016
_cell_length_c   5.39991106
_cell_angle_alpha   90.00000000
_cell_angle_beta   102.38915689
_cell_angle_gamma   90.00000000
_symmetry_Int_Tables_number   1
_chemical_formula_structural   GdP5
_chemical_formula_sum   'Gd2 P10'
_cell_volume   249.27421883
_cell_formula_units_Z   2
loop_
 _symmetry_equiv_pos_site_id
 _symmetry_equiv_pos_as_xyz
  1  'x, y, z'
loop_
 _atom_site_type_symbol
 _atom_site_label
 _atom_site_symmetry_multiplicity
 _atom_site_fract_x
 _atom_site_fract_y
 _atom_site_fract_z
 _atom_site_occupancy
  Gd  Gd0  1  0.50788011  0.25000000  0.84992884  1.0
  Gd  Gd1  1  0.49211989  0.75000000  0.15007116  1.0
  P  P2  1  0.88308298  0.90789915  0.54392038  1.0
  P  P3  1  0.88308298  0.59210085  0.54392038  1.0
  P  P4  1  0.11691702  0.40789915  0.45607962  1.0
  P  P5  1  0.11691702  0.09210085  0.45607962  1.0
  P  P6  1  0.78736991  0.97005243  0.90370522  1.0
  P  P7  1  0.78736991  0.52994757  0.90370522  1.0
  P  P8  1  0.21263009  0.47005243  0.09629478  1.0
  P  P9  1  0.21263009  0.02994757  0.09629478  1.0
  P  P10  1  0.77960617  0.25000000  0.39822397  1.0
  P  P11  1  0.22039383  0.75000000  0.60177603  1.0
