# generated using pymatgen
data_Cs4Mg3F10
_symmetry_space_group_name_H-M   'P 1'
_cell_length_a   8.00798676
_cell_length_b   8.00798676
_cell_length_c   13.90893368
_cell_angle_alpha   90.00000000
_cell_angle_beta   90.00000000
_cell_angle_gamma   134.25846210
_symmetry_Int_Tables_number   1
_chemical_formula_structural   Cs4Mg3F10
_chemical_formula_sum   'Cs8 Mg6 F20'
_cell_volume   638.81361690
_cell_formula_units_Z   2
loop_
 _symmetry_equiv_pos_site_id
 _symmetry_equiv_pos_as_xyz
  1  'x, y, z'
loop_
 _atom_site_type_symbol
 _atom_site_label
 _atom_site_symmetry_multiplicity
 _atom_site_fract_x
 _atom_site_fract_y
 _atom_site_fract_z
 _atom_site_occupancy
  Cs  Cs0  1  0.25223729  0.74776271  0.60809796  1.0
  Cs  Cs1  1  -0.24776271  0.24776271  0.89190204  1.0
  Cs  Cs2  1  -0.25223729  0.25223729  0.39190204  1.0
  Cs  Cs3  1  0.24776271  0.75223729  0.10809796  1.0
  Cs  Cs4  1  0.44842722  0.55157278  0.86152332  1.0
  Cs  Cs5  1  -0.05157278  0.05157278  0.63847668  1.0
  Cs  Cs6  1  -0.44842722  0.44842722  0.13847668  1.0
  Cs  Cs7  1  0.05157278  0.94842722  0.36152332  1.0
  Mg  Mg8  1  0.11599234  0.88400766  0.84219963  1.0
  Mg  Mg9  1  -0.38400766  0.38400766  0.65780037  1.0
  Mg  Mg10  1  -0.11599234  0.11599234  0.15780037  1.0
  Mg  Mg11  1  0.38400766  0.61599234  0.34219963  1.0
  Mg  Mg12  1  0.00000000  0.00000000  0.00000000  1.0
  Mg  Mg13  1  0.50000000  0.50000000  0.50000000  1.0
  F  F14  1  -0.11350379  0.69468082  0.95929320  1.0
  F  F15  1  0.38649621  1.19468082  0.54070680  1.0
  F  F16  1  0.69468082  0.88649621  0.04070680  1.0
  F  F17  1  0.19468082  0.38649621  0.45929320  1.0
  F  F18  1  0.30531918  1.11350379  0.95929320  1.0
  F  F19  1  -0.19468082  0.61350379  0.54070680  1.0
  F  F20  1  0.11350379  0.30531918  0.04070680  1.0
  F  F21  1  0.61350379  0.80531918  0.45929320  1.0
  F  F22  1  0.24723114  0.75276886  0.84939518  1.0
  F  F23  1  -0.25276886  0.25276886  0.65060482  1.0
  F  F24  1  -0.24723114  0.24723114  0.15060482  1.0
  F  F25  1  0.25276886  0.74723114  0.34939518  1.0
  F  F26  1  0.47356745  0.52643255  0.64234876  1.0
  F  F27  1  -0.02643255  0.02643255  0.85765124  1.0
  F  F28  1  -0.47356745  0.47356745  0.35765124  1.0
  F  F29  1  0.02643255  0.97356745  0.14234876  1.0
  F  F30  1  -0.14152490  0.64152490  0.75000000  1.0
  F  F31  1  0.35847510  1.14152490  0.75000000  1.0
  F  F32  1  0.64152490  0.85847510  0.25000000  1.0
  F  F33  1  0.14152490  0.35847510  0.25000000  1.0
