# generated using pymatgen
data_K2SnH2Cl4O
_symmetry_space_group_name_H-M   'P 1'
_cell_length_a   12.14250821
_cell_length_b   9.12231710
_cell_length_c   8.74855250
_cell_angle_alpha   90.00000000
_cell_angle_beta   90.00000000
_cell_angle_gamma   90.00000000
_symmetry_Int_Tables_number   1
_chemical_formula_structural   K2SnH2Cl4O
_chemical_formula_sum   'K8 Sn4 H8 Cl16 O4'
_cell_volume   969.05800421
_cell_formula_units_Z   4
loop_
 _symmetry_equiv_pos_site_id
 _symmetry_equiv_pos_as_xyz
  1  'x, y, z'
loop_
 _atom_site_type_symbol
 _atom_site_label
 _atom_site_symmetry_multiplicity
 _atom_site_fract_x
 _atom_site_fract_y
 _atom_site_fract_z
 _atom_site_occupancy
  K  K0  1  0.80954942  0.48182752  0.34844047  1.0
  K  K1  1  0.80954942  0.01817248  0.34844047  1.0
  K  K2  1  0.30954942  0.48182752  0.15155953  1.0
  K  K3  1  0.30954942  0.01817248  0.15155953  1.0
  K  K4  1  0.19045058  0.98182752  0.65155953  1.0
  K  K5  1  0.19045058  0.51817248  0.65155953  1.0
  K  K6  1  0.69045058  0.98182752  0.84844047  1.0
  K  K7  1  0.69045058  0.51817248  0.84844047  1.0
  Sn  Sn8  1  0.98729948  0.25000000  0.00187924  1.0
  Sn  Sn9  1  0.48729948  0.25000000  0.49812076  1.0
  Sn  Sn10  1  0.01270052  0.75000000  0.99812076  1.0
  Sn  Sn11  1  0.51270052  0.75000000  0.50187924  1.0
  H  H12  1  0.94934992  0.25000000  0.55685681  1.0
  H  H13  1  0.44934992  0.25000000  0.94314319  1.0
  H  H14  1  0.05065008  0.75000000  0.44314319  1.0
  H  H15  1  0.55065008  0.75000000  0.05685681  1.0
  H  H16  1  0.53570770  0.25000000  0.07397394  1.0
  H  H17  1  0.03570770  0.25000000  0.42602606  1.0
  H  H18  1  0.46429230  0.75000000  0.92602606  1.0
  H  H19  1  0.96429230  0.75000000  0.57397394  1.0
  Cl  Cl20  1  0.55091482  0.95012671  0.29533421  1.0
  Cl  Cl21  1  0.55091482  0.54987329  0.29533421  1.0
  Cl  Cl22  1  0.05091482  0.95012671  0.20466579  1.0
  Cl  Cl23  1  0.05091482  0.54987329  0.20466579  1.0
  Cl  Cl24  1  0.44908518  0.45012671  0.70466579  1.0
  Cl  Cl25  1  0.44908518  0.04987329  0.70466579  1.0
  Cl  Cl26  1  0.94908518  0.45012671  0.79533421  1.0
  Cl  Cl27  1  0.94908518  0.04987329  0.79533421  1.0
  Cl  Cl28  1  0.73265231  0.25000000  0.07994150  1.0
  Cl  Cl29  1  0.23265231  0.25000000  0.42005850  1.0
  Cl  Cl30  1  0.26734769  0.75000000  0.92005850  1.0
  Cl  Cl31  1  0.76734769  0.75000000  0.57994150  1.0
  Cl  Cl32  1  0.69595503  0.25000000  0.58780514  1.0
  Cl  Cl33  1  0.19595503  0.25000000  0.91219486  1.0
  Cl  Cl34  1  0.30404497  0.75000000  0.41219486  1.0
  Cl  Cl35  1  0.80404497  0.75000000  0.08780514  1.0
  O  O36  1  0.95595092  0.25000000  0.44552803  1.0
  O  O37  1  0.45595092  0.25000000  0.05447197  1.0
  O  O38  1  0.04404908  0.75000000  0.55447197  1.0
  O  O39  1  0.54404908  0.75000000  0.94552803  1.0
