# generated using pymatgen
data_Al2InN3
_symmetry_space_group_name_H-M   'P 1'
_cell_length_a   5.67216150
_cell_length_b   5.67216150
_cell_length_c   5.25116468
_cell_angle_alpha   90.00000000
_cell_angle_beta   90.00000000
_cell_angle_gamma   59.79465845
_symmetry_Int_Tables_number   1
_chemical_formula_structural   Al2InN3
_chemical_formula_sum   'Al4 In2 N6'
_cell_volume   146.00949490
_cell_formula_units_Z   2
loop_
 _symmetry_equiv_pos_site_id
 _symmetry_equiv_pos_as_xyz
  1  'x, y, z'
loop_
 _atom_site_type_symbol
 _atom_site_label
 _atom_site_symmetry_multiplicity
 _atom_site_fract_x
 _atom_site_fract_y
 _atom_site_fract_z
 _atom_site_occupancy
  Al  Al0  1  0.66510060  0.99187721  0.56043500  1.0
  Al  Al1  1  0.00812279  0.33489940  0.56043500  1.0
  Al  Al2  1  -0.66510060  1.00812279  0.06043500  1.0
  Al  Al3  1  -0.00812279  1.66510060  0.06043500  1.0
  In  In4  1  0.32221427  0.67778573  0.55598116  1.0
  In  In5  1  -0.32221427  1.32221427  0.05598116  1.0
  N  N6  1  -0.29827878  1.29827878  0.47454986  1.0
  N  N7  1  0.29827878  0.70172122  0.97454986  1.0
  N  N8  1  -0.03665883  1.66641238  0.42454449  1.0
  N  N9  1  -0.66641238  1.03665883  0.42454449  1.0
  N  N10  1  0.03665883  0.33358762  0.92454449  1.0
  N  N11  1  0.66641238  0.96334117  0.92454449  1.0
