# generated using pymatgen
data_SiC
_symmetry_space_group_name_H-M   'P 1'
_cell_length_a   3.09558740
_cell_length_b   3.09558740
_cell_length_c   12.66345593
_cell_angle_alpha   90.00000000
_cell_angle_beta   90.00000000
_cell_angle_gamma   120.00000000
_symmetry_Int_Tables_number   1
_chemical_formula_structural   SiC
_chemical_formula_sum   'Si5 C5'
_cell_volume   105.09184446
_cell_formula_units_Z   5
loop_
 _symmetry_equiv_pos_site_id
 _symmetry_equiv_pos_as_xyz
  1  'x, y, z'
loop_
 _atom_site_type_symbol
 _atom_site_label
 _atom_site_symmetry_multiplicity
 _atom_site_fract_x
 _atom_site_fract_y
 _atom_site_fract_z
 _atom_site_occupancy
  Si  Si0  1  0.00000000  0.00000000  0.00018274  1.0
  Si  Si1  1  0.33333333  0.66666667  0.19991583  1.0
  Si  Si2  1  0.66666667  0.33333333  0.39965963  1.0
  Si  Si3  1  -0.00000000  -0.00000000  0.59976665  1.0
  Si  Si4  1  0.66666667  0.33333333  0.80014980  1.0
  C  C5  1  0.00000000  0.00000000  0.15012053  1.0
  C  C6  1  0.33333333  0.66666667  0.34993220  1.0
  C  C7  1  0.66666667  0.33333333  0.54964882  1.0
  C  C8  1  -0.00000000  -0.00000000  0.75012129  1.0
  C  C9  1  0.66666667  0.33333333  0.95050252  1.0
