# generated using pymatgen
data_BiSO5
_symmetry_space_group_name_H-M   'P 1'
_cell_length_a   4.87156470
_cell_length_b   4.87156470
_cell_length_c   9.15639577
_cell_angle_alpha   77.63152720
_cell_angle_beta   102.36847280
_cell_angle_gamma   85.40981672
_symmetry_Int_Tables_number   1
_chemical_formula_structural   BiSO5
_chemical_formula_sum   'Bi2 S2 O10'
_cell_volume   205.51777130
_cell_formula_units_Z   2
loop_
 _symmetry_equiv_pos_site_id
 _symmetry_equiv_pos_as_xyz
  1  'x, y, z'
loop_
 _atom_site_type_symbol
 _atom_site_label
 _atom_site_symmetry_multiplicity
 _atom_site_fract_x
 _atom_site_fract_y
 _atom_site_fract_z
 _atom_site_occupancy
  S  S0  1  0.09362456  -0.09362456  0.30640621  1.0
  S  S1  1  0.90637544  -0.90637544  0.69359379  1.0
  Bi  Bi2  1  0.55382289  -0.55382289  0.23917905  1.0
  Bi  Bi3  1  0.44617711  -0.44617711  0.76082095  1.0
  O  O4  1  0.78177761  -0.11707077  0.28798683  1.0
  O  O5  1  1.21822239  0.11707077  0.71201317  1.0
  O  O6  1  0.88292923  -0.21822239  0.71201317  1.0
  O  O7  1  1.11707077  0.21822239  0.28798683  1.0
  O  O8  1  0.19040548  -0.19040548  0.17707964  1.0
  O  O9  1  0.80959452  -0.80959452  0.82292036  1.0
  O  O10  1  0.26656837  -0.26656837  0.45453050  1.0
  O  O11  1  0.73343163  -0.73343163  0.54546950  1.0
  O  O12  1  1.39019866  0.39019866  0.00000000  1.0
  O  O13  1  0.60980134  -0.39019866  0.00000000  1.0
