# generated using pymatgen
data_YSiNi
_symmetry_space_group_name_H-M   'P 1'
_cell_length_a   6.88040837
_cell_length_b   4.15980796
_cell_length_c   7.18541872
_cell_angle_alpha   90.00000000
_cell_angle_beta   90.00000000
_cell_angle_gamma   90.00000000
_symmetry_Int_Tables_number   1
_chemical_formula_structural   YSiNi
_chemical_formula_sum   'Y4 Si4 Ni4'
_cell_volume   205.65514490
_cell_formula_units_Z   4
loop_
 _symmetry_equiv_pos_site_id
 _symmetry_equiv_pos_as_xyz
  1  'x, y, z'
loop_
 _atom_site_type_symbol
 _atom_site_label
 _atom_site_symmetry_multiplicity
 _atom_site_fract_x
 _atom_site_fract_y
 _atom_site_fract_z
 _atom_site_occupancy
  Y  Y0  1  1.00828555  0.75000000  0.70159897  1.0
  Y  Y1  1  0.50828555  0.75000000  0.79840103  1.0
  Y  Y2  1  -0.00828555  0.25000000  0.29840103  1.0
  Y  Y3  1  0.49171445  0.25000000  0.20159897  1.0
  Si  Si4  1  0.69157175  0.75000000  0.41197090  1.0
  Si  Si5  1  0.19157175  0.75000000  0.08802910  1.0
  Si  Si6  1  0.30842825  0.25000000  0.58802910  1.0
  Si  Si7  1  0.80842825  0.25000000  0.91197090  1.0
  Ni  Ni8  1  0.81350383  0.75000000  0.08187165  1.0
  Ni  Ni9  1  0.31350383  0.75000000  0.41812835  1.0
  Ni  Ni10  1  0.18649617  0.25000000  0.91812835  1.0
  Ni  Ni11  1  0.68649617  0.25000000  0.58187165  1.0
