# generated using pymatgen
data_Ba2Ga2S5
_symmetry_space_group_name_H-M   'P 1'
_cell_length_a   10.83743835
_cell_length_b   10.83743835
_cell_length_c   8.61559807
_cell_angle_alpha   79.02637108
_cell_angle_beta   100.97362892
_cell_angle_gamma   92.63586738
_symmetry_Int_Tables_number   1
_chemical_formula_structural   Ba2Ga2S5
_chemical_formula_sum   'Ba8 Ga8 S20'
_cell_volume   975.18551201
_cell_formula_units_Z   4
loop_
 _symmetry_equiv_pos_site_id
 _symmetry_equiv_pos_as_xyz
  1  'x, y, z'
loop_
 _atom_site_type_symbol
 _atom_site_label
 _atom_site_symmetry_multiplicity
 _atom_site_fract_x
 _atom_site_fract_y
 _atom_site_fract_z
 _atom_site_occupancy
  Ba  Ba0  1  1.27936754  -0.01765764  0.88995296  1.0
  Ba  Ba1  1  1.01765764  -0.27936754  0.38995296  1.0
  Ba  Ba2  1  0.98234236  0.27936754  0.61004704  1.0
  Ba  Ba3  1  0.72063246  0.01765764  0.11004704  1.0
  Ba  Ba4  1  0.56915672  0.26678508  0.60382950  1.0
  Ba  Ba5  1  0.73321492  0.43084328  0.10382950  1.0
  Ba  Ba6  1  1.26678508  -0.43084328  0.89617050  1.0
  Ba  Ba7  1  1.43084328  -0.26678508  0.39617050  1.0
  Ga  Ga8  1  1.62198415  -0.23306810  0.88456330  1.0
  Ga  Ga9  1  1.23306810  -0.62198415  0.38456330  1.0
  Ga  Ga10  1  0.76693190  0.62198415  0.61543670  1.0
  Ga  Ga11  1  0.37801585  0.23306810  0.11543670  1.0
  Ga  Ga12  1  1.77285543  -0.02337670  0.58605194  1.0
  Ga  Ga13  1  1.02337670  -0.77285543  0.08605194  1.0
  Ga  Ga14  1  0.97662330  0.77285543  0.91394806  1.0
  Ga  Ga15  1  0.22714457  0.02337670  0.41394806  1.0
  S  S16  1  1.73828461  -0.18463336  0.44075947  1.0
  S  S17  1  1.18463336  -0.73828461  0.94075947  1.0
  S  S18  1  0.81536664  0.73828461  0.05924053  1.0
  S  S19  1  0.26171539  0.18463336  0.55924053  1.0
  S  S20  1  1.61323465  -0.03496955  0.73328489  1.0
  S  S21  1  1.03496955  -0.61323465  0.23328489  1.0
  S  S22  1  0.96503045  0.61323465  0.76671511  1.0
  S  S23  1  0.38676535  0.03496955  0.26671511  1.0
  S  S24  1  0.74832464  0.16176401  0.41053736  1.0
  S  S25  1  0.83823599  0.25167536  0.91053736  1.0
  S  S26  1  1.16176401  -0.25167536  0.08946264  1.0
  S  S27  1  1.25167536  -0.16176401  0.58946264  1.0
  S  S28  1  0.52325552  0.24007310  0.96147887  1.0
  S  S29  1  0.75992690  0.47674448  0.46147887  1.0
  S  S30  1  1.24007310  -0.47674448  0.53852113  1.0
  S  S31  1  1.47674448  -0.24007310  0.03852113  1.0
  S  S32  1  0.96824497  0.96824497  0.75000000  1.0
  S  S33  1  0.03175503  0.03175503  0.25000000  1.0
  S  S34  1  0.59850328  0.59850328  0.75000000  1.0
  S  S35  1  0.40149672  0.40149672  0.25000000  1.0
