# generated using pymatgen
data_K2RuO4
_symmetry_space_group_name_H-M   'P 1'
_cell_length_a   8.11160241
_cell_length_b   6.47241869
_cell_length_c   10.54705350
_cell_angle_alpha   90.00000000
_cell_angle_beta   90.00000000
_cell_angle_gamma   90.00000000
_symmetry_Int_Tables_number   1
_chemical_formula_structural   K2RuO4
_chemical_formula_sum   'K8 Ru4 O16'
_cell_volume   553.73810168
_cell_formula_units_Z   4
loop_
 _symmetry_equiv_pos_site_id
 _symmetry_equiv_pos_as_xyz
  1  'x, y, z'
loop_
 _atom_site_type_symbol
 _atom_site_label
 _atom_site_symmetry_multiplicity
 _atom_site_fract_x
 _atom_site_fract_y
 _atom_site_fract_z
 _atom_site_occupancy
  K  K0  1  0.79501212  0.75000000  0.43242561  1.0
  K  K1  1  0.29501212  0.75000000  0.06757439  1.0
  K  K2  1  0.20498788  0.25000000  0.56757439  1.0
  K  K3  1  0.70498788  0.25000000  0.93242561  1.0
  K  K4  1  0.49271067  0.75000000  0.73182058  1.0
  K  K5  1  0.99271067  0.75000000  0.76817942  1.0
  K  K6  1  0.50728933  0.25000000  0.26817942  1.0
  K  K7  1  0.00728933  0.25000000  0.23182058  1.0
  Ru  Ru8  1  0.77433045  0.75000000  0.09822478  1.0
  Ru  Ru9  1  0.27433045  0.75000000  0.40177522  1.0
  Ru  Ru10  1  0.22566955  0.25000000  0.90177522  1.0
  Ru  Ru11  1  0.72566955  0.25000000  0.59822478  1.0
  O  O12  1  0.75073714  0.97366148  0.19736782  1.0
  O  O13  1  0.75073714  0.52633852  0.19736782  1.0
  O  O14  1  0.25073714  0.97366148  0.30263218  1.0
  O  O15  1  0.25073714  0.52633852  0.30263218  1.0
  O  O16  1  0.24926286  0.47366148  0.80263218  1.0
  O  O17  1  0.24926286  0.02633852  0.80263218  1.0
  O  O18  1  0.74926286  0.47366148  0.69736782  1.0
  O  O19  1  0.74926286  0.02633852  0.69736782  1.0
  O  O20  1  -0.02861187  0.75000000  0.02632007  1.0
  O  O21  1  0.47138813  0.75000000  0.47367993  1.0
  O  O22  1  1.02861187  0.25000000  0.97367993  1.0
  O  O23  1  0.52861187  0.25000000  0.52632007  1.0
  O  O24  1  0.11606989  0.75000000  0.51988341  1.0
  O  O25  1  0.61606989  0.75000000  0.98011659  1.0
  O  O26  1  0.88393011  0.25000000  0.48011659  1.0
  O  O27  1  0.38393011  0.25000000  0.01988341  1.0
