# generated using pymatgen
data_Cl2O
_symmetry_space_group_name_H-M   'P 1'
_cell_length_a   7.53428143
_cell_length_b   7.53428143
_cell_length_c   7.53428143
_cell_angle_alpha   116.04428020
_cell_angle_beta   116.04428020
_cell_angle_gamma   96.99996452
_symmetry_Int_Tables_number   1
_chemical_formula_structural   Cl2O
_chemical_formula_sum   'Cl8 O4'
_cell_volume   317.93056450
_cell_formula_units_Z   4
loop_
 _symmetry_equiv_pos_site_id
 _symmetry_equiv_pos_as_xyz
  1  'x, y, z'
loop_
 _atom_site_type_symbol
 _atom_site_label
 _atom_site_symmetry_multiplicity
 _atom_site_fract_x
 _atom_site_fract_y
 _atom_site_fract_z
 _atom_site_occupancy
  Cl  Cl0  1  0.18065564  0.36117557  0.18051993  1.0
  Cl  Cl1  1  1.11117557  1.43065564  0.68051993  1.0
  Cl  Cl2  1  0.75013571  0.43065564  0.31948007  1.0
  Cl  Cl3  1  0.18065564  1.00013571  0.81948007  1.0
  Cl  Cl4  1  0.56934436  0.88882443  0.31948007  1.0
  Cl  Cl5  1  1.63882443  0.81934436  0.81948007  1.0
  Cl  Cl6  1  0.99986429  0.81934436  1.18051993  1.0
  Cl  Cl7  1  0.56934436  1.24986429  0.68051993  1.0
  O  O8  1  0.27668569  0.27668569  -0.00000000  1.0
  O  O9  1  1.02668569  0.52668569  0.50000000  1.0
  O  O10  1  0.47331431  0.97331431  0.50000000  1.0
  O  O11  1  0.72331431  0.72331431  1.00000000  1.0
