# generated using pymatgen
data_Te4WCl6
_symmetry_space_group_name_H-M   'P 1'
_cell_length_a   12.52344240
_cell_length_b   12.52344240
_cell_length_c   12.30677021
_cell_angle_alpha   77.42482697
_cell_angle_beta   102.57517303
_cell_angle_gamma   57.65062674
_symmetry_Int_Tables_number   1
_chemical_formula_structural   Te4WCl6
_chemical_formula_sum   'Te16 W4 Cl24'
_cell_volume   1454.87459916
_cell_formula_units_Z   4
loop_
 _symmetry_equiv_pos_site_id
 _symmetry_equiv_pos_as_xyz
  1  'x, y, z'
loop_
 _atom_site_type_symbol
 _atom_site_label
 _atom_site_symmetry_multiplicity
 _atom_site_fract_x
 _atom_site_fract_y
 _atom_site_fract_z
 _atom_site_occupancy
  Te  Te0  1  0.63122980  -0.44033834  0.14676246  1.0
  Te  Te1  1  0.55966166  -0.36877020  0.35323754  1.0
  Te  Te2  1  1.36877020  -0.55966166  0.85323754  1.0
  Te  Te3  1  0.44033834  0.36877020  0.64676246  1.0
  Te  Te4  1  0.90904091  -0.66274823  0.28038483  1.0
  Te  Te5  1  0.33725177  -0.09095909  0.21961517  1.0
  Te  Te6  1  1.09095909  -0.33725177  0.71961517  1.0
  Te  Te7  1  0.66274823  0.09095909  0.78038483  1.0
  Te  Te8  1  0.93876516  -0.63277005  0.50485719  1.0
  Te  Te9  1  0.36722995  -0.06123484  0.99514281  1.0
  Te  Te10  1  1.06123484  -0.36722995  0.49514281  1.0
  Te  Te11  1  0.63277005  0.06123484  0.00485719  1.0
  Te  Te12  1  0.78217966  -0.34889602  0.42310052  1.0
  Te  Te13  1  0.65110398  -0.21782034  0.07689948  1.0
  Te  Te14  1  1.21782034  -0.65110398  0.57689948  1.0
  Te  Te15  1  0.34889602  0.21782034  0.92310052  1.0
  W  W16  1  0.32605928  -0.10090671  0.60528769  1.0
  W  W17  1  0.89909329  -0.67394072  0.89471231  1.0
  W  W18  1  0.67394072  0.10090671  0.39471231  1.0
  W  W19  1  1.10090671  -0.32605928  0.10528769  1.0
  Cl  Cl20  1  0.28070883  -0.20877794  0.49071897  1.0
  Cl  Cl21  1  0.79122206  -0.71929117  0.00928103  1.0
  Cl  Cl22  1  0.71929117  0.20877794  0.50928103  1.0
  Cl  Cl23  1  1.20877794  -0.28070883  0.99071897  1.0
  Cl  Cl24  1  0.41859332  -0.28586668  0.78606882  1.0
  Cl  Cl25  1  0.71413332  -0.58140668  0.71393118  1.0
  Cl  Cl26  1  0.58140668  0.28586668  0.21393118  1.0
  Cl  Cl27  1  1.28586668  -0.41859332  0.28606882  1.0
  Cl  Cl28  1  0.53857482  -0.19657803  0.59661233  1.0
  Cl  Cl29  1  0.80342197  -0.46142518  0.90338767  1.0
  Cl  Cl30  1  0.46142518  0.19657803  0.40338767  1.0
  Cl  Cl31  1  1.19657803  -0.53857482  0.09661233  1.0
  Cl  Cl32  1  0.22800235  0.09255944  0.42227334  1.0
  Cl  Cl33  1  1.09255944  -0.77199765  0.07772666  1.0
  Cl  Cl34  1  0.77199765  -0.09255944  0.57772666  1.0
  Cl  Cl35  1  0.90744056  -0.22800235  0.92227334  1.0
  Cl  Cl36  1  0.10897253  0.01113103  0.61126680  1.0
  Cl  Cl37  1  1.01113103  -0.89102747  0.88873320  1.0
  Cl  Cl38  1  0.89102747  -0.01113103  0.38873320  1.0
  Cl  Cl39  1  0.98886897  -0.10897253  0.11126680  1.0
  Cl  Cl40  1  0.37191093  0.01294298  0.71821185  1.0
  Cl  Cl41  1  1.01294298  -0.62808907  0.78178815  1.0
  Cl  Cl42  1  0.62808907  -0.01294298  0.28178815  1.0
  Cl  Cl43  1  0.98705702  -0.37191093  0.21821185  1.0
