# generated using pymatgen
data_LuCl3
_symmetry_space_group_name_H-M   'P 1'
_cell_length_a   6.80559942
_cell_length_b   6.80559942
_cell_length_c   7.03264621
_cell_angle_alpha   80.85346437
_cell_angle_beta   99.14653563
_cell_angle_gamma   60.05701241
_symmetry_Int_Tables_number   1
_chemical_formula_structural   LuCl3
_chemical_formula_sum   'Lu2 Cl6'
_cell_volume   267.63048449
_cell_formula_units_Z   2
loop_
 _symmetry_equiv_pos_site_id
 _symmetry_equiv_pos_as_xyz
  1  'x, y, z'
loop_
 _atom_site_type_symbol
 _atom_site_label
 _atom_site_symmetry_multiplicity
 _atom_site_fract_x
 _atom_site_fract_y
 _atom_site_fract_z
 _atom_site_occupancy
  Lu  Lu0  1  0.83339593  -0.16660407  0.00000000  1.0
  Lu  Lu1  1  1.16660407  0.16660407  0.00000000  1.0
  Cl  Cl2  1  0.42736760  -0.05657788  0.77869068  1.0
  Cl  Cl3  1  1.05657788  0.57263240  0.77869068  1.0
  Cl  Cl4  1  0.94342212  -0.57263240  0.22130932  1.0
  Cl  Cl5  1  1.57263240  0.05657788  0.22130932  1.0
  Cl  Cl6  1  0.79931501  -0.79931501  0.77753871  1.0
  Cl  Cl7  1  0.20068499  -0.20068499  0.22246129  1.0
