# generated using pymatgen
data_PN9O
_symmetry_space_group_name_H-M   'P 1'
_cell_length_a   7.55176598
_cell_length_b   12.71704622
_cell_length_c   8.24427726
_cell_angle_alpha   90.00000000
_cell_angle_beta   112.98843008
_cell_angle_gamma   90.00000000
_symmetry_Int_Tables_number   1
_chemical_formula_structural   PN9O
_chemical_formula_sum   'P4 N36 O4'
_cell_volume   728.87098123
_cell_formula_units_Z   4
loop_
 _symmetry_equiv_pos_site_id
 _symmetry_equiv_pos_as_xyz
  1  'x, y, z'
loop_
 _atom_site_type_symbol
 _atom_site_label
 _atom_site_symmetry_multiplicity
 _atom_site_fract_x
 _atom_site_fract_y
 _atom_site_fract_z
 _atom_site_occupancy
  P  P0  1  0.65383739  0.38702081  0.18258334  1.0
  P  P1  1  0.65383739  0.11297919  0.68258334  1.0
  P  P2  1  0.34616261  0.88702081  0.31741666  1.0
  P  P3  1  0.34616261  0.61297919  0.81741666  1.0
  N  N4  1  0.69366949  0.88442362  0.33926367  1.0
  N  N5  1  0.69366949  0.61557638  0.83926367  1.0
  N  N6  1  0.30633051  0.38442362  0.16073633  1.0
  N  N7  1  0.30633051  0.11557638  0.66073633  1.0
  N  N8  1  0.85488390  0.88163460  0.41897127  1.0
  N  N9  1  0.85488390  0.61836540  0.91897127  1.0
  N  N10  1  0.14511610  0.38163460  0.08102873  1.0
  N  N11  1  0.14511610  0.11836540  0.58102873  1.0
  N  N12  1  0.80052053  0.28711980  0.28923691  1.0
  N  N13  1  0.80052053  0.21288020  0.78923691  1.0
  N  N14  1  0.19947947  0.78711980  0.21076309  1.0
  N  N15  1  0.19947947  0.71288020  0.71076309  1.0
  N  N16  1  0.80221082  0.48334185  0.29901284  1.0
  N  N17  1  0.80221082  0.01665815  0.79901284  1.0
  N  N18  1  0.19778918  0.98334185  0.20098716  1.0
  N  N19  1  0.19778918  0.51665815  0.70098716  1.0
  N  N20  1  0.77868719  0.19801962  0.22545813  1.0
  N  N21  1  0.77868719  0.30198038  0.72545813  1.0
  N  N22  1  0.22131281  0.69801962  0.27454187  1.0
  N  N23  1  0.22131281  0.80198038  0.77454187  1.0
  N  N24  1  0.77496240  0.11322116  0.18112326  1.0
  N  N25  1  0.77496240  0.38677884  0.68112326  1.0
  N  N26  1  0.22503760  0.61322116  0.31887674  1.0
  N  N27  1  0.22503760  0.88677884  0.81887674  1.0
  N  N28  1  0.74584958  0.93931507  0.85458752  1.0
  N  N29  1  0.74584958  0.56068493  0.35458752  1.0
  N  N30  1  0.25415042  0.43931507  0.64541248  1.0
  N  N31  1  0.25415042  0.06068493  0.14541248  1.0
  N  N32  1  0.71229163  0.63482290  0.41397183  1.0
  N  N33  1  0.71229163  0.86517710  0.91397183  1.0
  N  N34  1  0.28770837  0.13482290  0.08602817  1.0
  N  N35  1  0.28770837  0.36517710  0.58602817  1.0
  N  N36  1  0.47708504  0.38728941  0.26130527  1.0
  N  N37  1  0.47708504  0.11271059  0.76130527  1.0
  N  N38  1  0.52291496  0.88728941  0.23869473  1.0
  N  N39  1  0.52291496  0.61271059  0.73869473  1.0
  O  O40  1  0.59017641  0.11196273  0.48842683  1.0
  O  O41  1  0.59017641  0.38803727  0.98842683  1.0
  O  O42  1  0.40982359  0.61196273  0.01157317  1.0
  O  O43  1  0.40982359  0.88803727  0.51157317  1.0
