# generated using pymatgen
data_CaAl2SiO6
_symmetry_space_group_name_H-M   'P 1'
_cell_length_a   6.54499841
_cell_length_b   6.54499841
_cell_length_c   5.32742036
_cell_angle_alpha   78.05445445
_cell_angle_beta   101.94554555
_cell_angle_gamma   96.44551165
_symmetry_Int_Tables_number   1
_chemical_formula_structural   CaAl2SiO6
_chemical_formula_sum   'Ca2 Al4 Si2 O12'
_cell_volume   217.85862620
_cell_formula_units_Z   2
loop_
 _symmetry_equiv_pos_site_id
 _symmetry_equiv_pos_as_xyz
  1  'x, y, z'
loop_
 _atom_site_type_symbol
 _atom_site_label
 _atom_site_symmetry_multiplicity
 _atom_site_fract_x
 _atom_site_fract_y
 _atom_site_fract_z
 _atom_site_occupancy
  Ca  Ca0  1  0.32345313  0.30334373  0.75982310  1.0
  Ca  Ca1  1  0.69665627  0.67654687  0.25982310  1.0
  Al  Al2  1  0.80938563  0.38706629  0.79187181  1.0
  Al  Al3  1  0.61293371  0.19061437  0.29187181  1.0
  Al  Al4  1  0.90933267  0.91035311  0.73826782  1.0
  Al  Al5  1  0.08964689  0.09066733  0.23826782  1.0
  Si  Si6  1  1.38128809  -0.18920710  0.71695308  1.0
  Si  Si7  1  1.18920710  -0.38128809  0.21695308  1.0
  O  O8  1  0.97517602  0.17169857  0.87626546  1.0
  O  O9  1  0.91139256  0.64198773  0.67919511  1.0
  O  O10  1  0.65974108  0.39053058  0.02722813  1.0
  O  O11  1  1.20063539  -0.02027486  0.62507100  1.0
  O  O12  1  1.62445196  -0.11020458  0.79600682  1.0
  O  O13  1  1.35510966  -0.33532726  0.48931767  1.0
  O  O14  1  1.02027486  -0.20063539  0.12507100  1.0
  O  O15  1  1.11020458  -0.62445196  0.29600682  1.0
  O  O16  1  1.33532726  -0.35510966  0.98931767  1.0
  O  O17  1  0.82830143  0.02482398  0.37626546  1.0
  O  O18  1  0.35801227  0.08860744  0.17919511  1.0
  O  O19  1  0.60946942  0.34025892  0.52722813  1.0
