# generated using pymatgen
data_K2NaInAs2
_symmetry_space_group_name_H-M   'P 1'
_cell_length_a   9.15487669
_cell_length_b   9.15487669
_cell_length_c   9.15487669
_cell_angle_alpha   136.36986334
_cell_angle_beta   63.67099097
_cell_angle_gamma   136.03103746
_symmetry_Int_Tables_number   1
_chemical_formula_structural   K2NaInAs2
_chemical_formula_sum   'K4 Na2 In2 As4'
_cell_volume   362.73423466
_cell_formula_units_Z   2
loop_
 _symmetry_equiv_pos_site_id
 _symmetry_equiv_pos_as_xyz
  1  'x, y, z'
loop_
 _atom_site_type_symbol
 _atom_site_label
 _atom_site_symmetry_multiplicity
 _atom_site_fract_x
 _atom_site_fract_y
 _atom_site_fract_z
 _atom_site_occupancy
  K  K0  1  1.17529480  1.25785739  1.43315219  1.0
  K  K1  1  1.32470520  0.75785739  1.08256259  1.0
  K  K2  1  0.67529480  0.24214261  0.91743741  1.0
  K  K3  1  0.82470520  0.74214261  1.56684781  1.0
  Na  Na4  1  0.25000000  0.75000000  0.50000000  1.0
  Na  Na5  1  0.75000000  1.25000000  0.50000000  1.0
  In  In6  1  0.25000000  0.25000000  -0.00000000  1.0
  In  In7  1  0.75000000  0.75000000  -0.00000000  1.0
  As  As8  1  1.39809531  1.28213335  1.68022866  1.0
  As  As9  1  1.10190469  0.78213335  0.88403803  1.0
  As  As10  1  0.89809531  0.21786665  1.11596197  1.0
  As  As11  1  0.60190469  0.71786665  1.31977134  1.0
