# generated using pymatgen
data_GdCu6
_symmetry_space_group_name_H-M   'P 1'
_cell_length_a   8.05727612
_cell_length_b   5.02763921
_cell_length_c   10.09902838
_cell_angle_alpha   90.00000000
_cell_angle_beta   90.00000000
_cell_angle_gamma   90.00000000
_symmetry_Int_Tables_number   1
_chemical_formula_structural   GdCu6
_chemical_formula_sum   'Gd4 Cu24'
_cell_volume   409.10232200
_cell_formula_units_Z   4
loop_
 _symmetry_equiv_pos_site_id
 _symmetry_equiv_pos_as_xyz
  1  'x, y, z'
loop_
 _atom_site_type_symbol
 _atom_site_label
 _atom_site_symmetry_multiplicity
 _atom_site_fract_x
 _atom_site_fract_y
 _atom_site_fract_z
 _atom_site_occupancy
  Gd  Gd0  1  0.74099392  0.75000000  0.56473349  1.0
  Gd  Gd1  1  0.24099392  0.75000000  0.93526651  1.0
  Gd  Gd2  1  0.25900608  0.25000000  0.43526651  1.0
  Gd  Gd3  1  0.75900608  0.25000000  0.06473349  1.0
  Cu  Cu4  1  0.93508859  0.49408414  0.30828571  1.0
  Cu  Cu5  1  0.93508859  1.00591586  0.30828571  1.0
  Cu  Cu6  1  0.43508859  0.49408414  0.19171429  1.0
  Cu  Cu7  1  0.43508859  1.00591586  0.19171429  1.0
  Cu  Cu8  1  0.06491141  -0.00591586  0.69171429  1.0
  Cu  Cu9  1  0.06491141  0.50591586  0.69171429  1.0
  Cu  Cu10  1  0.56491141  -0.00591586  0.80828571  1.0
  Cu  Cu11  1  0.56491141  0.50591586  0.80828571  1.0
  Cu  Cu12  1  0.93891373  0.75000000  0.09390260  1.0
  Cu  Cu13  1  0.43891373  0.75000000  0.40609740  1.0
  Cu  Cu14  1  0.06108627  0.25000000  0.90609740  1.0
  Cu  Cu15  1  0.56108627  0.25000000  0.59390260  1.0
  Cu  Cu16  1  0.85363466  0.75000000  0.85671314  1.0
  Cu  Cu17  1  0.35363466  0.75000000  0.64328686  1.0
  Cu  Cu18  1  0.14636534  0.25000000  0.14328686  1.0
  Cu  Cu19  1  0.64636534  0.25000000  0.35671314  1.0
  Cu  Cu20  1  0.68357226  0.75000000  0.25521242  1.0
  Cu  Cu21  1  0.18357226  0.75000000  0.24478758  1.0
  Cu  Cu22  1  0.31642774  0.25000000  0.74478758  1.0
  Cu  Cu23  1  0.81642774  0.25000000  0.75521242  1.0
  Cu  Cu24  1  0.59838405  0.75000000  0.01660982  1.0
  Cu  Cu25  1  0.09838405  0.75000000  0.48339018  1.0
  Cu  Cu26  1  0.40161595  0.25000000  0.98339018  1.0
  Cu  Cu27  1  0.90161595  0.25000000  0.51660982  1.0
