# generated using pymatgen
data_Mg2BO3F
_symmetry_space_group_name_H-M   'P 1'
_cell_length_a   9.42499777
_cell_length_b   3.13509984
_cell_length_c   9.49328330
_cell_angle_alpha   90.00000000
_cell_angle_beta   90.00000000
_cell_angle_gamma   90.00000000
_symmetry_Int_Tables_number   1
_chemical_formula_structural   Mg2BO3F
_chemical_formula_sum   'Mg8 B4 O12 F4'
_cell_volume   280.51046801
_cell_formula_units_Z   4
loop_
 _symmetry_equiv_pos_site_id
 _symmetry_equiv_pos_as_xyz
  1  'x, y, z'
loop_
 _atom_site_type_symbol
 _atom_site_label
 _atom_site_symmetry_multiplicity
 _atom_site_fract_x
 _atom_site_fract_y
 _atom_site_fract_z
 _atom_site_occupancy
  Mg  Mg0  1  0.89927554  0.75000000  0.68070119  1.0
  Mg  Mg1  1  0.39927554  0.75000000  0.81929881  1.0
  Mg  Mg2  1  0.10072446  0.25000000  0.31929881  1.0
  Mg  Mg3  1  0.60072446  0.25000000  0.18070119  1.0
  Mg  Mg4  1  0.86429809  0.75000000  0.06925013  1.0
  Mg  Mg5  1  0.36429809  0.75000000  0.43074987  1.0
  Mg  Mg6  1  0.13570191  0.25000000  0.93074987  1.0
  Mg  Mg7  1  0.63570191  0.25000000  0.56925013  1.0
  B  B8  1  0.82689706  0.75000000  0.36914590  1.0
  B  B9  1  0.32689706  0.75000000  0.13085410  1.0
  B  B10  1  0.17310294  0.25000000  0.63085410  1.0
  B  B11  1  0.67310294  0.25000000  0.86914590  1.0
  O  O12  1  0.97082940  0.75000000  0.35611532  1.0
  O  O13  1  0.47082940  0.75000000  0.14388468  1.0
  O  O14  1  0.02917060  0.25000000  0.64388468  1.0
  O  O15  1  0.52917060  0.25000000  0.85611532  1.0
  O  O16  1  0.76217958  0.75000000  0.50186245  1.0
  O  O17  1  0.26217958  0.75000000  0.99813755  1.0
  O  O18  1  0.23782042  0.25000000  0.49813755  1.0
  O  O19  1  0.73782042  0.25000000  0.00186245  1.0
  O  O20  1  0.74286550  0.75000000  0.24794536  1.0
  O  O21  1  0.24286550  0.75000000  0.25205464  1.0
  O  O22  1  0.25713450  0.25000000  0.75205464  1.0
  O  O23  1  0.75713450  0.25000000  0.74794536  1.0
  F  F24  1  0.49290360  0.75000000  0.60945174  1.0
  F  F25  1  0.99290360  0.75000000  0.89054826  1.0
  F  F26  1  0.50709640  0.25000000  0.39054826  1.0
  F  F27  1  0.00709640  0.25000000  0.10945174  1.0
