# generated using pymatgen
data_Ba2LaNbO6
_symmetry_space_group_name_H-M   'P 1'
_cell_length_a   6.18576149
_cell_length_b   6.14712305
_cell_length_c   10.71409100
_cell_angle_alpha   90.00000000
_cell_angle_beta   125.86223024
_cell_angle_gamma   90.00000000
_symmetry_Int_Tables_number   1
_chemical_formula_structural   Ba2LaNbO6
_chemical_formula_sum   'Ba4 La2 Nb2 O12'
_cell_volume   330.16790020
_cell_formula_units_Z   2
loop_
 _symmetry_equiv_pos_site_id
 _symmetry_equiv_pos_as_xyz
  1  'x, y, z'
loop_
 _atom_site_type_symbol
 _atom_site_label
 _atom_site_symmetry_multiplicity
 _atom_site_fract_x
 _atom_site_fract_y
 _atom_site_fract_z
 _atom_site_occupancy
  Ba  Ba0  1  0.74462954  0.01529829  0.25163768  1.0
  Ba  Ba1  1  0.74462954  0.48470171  0.75163768  1.0
  Ba  Ba2  1  0.25537046  0.51529829  0.24836232  1.0
  Ba  Ba3  1  0.25537046  0.98470171  0.74836232  1.0
  La  La4  1  0.50000000  0.50000000  0.00000000  1.0
  La  La5  1  0.50000000  0.00000000  0.50000000  1.0
  Nb  Nb6  1  -0.00000000  0.50000000  0.50000000  1.0
  Nb  Nb7  1  0.00000000  0.00000000  0.00000000  1.0
  O  O8  1  0.84389630  0.48964738  0.27331990  1.0
  O  O9  1  0.84389630  0.01035262  0.77331990  1.0
  O  O10  1  0.15610370  0.98964738  0.22668010  1.0
  O  O11  1  0.15610370  0.51035262  0.72668010  1.0
  O  O12  1  0.75277899  0.74874240  0.46060124  1.0
  O  O13  1  0.75277899  0.75125760  0.96060124  1.0
  O  O14  1  0.24722101  0.24874240  0.03939876  1.0
  O  O15  1  0.24722101  0.25125760  0.53939876  1.0
  O  O16  1  0.71844493  0.28748416  0.46213596  1.0
  O  O17  1  0.71844493  0.21251584  0.96213596  1.0
  O  O18  1  0.28155507  0.78748416  0.03786404  1.0
  O  O19  1  0.28155507  0.71251584  0.53786404  1.0
