# generated using pymatgen
data_K6Sn3As5
_symmetry_space_group_name_H-M   'P 1'
_cell_length_a   10.88861185
_cell_length_b   15.02196696
_cell_length_c   11.12855568
_cell_angle_alpha   90.00000000
_cell_angle_beta   90.00000000
_cell_angle_gamma   90.00000000
_symmetry_Int_Tables_number   1
_chemical_formula_structural   K6Sn3As5
_chemical_formula_sum   'K24 Sn12 As20'
_cell_volume   1820.27968380
_cell_formula_units_Z   4
loop_
 _symmetry_equiv_pos_site_id
 _symmetry_equiv_pos_as_xyz
  1  'x, y, z'
loop_
 _atom_site_type_symbol
 _atom_site_label
 _atom_site_symmetry_multiplicity
 _atom_site_fract_x
 _atom_site_fract_y
 _atom_site_fract_z
 _atom_site_occupancy
  K  K0  1  0.28999709  0.35378377  0.10520644  1.0
  K  K1  1  0.28999709  0.64621623  0.10520644  1.0
  K  K2  1  0.71000291  0.35378377  0.10520644  1.0
  K  K3  1  0.71000291  0.64621623  0.10520644  1.0
  K  K4  1  0.21000291  0.14621623  0.89479356  1.0
  K  K5  1  0.21000291  0.85378377  0.89479356  1.0
  K  K6  1  0.78999709  0.14621623  0.89479356  1.0
  K  K7  1  0.78999709  0.85378377  0.89479356  1.0
  K  K8  1  0.50000000  0.28111327  0.40934005  1.0
  K  K9  1  0.50000000  0.71888673  0.40934005  1.0
  K  K10  1  0.00000000  0.21888673  0.59065995  1.0
  K  K11  1  0.00000000  0.78111327  0.59065995  1.0
  K  K12  1  0.29796411  0.64854160  0.70000967  1.0
  K  K13  1  0.29796411  0.35145840  0.70000967  1.0
  K  K14  1  0.70203589  0.64854160  0.70000967  1.0
  K  K15  1  0.70203589  0.35145840  0.70000967  1.0
  K  K16  1  0.20203589  0.85145840  0.29999033  1.0
  K  K17  1  0.20203589  0.14854160  0.29999033  1.0
  K  K18  1  0.79796411  0.85145840  0.29999033  1.0
  K  K19  1  0.79796411  0.14854160  0.29999033  1.0
  K  K20  1  0.50000000  0.50000000  0.90209817  1.0
  K  K21  1  0.00000000  0.00000000  0.09790183  1.0
  K  K22  1  0.00000000  0.50000000  0.58103035  1.0
  K  K23  1  0.50000000  0.00000000  0.41896965  1.0
  Sn  Sn24  1  0.33085085  0.50000000  0.39657022  1.0
  Sn  Sn25  1  0.66914915  0.50000000  0.39657022  1.0
  Sn  Sn26  1  0.16914915  0.00000000  0.60342978  1.0
  Sn  Sn27  1  0.83085085  0.00000000  0.60342978  1.0
  Sn  Sn28  1  0.50000000  0.87438511  0.11975202  1.0
  Sn  Sn29  1  0.50000000  0.12561489  0.11975202  1.0
  Sn  Sn30  1  0.00000000  0.62561489  0.88024798  1.0
  Sn  Sn31  1  0.00000000  0.37438511  0.88024798  1.0
  Sn  Sn32  1  0.50000000  0.89736236  0.73170081  1.0
  Sn  Sn33  1  0.50000000  0.10263764  0.73170081  1.0
  Sn  Sn34  1  0.00000000  0.60263764  0.26829919  1.0
  Sn  Sn35  1  0.00000000  0.39736236  0.26829919  1.0
  As  As36  1  0.18215568  0.50000000  0.89759127  1.0
  As  As37  1  0.81784432  0.50000000  0.89759127  1.0
  As  As38  1  0.31784432  0.00000000  0.10240873  1.0
  As  As39  1  0.68215568  0.00000000  0.10240873  1.0
  As  As40  1  0.50000000  0.50000000  0.21804036  1.0
  As  As41  1  0.00000000  0.00000000  0.78195964  1.0
  As  As42  1  0.50000000  0.50000000  0.57477573  1.0
  As  As43  1  0.00000000  0.00000000  0.42522427  1.0
  As  As44  1  0.19271256  0.64452450  0.40844849  1.0
  As  As45  1  0.19271256  0.35547550  0.40844849  1.0
  As  As46  1  0.80728744  0.64452450  0.40844849  1.0
  As  As47  1  0.80728744  0.35547550  0.40844849  1.0
  As  As48  1  0.30728744  0.85547550  0.59155151  1.0
  As  As49  1  0.30728744  0.14452450  0.59155151  1.0
  As  As50  1  0.69271256  0.85547550  0.59155151  1.0
  As  As51  1  0.69271256  0.14452450  0.59155151  1.0
  As  As52  1  0.50000000  0.77436903  0.91070278  1.0
  As  As53  1  0.50000000  0.22563097  0.91070278  1.0
  As  As54  1  0.00000000  0.72563097  0.08929722  1.0
  As  As55  1  0.00000000  0.27436903  0.08929722  1.0
