# generated using pymatgen
data_KFePNO7
_symmetry_space_group_name_H-M   'P 1'
_cell_length_a   6.33785571
_cell_length_b   5.21654819
_cell_length_c   9.78379028
_cell_angle_alpha   80.27633638
_cell_angle_beta   86.49980049
_cell_angle_gamma   89.07459812
_symmetry_Int_Tables_number   1
_chemical_formula_structural   KFePNO7
_chemical_formula_sum   'K2 Fe2 P2 N2 O14'
_cell_volume   318.22166787
_cell_formula_units_Z   2
loop_
 _symmetry_equiv_pos_site_id
 _symmetry_equiv_pos_as_xyz
  1  'x, y, z'
loop_
 _atom_site_type_symbol
 _atom_site_label
 _atom_site_symmetry_multiplicity
 _atom_site_fract_x
 _atom_site_fract_y
 _atom_site_fract_z
 _atom_site_occupancy
  P  P0  1  -0.75642842  -0.69094617  -0.56575381  1.0
  P  P1  1  -0.24357158  -0.30905383  -0.43424619  1.0
  N  N2  1  -0.24796916  -0.56493581  -0.90414791  1.0
  N  N3  1  -0.75203084  -0.43506419  -0.09585209  1.0
  K  K4  1  -0.18469700  -0.89170677  -0.19954893  1.0
  K  K5  1  -0.81530300  -0.10829323  -0.80045107  1.0
  O  O6  1  -0.27121707  -0.41992293  -0.81177925  1.0
  O  O7  1  -0.72878293  -0.58007707  -0.18822075  1.0
  O  O8  1  -0.24750317  -0.47600526  -0.02969291  1.0
  O  O9  1  -0.75249683  -0.52399474  -0.97030709  1.0
  O  O10  1  -0.22497209  -0.80871564  -0.86047060  1.0
  O  O11  1  -0.77502791  -0.19128436  -0.13952940  1.0
  O  O12  1  -0.72382536  -0.41179502  -0.53277522  1.0
  O  O13  1  -0.27617464  -0.58820498  -0.46722478  1.0
  O  O14  1  -0.80814607  -0.88188885  -0.42781770  1.0
  O  O15  1  -0.19185393  -0.11811115  -0.57218230  1.0
  O  O16  1  -0.55664821  -0.78312471  -0.64464451  1.0
  O  O17  1  -0.44335179  -0.21687529  -0.35535549  1.0
  O  O18  1  -0.93891098  -0.67833511  -0.66601944  1.0
  O  O19  1  -0.06108902  -0.32166489  -0.33398056  1.0
  Fe  Fe20  1  -0.25019777  -0.75139994  -0.63104609  1.0
  Fe  Fe21  1  -0.74980223  -0.24860006  -0.36895391  1.0
