# generated using pymatgen
data_Eu2BBrN2
_symmetry_space_group_name_H-M   'P 1'
_cell_length_a   9.19377816
_cell_length_b   9.19377816
_cell_length_c   9.19377816
_cell_angle_alpha   25.30547020
_cell_angle_beta   25.30547020
_cell_angle_gamma   25.30547020
_symmetry_Int_Tables_number   1
_chemical_formula_structural   Eu2BBrN2
_chemical_formula_sum   'Eu2 B1 Br1 N2'
_cell_volume   124.95953873
_cell_formula_units_Z   1
loop_
 _symmetry_equiv_pos_site_id
 _symmetry_equiv_pos_as_xyz
  1  'x, y, z'
loop_
 _atom_site_type_symbol
 _atom_site_label
 _atom_site_symmetry_multiplicity
 _atom_site_fract_x
 _atom_site_fract_y
 _atom_site_fract_z
 _atom_site_occupancy
  Eu  Eu0  1  0.74798236  0.74798236  0.74798236  1.0
  Eu  Eu1  1  1.25201764  1.25201764  0.25201764  1.0
  B  B2  1  0.00000000  0.00000000  0.00000000  1.0
  Br  Br3  1  1.50000000  0.50000000  0.50000000  1.0
  N  N4  1  0.94937062  0.94937062  0.94937062  1.0
  N  N5  1  1.05062938  1.05062938  0.05062938  1.0
