# generated using pymatgen
data_Sc2Ni4P3
_symmetry_space_group_name_H-M   'P 1'
_cell_length_a   12.19026375
_cell_length_b   12.19026375
_cell_length_c   3.70185378
_cell_angle_alpha   90.00000000
_cell_angle_beta   90.00000000
_cell_angle_gamma   120.00000000
_symmetry_Int_Tables_number   1
_chemical_formula_structural   Sc2Ni4P3
_chemical_formula_sum   'Sc8 Ni16 P12'
_cell_volume   476.40476527
_cell_formula_units_Z   4
loop_
 _symmetry_equiv_pos_site_id
 _symmetry_equiv_pos_as_xyz
  1  'x, y, z'
loop_
 _atom_site_type_symbol
 _atom_site_label
 _atom_site_symmetry_multiplicity
 _atom_site_fract_x
 _atom_site_fract_y
 _atom_site_fract_z
 _atom_site_occupancy
  Sc  Sc0  1  0.18080700  0.18080700  0.50000000  1.0
  Sc  Sc1  1  -0.00000000  0.81919300  0.50000000  1.0
  Sc  Sc2  1  0.81919300  0.00000000  0.50000000  1.0
  Sc  Sc3  1  0.55904340  0.55904340  0.00000000  1.0
  Sc  Sc4  1  0.00000000  0.44095660  0.00000000  1.0
  Sc  Sc5  1  0.44095660  0.00000000  0.00000000  1.0
  Sc  Sc6  1  0.33333333  0.66666667  0.00000000  1.0
  Sc  Sc7  1  0.66666667  0.33333333  0.00000000  1.0
  Ni  Ni8  1  0.12441863  0.64163795  0.50000000  1.0
  Ni  Ni9  1  0.64163795  0.12441863  0.50000000  1.0
  Ni  Ni10  1  0.51721933  0.87558137  0.50000000  1.0
  Ni  Ni11  1  0.35836205  0.48278067  0.50000000  1.0
  Ni  Ni12  1  0.87558137  0.51721933  0.50000000  1.0
  Ni  Ni13  1  0.48278067  0.35836205  0.50000000  1.0
  Ni  Ni14  1  0.19204603  0.81643571  0.00000000  1.0
  Ni  Ni15  1  0.81643571  0.19204603  0.00000000  1.0
  Ni  Ni16  1  0.62438968  0.80795397  0.00000000  1.0
  Ni  Ni17  1  0.18356429  0.37561032  0.00000000  1.0
  Ni  Ni18  1  0.80795397  0.62438968  0.00000000  1.0
  Ni  Ni19  1  0.37561032  0.18356429  0.00000000  1.0
  Ni  Ni20  1  0.72447699  0.72447699  0.50000000  1.0
  Ni  Ni21  1  0.00000000  0.27552301  0.50000000  1.0
  Ni  Ni22  1  0.27552301  0.00000000  0.50000000  1.0
  Ni  Ni23  1  0.00000000  0.00000000  0.00000000  1.0
  P  P24  1  0.30876588  0.82763684  0.50000000  1.0
  P  P25  1  0.82763684  0.30876588  0.50000000  1.0
  P  P26  1  0.51887096  0.69123412  0.50000000  1.0
  P  P27  1  0.17236316  0.48112904  0.50000000  1.0
  P  P28  1  0.69123412  0.51887096  0.50000000  1.0
  P  P29  1  0.48112904  0.17236316  0.50000000  1.0
  P  P30  1  0.82443781  0.82443781  0.00000000  1.0
  P  P31  1  -0.00000000  0.17556219  0.00000000  1.0
  P  P32  1  0.17556219  0.00000000  0.00000000  1.0
  P  P33  1  0.34897433  0.34897433  0.00000000  1.0
  P  P34  1  0.00000000  0.65102567  0.00000000  1.0
  P  P35  1  0.65102567  0.00000000  0.00000000  1.0
