# generated using pymatgen
data_H2PbO2
_symmetry_space_group_name_H-M   'P 1'
_cell_length_a   9.49981412
_cell_length_b   5.17300430
_cell_length_c   5.83875753
_cell_angle_alpha   90.00000000
_cell_angle_beta   90.00000000
_cell_angle_gamma   90.00000000
_symmetry_Int_Tables_number   1
_chemical_formula_structural   H2PbO2
_chemical_formula_sum   'H8 Pb4 O8'
_cell_volume   286.93160468
_cell_formula_units_Z   4
loop_
 _symmetry_equiv_pos_site_id
 _symmetry_equiv_pos_as_xyz
  1  'x, y, z'
loop_
 _atom_site_type_symbol
 _atom_site_label
 _atom_site_symmetry_multiplicity
 _atom_site_fract_x
 _atom_site_fract_y
 _atom_site_fract_z
 _atom_site_occupancy
  H  H0  1  0.96102481  0.25000000  0.03995441  1.0
  H  H1  1  0.46102481  0.25000000  0.46004559  1.0
  H  H2  1  0.03897519  0.75000000  0.96004559  1.0
  H  H3  1  0.53897519  0.75000000  0.53995441  1.0
  H  H4  1  0.61282844  0.25000000  -0.06692726  1.0
  H  H5  1  0.11282844  0.25000000  0.56692726  1.0
  H  H6  1  0.38717156  0.75000000  1.06692726  1.0
  H  H7  1  0.88717156  0.75000000  0.43307274  1.0
  Pb  Pb8  1  0.74709213  0.25000000  0.35152594  1.0
  Pb  Pb9  1  0.24709213  0.25000000  0.14847406  1.0
  Pb  Pb10  1  0.25290787  0.75000000  0.64847406  1.0
  Pb  Pb11  1  0.75290787  0.75000000  0.85152594  1.0
  O  O12  1  -0.01648208  0.25000000  0.20287308  1.0
  O  O13  1  0.48351792  0.25000000  0.29712692  1.0
  O  O14  1  1.01648208  0.75000000  0.79712692  1.0
  O  O15  1  0.51648208  0.75000000  0.70287308  1.0
  O  O16  1  0.71541836  0.25000000  -0.05454863  1.0
  O  O17  1  0.21541836  0.25000000  0.55454863  1.0
  O  O18  1  0.28458164  0.75000000  1.05454863  1.0
  O  O19  1  0.78458164  0.75000000  0.44545137  1.0
