# generated using pymatgen
data_La4AlRh
_symmetry_space_group_name_H-M   'P 1'
_cell_length_a   10.00404004
_cell_length_b   10.00404004
_cell_length_c   10.00404004
_cell_angle_alpha   60.00000000
_cell_angle_beta   60.00000000
_cell_angle_gamma   60.00000000
_symmetry_Int_Tables_number   1
_chemical_formula_structural   La4AlRh
_chemical_formula_sum   'La16 Al4 Rh4'
_cell_volume   707.96414873
_cell_formula_units_Z   4
loop_
 _symmetry_equiv_pos_site_id
 _symmetry_equiv_pos_as_xyz
  1  'x, y, z'
loop_
 _atom_site_type_symbol
 _atom_site_label
 _atom_site_symmetry_multiplicity
 _atom_site_fract_x
 _atom_site_fract_y
 _atom_site_fract_z
 _atom_site_occupancy
  La  La0  1  -0.34983677  0.65016323  0.65016323  1.0
  La  La1  1  1.04951032  0.65016323  -0.34983677  1.0
  La  La2  1  -0.34983677  0.65016323  1.04951032  1.0
  La  La3  1  0.65016323  1.04951032  -0.34983677  1.0
  La  La4  1  0.06342705  0.43657295  0.43657295  1.0
  La  La5  1  0.43657295  0.43657295  0.06342705  1.0
  La  La6  1  0.43657295  0.06342705  0.43657295  1.0
  La  La7  1  0.06342705  0.06342705  0.43657295  1.0
  La  La8  1  0.06342705  0.43657295  0.06342705  1.0
  La  La9  1  0.43657295  0.06342705  0.06342705  1.0
  La  La10  1  -0.80373863  0.80373863  0.80373863  1.0
  La  La11  1  -0.19626137  0.80373863  0.19626137  1.0
  La  La12  1  -0.19626137  0.19626137  0.80373863  1.0
  La  La13  1  0.19626137  1.19626137  -0.19626137  1.0
  La  La14  1  0.19626137  -0.19626137  0.19626137  1.0
  La  La15  1  -0.19626137  0.19626137  0.19626137  1.0
  Al  Al16  1  0.42686800  1.42686800  0.42686800  1.0
  Al  Al17  1  -0.28060399  0.42686800  0.42686800  1.0
  Al  Al18  1  0.42686800  1.42686800  -0.28060399  1.0
  Al  Al19  1  0.42686800  -0.28060399  0.42686800  1.0
  Rh  Rh20  1  0.85954842  0.85954842  -0.14045158  1.0
  Rh  Rh21  1  0.42135474  0.85954842  -0.14045158  1.0
  Rh  Rh22  1  0.85954842  0.85954842  -0.57864526  1.0
  Rh  Rh23  1  0.85954842  0.42135474  -0.14045158  1.0
