# generated using pymatgen
data_Ca2SiCl2O3
_symmetry_space_group_name_H-M   'P 1'
_cell_length_a   8.98460147
_cell_length_b   8.98460147
_cell_length_c   8.98460147
_cell_angle_alpha   106.19743478
_cell_angle_beta   106.19743478
_cell_angle_gamma   116.23818755
_symmetry_Int_Tables_number   1
_chemical_formula_structural   Ca2SiCl2O3
_chemical_formula_sum   'Ca8 Si4 Cl8 O12'
_cell_volume   552.40128661
_cell_formula_units_Z   4
loop_
 _symmetry_equiv_pos_site_id
 _symmetry_equiv_pos_as_xyz
  1  'x, y, z'
loop_
 _atom_site_type_symbol
 _atom_site_label
 _atom_site_symmetry_multiplicity
 _atom_site_fract_x
 _atom_site_fract_y
 _atom_site_fract_z
 _atom_site_occupancy
  Ca  Ca0  1  0.52652533  1.19377794  0.82801500  1.0
  Ca  Ca1  1  1.19377794  1.36576293  0.66725260  1.0
  Ca  Ca2  1  1.36576293  1.69851033  1.17198500  1.0
  Ca  Ca3  1  0.69851033  0.52652533  0.33274740  1.0
  Ca  Ca4  1  0.89699945  1.22974368  1.17191108  1.0
  Ca  Ca5  1  1.22974368  1.05783260  1.33274422  1.0
  Ca  Ca6  1  1.05783260  1.72508838  0.82808892  1.0
  Ca  Ca7  1  1.72508838  1.89699945  1.66725578  1.0
  Si  Si8  1  0.52411059  0.81613917  0.91674558  1.0
  Si  Si9  1  0.81613917  0.89939359  1.29202858  1.0
  Si  Si10  1  0.89939359  1.60736502  1.08325442  1.0
  Si  Si11  1  1.60736502  1.52411059  1.70797142  1.0
  Cl  Cl12  1  0.47032568  1.13775212  1.18458126  1.0
  Cl  Cl13  1  1.13775212  0.95317085  1.66742644  1.0
  Cl  Cl14  1  0.95317085  0.28574441  0.81541874  1.0
  Cl  Cl15  1  0.28574441  0.47032568  0.33257356  1.0
  Cl  Cl16  1  0.46170681  0.96170681  0.50000000  1.0
  Cl  Cl17  1  0.96170681  0.46170681  0.50000000  1.0
  Cl  Cl18  1  -0.00079561  -0.00079561  0.00000000  1.0
  Cl  Cl19  1  0.42420517  0.42420517  -0.00000000  1.0
  O  O20  1  0.31187951  0.70018212  0.88936417  1.0
  O  O21  1  0.70018212  0.81081794  1.38830260  1.0
  O  O22  1  0.81081794  1.42251534  1.11063583  1.0
  O  O23  1  1.42251534  1.31187951  1.61169740  1.0
  O  O24  1  0.61268948  1.00101320  0.88940260  1.0
  O  O25  1  1.00101320  1.11161060  0.38832372  1.0
  O  O26  1  1.11161060  1.72328688  1.11059740  1.0
  O  O27  1  0.72328688  0.61268948  0.61167628  1.0
  O  O28  1  0.66227767  0.88565038  1.12445821  1.0
  O  O29  1  0.88565038  0.76119216  0.22337270  1.0
  O  O30  1  0.76119216  1.53781946  0.87554179  1.0
  O  O31  1  0.53781946  0.66227767  0.77662730  1.0
