# generated using pymatgen
data_NaB2H8(ClO2)4
_symmetry_space_group_name_H-M   'P 1'
_cell_length_a   11.15265391
_cell_length_b   11.15265391
_cell_length_c   5.81827102
_cell_angle_alpha   90.00000000
_cell_angle_beta   90.00000000
_cell_angle_gamma   90.00000000
_symmetry_Int_Tables_number   1
_chemical_formula_structural   NaB2H8(ClO2)4
_chemical_formula_sum   'Na2 B4 H16 Cl8 O16'
_cell_volume   723.68637840
_cell_formula_units_Z   2
loop_
 _symmetry_equiv_pos_site_id
 _symmetry_equiv_pos_as_xyz
  1  'x, y, z'
loop_
 _atom_site_type_symbol
 _atom_site_label
 _atom_site_symmetry_multiplicity
 _atom_site_fract_x
 _atom_site_fract_y
 _atom_site_fract_z
 _atom_site_occupancy
  Na  Na0  1  0.50000000  0.50000000  0.00000000  1.0
  Na  Na1  1  0.00000000  0.00000000  0.00000000  1.0
  B  B2  1  0.75000000  0.25000000  0.50000000  1.0
  B  B3  1  0.75000000  0.75000000  0.50000000  1.0
  B  B4  1  0.25000000  0.75000000  0.50000000  1.0
  B  B5  1  0.25000000  0.25000000  0.50000000  1.0
  H  H6  1  0.19612129  0.46639090  0.74480864  1.0
  H  H7  1  0.19612129  0.53360910  0.74480864  1.0
  H  H8  1  0.69612129  0.96639090  0.25519136  1.0
  H  H9  1  0.69612129  0.03360910  0.25519136  1.0
  H  H10  1  0.46639090  0.19612129  0.25519136  1.0
  H  H11  1  0.46639090  0.80387871  0.25519136  1.0
  H  H12  1  0.96639090  0.69612129  0.74480864  1.0
  H  H13  1  0.96639090  0.30387871  0.74480864  1.0
  H  H14  1  0.80387871  0.46639090  0.74480864  1.0
  H  H15  1  0.80387871  0.53360910  0.74480864  1.0
  H  H16  1  0.30387871  0.96639090  0.25519136  1.0
  H  H17  1  0.30387871  0.03360910  0.25519136  1.0
  H  H18  1  0.53360910  0.19612129  0.25519136  1.0
  H  H19  1  0.53360910  0.80387871  0.25519136  1.0
  H  H20  1  0.03360910  0.69612129  0.74480864  1.0
  H  H21  1  0.03360910  0.30387871  0.74480864  1.0
  Cl  Cl22  1  0.35012218  0.14987782  0.82796648  1.0
  Cl  Cl23  1  0.35012218  0.85012218  0.82796648  1.0
  Cl  Cl24  1  0.85012218  0.64987782  0.17203352  1.0
  Cl  Cl25  1  0.85012218  0.35012218  0.17203352  1.0
  Cl  Cl26  1  0.14987782  0.35012218  0.17203352  1.0
  Cl  Cl27  1  0.14987782  0.64987782  0.17203352  1.0
  Cl  Cl28  1  0.64987782  0.85012218  0.82796648  1.0
  Cl  Cl29  1  0.64987782  0.14987782  0.82796648  1.0
  O  O30  1  0.14169266  0.78181850  0.35369492  1.0
  O  O31  1  0.14169266  0.21818150  0.35369492  1.0
  O  O32  1  0.64169266  0.28181850  0.64630508  1.0
  O  O33  1  0.64169266  0.71818150  0.64630508  1.0
  O  O34  1  0.78181850  0.14169266  0.64630508  1.0
  O  O35  1  0.78181850  0.85830734  0.64630508  1.0
  O  O36  1  0.28181850  0.64169266  0.35369492  1.0
  O  O37  1  0.28181850  0.35830734  0.35369492  1.0
  O  O38  1  0.85830734  0.78181850  0.35369492  1.0
  O  O39  1  0.85830734  0.21818150  0.35369492  1.0
  O  O40  1  0.35830734  0.28181850  0.64630508  1.0
  O  O41  1  0.35830734  0.71818150  0.64630508  1.0
  O  O42  1  0.21818150  0.14169266  0.64630508  1.0
  O  O43  1  0.21818150  0.85830734  0.64630508  1.0
  O  O44  1  0.71818150  0.64169266  0.35369492  1.0
  O  O45  1  0.71818150  0.35830734  0.35369492  1.0
