# generated using pymatgen
data_Sn3O4
_symmetry_space_group_name_H-M   'P 1'
_cell_length_a   7.19259762
_cell_length_b   5.84518312
_cell_length_c   6.10337709
_cell_angle_alpha   90.00000000
_cell_angle_beta   90.02268049
_cell_angle_gamma   90.00000000
_symmetry_Int_Tables_number   1
_chemical_formula_structural   Sn3O4
_chemical_formula_sum   'Sn6 O8'
_cell_volume   256.59846568
_cell_formula_units_Z   2
loop_
 _symmetry_equiv_pos_site_id
 _symmetry_equiv_pos_as_xyz
  1  'x, y, z'
loop_
 _atom_site_type_symbol
 _atom_site_label
 _atom_site_symmetry_multiplicity
 _atom_site_fract_x
 _atom_site_fract_y
 _atom_site_fract_z
 _atom_site_occupancy
  Sn  Sn0  1  0.79906975  0.49988496  0.75002902  1.0
  Sn  Sn1  1  0.20093025  0.49988496  0.74997098  1.0
  Sn  Sn2  1  0.20093025  0.50011504  0.24997098  1.0
  Sn  Sn3  1  0.79906975  0.50011504  0.25002902  1.0
  Sn  Sn4  1  0.50000000  0.00000000  0.50000000  1.0
  Sn  Sn5  1  0.50000000  0.00000000  0.00000000  1.0
  O  O6  1  0.72037423  0.27355809  0.49991998  1.0
  O  O7  1  0.27962577  0.27355809  0.00008002  1.0
  O  O8  1  0.27962577  0.72644191  0.50008002  1.0
  O  O9  1  0.72037423  0.72644191  -0.00008002  1.0
  O  O10  1  0.27949002  0.27343524  0.49995918  1.0
  O  O11  1  0.72050998  0.27343524  1.00004082  1.0
  O  O12  1  0.72050998  0.72656476  0.50004082  1.0
  O  O13  1  0.27949002  0.72656476  -0.00004082  1.0
