# generated using pymatgen
data_Cs4(BSe)9
_symmetry_space_group_name_H-M   'P 1'
_cell_length_a   11.45587173
_cell_length_b   11.05412379
_cell_length_c   10.95489699
_cell_angle_alpha   110.73028551
_cell_angle_beta   103.81491132
_cell_angle_gamma   92.04790940
_symmetry_Int_Tables_number   1
_chemical_formula_structural   Cs4(BSe)9
_chemical_formula_sum   'Cs8 B18 Se18'
_cell_volume   1248.82672719
_cell_formula_units_Z   2
loop_
 _symmetry_equiv_pos_site_id
 _symmetry_equiv_pos_as_xyz
  1  'x, y, z'
loop_
 _atom_site_type_symbol
 _atom_site_label
 _atom_site_symmetry_multiplicity
 _atom_site_fract_x
 _atom_site_fract_y
 _atom_site_fract_z
 _atom_site_occupancy
  Cs  Cs0  1  0.74303288  0.11572366  0.18451470  1.0
  Cs  Cs1  1  0.25696712  0.88427634  0.81548530  1.0
  Cs  Cs2  1  0.02617751  0.87060519  0.25154343  1.0
  Cs  Cs3  1  0.97382249  0.12939481  0.74845657  1.0
  Cs  Cs4  1  0.13203504  0.49256414  0.35636265  1.0
  Cs  Cs5  1  0.86796496  0.50743586  0.64363735  1.0
  Cs  Cs6  1  0.36863543  0.12586122  0.38282330  1.0
  Cs  Cs7  1  0.63136457  0.87413878  0.61717670  1.0
  B  B8  1  0.36025117  0.46076311  0.00913301  1.0
  B  B9  1  0.63974883  0.53923689  0.99086699  1.0
  B  B10  1  0.47906413  0.36824840  0.04225809  1.0
  B  B11  1  0.52093587  0.63175160  0.95774191  1.0
  B  B12  1  0.42240563  0.62643658  0.06098430  1.0
  B  B13  1  0.57759437  0.37356342  0.93901570  1.0
  B  B14  1  0.25181843  0.24332081  0.06736004  1.0
  B  B15  1  0.74818157  0.75667919  0.93263996  1.0
  B  B16  1  0.61823189  0.47791155  0.11513684  1.0
  B  B17  1  0.38176811  0.52208845  0.88486316  1.0
  B  B18  1  0.58237383  0.63546329  0.12497698  1.0
  B  B19  1  0.41762617  0.36453671  0.87502302  1.0
  B  B20  1  0.48256422  0.53108226  0.15654432  1.0
  B  B21  1  0.51743578  0.46891774  0.84345568  1.0
  B  B22  1  0.35912925  0.73185569  0.32690425  1.0
  B  B23  1  0.64087075  0.26814431  0.67309575  1.0
  B  B24  1  0.19654474  0.32301018  0.64451093  1.0
  B  B25  1  0.80345526  0.67698982  0.35548907  1.0
  Se  Se26  1  0.20025902  0.39617380  0.02429875  1.0
  Se  Se27  1  0.79974098  0.60382620  0.97570125  1.0
  Se  Se28  1  0.42560546  0.21558325  0.08540940  1.0
  Se  Se29  1  0.57439454  0.78441675  0.91459060  1.0
  Se  Se30  1  0.13675801  0.12560558  0.08565865  1.0
  Se  Se31  1  0.86324199  0.87439442  0.91434135  1.0
  Se  Se32  1  0.33361442  0.76804623  0.15724934  1.0
  Se  Se33  1  0.66638558  0.23195377  0.84275066  1.0
  Se  Se34  1  0.44895261  0.58460413  0.33899389  1.0
  Se  Se35  1  0.55104739  0.41539587  0.66100611  1.0
  Se  Se36  1  0.06024603  0.24345625  0.48875485  1.0
  Se  Se37  1  0.93975397  0.75654375  0.51124515  1.0
  Se  Se38  1  0.70108951  0.16254278  0.52634910  1.0
  Se  Se39  1  0.29891049  0.83745722  0.47365090  1.0
  Se  Se40  1  0.30541353  0.21623777  0.71992127  1.0
  Se  Se41  1  0.69458647  0.78376223  0.28007873  1.0
  Se  Se42  1  0.23484452  0.51651237  0.73661959  1.0
  Se  Se43  1  0.76515548  0.48348763  0.26338041  1.0
