# generated using pymatgen
data_Zn(CrSe2)2
_symmetry_space_group_name_H-M   'P 1'
_cell_length_a   7.48889835
_cell_length_b   7.48889835
_cell_length_c   7.48889835
_cell_angle_alpha   60.00000000
_cell_angle_beta   60.00000000
_cell_angle_gamma   60.00000000
_symmetry_Int_Tables_number   1
_chemical_formula_structural   Zn(CrSe2)2
_chemical_formula_sum   'Zn2 Cr4 Se8'
_cell_volume   296.98793678
_cell_formula_units_Z   2
loop_
 _symmetry_equiv_pos_site_id
 _symmetry_equiv_pos_as_xyz
  1  'x, y, z'
loop_
 _atom_site_type_symbol
 _atom_site_label
 _atom_site_symmetry_multiplicity
 _atom_site_fract_x
 _atom_site_fract_y
 _atom_site_fract_z
 _atom_site_occupancy
  Zn  Zn0  1  0.25000000  0.25000000  0.25000000  1.0
  Zn  Zn1  1  0.00000000  1.00000000  -0.00000000  1.0
  Cr  Cr2  1  1.12500000  -0.37500000  0.62500000  1.0
  Cr  Cr3  1  0.62500000  1.12500000  -0.37500000  1.0
  Cr  Cr4  1  0.62500000  0.62500000  0.12500000  1.0
  Cr  Cr5  1  0.62500000  0.62500000  -0.37500000  1.0
  Se  Se6  1  -0.15652053  0.38550684  0.38550684  1.0
  Se  Se7  1  0.38550684  0.84347947  0.38550684  1.0
  Se  Se8  1  0.38550684  1.38550684  -0.15652053  1.0
  Se  Se9  1  0.38550684  0.38550684  0.38550684  1.0
  Se  Se10  1  0.40652053  0.86449316  -0.13550684  1.0
  Se  Se11  1  0.86449316  -0.59347947  0.86449316  1.0
  Se  Se12  1  0.86449316  0.86449316  -0.59347947  1.0
  Se  Se13  1  0.86449316  -0.13550684  0.86449316  1.0
