# generated using pymatgen
data_SbF4
_symmetry_space_group_name_H-M   'P 1'
_cell_length_a   9.71914552
_cell_length_b   12.47400067
_cell_length_c   11.90164985
_cell_angle_alpha   90.00000000
_cell_angle_beta   105.18283777
_cell_angle_gamma   90.00000000
_symmetry_Int_Tables_number   1
_chemical_formula_structural   SbF4
_chemical_formula_sum   'Sb16 F64'
_cell_volume   1392.55089359
_cell_formula_units_Z   16
loop_
 _symmetry_equiv_pos_site_id
 _symmetry_equiv_pos_as_xyz
  1  'x, y, z'
loop_
 _atom_site_type_symbol
 _atom_site_label
 _atom_site_symmetry_multiplicity
 _atom_site_fract_x
 _atom_site_fract_y
 _atom_site_fract_z
 _atom_site_occupancy
  Sb  Sb0  1  0.87846021  0.34438408  0.13819945  1.0
  Sb  Sb1  1  0.87846021  0.15561592  0.63819945  1.0
  Sb  Sb2  1  0.12153979  0.84438408  0.36180055  1.0
  Sb  Sb3  1  0.12153979  0.65561592  0.86180055  1.0
  Sb  Sb4  1  0.73420837  0.41857835  0.43498347  1.0
  Sb  Sb5  1  0.73420837  0.08142165  0.93498347  1.0
  Sb  Sb6  1  0.26579163  0.91857835  0.06501653  1.0
  Sb  Sb7  1  0.26579163  0.58142165  0.56501653  1.0
  Sb  Sb8  1  0.70120331  0.09049171  0.28842621  1.0
  Sb  Sb9  1  0.70120331  0.40950829  0.78842621  1.0
  Sb  Sb10  1  0.29879669  0.59049171  0.21157379  1.0
  Sb  Sb11  1  0.29879669  0.90950829  0.71157379  1.0
  Sb  Sb12  1  0.26675798  0.15424717  0.46010754  1.0
  Sb  Sb13  1  0.26675798  0.34575283  0.96010754  1.0
  Sb  Sb14  1  0.73324202  0.65424717  0.03989246  1.0
  Sb  Sb15  1  0.73324202  0.84575283  0.53989246  1.0
  F  F16  1  0.15013215  0.02884397  0.38041027  1.0
  F  F17  1  0.15013215  0.47115603  0.88041027  1.0
  F  F18  1  0.84986785  0.52884397  0.11958973  1.0
  F  F19  1  0.84986785  0.97115603  0.61958973  1.0
  F  F20  1  0.87605168  0.18105377  0.03052814  1.0
  F  F21  1  0.87605168  0.31894623  0.53052814  1.0
  F  F22  1  0.12394832  0.68105377  0.46947186  1.0
  F  F23  1  0.12394832  0.81894623  0.96947186  1.0
  F  F24  1  0.87834085  0.82348581  0.45947212  1.0
  F  F25  1  0.87834085  0.67651419  0.95947212  1.0
  F  F26  1  0.12165915  0.32348581  0.04052788  1.0
  F  F27  1  0.12165915  0.17651419  0.54052788  1.0
  F  F28  1  0.84721685  0.96309579  0.00229574  1.0
  F  F29  1  0.84721685  0.53690421  0.50229574  1.0
  F  F30  1  0.15278315  0.46309579  0.49770426  1.0
  F  F31  1  0.15278315  0.03690421  0.99770426  1.0
  F  F32  1  0.84377820  0.41306578  0.31709342  1.0
  F  F33  1  0.84377820  0.08693422  0.81709342  1.0
  F  F34  1  0.15622180  0.91306578  0.18290658  1.0
  F  F35  1  0.15622180  0.58693422  0.68290658  1.0
  F  F36  1  0.83685282  0.20108432  0.24489442  1.0
  F  F37  1  0.83685282  0.29891568  0.74489442  1.0
  F  F38  1  0.16314718  0.70108432  0.25510558  1.0
  F  F39  1  0.16314718  0.79891568  0.75510558  1.0
  F  F40  1  0.84013380  0.11452417  0.44963300  1.0
  F  F41  1  0.84013380  0.38547583  0.94963300  1.0
  F  F42  1  0.15986620  0.61452417  0.05036700  1.0
  F  F43  1  0.15986620  0.88547583  0.55036700  1.0
  F  F44  1  0.83530504  0.73998410  0.16746381  1.0
  F  F45  1  0.83530504  0.76001590  0.66746381  1.0
  F  F46  1  0.16469496  0.23998410  0.33253619  1.0
  F  F47  1  0.16469496  0.26001590  0.83253619  1.0
  F  F48  1  0.83080558  0.98178550  0.26324626  1.0
  F  F49  1  0.83080558  0.51821450  0.76324626  1.0
  F  F50  1  0.16919442  0.48178550  0.23675374  1.0
  F  F51  1  0.16919442  0.01821450  0.73675374  1.0
  F  F52  1  0.67452757  0.34191799  0.09392447  1.0
  F  F53  1  0.67452757  0.15808201  0.59392447  1.0
  F  F54  1  0.32547243  0.84191799  0.40607553  1.0
  F  F55  1  0.32547243  0.65808201  0.90607553  1.0
  F  F56  1  0.63877442  0.08370859  0.05906491  1.0
  F  F57  1  0.63877442  0.41629141  0.55906491  1.0
  F  F58  1  0.36122558  0.58370859  0.44093509  1.0
  F  F59  1  0.36122558  0.91629141  0.94093509  1.0
  F  F60  1  0.64578483  0.94735332  0.41438096  1.0
  F  F61  1  0.64578483  0.55264668  0.91438096  1.0
  F  F62  1  0.35421517  0.44735332  0.08561904  1.0
  F  F63  1  0.35421517  0.05264668  0.58561904  1.0
  F  F64  1  0.63408982  0.29183430  0.36531422  1.0
  F  F65  1  0.63408982  0.20816570  0.86531422  1.0
  F  F66  1  0.36591018  0.79183430  0.13468578  1.0
  F  F67  1  0.36591018  0.70816570  0.63468578  1.0
  F  F68  1  0.40599711  0.11498471  0.38099626  1.0
  F  F69  1  0.40599711  0.38501529  0.88099626  1.0
  F  F70  1  0.59400289  0.61498471  0.11900374  1.0
  F  F71  1  0.59400289  0.88501529  0.61900374  1.0
  F  F72  1  0.41159601  0.00392376  0.16252978  1.0
  F  F73  1  0.41159601  0.49607624  0.66252978  1.0
  F  F74  1  0.58840399  0.50392376  0.33747022  1.0
  F  F75  1  0.58840399  0.99607624  0.83747022  1.0
  F  F76  1  0.37821158  0.23122034  0.04109259  1.0
  F  F77  1  0.37821158  0.26877966  0.54109259  1.0
  F  F78  1  0.62178842  0.73122034  0.45890741  1.0
  F  F79  1  0.62178842  0.76877966  0.95890741  1.0
