# generated using pymatgen
data_CrPSe3
_symmetry_space_group_name_H-M   'P 1'
_cell_length_a   6.35836987
_cell_length_b   6.35836987
_cell_length_c   7.42889689
_cell_angle_alpha   81.69185017
_cell_angle_beta   98.30814983
_cell_angle_gamma   60.10850050
_symmetry_Int_Tables_number   1
_chemical_formula_structural   CrPSe3
_chemical_formula_sum   'Cr2 P2 Se6'
_cell_volume   249.31426968
_cell_formula_units_Z   2
loop_
 _symmetry_equiv_pos_site_id
 _symmetry_equiv_pos_as_xyz
  1  'x, y, z'
loop_
 _atom_site_type_symbol
 _atom_site_label
 _atom_site_symmetry_multiplicity
 _atom_site_fract_x
 _atom_site_fract_y
 _atom_site_fract_z
 _atom_site_occupancy
  Cr  Cr0  1  0.83311218  -0.16688782  -0.00000000  1.0
  Cr  Cr1  1  1.16688782  0.16688782  -0.00000000  1.0
  P  P2  1  0.44655907  -0.44655907  0.84147221  1.0
  P  P3  1  0.55344093  -0.55344093  0.15852779  1.0
  Se  Se4  1  0.42700500  -0.06182675  0.78439265  1.0
  Se  Se5  1  1.06182675  0.57299500  0.78439265  1.0
  Se  Se6  1  0.93817325  -0.57299500  0.21560735  1.0
  Se  Se7  1  1.57299500  0.06182675  0.21560735  1.0
  Se  Se8  1  0.79332479  -0.79332479  0.78433692  1.0
  Se  Se9  1  0.20667521  -0.20667521  0.21566308  1.0
