# generated using pymatgen
data_Sr2LaCu2(BiO4)2
_symmetry_space_group_name_H-M   'P 1'
_cell_length_a   15.83400110
_cell_length_b   15.83400110
_cell_length_c   5.41018895
_cell_angle_alpha   90.00000000
_cell_angle_beta   90.00000000
_cell_angle_gamma   159.56158349
_symmetry_Int_Tables_number   1
_chemical_formula_structural   Sr2LaCu2(BiO4)2
_chemical_formula_sum   'Sr4 La2 Cu4 Bi4 O16'
_cell_volume   473.66197504
_cell_formula_units_Z   2
loop_
 _symmetry_equiv_pos_site_id
 _symmetry_equiv_pos_as_xyz
  1  'x, y, z'
loop_
 _atom_site_type_symbol
 _atom_site_label
 _atom_site_symmetry_multiplicity
 _atom_site_fract_x
 _atom_site_fract_y
 _atom_site_fract_z
 _atom_site_occupancy
  Sr  Sr0  1  0.37874521  1.10450376  -0.00000000  1.0
  Sr  Sr1  1  0.10450376  0.37874521  0.50000000  1.0
  Sr  Sr2  1  -0.10450376  0.62125479  0.50000000  1.0
  Sr  Sr3  1  0.62125479  0.89549624  -0.00000000  1.0
  La  La4  1  0.50000000  1.00000000  0.00000000  1.0
  La  La5  1  0.00000000  0.50000000  0.50000000  1.0
  Cu  Cu6  1  -0.05520572  0.55376478  0.00000000  1.0
  Cu  Cu7  1  0.55376478  0.94479428  0.50000000  1.0
  Cu  Cu8  1  0.44623522  1.05520572  0.50000000  1.0
  Cu  Cu9  1  0.05520572  0.44623522  0.00000000  1.0
  Bi  Bi10  1  -0.22692469  0.67521683  -0.00000000  1.0
  Bi  Bi11  1  0.67521683  0.77307531  0.50000000  1.0
  Bi  Bi12  1  0.32478317  1.22692469  0.50000000  1.0
  Bi  Bi13  1  0.22692469  0.32478317  -0.00000000  1.0
  O  O14  1  0.30326848  0.69673152  0.75000000  1.0
  O  O15  1  0.30326848  0.69673152  0.25000000  1.0
  O  O16  1  -0.30326848  0.30326848  0.25000000  1.0
  O  O17  1  -0.30326848  0.30326848  0.75000000  1.0
  O  O18  1  0.39656395  1.29021544  -0.00000000  1.0
  O  O19  1  0.29021544  0.39656395  0.50000000  1.0
  O  O20  1  -0.29021544  0.60343605  0.50000000  1.0
  O  O21  1  0.60343605  0.70978456  -0.00000000  1.0
  O  O22  1  -0.10455572  0.66560722  0.00000000  1.0
  O  O23  1  0.66560722  0.89544428  0.50000000  1.0
  O  O24  1  0.33439278  1.10455572  0.50000000  1.0
  O  O25  1  0.10455572  0.33439278  0.00000000  1.0
  O  O26  1  0.19823164  0.80176836  0.75000000  1.0
  O  O27  1  0.19823164  0.80176836  0.25000000  1.0
  O  O28  1  -0.19823164  0.19823164  0.25000000  1.0
  O  O29  1  -0.19823164  0.19823164  0.75000000  1.0
