# generated using pymatgen
data_K2O2
_symmetry_space_group_name_H-M   'P 1'
_cell_length_a   5.27459930
_cell_length_b   5.27459930
_cell_length_c   4.01245866
_cell_angle_alpha   90.00000000
_cell_angle_beta   90.00000000
_cell_angle_gamma   137.99975332
_symmetry_Int_Tables_number   1
_chemical_formula_structural   K2O2
_chemical_formula_sum   'K2 O2'
_cell_volume   74.69688441
_cell_formula_units_Z   1
loop_
 _symmetry_equiv_pos_site_id
 _symmetry_equiv_pos_as_xyz
  1  'x, y, z'
loop_
 _atom_site_type_symbol
 _atom_site_label
 _atom_site_symmetry_multiplicity
 _atom_site_fract_x
 _atom_site_fract_y
 _atom_site_fract_z
 _atom_site_occupancy
  K  K0  1  -0.62524280  0.62524280  0.25000000  1.0
  K  K1  1  -0.37475720  1.37475720  0.75000000  1.0
  O  O2  1  -0.91546885  0.91546885  0.25000000  1.0
  O  O3  1  -0.08453115  1.08453115  0.75000000  1.0
