# generated using pymatgen
data_Mn2BrO3
_symmetry_space_group_name_H-M   'P 1'
_cell_length_a   5.87525453
_cell_length_b   6.64569032
_cell_length_c   8.44543595
_cell_angle_alpha   90.00000000
_cell_angle_beta   90.00000000
_cell_angle_gamma   90.00000000
_symmetry_Int_Tables_number   1
_chemical_formula_structural   Mn2BrO3
_chemical_formula_sum   'Mn8 Br4 O12'
_cell_volume   329.75307846
_cell_formula_units_Z   4
loop_
 _symmetry_equiv_pos_site_id
 _symmetry_equiv_pos_as_xyz
  1  'x, y, z'
loop_
 _atom_site_type_symbol
 _atom_site_label
 _atom_site_symmetry_multiplicity
 _atom_site_fract_x
 _atom_site_fract_y
 _atom_site_fract_z
 _atom_site_occupancy
  Mn  Mn0  1  0.31869719  0.75000000  0.24995845  1.0
  Mn  Mn1  1  0.81869719  0.75000000  0.25004155  1.0
  Mn  Mn2  1  0.68130281  0.25000000  0.75004155  1.0
  Mn  Mn3  1  0.18130281  0.25000000  0.74995845  1.0
  Mn  Mn4  1  0.50000000  0.00000000  0.50000000  1.0
  Mn  Mn5  1  0.50000000  0.50000000  0.50000000  1.0
  Mn  Mn6  1  0.00000000  -0.00000000  -0.00000000  1.0
  Mn  Mn7  1  0.00000000  0.50000000  0.00000000  1.0
  Br  Br8  1  0.35434558  0.75000000  0.95793025  1.0
  Br  Br9  1  0.85434558  0.75000000  0.54206975  1.0
  Br  Br10  1  0.64565442  0.25000000  0.04206975  1.0
  Br  Br11  1  0.14565442  0.25000000  0.45793025  1.0
  O  O12  1  0.43561425  0.43802843  0.72134430  1.0
  O  O13  1  0.43561425  0.06197157  0.72134430  1.0
  O  O14  1  0.93561425  0.43802843  0.77865570  1.0
  O  O15  1  0.93561425  0.06197157  0.77865570  1.0
  O  O16  1  0.56438575  0.93802843  0.27865570  1.0
  O  O17  1  0.56438575  0.56197157  0.27865570  1.0
  O  O18  1  0.06438575  0.93802843  0.22134430  1.0
  O  O19  1  0.06438575  0.56197157  0.22134430  1.0
  O  O20  1  0.32823249  0.75000000  0.47777648  1.0
  O  O21  1  0.82823249  0.75000000  0.02222352  1.0
  O  O22  1  0.67176751  0.25000000  0.52222352  1.0
  O  O23  1  0.17176751  0.25000000  0.97777648  1.0
