# generated using pymatgen
data_K3BAs2
_symmetry_space_group_name_H-M   'P 1'
_cell_length_a   6.70049323
_cell_length_b   6.70049323
_cell_length_c   9.15719408
_cell_angle_alpha   74.99467609
_cell_angle_beta   105.00532391
_cell_angle_gamma   93.68974584
_symmetry_Int_Tables_number   1
_chemical_formula_structural   K3BAs2
_chemical_formula_sum   'K6 B2 As4'
_cell_volume   383.56599592
_cell_formula_units_Z   2
loop_
 _symmetry_equiv_pos_site_id
 _symmetry_equiv_pos_as_xyz
  1  'x, y, z'
loop_
 _atom_site_type_symbol
 _atom_site_label
 _atom_site_symmetry_multiplicity
 _atom_site_fract_x
 _atom_site_fract_y
 _atom_site_fract_z
 _atom_site_occupancy
  K  K0  1  0.74786546  0.14435841  0.51967478  1.0
  K  K1  1  0.85564159  0.25213454  0.01967478  1.0
  K  K2  1  1.14435841  -0.25213454  0.98032522  1.0
  K  K3  1  1.25213454  -0.14435841  0.48032522  1.0
  K  K4  1  0.35616242  0.35616242  0.75000000  1.0
  K  K5  1  0.64383758  0.64383758  0.25000000  1.0
  B  B6  1  0.71623252  0.71623252  0.75000000  1.0
  B  B7  1  0.28376748  0.28376748  0.25000000  1.0
  As  As8  1  1.58640764  -0.14237420  0.85433516  1.0
  As  As9  1  1.14237420  -0.58640764  0.35433516  1.0
  As  As10  1  0.85762580  0.58640764  0.64566484  1.0
  As  As11  1  0.41359236  0.14237420  0.14566484  1.0
