# generated using pymatgen
data_La5Ga3
_symmetry_space_group_name_H-M   'P 1'
_cell_length_a   8.02096703
_cell_length_b   8.02096703
_cell_length_c   14.95091040
_cell_angle_alpha   90.00000000
_cell_angle_beta   90.00000000
_cell_angle_gamma   90.00000000
_symmetry_Int_Tables_number   1
_chemical_formula_structural   La5Ga3
_chemical_formula_sum   'La20 Ga12'
_cell_volume   961.88045591
_cell_formula_units_Z   4
loop_
 _symmetry_equiv_pos_site_id
 _symmetry_equiv_pos_as_xyz
  1  'x, y, z'
loop_
 _atom_site_type_symbol
 _atom_site_label
 _atom_site_symmetry_multiplicity
 _atom_site_fract_x
 _atom_site_fract_y
 _atom_site_fract_z
 _atom_site_occupancy
  La  La0  1  0.00000000  0.50000000  0.78569327  1.0
  La  La1  1  0.00000000  0.50000000  0.28569327  1.0
  La  La2  1  0.50000000  0.00000000  0.21430673  1.0
  La  La3  1  0.50000000  0.00000000  0.71430673  1.0
  La  La4  1  0.68588415  0.65978998  0.60332600  1.0
  La  La5  1  0.68588415  0.34021002  0.10332600  1.0
  La  La6  1  0.81411585  0.84021002  0.39667400  1.0
  La  La7  1  0.18588415  0.84021002  0.89667400  1.0
  La  La8  1  0.31411585  0.34021002  0.60332600  1.0
  La  La9  1  0.31411585  0.65978998  0.10332600  1.0
  La  La10  1  0.18588415  0.15978998  0.39667400  1.0
  La  La11  1  0.81411585  0.15978998  0.89667400  1.0
  La  La12  1  0.65978998  0.31411585  0.39667400  1.0
  La  La13  1  0.34021002  0.31411585  0.89667400  1.0
  La  La14  1  0.15978998  0.81411585  0.60332600  1.0
  La  La15  1  0.84021002  0.81411585  0.10332600  1.0
  La  La16  1  0.34021002  0.68588415  0.39667400  1.0
  La  La17  1  0.65978998  0.68588415  0.89667400  1.0
  La  La18  1  0.84021002  0.18588415  0.60332600  1.0
  La  La19  1  0.15978998  0.18588415  0.10332600  1.0
  Ga  Ga20  1  0.00000000  0.50000000  0.49517758  1.0
  Ga  Ga21  1  0.00000000  0.50000000  0.99517758  1.0
  Ga  Ga22  1  0.50000000  0.00000000  0.50482242  1.0
  Ga  Ga23  1  0.50000000  0.00000000  0.00482242  1.0
  Ga  Ga24  1  0.88207622  0.88207622  0.75000000  1.0
  Ga  Ga25  1  0.88207622  0.11792378  0.25000000  1.0
  Ga  Ga26  1  0.61792378  0.61792378  0.25000000  1.0
  Ga  Ga27  1  0.38207622  0.61792378  0.75000000  1.0
  Ga  Ga28  1  0.11792378  0.11792378  0.75000000  1.0
  Ga  Ga29  1  0.11792378  0.88207622  0.25000000  1.0
  Ga  Ga30  1  0.38207622  0.38207622  0.25000000  1.0
  Ga  Ga31  1  0.61792378  0.38207622  0.75000000  1.0
