# generated using pymatgen
data_C5Cl4
_symmetry_space_group_name_H-M   'P 1'
_cell_length_a   10.24046379
_cell_length_b   8.73817184
_cell_length_c   20.47948513
_cell_angle_alpha   90.00000000
_cell_angle_beta   113.48544743
_cell_angle_gamma   90.00000000
_symmetry_Int_Tables_number   1
_chemical_formula_structural   C5Cl4
_chemical_formula_sum   'C40 Cl32'
_cell_volume   1680.75717206
_cell_formula_units_Z   8
loop_
 _symmetry_equiv_pos_site_id
 _symmetry_equiv_pos_as_xyz
  1  'x, y, z'
loop_
 _atom_site_type_symbol
 _atom_site_label
 _atom_site_symmetry_multiplicity
 _atom_site_fract_x
 _atom_site_fract_y
 _atom_site_fract_z
 _atom_site_occupancy
  C  C0  1  0.96000094  0.37345763  0.26922297  1.0
  C  C1  1  0.96000094  0.12654237  0.76922297  1.0
  C  C2  1  0.03999906  0.87345763  0.23077703  1.0
  C  C3  1  0.03999906  0.62654237  0.73077703  1.0
  C  C4  1  0.94489988  0.32603697  0.38475610  1.0
  C  C5  1  0.94489988  0.17396303  0.88475610  1.0
  C  C6  1  0.05510012  0.82603697  0.11524390  1.0
  C  C7  1  0.05510012  0.67396303  0.61524390  1.0
  C  C8  1  0.90749189  0.81954377  0.08196806  1.0
  C  C9  1  0.90749189  0.68045623  0.58196806  1.0
  C  C10  1  0.09250811  0.31954377  0.41803194  1.0
  C  C11  1  0.09250811  0.18045623  0.91803194  1.0
  C  C12  1  0.88595906  0.36853322  0.19320043  1.0
  C  C13  1  0.88595906  0.13146678  0.69320043  1.0
  C  C14  1  0.11404094  0.86853322  0.30679957  1.0
  C  C15  1  0.11404094  0.63146678  0.80679957  1.0
  C  C16  1  0.87535477  0.36988722  0.31138399  1.0
  C  C17  1  0.87535477  0.13011278  0.81138399  1.0
  C  C18  1  0.12464523  0.86988722  0.18861601  1.0
  C  C19  1  0.12464523  0.63011278  0.68861601  1.0
  C  C20  1  0.88819154  0.88208434  0.19355401  1.0
  C  C21  1  0.88819154  0.61791566  0.69355401  1.0
  C  C22  1  0.11180846  0.38208434  0.30644599  1.0
  C  C23  1  0.11180846  0.11791566  0.80644599  1.0
  C  C24  1  0.82362249  0.85833064  0.12044033  1.0
  C  C25  1  0.82362249  0.64166936  0.62044033  1.0
  C  C26  1  0.17637751  0.35833064  0.37955967  1.0
  C  C27  1  0.17637751  0.14166936  0.87955967  1.0
  C  C28  1  0.73959005  0.39122386  0.16102380  1.0
  C  C29  1  0.73959005  0.10877614  0.66102380  1.0
  C  C30  1  0.26040995  0.89122386  0.33897620  1.0
  C  C31  1  0.26040995  0.60877614  0.83897620  1.0
  C  C32  1  0.72780193  0.41081841  0.27701135  1.0
  C  C33  1  0.72780193  0.08918159  0.77701135  1.0
  C  C34  1  0.27219807  0.91081841  0.22298865  1.0
  C  C35  1  0.27219807  0.58918159  0.72298865  1.0
  C  C36  1  0.66179202  0.42291603  0.20333116  1.0
  C  C37  1  0.66179202  0.07708397  0.70333116  1.0
  C  C38  1  0.33820798  0.92291603  0.29666884  1.0
  C  C39  1  0.33820798  0.57708397  0.79666884  1.0
  Cl  Cl40  1  0.96985456  0.31573879  0.13832586  1.0
  Cl  Cl41  1  0.96985456  0.18426121  0.63832586  1.0
  Cl  Cl42  1  0.03014544  0.81573879  0.36167414  1.0
  Cl  Cl43  1  0.03014544  0.68426121  0.86167414  1.0
  Cl  Cl44  1  0.85056643  0.26068595  0.43266992  1.0
  Cl  Cl45  1  0.85056643  0.23931405  0.93266992  1.0
  Cl  Cl46  1  0.14943357  0.76068595  0.06733008  1.0
  Cl  Cl47  1  0.14943357  0.73931405  0.56733008  1.0
  Cl  Cl48  1  0.82402560  0.73443670  0.49436802  1.0
  Cl  Cl49  1  0.82402560  0.76556330  0.99436802  1.0
  Cl  Cl50  1  0.17597440  0.23443670  0.00563198  1.0
  Cl  Cl51  1  0.17597440  0.26556330  0.50563198  1.0
  Cl  Cl52  1  0.77940099  0.94060478  0.23509487  1.0
  Cl  Cl53  1  0.77940099  0.55939522  0.73509487  1.0
  Cl  Cl54  1  0.22059901  0.44060478  0.26490513  1.0
  Cl  Cl55  1  0.22059901  0.05939522  0.76490513  1.0
  Cl  Cl56  1  0.65048742  0.38255124  0.07010066  1.0
  Cl  Cl57  1  0.65048742  0.11744876  0.57010066  1.0
  Cl  Cl58  1  0.34951258  0.88255124  0.42989934  1.0
  Cl  Cl59  1  0.34951258  0.61744876  0.92989934  1.0
  Cl  Cl60  1  0.63033836  0.46606422  0.32492991  1.0
  Cl  Cl61  1  0.63033836  0.03393578  0.82492991  1.0
  Cl  Cl62  1  0.36966164  0.96606422  0.17507009  1.0
  Cl  Cl63  1  0.36966164  0.53393578  0.67507009  1.0
  Cl  Cl64  1  0.48609521  0.47602363  0.16226943  1.0
  Cl  Cl65  1  0.48609521  0.02397637  0.66226943  1.0
  Cl  Cl66  1  0.51390479  0.97602363  0.33773057  1.0
  Cl  Cl67  1  0.51390479  0.52397637  0.83773057  1.0
  Cl  Cl68  1  0.35769978  0.37450814  0.42449486  1.0
  Cl  Cl69  1  0.35769978  0.12549186  0.92449486  1.0
  Cl  Cl70  1  0.64230022  0.87450814  0.07550514  1.0
  Cl  Cl71  1  0.64230022  0.62549186  0.57550514  1.0
