# generated using pymatgen
data_Lu2TlCu3Se5
_symmetry_space_group_name_H-M   'P 1'
_cell_length_a   7.47608541
_cell_length_b   7.47608541
_cell_length_c   16.79570139
_cell_angle_alpha   90.00000000
_cell_angle_beta   90.00000000
_cell_angle_gamma   148.44733616
_symmetry_Int_Tables_number   1
_chemical_formula_structural   Lu2TlCu3Se5
_chemical_formula_sum   'Lu4 Tl2 Cu6 Se10'
_cell_volume   491.22729929
_cell_formula_units_Z   2
loop_
 _symmetry_equiv_pos_site_id
 _symmetry_equiv_pos_as_xyz
  1  'x, y, z'
loop_
 _atom_site_type_symbol
 _atom_site_label
 _atom_site_symmetry_multiplicity
 _atom_site_fract_x
 _atom_site_fract_y
 _atom_site_fract_z
 _atom_site_occupancy
  Lu  Lu0  1  0.30889738  0.69110262  0.40723366  1.0
  Lu  Lu1  1  0.30889738  0.69110262  0.09276634  1.0
  Lu  Lu2  1  -0.30889738  0.30889738  0.90723366  1.0
  Lu  Lu3  1  -0.30889738  0.30889738  0.59276634  1.0
  Tl  Tl4  1  0.43667288  0.56332712  0.75000000  1.0
  Tl  Tl5  1  -0.43667288  0.43667288  0.25000000  1.0
  Cu  Cu6  1  0.08485729  0.91514271  0.47157343  1.0
  Cu  Cu7  1  0.08485729  0.91514271  0.02842657  1.0
  Cu  Cu8  1  -0.08485729  0.08485729  0.97157343  1.0
  Cu  Cu9  1  -0.08485729  0.08485729  0.52842657  1.0
  Cu  Cu10  1  0.15845467  0.84154533  0.75000000  1.0
  Cu  Cu11  1  -0.15845467  0.15845467  0.25000000  1.0
  Se  Se12  1  0.05932072  0.94067928  0.88126518  1.0
  Se  Se13  1  0.05932072  0.94067928  0.61873482  1.0
  Se  Se14  1  -0.05932072  0.05932072  0.38126518  1.0
  Se  Se15  1  -0.05932072  0.05932072  0.11873482  1.0
  Se  Se16  1  0.33246976  0.66753024  0.92741854  1.0
  Se  Se17  1  0.33246976  0.66753024  0.57258146  1.0
  Se  Se18  1  -0.33246976  0.33246976  0.42741854  1.0
  Se  Se19  1  -0.33246976  0.33246976  0.07258146  1.0
  Se  Se20  1  -0.24898477  0.24898477  0.75000000  1.0
  Se  Se21  1  0.24898477  0.75101523  0.25000000  1.0
