# generated using pymatgen
data_CaInI3
_symmetry_space_group_name_H-M   'P 1'
_cell_length_a   7.99111041
_cell_length_b   7.99111041
_cell_length_c   11.72450385
_cell_angle_alpha   90.00000000
_cell_angle_beta   90.00000000
_cell_angle_gamma   146.69909624
_symmetry_Int_Tables_number   1
_chemical_formula_structural   CaInI3
_chemical_formula_sum   'Ca2 In2 I6'
_cell_volume   411.06410929
_cell_formula_units_Z   2
loop_
 _symmetry_equiv_pos_site_id
 _symmetry_equiv_pos_as_xyz
  1  'x, y, z'
loop_
 _atom_site_type_symbol
 _atom_site_label
 _atom_site_symmetry_multiplicity
 _atom_site_fract_x
 _atom_site_fract_y
 _atom_site_fract_z
 _atom_site_occupancy
  Ca  Ca0  1  0.00000000  0.00000000  0.00000000  1.0
  Ca  Ca1  1  0.00000000  0.00000000  0.50000000  1.0
  In  In2  1  -0.26199137  0.26199137  0.75000000  1.0
  In  In3  1  0.26199137  0.73800863  0.25000000  1.0
  I  I4  1  0.36400189  0.63599811  0.94737015  1.0
  I  I5  1  0.36400189  0.63599811  0.55262985  1.0
  I  I6  1  -0.36400189  0.36400189  0.44737015  1.0
  I  I7  1  -0.36400189  0.36400189  0.05262985  1.0
  I  I8  1  0.07435885  0.92564115  0.75000000  1.0
  I  I9  1  -0.07435885  0.07435885  0.25000000  1.0
