# generated using pymatgen
data_SmAlO3
_symmetry_space_group_name_H-M   'P 1'
_cell_length_a   5.33894071
_cell_length_b   7.54056527
_cell_length_c   5.33900840
_cell_angle_alpha   90.00000000
_cell_angle_beta   90.00000000
_cell_angle_gamma   90.00000000
_symmetry_Int_Tables_number   1
_chemical_formula_structural   SmAlO3
_chemical_formula_sum   'Sm4 Al4 O12'
_cell_volume   214.94116853
_cell_formula_units_Z   4
loop_
 _symmetry_equiv_pos_site_id
 _symmetry_equiv_pos_as_xyz
  1  'x, y, z'
loop_
 _atom_site_type_symbol
 _atom_site_label
 _atom_site_symmetry_multiplicity
 _atom_site_fract_x
 _atom_site_fract_y
 _atom_site_fract_z
 _atom_site_occupancy
  Sm  Sm0  1  0.02264111  0.25000000  0.50234722  1.0
  Sm  Sm1  1  0.52264111  0.25000000  0.99765278  1.0
  Sm  Sm2  1  0.97735889  0.75000000  0.49765278  1.0
  Sm  Sm3  1  0.47735889  0.75000000  0.00234722  1.0
  Al  Al4  1  0.50000000  0.50000000  0.50000000  1.0
  Al  Al5  1  0.50000000  0.00000000  0.50000000  1.0
  Al  Al6  1  0.00000000  0.50000000  0.00000000  1.0
  Al  Al7  1  0.00000000  0.00000000  0.00000000  1.0
  O  O8  1  0.28600772  0.47122874  0.78532157  1.0
  O  O9  1  0.28600772  0.02877126  0.78532157  1.0
  O  O10  1  0.78600772  0.47122874  0.71467843  1.0
  O  O11  1  0.78600772  0.02877126  0.71467843  1.0
  O  O12  1  0.71399228  0.97122874  0.21467843  1.0
  O  O13  1  0.71399228  0.52877126  0.21467843  1.0
  O  O14  1  0.21399228  0.97122874  0.28532157  1.0
  O  O15  1  0.21399228  0.52877126  0.28532157  1.0
  O  O16  1  0.99121600  0.25000000  0.05628480  1.0
  O  O17  1  0.49121600  0.25000000  0.44371520  1.0
  O  O18  1  0.00878400  0.75000000  0.94371520  1.0
  O  O19  1  0.50878400  0.75000000  0.55628480  1.0
