# generated using pymatgen
data_CaCdPd
_symmetry_space_group_name_H-M   'P 1'
_cell_length_a   7.33241964
_cell_length_b   4.31130231
_cell_length_c   8.69276014
_cell_angle_alpha   90.00000000
_cell_angle_beta   90.00000000
_cell_angle_gamma   90.00000000
_symmetry_Int_Tables_number   1
_chemical_formula_structural   CaCdPd
_chemical_formula_sum   'Ca4 Cd4 Pd4'
_cell_volume   274.79794775
_cell_formula_units_Z   4
loop_
 _symmetry_equiv_pos_site_id
 _symmetry_equiv_pos_as_xyz
  1  'x, y, z'
loop_
 _atom_site_type_symbol
 _atom_site_label
 _atom_site_symmetry_multiplicity
 _atom_site_fract_x
 _atom_site_fract_y
 _atom_site_fract_z
 _atom_site_occupancy
  Ca  Ca0  1  0.96503759  0.75000000  0.67948265  1.0
  Ca  Ca1  1  0.46503759  0.75000000  0.82051735  1.0
  Ca  Ca2  1  0.03496241  0.25000000  0.32051735  1.0
  Ca  Ca3  1  0.53496241  0.25000000  0.17948265  1.0
  Cd  Cd4  1  0.85717457  0.75000000  0.06248251  1.0
  Cd  Cd5  1  0.35717457  0.75000000  0.43751749  1.0
  Cd  Cd6  1  0.14282543  0.25000000  0.93751749  1.0
  Cd  Cd7  1  0.64282543  0.25000000  0.56248251  1.0
  Pd  Pd8  1  0.74074765  0.75000000  0.36966262  1.0
  Pd  Pd9  1  0.24074765  0.75000000  0.13033738  1.0
  Pd  Pd10  1  0.25925235  0.25000000  0.63033738  1.0
  Pd  Pd11  1  0.75925235  0.25000000  0.86966262  1.0
