# generated using pymatgen
data_VSbO4
_symmetry_space_group_name_H-M   'P 1'
_cell_length_a   5.62770012
_cell_length_b   5.62770012
_cell_length_c   5.62770012
_cell_angle_alpha   108.13297455
_cell_angle_beta   108.13297455
_cell_angle_gamma   112.18220266
_symmetry_Int_Tables_number   1
_chemical_formula_structural   VSbO4
_chemical_formula_sum   'V2 Sb2 O8'
_cell_volume   136.97374961
_cell_formula_units_Z   2
loop_
 _symmetry_equiv_pos_site_id
 _symmetry_equiv_pos_as_xyz
  1  'x, y, z'
loop_
 _atom_site_type_symbol
 _atom_site_label
 _atom_site_symmetry_multiplicity
 _atom_site_fract_x
 _atom_site_fract_y
 _atom_site_fract_z
 _atom_site_occupancy
  V  V0  1  0.50879458  0.00879458  0.50000000  1.0
  V  V1  1  0.75879458  0.75879458  1.00000000  1.0
  Sb  Sb2  1  0.99581176  0.49581176  0.50000000  1.0
  Sb  Sb3  1  0.24581176  0.24581176  0.00000000  1.0
  O  O4  1  0.19427537  -0.00384694  0.19812231  1.0
  O  O5  1  0.79803075  -0.00384694  0.80187769  1.0
  O  O6  1  0.74615306  1.04803075  1.30187769  1.0
  O  O7  1  0.74615306  1.44427537  0.69812231  1.0
  O  O8  1  0.69287684  0.50154377  1.19133307  1.0
  O  O9  1  1.31021071  0.50154377  0.80866693  1.0
  O  O10  1  1.25154377  1.56021071  1.30866693  1.0
  O  O11  1  0.25154377  0.94287684  0.69133307  1.0
