# generated using pymatgen
data_Li2(LuGe)3
_symmetry_space_group_name_H-M   'P 1'
_cell_length_a   5.92790670
_cell_length_b   5.92790670
_cell_length_c   13.88894075
_cell_angle_alpha   90.00000000
_cell_angle_beta   90.00000000
_cell_angle_gamma   139.24540269
_symmetry_Int_Tables_number   1
_chemical_formula_structural   Li2(LuGe)3
_chemical_formula_sum   'Li4 Lu6 Ge6'
_cell_volume   318.61458501
_cell_formula_units_Z   2
loop_
 _symmetry_equiv_pos_site_id
 _symmetry_equiv_pos_as_xyz
  1  'x, y, z'
loop_
 _atom_site_type_symbol
 _atom_site_label
 _atom_site_symmetry_multiplicity
 _atom_site_fract_x
 _atom_site_fract_y
 _atom_site_fract_z
 _atom_site_occupancy
  Li  Li0  1  0.22135657  0.77864343  0.42091045  1.0
  Li  Li1  1  0.22135657  0.77864343  0.07908955  1.0
  Li  Li2  1  -0.22135657  0.22135657  0.92091045  1.0
  Li  Li3  1  -0.22135657  0.22135657  0.57908955  1.0
  Lu  Lu4  1  0.06994884  0.93005116  0.88067519  1.0
  Lu  Lu5  1  0.06994884  0.93005116  0.61932481  1.0
  Lu  Lu6  1  -0.06994884  0.06994884  0.38067519  1.0
  Lu  Lu7  1  -0.06994884  0.06994884  0.11932481  1.0
  Lu  Lu8  1  0.36209427  0.63790573  0.75000000  1.0
  Lu  Lu9  1  -0.36209427  0.36209427  0.25000000  1.0
  Ge  Ge10  1  0.40003797  0.59996203  0.95507009  1.0
  Ge  Ge11  1  0.40003797  0.59996203  0.54492991  1.0
  Ge  Ge12  1  -0.40003797  0.40003797  0.45507009  1.0
  Ge  Ge13  1  -0.40003797  0.40003797  0.04492991  1.0
  Ge  Ge14  1  -0.33263750  0.33263750  0.75000000  1.0
  Ge  Ge15  1  0.33263750  0.66736250  0.25000000  1.0
