# generated using pymatgen
data_Ta2MnO6
_symmetry_space_group_name_H-M   'P 1'
_cell_length_a   14.48178356
_cell_length_b   5.82888677
_cell_length_c   5.11957207
_cell_angle_alpha   90.00000000
_cell_angle_beta   90.00000000
_cell_angle_gamma   90.00000000
_symmetry_Int_Tables_number   1
_chemical_formula_structural   Ta2MnO6
_chemical_formula_sum   'Ta8 Mn4 O24'
_cell_volume   432.15678138
_cell_formula_units_Z   4
loop_
 _symmetry_equiv_pos_site_id
 _symmetry_equiv_pos_as_xyz
  1  'x, y, z'
loop_
 _atom_site_type_symbol
 _atom_site_label
 _atom_site_symmetry_multiplicity
 _atom_site_fract_x
 _atom_site_fract_y
 _atom_site_fract_z
 _atom_site_occupancy
  Ta  Ta0  1  0.66203484  0.67441275  0.73511485  1.0
  Ta  Ta1  1  0.66203484  0.32558725  0.23511485  1.0
  Ta  Ta2  1  0.16203484  0.17441275  0.76488515  1.0
  Ta  Ta3  1  0.16203484  0.82558725  0.26488515  1.0
  Ta  Ta4  1  0.33796516  0.67441275  0.76488515  1.0
  Ta  Ta5  1  0.33796516  0.32558725  0.26488515  1.0
  Ta  Ta6  1  0.83796516  0.17441275  0.73511485  1.0
  Ta  Ta7  1  0.83796516  0.82558725  0.23511485  1.0
  Mn  Mn8  1  0.00000000  0.66842365  0.75000000  1.0
  Mn  Mn9  1  0.00000000  0.33157635  0.25000000  1.0
  Mn  Mn10  1  0.50000000  0.16842365  0.75000000  1.0
  Mn  Mn11  1  0.50000000  0.83157635  0.25000000  1.0
  O  O12  1  0.90115374  0.89833804  0.56124269  1.0
  O  O13  1  0.90115374  0.10166196  0.06124269  1.0
  O  O14  1  0.40115374  0.39833804  0.93875731  1.0
  O  O15  1  0.40115374  0.60166196  0.43875731  1.0
  O  O16  1  0.09884626  0.89833804  0.93875731  1.0
  O  O17  1  0.09884626  0.10166196  0.43875731  1.0
  O  O18  1  0.59884626  0.39833804  0.56124269  1.0
  O  O19  1  0.59884626  0.60166196  0.06124269  1.0
  O  O20  1  0.75568624  0.87150936  0.90918976  1.0
  O  O21  1  0.75568624  0.12849064  0.40918976  1.0
  O  O22  1  0.25568624  0.37150936  0.59081024  1.0
  O  O23  1  0.25568624  0.62849064  0.09081024  1.0
  O  O24  1  0.24431376  0.87150936  0.59081024  1.0
  O  O25  1  0.24431376  0.12849064  0.09081024  1.0
  O  O26  1  0.74431376  0.37150936  0.90918976  1.0
  O  O27  1  0.74431376  0.62849064  0.40918976  1.0
  O  O28  1  0.58075719  0.88052387  0.59160937  1.0
  O  O29  1  0.58075719  0.11947613  0.09160937  1.0
  O  O30  1  0.08075719  0.38052387  0.90839063  1.0
  O  O31  1  0.08075719  0.61947613  0.40839063  1.0
  O  O32  1  0.41924281  0.88052387  0.90839063  1.0
  O  O33  1  0.41924281  0.11947613  0.40839063  1.0
  O  O34  1  0.91924281  0.38052387  0.59160937  1.0
  O  O35  1  0.91924281  0.61947613  0.09160937  1.0
