# generated using pymatgen
data_CaHfTlF7
_symmetry_space_group_name_H-M   'P 1'
_cell_length_a   6.63787576
_cell_length_b   6.63787576
_cell_length_c   8.59257884
_cell_angle_alpha   90.00000000
_cell_angle_beta   90.00000000
_cell_angle_gamma   116.75044726
_symmetry_Int_Tables_number   1
_chemical_formula_structural   CaHfTlF7
_chemical_formula_sum   'Ca2 Hf2 Tl2 F14'
_cell_volume   338.08139675
_cell_formula_units_Z   2
loop_
 _symmetry_equiv_pos_site_id
 _symmetry_equiv_pos_as_xyz
  1  'x, y, z'
loop_
 _atom_site_type_symbol
 _atom_site_label
 _atom_site_symmetry_multiplicity
 _atom_site_fract_x
 _atom_site_fract_y
 _atom_site_fract_z
 _atom_site_occupancy
  Ca  Ca0  1  -0.31065178  1.31065178  0.25000000  1.0
  Ca  Ca1  1  0.31065178  0.68934822  0.75000000  1.0
  Hf  Hf2  1  0.30662155  0.69337845  0.25000000  1.0
  Hf  Hf3  1  -0.30662155  1.30662155  0.75000000  1.0
  Tl  Tl4  1  0.00000000  0.00000000  0.50000000  1.0
  Tl  Tl5  1  0.00000000  0.00000000  0.00000000  1.0
  F  F6  1  -0.02102730  1.67212598  0.25000000  1.0
  F  F7  1  0.67212598  0.97897270  0.75000000  1.0
  F  F8  1  -0.67212598  1.02102730  0.25000000  1.0
  F  F9  1  0.02102730  0.32787402  0.75000000  1.0
  F  F10  1  0.06491367  0.35191767  0.25000000  1.0
  F  F11  1  -0.64808233  1.06491367  0.75000000  1.0
  F  F12  1  0.64808233  0.93508633  0.25000000  1.0
  F  F13  1  -0.06491367  1.64808233  0.75000000  1.0
  F  F14  1  0.29968650  0.70031350  0.48493254  1.0
  F  F15  1  0.29968650  0.70031350  0.01506746  1.0
  F  F16  1  -0.29968650  1.29968650  0.98493254  1.0
  F  F17  1  -0.29968650  1.29968650  0.51506746  1.0
  F  F18  1  0.48732380  0.51267620  0.25000000  1.0
  F  F19  1  -0.48732380  1.48732380  0.75000000  1.0
