# generated using pymatgen
data_PbI2
_symmetry_space_group_name_H-M   'P 1'
_cell_length_a   15.27574603
_cell_length_b   15.27574603
_cell_length_c   15.27574603
_cell_angle_alpha   17.54815728
_cell_angle_beta   17.54815728
_cell_angle_gamma   17.54815728
_symmetry_Int_Tables_number   1
_chemical_formula_structural   PbI2
_chemical_formula_sum   'Pb2 I4'
_cell_volume   282.82296589
_cell_formula_units_Z   2
loop_
 _symmetry_equiv_pos_site_id
 _symmetry_equiv_pos_as_xyz
  1  'x, y, z'
loop_
 _atom_site_type_symbol
 _atom_site_label
 _atom_site_symmetry_multiplicity
 _atom_site_fract_x
 _atom_site_fract_y
 _atom_site_fract_z
 _atom_site_occupancy
  Pb  Pb0  1  1.50000000  0.50000000  0.50000000  1.0
  Pb  Pb1  1  0.00000000  0.00000000  0.00000000  1.0
  I  I2  1  0.87462489  0.87462489  0.87462489  1.0
  I  I3  1  1.12537511  1.12537511  0.12537511  1.0
  I  I4  1  0.70794227  0.70794227  0.70794227  1.0
  I  I5  1  1.29205773  1.29205773  0.29205773  1.0
