# generated using pymatgen
data_HF
_symmetry_space_group_name_H-M   'P 1'
_cell_length_a   3.44832307
_cell_length_b   3.44832307
_cell_length_c   4.07616391
_cell_angle_alpha   90.00000000
_cell_angle_beta   90.00000000
_cell_angle_gamma   109.95425911
_symmetry_Int_Tables_number   1
_chemical_formula_structural   HF
_chemical_formula_sum   'H2 F2'
_cell_volume   45.55954576
_cell_formula_units_Z   2
loop_
 _symmetry_equiv_pos_site_id
 _symmetry_equiv_pos_as_xyz
  1  'x, y, z'
loop_
 _atom_site_type_symbol
 _atom_site_label
 _atom_site_symmetry_multiplicity
 _atom_site_fract_x
 _atom_site_fract_y
 _atom_site_fract_z
 _atom_site_occupancy
  H  H0  1  0.01970497  0.98029503  -0.01564689  1.0
  H  H1  1  -0.01970497  1.01970497  0.48435311  1.0
  F  F2  1  0.11240347  0.88759653  0.19564689  1.0
  F  F3  1  -0.11240347  1.11240347  0.69564689  1.0
