# generated using pymatgen
data_KMoPO7
_symmetry_space_group_name_H-M   'P 1'
_cell_length_a   6.06169597
_cell_length_b   8.46489274
_cell_length_c   12.69727666
_cell_angle_alpha   90.00000000
_cell_angle_beta   105.83086743
_cell_angle_gamma   90.00000000
_symmetry_Int_Tables_number   1
_chemical_formula_structural   KMoPO7
_chemical_formula_sum   'K4 Mo4 P4 O28'
_cell_volume   626.80635483
_cell_formula_units_Z   4
loop_
 _symmetry_equiv_pos_site_id
 _symmetry_equiv_pos_as_xyz
  1  'x, y, z'
loop_
 _atom_site_type_symbol
 _atom_site_label
 _atom_site_symmetry_multiplicity
 _atom_site_fract_x
 _atom_site_fract_y
 _atom_site_fract_z
 _atom_site_occupancy
  Mo  Mo0  1  0.55810552  0.26757822  0.38716913  1.0
  Mo  Mo1  1  0.55810552  0.23242178  0.88716913  1.0
  Mo  Mo2  1  0.44189448  0.76757822  0.11283087  1.0
  Mo  Mo3  1  0.44189448  0.73242178  0.61283087  1.0
  P  P4  1  0.48911642  0.37426661  0.12900251  1.0
  P  P5  1  0.48911642  0.12573339  0.62900251  1.0
  P  P6  1  0.51088358  0.87426661  0.37099749  1.0
  P  P7  1  0.51088358  0.62573339  0.87099749  1.0
  O  O8  1  0.29580881  0.35985312  0.35017551  1.0
  O  O9  1  0.29580881  0.14014688  0.85017551  1.0
  O  O10  1  0.70419119  0.85985312  0.14982449  1.0
  O  O11  1  0.70419119  0.64014688  0.64982449  1.0
  O  O12  1  0.40431136  0.03988836  0.34417730  1.0
  O  O13  1  0.40431136  0.46011164  0.84417730  1.0
  O  O14  1  0.59568864  0.53988836  0.15582270  1.0
  O  O15  1  0.59568864  0.96011164  0.65582270  1.0
  O  O16  1  0.75758258  0.41651280  0.42560632  1.0
  O  O17  1  0.75758258  0.08348720  0.92560632  1.0
  O  O18  1  0.24241742  0.91651280  0.07439368  1.0
  O  O19  1  0.24241742  0.58348720  0.57439368  1.0
  O  O20  1  0.59022936  0.29703485  0.03923126  1.0
  O  O21  1  0.59022936  0.20296515  0.53923126  1.0
  O  O22  1  0.40977064  0.79703485  0.46076874  1.0
  O  O23  1  0.40977064  0.70296515  0.96076874  1.0
  O  O24  1  0.58142210  0.26096932  0.22964435  1.0
  O  O25  1  0.58142210  0.23903068  0.72964435  1.0
  O  O26  1  0.41857790  0.76096932  0.27035565  1.0
  O  O27  1  0.41857790  0.73903068  0.77035565  1.0
  O  O28  1  0.85269532  0.11177127  0.37740847  1.0
  O  O29  1  0.85269532  0.38822873  0.87740847  1.0
  O  O30  1  0.14730468  0.61177127  0.12259153  1.0
  O  O31  1  0.14730468  0.88822873  0.62259153  1.0
  O  O32  1  0.77529869  0.87369867  0.40561052  1.0
  O  O33  1  0.77529869  0.62630133  0.90561052  1.0
  O  O34  1  0.22470131  0.37369867  0.09438948  1.0
  O  O35  1  0.22470131  0.12630133  0.59438948  1.0
  K  K36  1  0.99894980  0.12262459  0.17121199  1.0
  K  K37  1  0.99894980  0.37737541  0.67121199  1.0
  K  K38  1  0.00105020  0.62262459  0.32878801  1.0
  K  K39  1  0.00105020  0.87737541  0.82878801  1.0
