# generated using pymatgen
data_PPdS
_symmetry_space_group_name_H-M   'P 1'
_cell_length_a   14.46119918
_cell_length_b   5.70453713
_cell_length_c   5.73356386
_cell_angle_alpha   90.00000000
_cell_angle_beta   90.00000000
_cell_angle_gamma   90.00000000
_symmetry_Int_Tables_number   1
_chemical_formula_structural   PPdS
_chemical_formula_sum   'P8 Pd8 S8'
_cell_volume   472.98718344
_cell_formula_units_Z   8
loop_
 _symmetry_equiv_pos_site_id
 _symmetry_equiv_pos_as_xyz
  1  'x, y, z'
loop_
 _atom_site_type_symbol
 _atom_site_label
 _atom_site_symmetry_multiplicity
 _atom_site_fract_x
 _atom_site_fract_y
 _atom_site_fract_z
 _atom_site_occupancy
  P  P0  1  0.42360736  0.13061870  0.78127503  1.0
  P  P1  1  0.42360736  0.86938130  0.28127503  1.0
  P  P2  1  0.92360736  0.63061870  0.71872497  1.0
  P  P3  1  0.92360736  0.36938130  0.21872497  1.0
  P  P4  1  0.57639264  0.13061870  0.71872497  1.0
  P  P5  1  0.57639264  0.86938130  0.21872497  1.0
  P  P6  1  0.07639264  0.63061870  0.78127503  1.0
  P  P7  1  0.07639264  0.36938130  0.28127503  1.0
  Pd  Pd8  1  0.10472216  0.25083757  0.65976382  1.0
  Pd  Pd9  1  0.10472216  0.74916243  0.15976382  1.0
  Pd  Pd10  1  0.60472216  0.75083757  0.84023618  1.0
  Pd  Pd11  1  0.60472216  0.24916243  0.34023618  1.0
  Pd  Pd12  1  0.89527784  0.25083757  0.84023618  1.0
  Pd  Pd13  1  0.89527784  0.74916243  0.34023618  1.0
  Pd  Pd14  1  0.39527784  0.75083757  0.65976382  1.0
  Pd  Pd15  1  0.39527784  0.24916243  0.15976382  1.0
  S  S16  1  0.35584093  0.36323486  0.54552336  1.0
  S  S17  1  0.35584093  0.63676514  0.04552336  1.0
  S  S18  1  0.85584093  0.86323486  0.95447664  1.0
  S  S19  1  0.85584093  0.13676514  0.45447664  1.0
  S  S20  1  0.64415907  0.36323486  0.95447664  1.0
  S  S21  1  0.64415907  0.63676514  0.45447664  1.0
  S  S22  1  0.14415907  0.86323486  0.54552336  1.0
  S  S23  1  0.14415907  0.13676514  0.04552336  1.0
