# generated using pymatgen
data_LiAsF6
_symmetry_space_group_name_H-M   'P 1'
_cell_length_a   5.38782854
_cell_length_b   5.38782854
_cell_length_c   5.38782854
_cell_angle_alpha   58.16421001
_cell_angle_beta   58.16421001
_cell_angle_gamma   58.16421001
_symmetry_Int_Tables_number   1
_chemical_formula_structural   LiAsF6
_chemical_formula_sum   'Li1 As1 F6'
_cell_volume   105.93964756
_cell_formula_units_Z   1
loop_
 _symmetry_equiv_pos_site_id
 _symmetry_equiv_pos_as_xyz
  1  'x, y, z'
loop_
 _atom_site_type_symbol
 _atom_site_label
 _atom_site_symmetry_multiplicity
 _atom_site_fract_x
 _atom_site_fract_y
 _atom_site_fract_z
 _atom_site_occupancy
  Li  Li0  1  0.50000000  0.50000000  -0.50000000  1.0
  As  As1  1  -0.00000000  0.00000000  -0.00000000  1.0
  F  F2  1  0.13935927  0.77172158  -0.67899211  1.0
  F  F3  1  0.67899211  -0.13935927  0.22827842  1.0
  F  F4  1  1.22827842  -0.32100789  -0.13935927  1.0
  F  F5  1  0.86064073  0.22827842  -0.32100789  1.0
  F  F6  1  0.32100789  0.13935927  -0.22827842  1.0
  F  F7  1  0.77172158  0.32100789  -0.86064073  1.0
