# generated using pymatgen
data_GdMoO5
_symmetry_space_group_name_H-M   'P 1'
_cell_length_a   5.36276841
_cell_length_b   12.74396143
_cell_length_c   6.99796838
_cell_angle_alpha   90.00000000
_cell_angle_beta   115.29704529
_cell_angle_gamma   90.00000000
_symmetry_Int_Tables_number   1
_chemical_formula_structural   GdMoO5
_chemical_formula_sum   'Gd4 Mo4 O20'
_cell_volume   432.39846049
_cell_formula_units_Z   4
loop_
 _symmetry_equiv_pos_site_id
 _symmetry_equiv_pos_as_xyz
  1  'x, y, z'
loop_
 _atom_site_type_symbol
 _atom_site_label
 _atom_site_symmetry_multiplicity
 _atom_site_fract_x
 _atom_site_fract_y
 _atom_site_fract_z
 _atom_site_occupancy
  O  O0  1  0.98678450  0.92284037  0.33609443  1.0
  O  O1  1  0.98678450  0.57715963  0.83609443  1.0
  O  O2  1  0.01321550  0.42284037  0.16390557  1.0
  O  O3  1  0.01321550  0.07715963  0.66390557  1.0
  O  O4  1  0.78597857  0.23594758  0.27779156  1.0
  O  O5  1  0.78597857  0.26405242  0.77779156  1.0
  O  O6  1  0.21402143  0.73594758  0.22220844  1.0
  O  O7  1  0.21402143  0.76405242  0.72220844  1.0
  O  O8  1  0.76388730  0.65724359  0.41802128  1.0
  O  O9  1  0.76388730  0.84275641  0.91802128  1.0
  O  O10  1  0.23611270  0.15724359  0.08197872  1.0
  O  O11  1  0.23611270  0.34275641  0.58197872  1.0
  O  O12  1  0.70741406  0.43898487  0.45280985  1.0
  O  O13  1  0.70741406  0.06101513  0.95280985  1.0
  O  O14  1  0.29258594  0.93898487  0.04719015  1.0
  O  O15  1  0.29258594  0.56101513  0.54719015  1.0
  O  O16  1  0.44888878  0.44576162  0.00729260  1.0
  O  O17  1  0.44888878  0.05423838  0.50729260  1.0
  O  O18  1  0.55111122  0.94576162  0.49270740  1.0
  O  O19  1  0.55111122  0.55423838  0.99270740  1.0
  Mo  Mo20  1  0.92410740  0.36179794  0.36097451  1.0
  Mo  Mo21  1  0.92410740  0.13820206  0.86097451  1.0
  Mo  Mo22  1  0.07589260  0.86179794  0.13902549  1.0
  Mo  Mo23  1  0.07589260  0.63820206  0.63902549  1.0
  Gd  Gd24  1  0.65797636  0.05980066  0.28469568  1.0
  Gd  Gd25  1  0.65797636  0.44019934  0.78469568  1.0
  Gd  Gd26  1  0.34202364  0.55980066  0.21530432  1.0
  Gd  Gd27  1  0.34202364  0.94019934  0.71530432  1.0
