# generated using pymatgen
data_Ca3Ti2O7
_symmetry_space_group_name_H-M   'P 1'
_cell_length_a   10.17309191
_cell_length_b   10.17309191
_cell_length_c   10.17309191
_cell_angle_alpha   158.05050130
_cell_angle_beta   158.05050130
_cell_angle_gamma   31.23724295
_symmetry_Int_Tables_number   1
_chemical_formula_structural   Ca3Ti2O7
_chemical_formula_sum   'Ca3 Ti2 O7'
_cell_volume   146.99586784
_cell_formula_units_Z   1
loop_
 _symmetry_equiv_pos_site_id
 _symmetry_equiv_pos_as_xyz
  1  'x, y, z'
loop_
 _atom_site_type_symbol
 _atom_site_label
 _atom_site_symmetry_multiplicity
 _atom_site_fract_x
 _atom_site_fract_y
 _atom_site_fract_z
 _atom_site_occupancy
  Ca  Ca0  1  0.68524247  0.68524247  1.00000000  1.0
  Ca  Ca1  1  0.31475753  0.31475753  0.00000000  1.0
  Ca  Ca2  1  0.50000000  0.50000000  1.00000000  1.0
  Ti  Ti3  1  0.89910560  0.89910560  1.00000000  1.0
  Ti  Ti4  1  0.10089440  0.10089440  0.00000000  1.0
  O  O5  1  0.40105567  0.90105567  0.50000000  1.0
  O  O6  1  0.59894433  0.09894433  0.50000000  1.0
  O  O7  1  0.90105567  0.40105567  0.50000000  1.0
  O  O8  1  0.09894433  0.59894433  0.50000000  1.0
  O  O9  1  0.80012660  0.80012660  1.00000000  1.0
  O  O10  1  0.19987340  0.19987340  0.00000000  1.0
  O  O11  1  0.00000000  0.00000000  0.00000000  1.0
