# generated using pymatgen
data_Sr2MgReO6
_symmetry_space_group_name_H-M   'P 1'
_cell_length_a   5.63439649
_cell_length_b   5.63439649
_cell_length_c   5.63439649
_cell_angle_alpha   120.37364590
_cell_angle_beta   120.37364590
_cell_angle_gamma   89.35403556
_symmetry_Int_Tables_number   1
_chemical_formula_structural   Sr2MgReO6
_chemical_formula_sum   'Sr2 Mg1 Re1 O6'
_cell_volume   125.75857284
_cell_formula_units_Z   1
loop_
 _symmetry_equiv_pos_site_id
 _symmetry_equiv_pos_as_xyz
  1  'x, y, z'
loop_
 _atom_site_type_symbol
 _atom_site_label
 _atom_site_symmetry_multiplicity
 _atom_site_fract_x
 _atom_site_fract_y
 _atom_site_fract_z
 _atom_site_occupancy
  Sr  Sr0  1  0.25000000  0.75000000  0.50000000  1.0
  Sr  Sr1  1  0.75000000  0.25000000  0.50000000  1.0
  Mg  Mg2  1  0.50000000  0.50000000  1.00000000  1.0
  Re  Re3  1  0.00000000  0.00000000  0.00000000  1.0
  O  O4  1  0.72540713  0.79277987  1.51818700  1.0
  O  O5  1  0.20722013  0.72540713  0.93262726  1.0
  O  O6  1  0.27459287  0.20722013  0.48181300  1.0
  O  O7  1  0.79277987  0.27459287  1.06737274  1.0
  O  O8  1  0.75859019  0.75859019  1.00000000  1.0
  O  O9  1  0.24140981  0.24140981  0.00000000  1.0
