# generated using pymatgen
data_BaSc2O4
_symmetry_space_group_name_H-M   'P 1'
_cell_length_a   5.75756529
_cell_length_b   5.75756529
_cell_length_c   20.71359789
_cell_angle_alpha   89.95552139
_cell_angle_beta   90.04447861
_cell_angle_gamma   118.74755424
_symmetry_Int_Tables_number   1
_chemical_formula_structural   BaSc2O4
_chemical_formula_sum   'Ba6 Sc12 O24'
_cell_volume   602.01531295
_cell_formula_units_Z   6
loop_
 _symmetry_equiv_pos_site_id
 _symmetry_equiv_pos_as_xyz
  1  'x, y, z'
loop_
 _atom_site_type_symbol
 _atom_site_label
 _atom_site_symmetry_multiplicity
 _atom_site_fract_x
 _atom_site_fract_y
 _atom_site_fract_z
 _atom_site_occupancy
  Ba  Ba0  1  0.27437444  -0.05649796  0.63791072  1.0
  Ba  Ba1  1  1.05649796  0.72562556  0.13791072  1.0
  Ba  Ba2  1  0.94350204  -0.72562556  0.86208928  1.0
  Ba  Ba3  1  1.72562556  0.05649796  0.36208928  1.0
  Ba  Ba4  1  0.60888679  -0.39111321  0.75000000  1.0
  Ba  Ba5  1  1.39111321  0.39111321  0.25000000  1.0
  Sc  Sc6  1  0.28455751  -0.04143633  0.94731630  1.0
  Sc  Sc7  1  1.04143633  0.71544249  0.44731630  1.0
  Sc  Sc8  1  0.95856367  -0.71544249  0.55268370  1.0
  Sc  Sc9  1  1.71544249  0.04143633  0.05268370  1.0
  Sc  Sc10  1  0.27814191  -0.05898345  0.80472003  1.0
  Sc  Sc11  1  1.05898345  0.72185809  0.30472003  1.0
  Sc  Sc12  1  0.94101655  -0.72185809  0.69527997  1.0
  Sc  Sc13  1  1.72185809  0.05898345  0.19527997  1.0
  Sc  Sc14  1  0.61757440  -0.38617230  0.92941064  1.0
  Sc  Sc15  1  1.38617230  0.38242560  0.42941064  1.0
  Sc  Sc16  1  0.61382770  -0.38242560  0.57058936  1.0
  Sc  Sc17  1  1.38242560  0.38617230  0.07058936  1.0
  O  O18  1  1.40509857  0.27133946  0.87642245  1.0
  O  O19  1  0.72866054  -0.40509857  0.37642245  1.0
  O  O20  1  1.27133946  0.40509857  0.62357755  1.0
  O  O21  1  0.59490143  -0.27133946  0.12357755  1.0
  O  O22  1  1.25107630  0.03475543  0.38101901  1.0
  O  O23  1  0.96524457  -0.25107630  0.88101901  1.0
  O  O24  1  1.03475543  0.25107630  0.11898099  1.0
  O  O25  1  0.74892370  -0.03475543  0.61898099  1.0
  O  O26  1  1.59757562  0.29278019  0.99677059  1.0
  O  O27  1  0.70721981  -0.59757562  0.49677059  1.0
  O  O28  1  1.29278019  0.59757562  0.50322941  1.0
  O  O29  1  0.40242438  -0.29278019  0.00322941  1.0
  O  O30  1  1.60450869  0.13416627  0.74859324  1.0
  O  O31  1  0.86583373  -0.60450869  0.24859324  1.0
  O  O32  1  1.13416627  0.60450869  0.75140676  1.0
  O  O33  1  0.39549131  -0.13416627  0.25140676  1.0
  O  O34  1  0.48103482  -0.17979142  0.87527340  1.0
  O  O35  1  1.17979142  0.51896518  0.37527340  1.0
  O  O36  1  0.82020858  -0.51896518  0.62472660  1.0
  O  O37  1  1.51896518  0.17979142  0.12472660  1.0
  O  O38  1  1.07211997  0.07211997  0.75000000  1.0
  O  O39  1  0.92788003  -0.07211997  0.25000000  1.0
  O  O40  1  0.00000000  0.00000000  0.00000000  1.0
  O  O41  1  0.00000000  -0.00000000  0.50000000  1.0
