# generated using pymatgen
data_CaTe3O8
_symmetry_space_group_name_H-M   'P 1'
_cell_length_a   6.92864098
_cell_length_b   6.92864098
_cell_length_c   10.48223329
_cell_angle_alpha   65.61163032
_cell_angle_beta   114.38836968
_cell_angle_gamma   130.06319541
_symmetry_Int_Tables_number   1
_chemical_formula_structural   CaTe3O8
_chemical_formula_sum   'Ca2 Te6 O16'
_cell_volume   342.85401580
_cell_formula_units_Z   2
loop_
 _symmetry_equiv_pos_site_id
 _symmetry_equiv_pos_as_xyz
  1  'x, y, z'
loop_
 _atom_site_type_symbol
 _atom_site_label
 _atom_site_symmetry_multiplicity
 _atom_site_fract_x
 _atom_site_fract_y
 _atom_site_fract_z
 _atom_site_occupancy
  Ca  Ca0  1  0.57089034  0.57089034  0.25000000  1.0
  Ca  Ca1  1  0.42910966  0.42910966  0.75000000  1.0
  Te  Te2  1  0.31324326  -0.13040893  0.36044950  1.0
  Te  Te3  1  1.13040893  -0.31324326  0.86044950  1.0
  Te  Te4  1  0.86959107  0.31324326  0.13955050  1.0
  Te  Te5  1  1.68675674  0.13040893  0.63955050  1.0
  Te  Te6  1  -0.00000000  0.00000000  0.50000000  1.0
  Te  Te7  1  0.00000000  0.00000000  0.00000000  1.0
  O  O8  1  0.64951863  -0.12806917  0.37063950  1.0
  O  O9  1  1.12806917  -0.64951863  0.87063950  1.0
  O  O10  1  0.87193083  0.64951863  0.12936050  1.0
  O  O11  1  1.35048137  0.12806917  0.62936050  1.0
  O  O12  1  1.79993418  0.00397337  0.09459323  1.0
  O  O13  1  0.99602663  -0.79993418  0.59459323  1.0
  O  O14  1  1.00397337  0.79993418  0.40540677  1.0
  O  O15  1  0.20006582  -0.00397337  0.90540677  1.0
  O  O16  1  0.57134567  0.21692681  0.41012303  1.0
  O  O17  1  0.78307319  0.42865433  0.91012303  1.0
  O  O18  1  1.21692681  -0.42865433  0.08987697  1.0
  O  O19  1  1.42865433  -0.21692681  0.58987697  1.0
  O  O20  1  0.31529362  0.14442180  0.15776181  1.0
  O  O21  1  0.85557820  0.68470638  0.65776181  1.0
  O  O22  1  1.14442180  -0.68470638  0.34223819  1.0
  O  O23  1  1.68470638  -0.14442180  0.84223819  1.0
