# generated using pymatgen
data_KScBP2HO9
_symmetry_space_group_name_H-M   'P 1'
_cell_length_a   8.52570993
_cell_length_b   8.37563212
_cell_length_c   5.33727259
_cell_angle_alpha   80.02605394
_cell_angle_beta   86.66148706
_cell_angle_gamma   88.21291031
_symmetry_Int_Tables_number   1
_chemical_formula_structural   KScBP2HO9
_chemical_formula_sum   'K2 Sc2 B2 P4 H2 O18'
_cell_volume   374.64166658
_cell_formula_units_Z   2
loop_
 _symmetry_equiv_pos_site_id
 _symmetry_equiv_pos_as_xyz
  1  'x, y, z'
loop_
 _atom_site_type_symbol
 _atom_site_label
 _atom_site_symmetry_multiplicity
 _atom_site_fract_x
 _atom_site_fract_y
 _atom_site_fract_z
 _atom_site_occupancy
  K  K0  1  0.67406247  0.87837363  0.28175298  1.0
  K  K1  1  0.32593753  0.12162637  0.71824702  1.0
  Sc  Sc2  1  0.80646950  0.20211316  0.71548084  1.0
  Sc  Sc3  1  0.19353050  0.79788684  0.28451916  1.0
  B  B4  1  0.72403235  0.56495845  0.88895523  1.0
  B  B5  1  0.27596765  0.43504155  0.11104477  1.0
  P  P6  1  0.42186762  0.70036181  0.81000853  1.0
  P  P7  1  0.57813238  0.29963819  0.18999147  1.0
  P  P8  1  0.94136464  0.80551676  0.78950704  1.0
  P  P9  1  0.05863536  0.19448324  0.21049296  1.0
  H  H10  1  0.87790422  0.52703563  0.60381568  1.0
  H  H11  1  0.12209578  0.47296437  0.39618432  1.0
  O  O12  1  0.59937474  0.20557282  0.96565980  1.0
  O  O13  1  0.40062526  0.79442718  0.03434020  1.0
  O  O14  1  0.83804033  0.67231232  0.96823651  1.0
  O  O15  1  0.16195967  0.32768768  0.03176349  1.0
  O  O16  1  0.07514128  0.84098760  0.94921970  1.0
  O  O17  1  0.92485872  0.15901240  0.05078030  1.0
  O  O18  1  0.34135700  0.53117014  0.87626327  1.0
  O  O19  1  0.65864300  0.46882986  0.12373673  1.0
  O  O20  1  0.83258762  0.95603376  0.71318749  1.0
  O  O21  1  0.16741238  0.04396624  0.28681251  1.0
  O  O22  1  0.60104919  0.66835654  0.74456544  1.0
  O  O23  1  0.39895081  0.33164346  0.25543456  1.0
  O  O24  1  0.80065220  0.46201638  0.71762606  1.0
  O  O25  1  0.19934780  0.53798362  0.28237394  1.0
  O  O26  1  0.35926276  0.79689056  0.56399594  1.0
  O  O27  1  0.64073724  0.20310944  0.43600406  1.0
  O  O28  1  0.99957875  0.73692751  0.54657760  1.0
  O  O29  1  0.00042125  0.26307249  0.45342240  1.0
