# generated using pymatgen
data_EuInPd
_symmetry_space_group_name_H-M   'P 1'
_cell_length_a   7.43192999
_cell_length_b   4.50938579
_cell_length_c   8.57341269
_cell_angle_alpha   90.00000000
_cell_angle_beta   90.00000000
_cell_angle_gamma   90.00000000
_symmetry_Int_Tables_number   1
_chemical_formula_structural   EuInPd
_chemical_formula_sum   'Eu4 In4 Pd4'
_cell_volume   287.32454727
_cell_formula_units_Z   4
loop_
 _symmetry_equiv_pos_site_id
 _symmetry_equiv_pos_as_xyz
  1  'x, y, z'
loop_
 _atom_site_type_symbol
 _atom_site_label
 _atom_site_symmetry_multiplicity
 _atom_site_fract_x
 _atom_site_fract_y
 _atom_site_fract_z
 _atom_site_occupancy
  Eu  Eu0  1  1.03519322  0.75000000  0.68008569  1.0
  Eu  Eu1  1  0.53519322  0.75000000  0.81991431  1.0
  Eu  Eu2  1  -0.03519322  0.25000000  0.31991431  1.0
  Eu  Eu3  1  0.46480678  0.25000000  0.18008569  1.0
  In  In4  1  0.64672262  0.75000000  0.43670539  1.0
  In  In5  1  0.14672262  0.75000000  0.06329461  1.0
  In  In6  1  0.35327738  0.25000000  0.56329461  1.0
  In  In7  1  0.85327738  0.25000000  0.93670539  1.0
  Pd  Pd8  1  0.76607269  0.75000000  0.12334472  1.0
  Pd  Pd9  1  0.26607269  0.75000000  0.37665528  1.0
  Pd  Pd10  1  0.23392731  0.25000000  0.87665528  1.0
  Pd  Pd11  1  0.73392731  0.25000000  0.62334472  1.0
