# generated using pymatgen
data_Na5Lu(WO4)4
_symmetry_space_group_name_H-M   'P 1'
_cell_length_a   9.97788252
_cell_length_b   9.97788252
_cell_length_c   9.97788252
_cell_angle_alpha   109.26979180
_cell_angle_beta   109.26979180
_cell_angle_gamma   109.87483378
_symmetry_Int_Tables_number   1
_chemical_formula_structural   Na5Lu(WO4)4
_chemical_formula_sum   'Na10 Lu2 W8 O32'
_cell_volume   764.67535027
_cell_formula_units_Z   2
loop_
 _symmetry_equiv_pos_site_id
 _symmetry_equiv_pos_as_xyz
  1  'x, y, z'
loop_
 _atom_site_type_symbol
 _atom_site_label
 _atom_site_symmetry_multiplicity
 _atom_site_fract_x
 _atom_site_fract_y
 _atom_site_fract_z
 _atom_site_occupancy
  Na  Na0  1  0.25000000  0.75000000  0.50000000  1.0
  Na  Na1  1  0.50000000  0.50000000  -0.00000000  1.0
  Na  Na2  1  1.17452886  1.58925661  0.82456707  1.0
  Na  Na3  1  0.76468954  1.34996179  1.17543293  1.0
  Na  Na4  1  0.33925661  1.01468954  0.91472775  1.0
  Na  Na5  1  1.09996179  0.42452886  1.08527225  1.0
  Na  Na6  1  1.57547114  1.66074339  1.67543293  1.0
  Na  Na7  1  0.98531046  0.90003821  1.32456707  1.0
  Na  Na8  1  1.41074339  1.23531046  1.58527225  1.0
  Na  Na9  1  0.65003821  0.82547114  0.41472775  1.0
  Lu  Lu10  1  0.75000000  0.25000000  0.50000000  1.0
  Lu  Lu11  1  1.00000000  1.00000000  1.00000000  1.0
  W  W12  1  0.67200037  1.08168716  0.77453626  1.0
  W  W13  1  1.30715090  0.89746411  1.22546374  1.0
  W  W14  1  0.83168716  1.55715090  0.90968679  1.0
  W  W15  1  0.64746411  0.92200037  1.09031321  1.0
  W  W16  1  1.07799963  1.16831284  1.72546374  1.0
  W  W17  1  0.44284910  0.35253589  0.27453626  1.0
  W  W18  1  0.91831284  0.69284910  1.59031321  1.0
  W  W19  1  1.10253589  1.32799963  1.40968679  1.0
  O  O20  1  1.31838508  1.42331783  1.53562071  1.0
  O  O21  1  0.88769712  0.78276437  1.46437929  1.0
  O  O22  1  1.17331783  1.13769712  1.60493275  1.0
  O  O23  1  0.53276437  0.56838508  0.39506725  1.0
  O  O24  1  0.43161492  0.82668217  0.96437929  1.0
  O  O25  1  0.86230288  1.46723563  1.03562071  1.0
  O  O26  1  0.57668217  1.11230288  0.89506725  1.0
  O  O27  1  1.21723563  0.68161492  1.10493275  1.0
  O  O28  1  0.86405427  1.10668185  0.59693080  1.0
  O  O29  1  1.50975105  1.26712347  1.40306920  1.0
  O  O30  1  1.85668185  1.75975105  1.74262757  1.0
  O  O31  1  1.01712347  1.11405427  1.25737243  1.0
  O  O32  1  0.88594573  0.14331815  0.90306920  1.0
  O  O33  1  0.24024895  0.98287653  1.09693080  1.0
  O  O34  1  0.89331815  1.49024895  0.75737243  1.0
  O  O35  1  0.73287653  1.13594573  1.24262757  1.0
  O  O36  1  1.02142114  1.34973119  0.54849984  1.0
  O  O37  1  0.80123135  0.47292129  0.45150016  1.0
  O  O38  1  1.09973119  1.05123135  1.82831005  1.0
  O  O39  1  1.22292129  1.27142114  1.17168995  1.0
  O  O40  1  1.72857886  0.90026881  0.95150016  1.0
  O  O41  1  0.94876865  0.77707871  1.04849984  1.0
  O  O42  1  0.65026881  1.19876865  0.67168995  1.0
  O  O43  1  0.52707871  0.97857886  1.32831005  1.0
  O  O44  1  0.54754233  0.86919945  0.61793402  1.0
  O  O45  1  1.25126543  0.92960831  1.38206598  1.0
  O  O46  1  1.61919945  1.50126543  1.82165712  1.0
  O  O47  1  0.67960831  0.79754233  0.17834288  1.0
  O  O48  1  1.20245767  0.38080055  0.88206598  1.0
  O  O49  1  0.49873457  1.32039169  1.11793402  1.0
  O  O50  1  0.13080055  0.74873457  0.67834288  1.0
  O  O51  1  1.07039169  0.45245767  1.32165712  1.0
