# generated using pymatgen
data_TbPRu2C
_symmetry_space_group_name_H-M   'P 1'
_cell_length_a   5.83054097
_cell_length_b   5.83054097
_cell_length_c   7.05405124
_cell_angle_alpha   90.00000000
_cell_angle_beta   90.00000000
_cell_angle_gamma   142.01471934
_symmetry_Int_Tables_number   1
_chemical_formula_structural   TbPRu2C
_chemical_formula_sum   'Tb2 P2 Ru4 C2'
_cell_volume   147.58949604
_cell_formula_units_Z   2
loop_
 _symmetry_equiv_pos_site_id
 _symmetry_equiv_pos_as_xyz
  1  'x, y, z'
loop_
 _atom_site_type_symbol
 _atom_site_label
 _atom_site_symmetry_multiplicity
 _atom_site_fract_x
 _atom_site_fract_y
 _atom_site_fract_z
 _atom_site_occupancy
  Tb  Tb0  1  0.45438231  0.54561769  0.75000000  1.0
  Tb  Tb1  1  -0.45438231  0.45438231  0.25000000  1.0
  P  P2  1  -0.26986775  0.26986775  0.75000000  1.0
  P  P3  1  0.26986775  0.73013225  0.25000000  1.0
  Ru  Ru4  1  0.16549361  0.83450639  0.94654499  1.0
  Ru  Ru5  1  0.16549361  0.83450639  0.55345501  1.0
  Ru  Ru6  1  -0.16549361  0.16549361  0.44654499  1.0
  Ru  Ru7  1  -0.16549361  0.16549361  0.05345501  1.0
  C  C8  1  0.00000000  0.00000000  0.00000000  1.0
  C  C9  1  0.00000000  0.00000000  0.50000000  1.0
