# generated using pymatgen
data_Fe2O
_symmetry_space_group_name_H-M   'P 1'
_cell_length_a   2.56248940
_cell_length_b   2.56248940
_cell_length_c   9.48223571
_cell_angle_alpha   90.00000000
_cell_angle_beta   90.00000000
_cell_angle_gamma   120.00000000
_symmetry_Int_Tables_number   1
_chemical_formula_structural   Fe2O
_chemical_formula_sum   'Fe4 O2'
_cell_volume   53.92194328
_cell_formula_units_Z   2
loop_
 _symmetry_equiv_pos_site_id
 _symmetry_equiv_pos_as_xyz
  1  'x, y, z'
loop_
 _atom_site_type_symbol
 _atom_site_label
 _atom_site_symmetry_multiplicity
 _atom_site_fract_x
 _atom_site_fract_y
 _atom_site_fract_z
 _atom_site_occupancy
  Fe  Fe0  1  0.66666667  0.33333333  0.10126566  1.0
  Fe  Fe1  1  0.33333333  0.66666667  0.89873434  1.0
  Fe  Fe2  1  0.33333333  0.66666667  0.60126566  1.0
  Fe  Fe3  1  0.66666667  0.33333333  0.39873434  1.0
  O  O4  1  -0.00000000  -0.00000000  0.75000000  1.0
  O  O5  1  0.00000000  0.00000000  0.25000000  1.0
