# generated using pymatgen
data_Sc11Os4
_symmetry_space_group_name_H-M   'P 1'
_cell_length_a   9.45848857
_cell_length_b   9.45848857
_cell_length_c   9.45848857
_cell_angle_alpha   60.00000000
_cell_angle_beta   60.00000000
_cell_angle_gamma   60.00000000
_symmetry_Int_Tables_number   1
_chemical_formula_structural   Sc11Os4
_chemical_formula_sum   'Sc22 Os8'
_cell_volume   598.34302484
_cell_formula_units_Z   2
loop_
 _symmetry_equiv_pos_site_id
 _symmetry_equiv_pos_as_xyz
  1  'x, y, z'
loop_
 _atom_site_type_symbol
 _atom_site_label
 _atom_site_symmetry_multiplicity
 _atom_site_fract_x
 _atom_site_fract_y
 _atom_site_fract_z
 _atom_site_occupancy
  Sc  Sc0  1  0.88279808  0.88279808  -0.11720192  1.0
  Sc  Sc1  1  1.11720192  0.11720192  0.64839425  1.0
  Sc  Sc2  1  1.11720192  0.64839425  0.11720192  1.0
  Sc  Sc3  1  0.35160575  0.88279808  -0.11720192  1.0
  Sc  Sc4  1  1.64839425  0.11720192  0.11720192  1.0
  Sc  Sc5  1  0.88279808  0.35160575  -0.11720192  1.0
  Sc  Sc6  1  0.88279808  0.88279808  -0.64839425  1.0
  Sc  Sc7  1  1.11720192  0.11720192  0.11720192  1.0
  Sc  Sc8  1  0.65579084  0.65579084  -0.34420916  1.0
  Sc  Sc9  1  0.34420916  1.34420916  -0.03262748  1.0
  Sc  Sc10  1  1.34420916  -0.03262748  0.34420916  1.0
  Sc  Sc11  1  1.03262748  0.65579084  0.65579084  1.0
  Sc  Sc12  1  -0.03262748  1.34420916  0.34420916  1.0
  Sc  Sc13  1  0.65579084  1.03262748  -0.34420916  1.0
  Sc  Sc14  1  0.65579084  0.65579084  1.03262748  1.0
  Sc  Sc15  1  1.34420916  0.34420916  0.34420916  1.0
  Sc  Sc16  1  -0.69875729  0.69875729  0.69875729  1.0
  Sc  Sc17  1  -0.30124271  0.30124271  0.69875729  1.0
  Sc  Sc18  1  0.69875729  0.69875729  -0.69875729  1.0
  Sc  Sc19  1  0.30124271  1.30124271  -0.30124271  1.0
  Sc  Sc20  1  0.30124271  -0.30124271  1.30124271  1.0
  Sc  Sc21  1  -0.30124271  0.30124271  0.30124271  1.0
  Os  Os22  1  1.50000000  0.00000000  -0.00000000  1.0
  Os  Os23  1  1.00000000  0.50000000  -0.50000000  1.0
  Os  Os24  1  0.00000000  1.50000000  -0.00000000  1.0
  Os  Os25  1  0.50000000  1.00000000  -0.50000000  1.0
  Os  Os26  1  -0.00000000  0.00000000  0.50000000  1.0
  Os  Os27  1  0.50000000  -0.50000000  1.00000000  1.0
  Os  Os28  1  -0.50000000  0.50000000  0.50000000  1.0
  Os  Os29  1  0.00000000  0.00000000  0.00000000  1.0
