# generated using pymatgen
data_LaSiPt
_symmetry_space_group_name_H-M   'P 1'
_cell_length_a   7.91899443
_cell_length_b   7.91899443
_cell_length_c   7.91899443
_cell_angle_alpha   148.65101366
_cell_angle_beta   148.65101366
_cell_angle_gamma   44.92525067
_symmetry_Int_Tables_number   1
_chemical_formula_structural   LaSiPt
_chemical_formula_sum   'La2 Si2 Pt2'
_cell_volume   133.99323713
_cell_formula_units_Z   2
loop_
 _symmetry_equiv_pos_site_id
 _symmetry_equiv_pos_as_xyz
  1  'x, y, z'
loop_
 _atom_site_type_symbol
 _atom_site_label
 _atom_site_symmetry_multiplicity
 _atom_site_fract_x
 _atom_site_fract_y
 _atom_site_fract_z
 _atom_site_occupancy
  La  La0  1  0.57979690  0.57979690  1.00000000  1.0
  La  La1  1  0.32979690  0.82979690  0.50000000  1.0
  Si  Si2  1  -0.00032338  -0.00032338  -0.00000000  1.0
  Si  Si3  1  0.74967662  0.24967662  0.50000000  1.0
  Pt  Pt4  1  0.16752648  0.16752648  0.00000000  1.0
  Pt  Pt5  1  0.91752648  0.41752648  0.50000000  1.0
