# generated using pymatgen
data_GdGa2
_symmetry_space_group_name_H-M   'P 1'
_cell_length_a   4.24321838
_cell_length_b   4.24321838
_cell_length_c   8.32312544
_cell_angle_alpha   90.00000000
_cell_angle_beta   90.00000000
_cell_angle_gamma   120.00000000
_symmetry_Int_Tables_number   1
_chemical_formula_structural   GdGa2
_chemical_formula_sum   'Gd2 Ga4'
_cell_volume   129.78002033
_cell_formula_units_Z   2
loop_
 _symmetry_equiv_pos_site_id
 _symmetry_equiv_pos_as_xyz
  1  'x, y, z'
loop_
 _atom_site_type_symbol
 _atom_site_label
 _atom_site_symmetry_multiplicity
 _atom_site_fract_x
 _atom_site_fract_y
 _atom_site_fract_z
 _atom_site_occupancy
  Gd  Gd0  1  0.00000000  0.00000000  0.25000000  1.0
  Gd  Gd1  1  0.00000000  0.00000000  0.75000000  1.0
  Ga  Ga2  1  0.33333333  0.66666667  0.49520542  1.0
  Ga  Ga3  1  0.33333333  0.66666667  0.00479458  1.0
  Ga  Ga4  1  0.66666667  0.33333333  0.99520542  1.0
  Ga  Ga5  1  0.66666667  0.33333333  0.50479458  1.0
