# generated using pymatgen
data_Co3Mo3C
_symmetry_space_group_name_H-M   'P 1'
_cell_length_a   7.81636596
_cell_length_b   7.81636596
_cell_length_c   7.81636596
_cell_angle_alpha   60.00000000
_cell_angle_beta   60.00000000
_cell_angle_gamma   60.00000000
_symmetry_Int_Tables_number   1
_chemical_formula_structural   Co3Mo3C
_chemical_formula_sum   'Co12 Mo12 C4'
_cell_volume   337.67558084
_cell_formula_units_Z   4
loop_
 _symmetry_equiv_pos_site_id
 _symmetry_equiv_pos_as_xyz
  1  'x, y, z'
loop_
 _atom_site_type_symbol
 _atom_site_label
 _atom_site_symmetry_multiplicity
 _atom_site_fract_x
 _atom_site_fract_y
 _atom_site_fract_z
 _atom_site_occupancy
  Co  Co0  1  1.12500000  0.62500000  0.62500000  1.0
  Co  Co1  1  0.62500000  1.12500000  -0.37500000  1.0
  Co  Co2  1  -0.37500000  0.62500000  1.12500000  1.0
  Co  Co3  1  -0.37500000  0.62500000  0.62500000  1.0
  Co  Co4  1  -0.25995362  0.41998454  0.41998454  1.0
  Co  Co5  1  0.41998454  -0.25995362  0.41998454  1.0
  Co  Co6  1  0.41998454  1.41998454  -0.25995362  1.0
  Co  Co7  1  0.41998454  1.41998454  0.41998454  1.0
  Co  Co8  1  0.50995362  0.83001546  -0.16998454  1.0
  Co  Co9  1  0.83001546  0.50995362  0.83001546  1.0
  Co  Co10  1  0.83001546  0.83001546  -0.49004638  1.0
  Co  Co11  1  0.83001546  0.83001546  0.83001546  1.0
  Mo  Mo12  1  0.80010151  0.80010151  -0.80010151  1.0
  Mo  Mo13  1  0.19989849  1.19989849  -0.19989849  1.0
  Mo  Mo14  1  0.80010151  -0.80010151  0.80010151  1.0
  Mo  Mo15  1  0.19989849  -0.19989849  0.19989849  1.0
  Mo  Mo16  1  -0.80010151  0.80010151  0.80010151  1.0
  Mo  Mo17  1  -0.19989849  0.19989849  0.19989849  1.0
  Mo  Mo18  1  0.44989849  1.44989849  0.05010151  1.0
  Mo  Mo19  1  0.05010151  0.05010151  0.44989849  1.0
  Mo  Mo20  1  0.44989849  1.05010151  0.44989849  1.0
  Mo  Mo21  1  0.05010151  1.44989849  0.05010151  1.0
  Mo  Mo22  1  0.05010151  1.44989849  0.44989849  1.0
  Mo  Mo23  1  0.44989849  1.05010151  0.05010151  1.0
  C  C24  1  0.62500000  1.12500000  0.12500000  1.0
  C  C25  1  0.12500000  1.62500000  0.12500000  1.0
  C  C26  1  0.12500000  0.12500000  1.62500000  1.0
  C  C27  1  0.12500000  0.12500000  0.12500000  1.0
