# generated using pymatgen
data_SrCrF4
_symmetry_space_group_name_H-M   'P 1'
_cell_length_a   6.82587611
_cell_length_b   6.82587611
_cell_length_c   6.82587611
_cell_angle_alpha   129.86038097
_cell_angle_beta   129.86038097
_cell_angle_gamma   73.63006739
_symmetry_Int_Tables_number   1
_chemical_formula_structural   SrCrF4
_chemical_formula_sum   'Sr2 Cr2 F8'
_cell_volume   182.85178387
_cell_formula_units_Z   2
loop_
 _symmetry_equiv_pos_site_id
 _symmetry_equiv_pos_as_xyz
  1  'x, y, z'
loop_
 _atom_site_type_symbol
 _atom_site_label
 _atom_site_symmetry_multiplicity
 _atom_site_fract_x
 _atom_site_fract_y
 _atom_site_fract_z
 _atom_site_occupancy
  Sr  Sr0  1  0.75000000  0.75000000  1.00000000  1.0
  Sr  Sr1  1  0.25000000  0.25000000  -0.00000000  1.0
  Cr  Cr2  1  0.50000000  -0.00000000  0.50000000  1.0
  Cr  Cr3  1  0.00000000  0.50000000  0.50000000  1.0
  F  F4  1  1.20103701  0.70103701  1.15526818  1.0
  F  F5  1  0.45423117  0.95423117  1.15526818  1.0
  F  F6  1  1.04576883  1.20103701  1.50000000  1.0
  F  F7  1  0.29896299  0.45423117  0.50000000  1.0
  F  F8  1  0.70103701  0.54576883  0.50000000  1.0
  F  F9  1  0.95423117  0.79896299  1.50000000  1.0
  F  F10  1  0.54576883  1.04576883  0.84473182  1.0
  F  F11  1  0.79896299  0.29896299  0.84473182  1.0
