# generated using pymatgen
data_NaHg
_symmetry_space_group_name_H-M   'P 1'
_cell_length_a   6.56766708
_cell_length_b   6.56766708
_cell_length_c   5.33417231
_cell_angle_alpha   90.00000000
_cell_angle_beta   90.00000000
_cell_angle_gamma   112.74481047
_symmetry_Int_Tables_number   1
_chemical_formula_structural   NaHg
_chemical_formula_sum   'Na4 Hg4'
_cell_volume   212.19315411
_cell_formula_units_Z   4
loop_
 _symmetry_equiv_pos_site_id
 _symmetry_equiv_pos_as_xyz
  1  'x, y, z'
loop_
 _atom_site_type_symbol
 _atom_site_label
 _atom_site_symmetry_multiplicity
 _atom_site_fract_x
 _atom_site_fract_y
 _atom_site_fract_z
 _atom_site_occupancy
  Na  Na0  1  0.12764607  0.87235393  0.25000000  1.0
  Na  Na1  1  -0.12764607  1.12764607  0.75000000  1.0
  Na  Na2  1  -0.32626015  1.32626015  0.25000000  1.0
  Na  Na3  1  0.32626015  0.67373985  0.75000000  1.0
  Hg  Hg4  1  0.19337359  0.37774662  0.25000000  1.0
  Hg  Hg5  1  -0.62225338  1.19337359  0.75000000  1.0
  Hg  Hg6  1  0.62225338  0.80662641  0.25000000  1.0
  Hg  Hg7  1  -0.19337359  1.62225338  0.75000000  1.0
