# generated using pymatgen
data_Na2TiSi4O11
_symmetry_space_group_name_H-M   'P 1'
_cell_length_a   8.66816955
_cell_length_b   8.66816955
_cell_length_c   8.66816955
_cell_angle_alpha   101.96089245
_cell_angle_beta   101.96089245
_cell_angle_gamma   125.83916836
_symmetry_Int_Tables_number   1
_chemical_formula_structural   Na2TiSi4O11
_chemical_formula_sum   'Na4 Ti2 Si8 O22'
_cell_volume   470.10266143
_cell_formula_units_Z   2
loop_
 _symmetry_equiv_pos_site_id
 _symmetry_equiv_pos_as_xyz
  1  'x, y, z'
loop_
 _atom_site_type_symbol
 _atom_site_label
 _atom_site_symmetry_multiplicity
 _atom_site_fract_x
 _atom_site_fract_y
 _atom_site_fract_z
 _atom_site_occupancy
  Na  Na0  1  0.81892709  0.86728973  1.68621683  1.0
  Na  Na1  1  0.86728973  1.18107291  1.04836264  1.0
  Na  Na2  1  0.18107291  0.13271027  0.31378317  1.0
  Na  Na3  1  1.13271027  0.81892709  0.95163736  1.0
  Ti  Ti4  1  0.25666279  0.25666279  0.00000000  1.0
  Ti  Ti5  1  0.74333721  0.74333721  -0.00000000  1.0
  Si  Si6  1  1.29874099  0.99852415  0.68190034  1.0
  Si  Si7  1  0.68337618  0.38315935  0.68190034  1.0
  Si  Si8  1  0.99852415  0.31662382  0.69978317  1.0
  Si  Si9  1  1.38315935  0.70125901  0.69978317  1.0
  Si  Si10  1  1.31662382  1.61684065  1.31809966  1.0
  Si  Si11  1  0.70125901  1.00147585  1.31809966  1.0
  Si  Si12  1  0.61684065  1.29874099  1.30021683  1.0
  Si  Si13  1  1.00147585  1.68337618  1.30021683  1.0
  O  O14  1  1.18712835  1.05360588  0.77779875  1.0
  O  O15  1  0.72419286  0.59067039  0.77779875  1.0
  O  O16  1  1.05360588  0.27580714  0.86647753  1.0
  O  O17  1  1.59067039  0.81287165  0.86647753  1.0
  O  O18  1  1.27580714  1.40932961  1.22220125  1.0
  O  O19  1  0.81287165  0.94639412  1.22220125  1.0
  O  O20  1  0.40932961  1.18712835  1.13352247  1.0
  O  O21  1  0.94639412  1.72419286  1.13352247  1.0
  O  O22  1  0.81935244  1.08919184  1.53016057  1.0
  O  O23  1  1.44096873  1.71080814  1.53016057  1.0
  O  O24  1  1.08919184  1.55903127  1.26983941  1.0
  O  O25  1  0.71080814  1.18064756  1.26983941  1.0
  O  O26  1  0.55903127  0.28919186  0.46983943  1.0
  O  O27  1  1.18064756  0.91080816  0.46983943  1.0
  O  O28  1  1.28919186  0.81935244  0.73016059  1.0
  O  O29  1  0.91080816  0.44096873  0.73016059  1.0
  O  O30  1  0.80514418  0.54646478  0.35160896  1.0
  O  O31  1  0.54646478  0.19485582  0.74132060  1.0
  O  O32  1  1.19485582  1.45353522  1.64839104  1.0
  O  O33  1  0.45353522  0.80514418  1.25867940  1.0
  O  O34  1  0.50000000  0.50000000  0.00000000  1.0
  O  O35  1  0.00000000  0.00000000  0.00000000  1.0
