# generated using pymatgen
data_AgTeO3
_symmetry_space_group_name_H-M   'P 1'
_cell_length_a   6.68339192
_cell_length_b   7.10640860
_cell_length_c   13.73262617
_cell_angle_alpha   90.00000000
_cell_angle_beta   90.73164385
_cell_angle_gamma   90.00000000
_symmetry_Int_Tables_number   1
_chemical_formula_structural   AgTeO3
_chemical_formula_sum   'Ag8 Te8 O24'
_cell_volume   652.17672020
_cell_formula_units_Z   8
loop_
 _symmetry_equiv_pos_site_id
 _symmetry_equiv_pos_as_xyz
  1  'x, y, z'
loop_
 _atom_site_type_symbol
 _atom_site_label
 _atom_site_symmetry_multiplicity
 _atom_site_fract_x
 _atom_site_fract_y
 _atom_site_fract_z
 _atom_site_occupancy
  Ag  Ag0  1  0.52305715  0.83963804  0.91855038  1.0
  Ag  Ag1  1  0.52305715  0.66036196  0.41855038  1.0
  Ag  Ag2  1  0.47694285  0.33963804  0.58144962  1.0
  Ag  Ag3  1  0.47694285  0.16036196  0.08144962  1.0
  Ag  Ag4  1  0.44378066  0.93988505  0.67499181  1.0
  Ag  Ag5  1  0.44378066  0.56011495  0.17499181  1.0
  Ag  Ag6  1  0.55621934  0.43988505  0.82500819  1.0
  Ag  Ag7  1  0.55621934  0.06011495  0.32500819  1.0
  Te  Te8  1  0.98938303  0.13935862  0.59019656  1.0
  Te  Te9  1  0.98938303  0.36064138  0.09019656  1.0
  Te  Te10  1  0.01061697  0.63935862  0.90980344  1.0
  Te  Te11  1  0.01061697  0.86064138  0.40980344  1.0
  Te  Te12  1  0.85591676  0.66202278  0.64017119  1.0
  Te  Te13  1  0.85591676  0.83797722  0.14017119  1.0
  Te  Te14  1  0.14408324  0.16202278  0.85982881  1.0
  Te  Te15  1  0.14408324  0.33797722  0.35982881  1.0
  O  O16  1  0.82859453  0.81804415  0.98289911  1.0
  O  O17  1  0.82859453  0.68195585  0.48289911  1.0
  O  O18  1  0.17140547  0.31804415  0.51710089  1.0
  O  O19  1  0.17140547  0.18195585  0.01710089  1.0
  O  O20  1  0.81120228  0.95465461  0.65918814  1.0
  O  O21  1  0.81120228  0.54534539  0.15918814  1.0
  O  O22  1  0.18879772  0.45465461  0.84081186  1.0
  O  O23  1  0.18879772  0.04534539  0.34081186  1.0
  O  O24  1  0.84602423  0.40964837  0.95930310  1.0
  O  O25  1  0.84602423  0.09035163  0.45930310  1.0
  O  O26  1  0.15397577  0.90964837  0.54069690  1.0
  O  O27  1  0.15397577  0.59035163  0.04069690  1.0
  O  O28  1  0.80250327  0.34266098  0.62817731  1.0
  O  O29  1  0.80250327  0.15733902  0.12817731  1.0
  O  O30  1  0.19749673  0.84266098  0.87182269  1.0
  O  O31  1  0.19749673  0.65733902  0.37182269  1.0
  O  O32  1  0.80834691  0.64881891  0.80153916  1.0
  O  O33  1  0.80834691  0.85118109  0.30153916  1.0
  O  O34  1  0.19165309  0.14881891  0.69846084  1.0
  O  O35  1  0.19165309  0.35118109  0.19846084  1.0
  O  O36  1  0.56726447  0.64971616  0.64142331  1.0
  O  O37  1  0.56726447  0.85028384  0.14142331  1.0
  O  O38  1  0.43273553  0.14971616  0.85857669  1.0
  O  O39  1  0.43273553  0.35028384  0.35857669  1.0
