# generated using pymatgen
data_Zr6Ga16Os7
_symmetry_space_group_name_H-M   'P 1'
_cell_length_a   8.80013760
_cell_length_b   8.80013760
_cell_length_c   8.80013760
_cell_angle_alpha   60.00000000
_cell_angle_beta   60.00000000
_cell_angle_gamma   60.00000000
_symmetry_Int_Tables_number   1
_chemical_formula_structural   Zr6Ga16Os7
_chemical_formula_sum   'Zr6 Ga16 Os7'
_cell_volume   481.89607651
_cell_formula_units_Z   1
loop_
 _symmetry_equiv_pos_site_id
 _symmetry_equiv_pos_as_xyz
  1  'x, y, z'
loop_
 _atom_site_type_symbol
 _atom_site_label
 _atom_site_symmetry_multiplicity
 _atom_site_fract_x
 _atom_site_fract_y
 _atom_site_fract_z
 _atom_site_occupancy
  Zr  Zr0  1  -0.71780486  0.71780486  0.71780486  1.0
  Zr  Zr1  1  -0.28219514  0.28219514  0.71780486  1.0
  Zr  Zr2  1  0.71780486  0.71780486  -0.71780486  1.0
  Zr  Zr3  1  0.28219514  1.28219514  -0.28219514  1.0
  Zr  Zr4  1  0.28219514  -0.28219514  1.28219514  1.0
  Zr  Zr5  1  -0.28219514  0.28219514  0.28219514  1.0
  Ga  Ga6  1  0.87645522  0.87645522  -0.12354478  1.0
  Ga  Ga7  1  1.12354478  0.12354478  0.62936566  1.0
  Ga  Ga8  1  1.12354478  0.62936566  0.12354478  1.0
  Ga  Ga9  1  0.37063434  0.87645522  -0.12354478  1.0
  Ga  Ga10  1  1.62936566  0.12354478  0.12354478  1.0
  Ga  Ga11  1  0.87645522  0.37063434  -0.12354478  1.0
  Ga  Ga12  1  0.87645522  0.87645522  -0.62936566  1.0
  Ga  Ga13  1  1.12354478  0.12354478  0.12354478  1.0
  Ga  Ga14  1  0.65470261  0.65470261  -0.34529739  1.0
  Ga  Ga15  1  1.34529739  0.34529739  -0.03589216  1.0
  Ga  Ga16  1  1.34529739  -0.03589216  0.34529739  1.0
  Ga  Ga17  1  1.03589216  0.65470261  -0.34529739  1.0
  Ga  Ga18  1  0.96410784  0.34529739  0.34529739  1.0
  Ga  Ga19  1  0.65470261  1.03589216  -0.34529739  1.0
  Ga  Ga20  1  0.65470261  0.65470261  0.03589216  1.0
  Ga  Ga21  1  1.34529739  0.34529739  0.34529739  1.0
  Os  Os22  1  1.50000000  -0.00000000  0.00000000  1.0
  Os  Os23  1  1.00000000  0.50000000  -0.50000000  1.0
  Os  Os24  1  -0.00000000  1.50000000  0.00000000  1.0
  Os  Os25  1  0.50000000  1.00000000  -0.50000000  1.0
  Os  Os26  1  0.00000000  0.00000000  0.50000000  1.0
  Os  Os27  1  0.50000000  -0.50000000  1.00000000  1.0
  Os  Os28  1  0.00000000  -0.00000000  0.00000000  1.0
