# generated using pymatgen
data_Fe2Mo3O8
_symmetry_space_group_name_H-M   'P 1'
_cell_length_a   5.80573653
_cell_length_b   5.80573653
_cell_length_c   10.03334478
_cell_angle_alpha   90.00000000
_cell_angle_beta   90.00000000
_cell_angle_gamma   120.00000000
_symmetry_Int_Tables_number   1
_chemical_formula_structural   Fe2Mo3O8
_chemical_formula_sum   'Fe4 Mo6 O16'
_cell_volume   292.88087541
_cell_formula_units_Z   2
loop_
 _symmetry_equiv_pos_site_id
 _symmetry_equiv_pos_as_xyz
  1  'x, y, z'
loop_
 _atom_site_type_symbol
 _atom_site_label
 _atom_site_symmetry_multiplicity
 _atom_site_fract_x
 _atom_site_fract_y
 _atom_site_fract_z
 _atom_site_occupancy
  Fe  Fe0  1  0.33333333  0.66666667  0.63049881  1.0
  Fe  Fe1  1  0.66666667  0.33333333  0.13049881  1.0
  Fe  Fe2  1  0.33333333  0.66666667  0.06010782  1.0
  Fe  Fe3  1  0.66666667  0.33333333  0.56010782  1.0
  Mo  Mo4  1  0.70930167  0.85465084  0.36095483  1.0
  Mo  Mo5  1  0.85465084  0.70930167  0.86095483  1.0
  Mo  Mo6  1  0.85465084  0.14534916  0.86095483  1.0
  Mo  Mo7  1  0.14534916  0.85465084  0.36095483  1.0
  Mo  Mo8  1  0.14534916  0.29069833  0.36095483  1.0
  Mo  Mo9  1  0.29069833  0.14534916  0.86095483  1.0
  O  O10  1  0.33610197  0.16805098  0.24305655  1.0
  O  O11  1  0.16805098  0.33610197  0.74305655  1.0
  O  O12  1  0.16805098  0.83194902  0.74305655  1.0
  O  O13  1  0.83194902  0.16805098  0.24305655  1.0
  O  O14  1  0.83194902  0.66389803  0.24305655  1.0
  O  O15  1  0.66389803  0.83194902  0.74305655  1.0
  O  O16  1  0.33333333  0.66666667  0.25653655  1.0
  O  O17  1  0.66666667  0.33333333  0.75653655  1.0
  O  O18  1  0.00000000  0.00000000  0.00131303  1.0
  O  O19  1  0.00000000  0.00000000  0.50131303  1.0
  O  O20  1  0.01958609  0.50979304  0.47696988  1.0
  O  O21  1  0.50979304  0.01958609  0.97696988  1.0
  O  O22  1  0.50979304  0.49020696  0.97696988  1.0
  O  O23  1  0.49020696  0.50979304  0.47696988  1.0
  O  O24  1  0.49020696  0.98041391  0.47696988  1.0
  O  O25  1  0.98041391  0.49020696  0.97696988  1.0
