# generated using pymatgen
data_Hf2Te
_symmetry_space_group_name_H-M   'P 1'
_cell_length_a   7.85952281
_cell_length_b   7.85952281
_cell_length_c   10.14460855
_cell_angle_alpha   89.48836986
_cell_angle_beta   90.51163014
_cell_angle_gamma   152.44022128
_symmetry_Int_Tables_number   1
_chemical_formula_structural   Hf2Te
_chemical_formula_sum   'Hf8 Te4'
_cell_volume   289.92402987
_cell_formula_units_Z   4
loop_
 _symmetry_equiv_pos_site_id
 _symmetry_equiv_pos_as_xyz
  1  'x, y, z'
loop_
 _atom_site_type_symbol
 _atom_site_label
 _atom_site_symmetry_multiplicity
 _atom_site_fract_x
 _atom_site_fract_y
 _atom_site_fract_z
 _atom_site_occupancy
  Hf  Hf0  1  0.91059751  0.08940249  0.34317023  1.0
  Hf  Hf1  1  0.08940249  -0.08940249  0.65682977  1.0
  Hf  Hf2  1  0.75051026  0.24948974  0.61764012  1.0
  Hf  Hf3  1  0.24948974  -0.24948974  0.38235988  1.0
  Hf  Hf4  1  0.41211805  -0.41211805  0.57705056  1.0
  Hf  Hf5  1  0.58788195  0.41211805  0.42294944  1.0
  Hf  Hf6  1  0.27924863  -0.27924863  0.87225130  1.0
  Hf  Hf7  1  0.72075137  0.27924863  0.12774870  1.0
  Te  Te8  1  0.91852349  0.08147651  0.80330704  1.0
  Te  Te9  1  0.08147651  -0.08147651  0.19669296  1.0
  Te  Te10  1  0.63220342  0.36779658  0.87120813  1.0
  Te  Te11  1  0.36779658  -0.36779658  0.12879187  1.0
