# generated using pymatgen
data_Ti6Al16Fe7
_symmetry_space_group_name_H-M   'P 1'
_cell_length_a   8.36643995
_cell_length_b   8.36643995
_cell_length_c   8.36643995
_cell_angle_alpha   60.00000000
_cell_angle_beta   60.00000000
_cell_angle_gamma   60.00000000
_symmetry_Int_Tables_number   1
_chemical_formula_structural   Ti6Al16Fe7
_chemical_formula_sum   'Ti6 Al16 Fe7'
_cell_volume   414.10178040
_cell_formula_units_Z   1
loop_
 _symmetry_equiv_pos_site_id
 _symmetry_equiv_pos_as_xyz
  1  'x, y, z'
loop_
 _atom_site_type_symbol
 _atom_site_label
 _atom_site_symmetry_multiplicity
 _atom_site_fract_x
 _atom_site_fract_y
 _atom_site_fract_z
 _atom_site_occupancy
  Al  Al0  1  0.88059217  0.88059217  -0.11940783  1.0
  Al  Al1  1  1.11940783  0.11940783  0.64177650  1.0
  Al  Al2  1  1.11940783  0.64177650  0.11940783  1.0
  Al  Al3  1  0.35822350  0.88059217  -0.11940783  1.0
  Al  Al4  1  1.64177650  0.11940783  0.11940783  1.0
  Al  Al5  1  0.88059217  0.35822350  -0.11940783  1.0
  Al  Al6  1  0.88059217  0.88059217  -0.64177650  1.0
  Al  Al7  1  1.11940783  0.11940783  0.11940783  1.0
  Al  Al8  1  0.65907459  0.65907459  -0.34092541  1.0
  Al  Al9  1  0.34092541  1.34092541  -0.02277622  1.0
  Al  Al10  1  1.34092541  -0.02277622  0.34092541  1.0
  Al  Al11  1  1.02277622  0.65907459  0.65907459  1.0
  Al  Al12  1  -0.02277622  1.34092541  0.34092541  1.0
  Al  Al13  1  0.65907459  1.02277622  -0.34092541  1.0
  Al  Al14  1  0.65907459  0.65907459  1.02277622  1.0
  Al  Al15  1  1.34092541  0.34092541  0.34092541  1.0
  Fe  Fe16  1  1.50000000  -0.00000000  0.00000000  1.0
  Fe  Fe17  1  1.00000000  0.50000000  -0.50000000  1.0
  Fe  Fe18  1  -0.00000000  1.50000000  0.00000000  1.0
  Fe  Fe19  1  0.50000000  1.00000000  -0.50000000  1.0
  Fe  Fe20  1  0.00000000  0.00000000  0.50000000  1.0
  Fe  Fe21  1  0.50000000  -0.50000000  1.00000000  1.0
  Fe  Fe22  1  0.00000000  0.00000000  0.00000000  1.0
  Ti  Ti23  1  -0.70958279  0.70958279  0.70958279  1.0
  Ti  Ti24  1  -0.29041721  0.29041721  0.70958279  1.0
  Ti  Ti25  1  0.70958279  0.70958279  -0.70958279  1.0
  Ti  Ti26  1  0.29041721  1.29041721  -0.29041721  1.0
  Ti  Ti27  1  0.29041721  -0.29041721  1.29041721  1.0
  Ti  Ti28  1  -0.29041721  0.29041721  0.29041721  1.0
