# generated using pymatgen
data_HfGeO4
_symmetry_space_group_name_H-M   'P 1'
_cell_length_a   6.33730045
_cell_length_b   6.33730045
_cell_length_c   6.33730045
_cell_angle_alpha   134.60190851
_cell_angle_beta   134.60190851
_cell_angle_gamma   66.14937702
_symmetry_Int_Tables_number   1
_chemical_formula_structural   HfGeO4
_chemical_formula_sum   'Hf2 Ge2 O8'
_cell_volume   127.03537875
_cell_formula_units_Z   2
loop_
 _symmetry_equiv_pos_site_id
 _symmetry_equiv_pos_as_xyz
  1  'x, y, z'
loop_
 _atom_site_type_symbol
 _atom_site_label
 _atom_site_symmetry_multiplicity
 _atom_site_fract_x
 _atom_site_fract_y
 _atom_site_fract_z
 _atom_site_occupancy
  Hf  Hf0  1  0.25000000  0.75000000  0.50000000  1.0
  Hf  Hf1  1  0.50000000  0.50000000  1.00000000  1.0
  Ge  Ge2  1  0.75000000  0.25000000  0.50000000  1.0
  Ge  Ge3  1  0.00000000  0.00000000  -0.00000000  1.0
  O  O4  1  0.56259236  0.50653252  0.40553537  1.0
  O  O5  1  1.10099715  1.15705699  1.59446463  1.0
  O  O6  1  0.64900285  1.09294301  0.90553537  1.0
  O  O7  1  1.18740764  0.74346748  1.09446463  1.0
  O  O8  1  0.49346748  0.89900285  1.05605984  1.0
  O  O9  1  0.84294301  0.43740764  0.94394016  1.0
  O  O10  1  0.90705699  0.81259236  1.55605984  1.0
  O  O11  1  0.25653252  0.35099715  0.44394016  1.0
