# generated using pymatgen
data_Nd2AlCo2
_symmetry_space_group_name_H-M   'P 1'
_cell_length_a   5.48968818
_cell_length_b   5.48968818
_cell_length_c   5.48968818
_cell_angle_alpha   136.27225026
_cell_angle_beta   119.81321383
_cell_angle_gamma   77.30233040
_symmetry_Int_Tables_number   1
_chemical_formula_structural   Nd2AlCo2
_chemical_formula_sum   'Nd2 Al1 Co2'
_cell_volume   96.50285464
_cell_formula_units_Z   1
loop_
 _symmetry_equiv_pos_site_id
 _symmetry_equiv_pos_as_xyz
  1  'x, y, z'
loop_
 _atom_site_type_symbol
 _atom_site_label
 _atom_site_symmetry_multiplicity
 _atom_site_fract_x
 _atom_site_fract_y
 _atom_site_fract_z
 _atom_site_occupancy
  Nd  Nd0  1  0.69806850  0.19806850  0.50000000  1.0
  Nd  Nd1  1  1.30193150  0.80193150  0.50000000  1.0
  Al  Al2  1  0.00000000  0.00000000  0.00000000  1.0
  Co  Co3  1  0.26510441  0.50000000  0.76510441  1.0
  Co  Co4  1  0.73489559  0.50000000  1.23489559  1.0
