# generated using pymatgen
data_Lu5SbPt2
_symmetry_space_group_name_H-M   'P 1'
_cell_length_a   8.60770553
_cell_length_b   8.60770553
_cell_length_c   8.60770553
_cell_angle_alpha   127.86582233
_cell_angle_beta   127.86582233
_cell_angle_gamma   76.84249157
_symmetry_Int_Tables_number   1
_chemical_formula_structural   Lu5SbPt2
_chemical_formula_sum   'Lu10 Sb2 Pt4'
_cell_volume   385.92847053
_cell_formula_units_Z   2
loop_
 _symmetry_equiv_pos_site_id
 _symmetry_equiv_pos_as_xyz
  1  'x, y, z'
loop_
 _atom_site_type_symbol
 _atom_site_label
 _atom_site_symmetry_multiplicity
 _atom_site_fract_x
 _atom_site_fract_y
 _atom_site_fract_z
 _atom_site_occupancy
  Lu  Lu0  1  1.20276113  0.70276113  1.18744411  1.0
  Lu  Lu1  1  0.48468298  0.98468298  1.18744411  1.0
  Lu  Lu2  1  1.01531702  1.20276113  1.50000000  1.0
  Lu  Lu3  1  0.29723887  0.48468298  0.50000000  1.0
  Lu  Lu4  1  0.70276113  0.51531702  0.50000000  1.0
  Lu  Lu5  1  0.98468298  0.79723887  1.50000000  1.0
  Lu  Lu6  1  0.51531702  1.01531702  0.81255589  1.0
  Lu  Lu7  1  0.79723887  0.29723887  0.81255589  1.0
  Lu  Lu8  1  0.00000000  0.00000000  0.00000000  1.0
  Lu  Lu9  1  0.50000000  0.50000000  1.00000000  1.0
  Sb  Sb10  1  0.75000000  0.75000000  1.00000000  1.0
  Sb  Sb11  1  0.25000000  0.25000000  0.00000000  1.0
  Pt  Pt12  1  0.86068861  0.36068861  1.22137722  1.0
  Pt  Pt13  1  0.63931139  0.86068861  1.50000000  1.0
  Pt  Pt14  1  0.36068861  0.13931139  0.50000000  1.0
  Pt  Pt15  1  0.13931139  0.63931139  0.77862278  1.0
