# generated using pymatgen
data_Nd2Re3Si5
_symmetry_space_group_name_H-M   'P 1'
_cell_length_a   11.05865837
_cell_length_b   11.05865837
_cell_length_c   5.61437645
_cell_angle_alpha   90.00000000
_cell_angle_beta   90.00000000
_cell_angle_gamma   90.00000000
_symmetry_Int_Tables_number   1
_chemical_formula_structural   Nd2Re3Si5
_chemical_formula_sum   'Nd8 Re12 Si20'
_cell_volume   686.60413179
_cell_formula_units_Z   4
loop_
 _symmetry_equiv_pos_site_id
 _symmetry_equiv_pos_as_xyz
  1  'x, y, z'
loop_
 _atom_site_type_symbol
 _atom_site_label
 _atom_site_symmetry_multiplicity
 _atom_site_fract_x
 _atom_site_fract_y
 _atom_site_fract_z
 _atom_site_occupancy
  Nd  Nd0  1  0.23532900  0.92285353  0.50000000  1.0
  Nd  Nd1  1  0.73532900  0.57714647  0.00000000  1.0
  Nd  Nd2  1  0.07714647  0.23532900  0.50000000  1.0
  Nd  Nd3  1  0.57714647  0.26467100  0.00000000  1.0
  Nd  Nd4  1  0.76467100  0.07714647  0.50000000  1.0
  Nd  Nd5  1  0.26467100  0.42285353  0.00000000  1.0
  Nd  Nd6  1  0.92285353  0.76467100  0.50000000  1.0
  Nd  Nd7  1  0.42285353  0.73532900  0.00000000  1.0
  Re  Re8  1  0.35293072  0.62295853  0.50000000  1.0
  Re  Re9  1  0.85293072  0.87704147  0.00000000  1.0
  Re  Re10  1  0.37704147  0.35293072  0.50000000  1.0
  Re  Re11  1  0.87704147  0.14706928  0.00000000  1.0
  Re  Re12  1  0.64706928  0.37704147  0.50000000  1.0
  Re  Re13  1  0.14706928  0.12295853  0.00000000  1.0
  Re  Re14  1  0.62295853  0.64706928  0.50000000  1.0
  Re  Re15  1  0.12295853  0.85293072  0.00000000  1.0
  Re  Re16  1  0.50000000  0.00000000  0.25000000  1.0
  Re  Re17  1  0.50000000  0.00000000  0.75000000  1.0
  Re  Re18  1  0.00000000  0.50000000  0.75000000  1.0
  Re  Re19  1  0.00000000  0.50000000  0.25000000  1.0
  Si  Si20  1  0.47324543  0.81488824  0.50000000  1.0
  Si  Si21  1  0.97324543  0.68511176  0.00000000  1.0
  Si  Si22  1  0.18511176  0.47324543  0.50000000  1.0
  Si  Si23  1  0.68511176  0.02675457  0.00000000  1.0
  Si  Si24  1  0.52675457  0.18511176  0.50000000  1.0
  Si  Si25  1  0.02675457  0.31488824  0.00000000  1.0
  Si  Si26  1  0.81488824  0.52675457  0.50000000  1.0
  Si  Si27  1  0.31488824  0.97324543  0.00000000  1.0
  Si  Si28  1  0.32905304  0.17094696  0.25000000  1.0
  Si  Si29  1  0.32905304  0.17094696  0.75000000  1.0
  Si  Si30  1  0.82905304  0.32905304  0.75000000  1.0
  Si  Si31  1  0.82905304  0.32905304  0.25000000  1.0
  Si  Si32  1  0.67094696  0.82905304  0.25000000  1.0
  Si  Si33  1  0.67094696  0.82905304  0.75000000  1.0
  Si  Si34  1  0.17094696  0.67094696  0.75000000  1.0
  Si  Si35  1  0.17094696  0.67094696  0.25000000  1.0
  Si  Si36  1  0.50000000  0.50000000  0.25294639  1.0
  Si  Si37  1  0.50000000  0.50000000  0.74705361  1.0
  Si  Si38  1  0.00000000  0.00000000  0.75294639  1.0
  Si  Si39  1  0.00000000  0.00000000  0.24705361  1.0
