# generated using pymatgen
data_CoH2SO5
_symmetry_space_group_name_H-M   'P 1'
_cell_length_a   5.21305337
_cell_length_b   5.21305337
_cell_length_c   7.54595558
_cell_angle_alpha   73.45289707
_cell_angle_beta   106.54710293
_cell_angle_gamma   82.66234751
_symmetry_Int_Tables_number   1
_chemical_formula_structural   CoH2SO5
_chemical_formula_sum   'Co2 H4 S2 O10'
_cell_volume   183.50390232
_cell_formula_units_Z   2
loop_
 _symmetry_equiv_pos_site_id
 _symmetry_equiv_pos_as_xyz
  1  'x, y, z'
loop_
 _atom_site_type_symbol
 _atom_site_label
 _atom_site_symmetry_multiplicity
 _atom_site_fract_x
 _atom_site_fract_y
 _atom_site_fract_z
 _atom_site_occupancy
  Co  Co0  1  1.50000000  -0.00000000  0.50000000  1.0
  Co  Co1  1  1.00000000  -0.50000000  0.00000000  1.0
  H  H2  1  1.54597887  0.36907846  0.20577180  1.0
  H  H3  1  0.63092154  -0.54597887  0.70577180  1.0
  H  H4  1  1.36907846  0.54597887  0.29422820  1.0
  H  H5  1  0.45402113  -0.36907846  0.79422820  1.0
  S  S6  1  0.91379726  -0.08620274  0.25000000  1.0
  S  S7  1  1.08620274  0.08620274  0.75000000  1.0
  O  O8  1  0.78588264  -0.17573874  0.40294633  1.0
  O  O9  1  1.17573874  0.21411736  0.90294633  1.0
  O  O10  1  0.82426126  -0.21411736  0.09705367  1.0
  O  O11  1  1.21411736  0.17573874  0.59705367  1.0
  O  O12  1  0.22329777  -0.17285915  0.34222277  1.0
  O  O13  1  1.17285915  0.77670223  0.84222277  1.0
  O  O14  1  0.82714085  -0.77670223  0.15777723  1.0
  O  O15  1  1.77670223  0.17285915  0.65777723  1.0
  O  O16  1  1.38333013  0.38333013  0.25000000  1.0
  O  O17  1  0.61666987  -0.38333013  0.75000000  1.0
