# generated using pymatgen
data_KSO2F
_symmetry_space_group_name_H-M   'P 1'
_cell_length_a   4.71299591
_cell_length_b   5.82355791
_cell_length_c   7.19549238
_cell_angle_alpha   90.00000000
_cell_angle_beta   108.84359839
_cell_angle_gamma   90.00000000
_symmetry_Int_Tables_number   1
_chemical_formula_structural   KSO2F
_chemical_formula_sum   'K2 S2 O4 F2'
_cell_volume   186.90565320
_cell_formula_units_Z   2
loop_
 _symmetry_equiv_pos_site_id
 _symmetry_equiv_pos_as_xyz
  1  'x, y, z'
loop_
 _atom_site_type_symbol
 _atom_site_label
 _atom_site_symmetry_multiplicity
 _atom_site_fract_x
 _atom_site_fract_y
 _atom_site_fract_z
 _atom_site_occupancy
  K  K0  1  0.65189521  0.75000000  0.28986207  1.0
  K  K1  1  0.34810479  0.25000000  0.71013793  1.0
  S  S2  1  0.90539729  0.75000000  0.81468721  1.0
  S  S3  1  0.09460271  0.25000000  0.18531279  1.0
  O  O4  1  0.83943550  0.96076545  0.69150856  1.0
  O  O5  1  0.83943550  0.53923455  0.69150856  1.0
  O  O6  1  0.16056450  0.46076545  0.30849144  1.0
  O  O7  1  0.16056450  0.03923455  0.30849144  1.0
  F  F8  1  0.31516601  0.75000000  0.88370798  1.0
  F  F9  1  0.68483399  0.25000000  0.11629202  1.0
