# generated using pymatgen
data_Si3H9N
_symmetry_space_group_name_H-M   'P 1'
_cell_length_a   9.36808040
_cell_length_b   7.25622233
_cell_length_c   7.40429934
_cell_angle_alpha   59.77837785
_cell_angle_beta   75.17662548
_cell_angle_gamma   81.01593257
_symmetry_Int_Tables_number   1
_chemical_formula_structural   Si3H9N
_chemical_formula_sum   'Si6 H18 N2'
_cell_volume   420.21194450
_cell_formula_units_Z   2
loop_
 _symmetry_equiv_pos_site_id
 _symmetry_equiv_pos_as_xyz
  1  'x, y, z'
loop_
 _atom_site_type_symbol
 _atom_site_label
 _atom_site_symmetry_multiplicity
 _atom_site_fract_x
 _atom_site_fract_y
 _atom_site_fract_z
 _atom_site_occupancy
  Si  Si0  1  0.71545592  -0.19557584  -0.71990799  1.0
  Si  Si1  1  0.28454408  0.19557584  -0.28009201  1.0
  Si  Si2  1  0.73283919  -0.73025174  -0.05984672  1.0
  Si  Si3  1  0.26716081  0.73025174  -0.94015328  1.0
  Si  Si4  1  0.20541649  0.07545449  -0.81193648  1.0
  Si  Si5  1  0.79458351  -0.07545449  -0.18806352  1.0
  H  H6  1  0.82145249  -0.18088213  -0.60729971  1.0
  H  H7  1  0.17854751  0.18088213  -0.39270029  1.0
  H  H8  1  0.62018207  -0.61317640  -0.19474938  1.0
  H  H9  1  0.37981793  0.61317640  -0.80525062  1.0
  H  H10  1  0.87700138  -0.62397970  -0.18205847  1.0
  H  H11  1  0.12299862  0.62397970  -0.81794153  1.0
  H  H12  1  0.56213526  -0.17517852  -0.60623668  1.0
  H  H13  1  0.43786474  0.17517852  -0.39376332  1.0
  H  H14  1  0.32078530  0.21079067  -0.83396613  1.0
  H  H15  1  0.67921470  -0.21079067  -0.16603387  1.0
  H  H16  1  0.68708188  0.28198425  -0.85733003  1.0
  H  H17  1  0.31291812  -0.28198425  -0.14266997  1.0
  H  H18  1  0.93866278  -0.19862288  -0.17985912  1.0
  H  H19  1  0.06133722  0.19862288  -0.82014088  1.0
  H  H20  1  0.80690380  0.12459602  -0.39867914  1.0
  H  H21  1  0.19309620  -0.12459602  -0.60132086  1.0
  H  H22  1  0.73729793  0.59209587  -0.71179987  1.0
  H  H23  1  0.26270207  -0.59209587  -0.28820013  1.0
  N  N24  1  0.74679035  -0.00039900  -0.98934066  1.0
  N  N25  1  0.25320965  0.00039900  -0.01065934  1.0
