# generated using pymatgen
data_RbLa(PS3)2
_symmetry_space_group_name_H-M   'P 1'
_cell_length_a   12.61497246
_cell_length_b   7.69510429
_cell_length_c   11.54228071
_cell_angle_alpha   90.00000000
_cell_angle_beta   108.64573108
_cell_angle_gamma   90.00000000
_symmetry_Int_Tables_number   1
_chemical_formula_structural   RbLa(PS3)2
_chemical_formula_sum   'Rb4 La4 P8 S24'
_cell_volume   1061.64145404
_cell_formula_units_Z   4
loop_
 _symmetry_equiv_pos_site_id
 _symmetry_equiv_pos_as_xyz
  1  'x, y, z'
loop_
 _atom_site_type_symbol
 _atom_site_label
 _atom_site_symmetry_multiplicity
 _atom_site_fract_x
 _atom_site_fract_y
 _atom_site_fract_z
 _atom_site_occupancy
  Rb  Rb0  1  0.62173207  0.41757403  0.36523875  1.0
  Rb  Rb1  1  0.37826793  0.91757403  0.13476125  1.0
  Rb  Rb2  1  0.37826793  0.58242597  0.63476125  1.0
  Rb  Rb3  1  0.62173207  0.08242597  0.86523875  1.0
  La  La4  1  0.14181941  0.39607519  0.89969897  1.0
  La  La5  1  0.85818059  0.89607519  0.60030103  1.0
  La  La6  1  0.85818059  0.60392481  0.10030103  1.0
  La  La7  1  0.14181941  0.10392481  0.39969897  1.0
  P  P8  1  0.83652697  0.40381200  0.75586839  1.0
  P  P9  1  0.16347303  0.90381200  0.74413161  1.0
  P  P10  1  0.16347303  0.59618800  0.24413161  1.0
  P  P11  1  0.83652697  0.09618800  0.25586839  1.0
  P  P12  1  0.27610644  0.37859297  0.22546568  1.0
  P  P13  1  0.72389356  0.87859297  0.27453432  1.0
  P  P14  1  0.72389356  0.62140703  0.77453432  1.0
  P  P15  1  0.27610644  0.12140703  0.72546568  1.0
  S  S16  1  0.36652473  0.47184258  0.12303702  1.0
  S  S17  1  0.63347527  0.97184258  0.37696298  1.0
  S  S18  1  0.63347527  0.52815742  0.87696298  1.0
  S  S19  1  0.36652473  0.02815742  0.62303702  1.0
  S  S20  1  0.94883188  0.52358896  0.68597974  1.0
  S  S21  1  0.05116812  0.02358896  0.81402026  1.0
  S  S22  1  0.05116812  0.47641104  0.31402026  1.0
  S  S23  1  0.94883188  0.97641104  0.18597974  1.0
  S  S24  1  0.26134042  0.72000849  0.85403201  1.0
  S  S25  1  0.73865958  0.22000849  0.64596799  1.0
  S  S26  1  0.73865958  0.27999151  0.14596799  1.0
  S  S27  1  0.26134042  0.77999151  0.35403201  1.0
  S  S28  1  0.91489396  0.31955986  0.93059387  1.0
  S  S29  1  0.08510604  0.81955986  0.56940613  1.0
  S  S30  1  0.08510604  0.68044014  0.06940613  1.0
  S  S31  1  0.91489396  0.18044014  0.43059387  1.0
  S  S32  1  0.35467779  0.21184512  0.89689044  1.0
  S  S33  1  0.64532221  0.71184512  0.60310956  1.0
  S  S34  1  0.64532221  0.78815488  0.10310956  1.0
  S  S35  1  0.35467779  0.28815488  0.39689044  1.0
  S  S36  1  0.16548483  0.19419182  0.13210931  1.0
  S  S37  1  0.83451517  0.69419182  0.36789069  1.0
  S  S38  1  0.83451517  0.80580818  0.86789069  1.0
  S  S39  1  0.16548483  0.30580818  0.63210931  1.0
