# generated using pymatgen
data_Be2Zn
_symmetry_space_group_name_H-M   'P 1'
_cell_length_a   6.22831413
_cell_length_b   5.97411608
_cell_length_c   2.50893949
_cell_angle_alpha   83.88572999
_cell_angle_beta   72.50254689
_cell_angle_gamma   23.61172312
_symmetry_Int_Tables_number   1
_chemical_formula_structural   Be2Zn
_chemical_formula_sum   'Be2 Zn1'
_cell_volume   31.98288364
_cell_formula_units_Z   1
loop_
 _symmetry_equiv_pos_site_id
 _symmetry_equiv_pos_as_xyz
  1  'x, y, z'
loop_
 _atom_site_type_symbol
 _atom_site_label
 _atom_site_symmetry_multiplicity
 _atom_site_fract_x
 _atom_site_fract_y
 _atom_site_fract_z
 _atom_site_occupancy
  Be  Be0  1  -0.17555399  0.82444601  0.17555399  1.0
  Be  Be1  1  0.17555399  0.17555399  -0.17555399  1.0
  Zn  Zn2  1  -0.50000000  0.50000000  0.50000000  1.0
