# generated using pymatgen
data_Zn3TeO6
_symmetry_space_group_name_H-M   'P 1'
_cell_length_a   8.84220605
_cell_length_b   8.84220605
_cell_length_c   10.57954853
_cell_angle_alpha   87.52737370
_cell_angle_beta   92.47262630
_cell_angle_gamma   118.44647757
_symmetry_Int_Tables_number   1
_chemical_formula_structural   Zn3TeO6
_chemical_formula_sum   'Zn18 Te6 O36'
_cell_volume   726.37136930
_cell_formula_units_Z   6
loop_
 _symmetry_equiv_pos_site_id
 _symmetry_equiv_pos_as_xyz
  1  'x, y, z'
loop_
 _atom_site_type_symbol
 _atom_site_label
 _atom_site_symmetry_multiplicity
 _atom_site_fract_x
 _atom_site_fract_y
 _atom_site_fract_z
 _atom_site_occupancy
  Zn  Zn0  1  0.57535340  -0.10076635  0.44220138  1.0
  Zn  Zn1  1  1.10076635  0.42464660  0.94220138  1.0
  Zn  Zn2  1  0.89923365  -0.42464660  0.05779862  1.0
  Zn  Zn3  1  1.42464660  0.10076635  0.55779862  1.0
  Zn  Zn4  1  1.65575659  0.06300876  0.07496457  1.0
  Zn  Zn5  1  0.93699124  -0.65575659  0.57496457  1.0
  Zn  Zn6  1  1.06300876  0.65575659  0.42503543  1.0
  Zn  Zn7  1  0.34424341  -0.06300876  0.92503543  1.0
  Zn  Zn8  1  1.27395331  0.00125708  0.25710386  1.0
  Zn  Zn9  1  0.99874292  -0.27395331  0.75710386  1.0
  Zn  Zn10  1  1.00125708  0.27395331  0.24289614  1.0
  Zn  Zn11  1  0.72604669  -0.00125708  0.74289614  1.0
  Zn  Zn12  1  1.32275307  0.37552029  0.44888349  1.0
  Zn  Zn13  1  0.62447971  -0.32275307  0.94888349  1.0
  Zn  Zn14  1  1.37552029  0.32275307  0.05111651  1.0
  Zn  Zn15  1  0.67724693  -0.37552029  0.55111651  1.0
  Zn  Zn16  1  0.80063845  -0.19936155  0.25000000  1.0
  Zn  Zn17  1  1.19936155  0.19936155  0.75000000  1.0
  Te  Te18  1  0.33743992  -0.33428873  0.19579317  1.0
  Te  Te19  1  1.33428873  0.66256008  0.69579317  1.0
  Te  Te20  1  0.66571127  -0.66256008  0.30420683  1.0
  Te  Te21  1  1.66256008  0.33428873  0.80420683  1.0
  Te  Te22  1  0.00000000  -0.00000000  0.50000000  1.0
  Te  Te23  1  0.00000000  0.00000000  0.00000000  1.0
  O  O24  1  1.90341862  0.04806798  0.33970953  1.0
  O  O25  1  0.95193202  -0.90341862  0.83970953  1.0
  O  O26  1  1.04806798  0.90341862  0.16029047  1.0
  O  O27  1  0.09658138  -0.04806798  0.66029047  1.0
  O  O28  1  0.75895028  -0.09303253  0.06229381  1.0
  O  O29  1  1.09303253  0.24104972  0.56229381  1.0
  O  O30  1  0.90696747  -0.24104972  0.43770619  1.0
  O  O31  1  1.24104972  0.09303253  0.93770619  1.0
  O  O32  1  0.55931453  -0.24025462  0.29813313  1.0
  O  O33  1  1.24025462  0.44068547  0.79813313  1.0
  O  O34  1  0.75974538  -0.44068547  0.20186687  1.0
  O  O35  1  1.44068547  0.24025462  0.70186687  1.0
  O  O36  1  0.41234183  -0.10825764  0.10046797  1.0
  O  O37  1  1.10825764  0.58765817  0.60046797  1.0
  O  O38  1  0.89174236  -0.58765817  0.39953203  1.0
  O  O39  1  1.58765817  0.10825764  0.89953203  1.0
  O  O40  1  0.25863940  -0.22044796  0.32132535  1.0
  O  O41  1  1.22044796  0.74136060  0.82132535  1.0
  O  O42  1  0.77955204  -0.74136060  0.17867465  1.0
  O  O43  1  1.74136060  0.22044796  0.67867465  1.0
  O  O44  1  1.56554075  0.11688261  0.40545350  1.0
  O  O45  1  0.88311739  -0.56554075  0.90545350  1.0
  O  O46  1  1.11688261  0.56554075  0.09454650  1.0
  O  O47  1  0.43445925  -0.11688261  0.59454650  1.0
  O  O48  1  1.44772962  0.22906901  0.19790879  1.0
  O  O49  1  0.77093099  -0.44772962  0.69790879  1.0
  O  O50  1  1.22906901  0.44772962  0.30209121  1.0
  O  O51  1  0.55227038  -0.22906901  0.80209121  1.0
  O  O52  1  1.56885981  0.42635454  0.43032796  1.0
  O  O53  1  0.57364546  -0.56885981  0.93032796  1.0
  O  O54  1  1.42635454  0.56885981  0.06967204  1.0
  O  O55  1  0.43114019  -0.42635454  0.56967204  1.0
  O  O56  1  1.23593446  0.09342676  0.42741753  1.0
  O  O57  1  0.90657324  -0.23593446  0.92741753  1.0
  O  O58  1  1.09342676  0.23593446  0.07258247  1.0
  O  O59  1  0.76406554  -0.09342676  0.57258247  1.0
