# generated using pymatgen
data_CaZnAsHO5
_symmetry_space_group_name_H-M   'P 1'
_cell_length_a   6.02424194
_cell_length_b   7.62350626
_cell_length_c   9.17974681
_cell_angle_alpha   90.00000000
_cell_angle_beta   90.00000000
_cell_angle_gamma   90.00000000
_symmetry_Int_Tables_number   1
_chemical_formula_structural   CaZnAsHO5
_chemical_formula_sum   'Ca4 Zn4 As4 H4 O20'
_cell_volume   421.58763938
_cell_formula_units_Z   4
loop_
 _symmetry_equiv_pos_site_id
 _symmetry_equiv_pos_as_xyz
  1  'x, y, z'
loop_
 _atom_site_type_symbol
 _atom_site_label
 _atom_site_symmetry_multiplicity
 _atom_site_fract_x
 _atom_site_fract_y
 _atom_site_fract_z
 _atom_site_occupancy
  Ca  Ca0  1  0.02235086  0.86916168  0.82657909  1.0
  Ca  Ca1  1  0.52235086  0.63083832  0.17342091  1.0
  Ca  Ca2  1  0.97764914  0.36916168  0.67342091  1.0
  Ca  Ca3  1  0.47764914  0.13083832  0.32657909  1.0
  Zn  Zn4  1  0.24138915  0.73313202  0.49381430  1.0
  Zn  Zn5  1  0.74138915  0.76686798  0.50618570  1.0
  Zn  Zn6  1  0.75861085  0.23313202  0.00618570  1.0
  Zn  Zn7  1  0.25861085  0.26686798  0.99381430  1.0
  As  As8  1  0.48189548  0.62795876  0.82655551  1.0
  As  As9  1  0.98189548  0.87204124  0.17344449  1.0
  As  As10  1  0.51810452  0.12795876  0.67344449  1.0
  As  As11  1  0.01810452  0.37204124  0.32655551  1.0
  H  H12  1  0.02342463  1.00343149  0.51998495  1.0
  H  H13  1  0.52342463  0.49656851  0.48001505  1.0
  H  H14  1  0.97657537  0.50343149  0.98001505  1.0
  H  H15  1  0.47657537  -0.00343149  0.01998495  1.0
  O  O16  1  0.48984829  0.95078755  0.55206432  1.0
  O  O17  1  0.98984829  0.54921245  0.44793568  1.0
  O  O18  1  0.51015171  0.45078755  0.94793568  1.0
  O  O19  1  0.01015171  0.04921245  0.05206432  1.0
  O  O20  1  0.40551491  0.79786010  0.94253338  1.0
  O  O21  1  0.90551491  0.70213990  0.05746662  1.0
  O  O22  1  0.59448509  0.29786010  0.55746662  1.0
  O  O23  1  0.09448509  0.20213990  0.44253338  1.0
  O  O24  1  0.25221187  0.60679695  0.71182845  1.0
  O  O25  1  0.75221187  0.89320305  0.28817155  1.0
  O  O26  1  0.74778813  0.10679695  0.78817155  1.0
  O  O27  1  0.24778813  0.39320305  0.21182845  1.0
  O  O28  1  0.23206594  0.84492107  0.26611673  1.0
  O  O29  1  0.73206594  0.65507893  0.73388327  1.0
  O  O30  1  0.76793406  0.34492107  0.23388327  1.0
  O  O31  1  0.26793406  0.15507893  0.76611673  1.0
  O  O32  1  0.00918958  0.88963156  0.57182922  1.0
  O  O33  1  0.50918958  0.61036844  0.42817078  1.0
  O  O34  1  0.99081042  0.38963156  0.92817078  1.0
  O  O35  1  0.49081042  0.11036844  0.07182922  1.0
