# generated using pymatgen
data_K2C(N2O)3
_symmetry_space_group_name_H-M   'P 1'
_cell_length_a   13.91556517
_cell_length_b   13.75303150
_cell_length_c   3.93333296
_cell_angle_alpha   95.21645189
_cell_angle_beta   92.88179480
_cell_angle_gamma   110.42768431
_symmetry_Int_Tables_number   1
_chemical_formula_structural   K2C(N2O)3
_chemical_formula_sum   'K8 C4 N24 O12'
_cell_volume   699.78782993
_cell_formula_units_Z   4
loop_
 _symmetry_equiv_pos_site_id
 _symmetry_equiv_pos_as_xyz
  1  'x, y, z'
loop_
 _atom_site_type_symbol
 _atom_site_label
 _atom_site_symmetry_multiplicity
 _atom_site_fract_x
 _atom_site_fract_y
 _atom_site_fract_z
 _atom_site_occupancy
  K  K0  1  -0.37466587  -0.59797257  -0.61671961  1.0
  K  K1  1  -0.62533413  -0.40202743  -0.38328039  1.0
  K  K2  1  -0.57953710  -0.90214524  -0.62837373  1.0
  K  K3  1  -0.42046290  -0.09785476  -0.37162627  1.0
  K  K4  1  -0.10851975  -0.91294793  -0.61965762  1.0
  K  K5  1  -0.89148025  -0.08705207  -0.38034238  1.0
  K  K6  1  -0.88930186  -0.62956475  -0.54489803  1.0
  K  K7  1  -0.11069814  -0.37043525  -0.45510197  1.0
  C  C8  1  -0.70356781  -0.73195256  -0.98327398  1.0
  C  C9  1  -0.29643219  -0.26804744  -0.01672602  1.0
  C  C10  1  -0.79378190  -0.27074732  -0.93686008  1.0
  C  C11  1  -0.20621810  -0.72925268  -0.06313992  1.0
  N  N12  1  -0.32229037  -0.36960898  -0.94337252  1.0
  N  N13  1  -0.67770963  -0.63039102  -0.05662748  1.0
  N  N14  1  -0.24948515  -0.82099137  -0.92584687  1.0
  N  N15  1  -0.75051485  -0.17900863  -0.07415313  1.0
  N  N16  1  -0.37042007  -0.23330516  -0.90781734  1.0
  N  N17  1  -0.62957993  -0.76669484  -0.09218266  1.0
  N  N18  1  -0.34750443  -0.85229143  -0.87928277  1.0
  N  N19  1  -0.65249557  -0.14770857  -0.12071723  1.0
  N  N20  1  -0.89541908  -0.29740740  -0.87360343  1.0
  N  N21  1  -0.10458092  -0.70259260  -0.12639657  1.0
  N  N22  1  -0.76196073  -0.34709729  -0.84074625  1.0
  N  N23  1  -0.23803927  -0.65290271  -0.15925375  1.0
  N  N24  1  -0.79108482  -0.77056794  -0.82038612  1.0
  N  N25  1  -0.20891518  -0.22943206  -0.17961388  1.0
  N  N26  1  -0.40995349  -0.39558417  -0.78839061  1.0
  N  N27  1  -0.59004651  -0.60441583  -0.21160939  1.0
  N  N28  1  -0.43818700  -0.31326262  -0.77076009  1.0
  N  N29  1  -0.56181300  -0.68673738  -0.22923991  1.0
  N  N30  1  -0.82509831  -0.86877519  -0.76619920  1.0
  N  N31  1  -0.17490169  -0.13122481  -0.23380080  1.0
  N  N32  1  -0.92452764  -0.38816481  -0.73682764  1.0
  N  N33  1  -0.07547236  -0.61183519  -0.26317236  1.0
  N  N34  1  -0.84372506  -0.41690104  -0.72032907  1.0
  N  N35  1  -0.15627494  -0.58309896  -0.27967093  1.0
  O  O36  1  -0.40546226  -0.80149695  -0.94718751  1.0
  O  O37  1  -0.59453774  -0.19850305  -0.05281249  1.0
  O  O38  1  -0.72628010  -0.56582721  -0.99397820  1.0
  O  O39  1  -0.27371990  -0.43417279  -0.00602180  1.0
  O  O40  1  -0.95826955  -0.24724513  -0.92796138  1.0
  O  O41  1  -0.04173045  -0.75275487  -0.07203862  1.0
  O  O42  1  -0.78002037  -0.93271857  -0.85175678  1.0
  O  O43  1  -0.21997963  -0.06728143  -0.14824322  1.0
  O  O44  1  -0.38544884  -0.93996767  -0.75970714  1.0
  O  O45  1  -0.61455116  -0.06003233  -0.24029286  1.0
  O  O46  1  -0.90768913  -0.90063439  -0.61834167  1.0
  O  O47  1  -0.09231087  -0.09936561  -0.38165833  1.0
