# generated using pymatgen
data_K2RuO5
_symmetry_space_group_name_H-M   'P 1'
_cell_length_a   6.27434776
_cell_length_b   8.06236023
_cell_length_c   11.59970588
_cell_angle_alpha   90.00000000
_cell_angle_beta   90.00000000
_cell_angle_gamma   90.00000000
_symmetry_Int_Tables_number   1
_chemical_formula_structural   K2RuO5
_chemical_formula_sum   'K8 Ru4 O20'
_cell_volume   586.78332330
_cell_formula_units_Z   4
loop_
 _symmetry_equiv_pos_site_id
 _symmetry_equiv_pos_as_xyz
  1  'x, y, z'
loop_
 _atom_site_type_symbol
 _atom_site_label
 _atom_site_symmetry_multiplicity
 _atom_site_fract_x
 _atom_site_fract_y
 _atom_site_fract_z
 _atom_site_occupancy
  Ru  Ru0  1  0.43370104  0.93861962  0.63686550  1.0
  Ru  Ru1  1  0.93370104  0.56138038  0.36313450  1.0
  Ru  Ru2  1  0.56629896  0.43861962  0.86313450  1.0
  Ru  Ru3  1  0.06629896  0.06138038  0.13686550  1.0
  O  O4  1  0.38271329  0.75361794  0.56197545  1.0
  O  O5  1  0.88271329  0.74638206  0.43802455  1.0
  O  O6  1  0.61728671  0.25361794  0.93802455  1.0
  O  O7  1  0.11728671  0.24638206  0.06197545  1.0
  O  O8  1  0.28452568  0.87830275  0.76491937  1.0
  O  O9  1  0.78452568  0.62169725  0.23508063  1.0
  O  O10  1  0.71547432  0.37830275  0.73508063  1.0
  O  O11  1  0.21547432  0.12169725  0.26491937  1.0
  O  O12  1  -0.06318965  0.96103745  1.01574325  1.0
  O  O13  1  0.43681035  0.53896255  -0.01574325  1.0
  O  O14  1  1.06318965  0.46103745  0.48425675  1.0
  O  O15  1  0.56318965  0.03896255  0.51574325  1.0
  O  O16  1  0.32596611  0.44221530  0.78317299  1.0
  O  O17  1  0.82596611  0.05778470  0.21682701  1.0
  O  O18  1  0.67403389  0.94221530  0.71682701  1.0
  O  O19  1  0.17403389  0.55778470  0.28317299  1.0
  O  O20  1  0.26168165  0.89708154  0.12443637  1.0
  O  O21  1  0.76168165  0.60291846  0.87556363  1.0
  O  O22  1  0.73831835  0.39708154  0.37556363  1.0
  O  O23  1  0.23831835  0.10291846  0.62443637  1.0
  K  K24  1  0.45516934  0.38010356  0.55232311  1.0
  K  K25  1  0.95516934  0.11989644  0.44767689  1.0
  K  K26  1  0.54483066  0.88010356  0.94767689  1.0
  K  K27  1  0.04483066  0.61989644  0.05232311  1.0
  K  K28  1  0.98923600  0.65092113  0.67979489  1.0
  K  K29  1  0.48923600  0.84907887  0.32020511  1.0
  K  K30  1  0.01076400  0.15092113  0.82020511  1.0
  K  K31  1  0.51076400  0.34907887  0.17979489  1.0
