# generated using pymatgen
data_Ti6Co16Ge7
_symmetry_space_group_name_H-M   'P 1'
_cell_length_a   7.98752616
_cell_length_b   7.98752616
_cell_length_c   7.98752616
_cell_angle_alpha   60.00000000
_cell_angle_beta   60.00000000
_cell_angle_gamma   60.00000000
_symmetry_Int_Tables_number   1
_chemical_formula_structural   Ti6Co16Ge7
_chemical_formula_sum   'Ti6 Co16 Ge7'
_cell_volume   360.34780637
_cell_formula_units_Z   1
loop_
 _symmetry_equiv_pos_site_id
 _symmetry_equiv_pos_as_xyz
  1  'x, y, z'
loop_
 _atom_site_type_symbol
 _atom_site_label
 _atom_site_symmetry_multiplicity
 _atom_site_fract_x
 _atom_site_fract_y
 _atom_site_fract_z
 _atom_site_occupancy
  Ti  Ti0  1  -0.69912020  0.69912020  0.69912020  1.0
  Ti  Ti1  1  -0.30087980  0.30087980  0.69912020  1.0
  Ti  Ti2  1  0.69912020  0.69912020  -0.69912020  1.0
  Ti  Ti3  1  0.30087980  1.30087980  -0.30087980  1.0
  Ti  Ti4  1  0.30087980  -0.30087980  1.30087980  1.0
  Ti  Ti5  1  -0.30087980  0.30087980  0.30087980  1.0
  Co  Co6  1  0.88009045  0.88009045  -0.11990955  1.0
  Co  Co7  1  1.11990955  0.11990955  0.64027135  1.0
  Co  Co8  1  1.11990955  0.64027135  0.11990955  1.0
  Co  Co9  1  0.35972865  0.88009045  -0.11990955  1.0
  Co  Co10  1  1.64027135  0.11990955  0.11990955  1.0
  Co  Co11  1  0.88009045  0.35972865  -0.11990955  1.0
  Co  Co12  1  0.88009045  0.88009045  -0.64027135  1.0
  Co  Co13  1  1.11990955  0.11990955  0.11990955  1.0
  Co  Co14  1  0.66594087  0.66594087  -0.33405913  1.0
  Co  Co15  1  1.33405913  0.33405913  -0.00217738  1.0
  Co  Co16  1  1.33405913  -0.00217738  0.33405913  1.0
  Co  Co17  1  1.00217738  0.66594087  -0.33405913  1.0
  Co  Co18  1  0.99782262  0.33405913  0.33405913  1.0
  Co  Co19  1  0.66594087  1.00217738  -0.33405913  1.0
  Co  Co20  1  0.66594087  0.66594087  0.00217738  1.0
  Co  Co21  1  1.33405913  0.33405913  0.33405913  1.0
  Ge  Ge22  1  1.50000000  0.00000000  -0.00000000  1.0
  Ge  Ge23  1  1.00000000  0.50000000  -0.50000000  1.0
  Ge  Ge24  1  0.00000000  1.50000000  -0.00000000  1.0
  Ge  Ge25  1  0.50000000  1.00000000  -0.50000000  1.0
  Ge  Ge26  1  0.00000000  -0.00000000  0.50000000  1.0
  Ge  Ge27  1  0.50000000  -0.50000000  1.00000000  1.0
  Ge  Ge28  1  -0.00000000  0.00000000  -0.00000000  1.0
