# generated using pymatgen
data_CdP3NO9
_symmetry_space_group_name_H-M   'P 1'
_cell_length_a   7.05011782
_cell_length_b   7.05011782
_cell_length_c   10.46772777
_cell_angle_alpha   90.00000000
_cell_angle_beta   90.00000000
_cell_angle_gamma   120.00000000
_symmetry_Int_Tables_number   1
_chemical_formula_structural   CdP3NO9
_chemical_formula_sum   'Cd2 P6 N2 O18'
_cell_volume   450.58403547
_cell_formula_units_Z   2
loop_
 _symmetry_equiv_pos_site_id
 _symmetry_equiv_pos_as_xyz
  1  'x, y, z'
loop_
 _atom_site_type_symbol
 _atom_site_label
 _atom_site_symmetry_multiplicity
 _atom_site_fract_x
 _atom_site_fract_y
 _atom_site_fract_z
 _atom_site_occupancy
  N  N0  1  0.66666667  0.33333333  0.50000000  1.0
  N  N1  1  0.66666667  0.33333333  0.00000000  1.0
  Cd  Cd2  1  0.00000000  0.00000000  0.50000000  1.0
  Cd  Cd3  1  0.00000000  0.00000000  0.00000000  1.0
  P  P4  1  0.27409718  0.87750439  0.25000000  1.0
  P  P5  1  0.27409718  0.39659278  0.75000000  1.0
  P  P6  1  0.60340722  0.87750439  0.75000000  1.0
  P  P7  1  0.60340722  0.72590282  0.25000000  1.0
  P  P8  1  0.12249561  0.72590282  0.75000000  1.0
  P  P9  1  0.12249561  0.39659278  0.25000000  1.0
  O  O10  1  0.51133132  0.89561738  0.25000000  1.0
  O  O11  1  0.51133132  0.61571393  0.75000000  1.0
  O  O12  1  0.38428607  0.89561738  0.75000000  1.0
  O  O13  1  0.38428607  0.48866868  0.25000000  1.0
  O  O14  1  0.10438262  0.48866868  0.75000000  1.0
  O  O15  1  0.10438262  0.61571393  0.25000000  1.0
  O  O16  1  0.72273618  0.74926841  0.37335427  1.0
  O  O17  1  0.72273618  0.74926841  0.12664573  1.0
  O  O18  1  0.72273618  -0.02653223  0.87335427  1.0
  O  O19  1  0.72273618  -0.02653223  0.62664573  1.0
  O  O20  1  1.02653223  0.74926841  0.87335427  1.0
  O  O21  1  1.02653223  0.74926841  0.62664573  1.0
  O  O22  1  1.02653223  0.27726382  0.37335427  1.0
  O  O23  1  1.02653223  0.27726382  0.12664573  1.0
  O  O24  1  0.25073159  0.27726382  0.87335427  1.0
  O  O25  1  0.25073159  0.27726382  0.62664573  1.0
  O  O26  1  0.25073159  -0.02653223  0.37335427  1.0
  O  O27  1  0.25073159  -0.02653223  0.12664573  1.0
