# generated using pymatgen
data_LiH2BrO5
_symmetry_space_group_name_H-M   'P 1'
_cell_length_a   7.96973325
_cell_length_b   7.96973325
_cell_length_c   10.80227949
_cell_angle_alpha   69.74687241
_cell_angle_beta   110.25312759
_cell_angle_gamma   138.68705199
_symmetry_Int_Tables_number   1
_chemical_formula_structural   LiH2BrO5
_chemical_formula_sum   'Li4 H8 Br4 O20'
_cell_volume   420.82280850
_cell_formula_units_Z   4
loop_
 _symmetry_equiv_pos_site_id
 _symmetry_equiv_pos_as_xyz
  1  'x, y, z'
loop_
 _atom_site_type_symbol
 _atom_site_label
 _atom_site_symmetry_multiplicity
 _atom_site_fract_x
 _atom_site_fract_y
 _atom_site_fract_z
 _atom_site_occupancy
  Li  Li0  1  0.41211486  0.41211486  0.25000000  1.0
  Li  Li1  1  0.58788514  0.58788514  0.75000000  1.0
  Li  Li2  1  0.50000000  0.00000000  0.50000000  1.0
  Li  Li3  1  1.00000000  0.50000000  -0.00000000  1.0
  H  H4  1  0.46150317  -0.34142857  0.48978675  1.0
  H  H5  1  1.34142857  0.53849683  -0.01021325  1.0
  H  H6  1  0.65857143  0.46150317  1.01021325  1.0
  H  H7  1  0.53849683  0.34142857  0.51021325  1.0
  H  H8  1  0.48016153  -0.23920597  0.06483725  1.0
  H  H9  1  1.23920597  0.51983847  0.56483725  1.0
  H  H10  1  0.76079403  0.48016153  0.43516275  1.0
  H  H11  1  0.51983847  0.23920597  0.93516275  1.0
  Br  Br12  1  0.80227189  0.06256032  0.28969996  1.0
  Br  Br13  1  0.93743968  0.19772811  0.78969996  1.0
  Br  Br14  1  1.06256032  0.80227189  0.21030004  1.0
  Br  Br15  1  0.19772811  -0.06256032  0.71030004  1.0
  O  O16  1  0.22887645  0.10672603  0.15200501  1.0
  O  O17  1  0.89327397  0.77112355  0.65200501  1.0
  O  O18  1  1.10672603  0.22887645  0.34799499  1.0
  O  O19  1  0.77112355  -0.10672603  0.84799499  1.0
  O  O20  1  0.71445051  0.15722523  0.34165713  1.0
  O  O21  1  0.84277477  0.28554949  0.84165713  1.0
  O  O22  1  1.15722523  0.71445051  0.15834287  1.0
  O  O23  1  0.28554949  -0.15722523  0.65834287  1.0
  O  O24  1  0.76132300  0.10367086  0.12382391  1.0
  O  O25  1  0.89632914  0.23867700  0.62382391  1.0
  O  O26  1  1.10367086  0.76132300  0.37617609  1.0
  O  O27  1  0.23867700  -0.10367086  0.87617609  1.0
  O  O28  1  1.33129149  0.57473140  0.06374663  1.0
  O  O29  1  0.42526860  -0.33129149  0.56374663  1.0
  O  O30  1  0.57473140  0.33129149  0.43625337  1.0
  O  O31  1  0.66870851  0.42526860  0.93625337  1.0
  O  O32  1  0.62028195  -0.24813273  0.34499810  1.0
  O  O33  1  1.24813273  0.37971805  0.84499810  1.0
  O  O34  1  0.75186727  0.62028195  0.15500190  1.0
  O  O35  1  0.37971805  0.24813273  0.65500190  1.0
