# generated using pymatgen
data_Be2P3NO10
_symmetry_space_group_name_H-M   'P 1'
_cell_length_a   7.58882167
_cell_length_b   7.58882167
_cell_length_c   9.31432733
_cell_angle_alpha   64.48018331
_cell_angle_beta   115.51981669
_cell_angle_gamma   113.17314695
_symmetry_Int_Tables_number   1
_chemical_formula_structural   Be2P3NO10
_chemical_formula_sum   'Be4 P6 N2 O20'
_cell_volume   422.37623724
_cell_formula_units_Z   2
loop_
 _symmetry_equiv_pos_site_id
 _symmetry_equiv_pos_as_xyz
  1  'x, y, z'
loop_
 _atom_site_type_symbol
 _atom_site_label
 _atom_site_symmetry_multiplicity
 _atom_site_fract_x
 _atom_site_fract_y
 _atom_site_fract_z
 _atom_site_occupancy
  N  N0  1  0.48442218  0.48442218  0.25000000  1.0
  N  N1  1  0.51557782  0.51557782  0.75000000  1.0
  O  O2  1  1.74020691  -0.17639471  0.34882517  1.0
  O  O3  1  1.17639471  -0.74020691  0.84882517  1.0
  O  O4  1  0.82360529  0.74020691  0.15117483  1.0
  O  O5  1  0.25979309  0.17639471  0.65117483  1.0
  O  O6  1  0.88299255  0.10518449  0.12119302  1.0
  O  O7  1  0.89481551  0.11700745  0.62119302  1.0
  O  O8  1  1.10518449  -0.11700745  0.37880698  1.0
  O  O9  1  1.11700745  -0.10518449  0.87880698  1.0
  O  O10  1  1.43719715  -0.19248128  0.40094570  1.0
  O  O11  1  1.19248128  -0.43719715  0.90094570  1.0
  O  O12  1  0.80751872  0.43719715  0.09905430  1.0
  O  O13  1  0.56280285  0.19248128  0.59905430  1.0
  O  O14  1  0.53542944  0.08068689  0.14377079  1.0
  O  O15  1  0.91931311  0.46457056  0.64377079  1.0
  O  O16  1  1.08068689  -0.46457056  0.35622921  1.0
  O  O17  1  1.46457056  -0.08068689  0.85622921  1.0
  O  O18  1  1.38824377  -0.28660739  0.15100221  1.0
  O  O19  1  1.28660739  -0.38824377  0.65100221  1.0
  O  O20  1  0.71339261  0.38824377  0.34899779  1.0
  O  O21  1  0.61175623  0.28660739  0.84899779  1.0
  P  P22  1  1.51512513  -0.13588272  0.25902944  1.0
  P  P23  1  1.13588272  -0.51512513  0.75902944  1.0
  P  P24  1  0.86411728  0.51512513  0.24097056  1.0
  P  P25  1  0.48487487  0.13588272  0.74097056  1.0
  P  P26  1  0.90151345  0.90151345  0.25000000  1.0
  P  P27  1  0.09848655  0.09848655  0.75000000  1.0
  Be  Be28  1  0.71341332  0.22787398  0.05940632  1.0
  Be  Be29  1  0.77212602  0.28658668  0.55940632  1.0
  Be  Be30  1  1.22787398  -0.28658668  0.44059368  1.0
  Be  Be31  1  1.28658668  -0.22787398  0.94059368  1.0
