# generated using pymatgen
data_Ni5Te4(BrO6)2
_symmetry_space_group_name_H-M   'P 1'
_cell_length_a   10.58767560
_cell_length_b   10.58767560
_cell_length_c   16.33842355
_cell_angle_alpha   57.03201931
_cell_angle_beta   122.96798069
_cell_angle_gamma   150.80003925
_symmetry_Int_Tables_number   1
_chemical_formula_structural   Ni5Te4(BrO6)2
_chemical_formula_sum   'Ni10 Te8 Br4 O24'
_cell_volume   738.86683706
_cell_formula_units_Z   2
loop_
 _symmetry_equiv_pos_site_id
 _symmetry_equiv_pos_as_xyz
  1  'x, y, z'
loop_
 _atom_site_type_symbol
 _atom_site_label
 _atom_site_symmetry_multiplicity
 _atom_site_fract_x
 _atom_site_fract_y
 _atom_site_fract_z
 _atom_site_occupancy
  Ni  Ni0  1  1.27561145  -0.70881573  0.37925681  1.0
  Ni  Ni1  1  1.70881573  -0.27561145  0.87925681  1.0
  Ni  Ni2  1  0.29118427  0.27561145  0.12074319  1.0
  Ni  Ni3  1  0.72438855  0.70881573  0.62074319  1.0
  Ni  Ni4  1  0.73669034  0.73669034  0.25000000  1.0
  Ni  Ni5  1  0.26330966  0.26330966  0.75000000  1.0
  Ni  Ni6  1  1.62347159  -0.20766465  0.03121143  1.0
  Ni  Ni7  1  1.20766465  -0.62347159  0.53121143  1.0
  Ni  Ni8  1  0.79233535  0.62347159  0.46878857  1.0
  Ni  Ni9  1  0.37652841  0.20766465  0.96878857  1.0
  O  O10  1  0.27179039  0.04794579  0.24443307  1.0
  O  O11  1  0.95205421  0.72820961  0.74443307  1.0
  O  O12  1  1.04794579  -0.72820961  0.25556693  1.0
  O  O13  1  1.72820961  -0.04794579  0.75556693  1.0
  O  O14  1  1.62048399  -0.30376206  0.35640421  1.0
  O  O15  1  1.30376206  -0.62048399  0.85640421  1.0
  O  O16  1  0.69623794  0.62048399  0.14359579  1.0
  O  O17  1  0.37951601  0.30376206  0.64359579  1.0
  O  O18  1  1.92598922  0.04631698  0.13201149  1.0
  O  O19  1  0.95368302  -0.92598922  0.63201149  1.0
  O  O20  1  1.04631698  0.92598922  0.36798851  1.0
  O  O21  1  0.07401078  -0.04631698  0.86798851  1.0
  O  O22  1  0.56476671  0.41784388  0.35356938  1.0
  O  O23  1  0.58215612  0.43523329  0.85356938  1.0
  O  O24  1  1.41784388  -0.43523329  0.14643062  1.0
  O  O25  1  1.43523329  -0.41784388  0.64643062  1.0
  O  O26  1  1.79951506  -0.06947426  0.93513597  1.0
  O  O27  1  1.06947426  0.20048494  0.43513597  1.0
  O  O28  1  0.93052574  -0.20048494  0.56486403  1.0
  O  O29  1  0.20048494  0.06947426  0.06486403  1.0
  O  O30  1  0.55515737  -0.25592573  0.48443126  1.0
  O  O31  1  1.25592573  -0.55515737  0.98443126  1.0
  O  O32  1  0.74407427  0.55515737  0.01556874  1.0
  O  O33  1  1.44484263  0.25592573  0.51556874  1.0
  Br  Br34  1  0.41593500  -0.05187943  0.09633728  1.0
  Br  Br35  1  1.05187943  -0.41593500  0.59633728  1.0
  Br  Br36  1  0.94812057  0.41593500  0.40366272  1.0
  Br  Br37  1  1.58406500  0.05187943  0.90366272  1.0
  Te  Te38  1  0.70798808  -0.04906224  0.36312257  1.0
  Te  Te39  1  1.04906224  -0.70798808  0.86312257  1.0
  Te  Te40  1  0.95093776  0.70798808  0.13687743  1.0
  Te  Te41  1  1.29201192  0.04906224  0.63687743  1.0
  Te  Te42  1  0.35007690  0.06155086  0.37921103  1.0
  Te  Te43  1  0.93844914  0.64992310  0.87921103  1.0
  Te  Te44  1  1.06155086  -0.64992310  0.12078897  1.0
  Te  Te45  1  1.64992310  -0.06155086  0.62078897  1.0
