# generated using pymatgen
data_HfBr
_symmetry_space_group_name_H-M   'P 1'
_cell_length_a   10.20024997
_cell_length_b   10.20024997
_cell_length_c   10.20024997
_cell_angle_alpha   19.66607915
_cell_angle_beta   19.66607915
_cell_angle_gamma   19.66607915
_symmetry_Int_Tables_number   1
_chemical_formula_structural   HfBr
_chemical_formula_sum   'Hf2 Br2'
_cell_volume   105.11694021
_cell_formula_units_Z   2
loop_
 _symmetry_equiv_pos_site_id
 _symmetry_equiv_pos_as_xyz
  1  'x, y, z'
loop_
 _atom_site_type_symbol
 _atom_site_label
 _atom_site_symmetry_multiplicity
 _atom_site_fract_x
 _atom_site_fract_y
 _atom_site_fract_z
 _atom_site_occupancy
  Hf  Hf0  1  0.70430491  0.70430491  0.70430491  1.0
  Hf  Hf1  1  1.29569509  1.29569509  0.29569509  1.0
  Br  Br2  1  0.89887026  0.89887026  0.89887026  1.0
  Br  Br3  1  1.10112974  1.10112974  0.10112974  1.0
