# generated using pymatgen
data_HgN3
_symmetry_space_group_name_H-M   'P 1'
_cell_length_a   4.09151791
_cell_length_b   12.57945894
_cell_length_c   6.36936814
_cell_angle_alpha   90.00000000
_cell_angle_beta   112.66233807
_cell_angle_gamma   90.00000000
_symmetry_Int_Tables_number   1
_chemical_formula_structural   HgN3
_chemical_formula_sum   'Hg4 N12'
_cell_volume   302.51462931
_cell_formula_units_Z   4
loop_
 _symmetry_equiv_pos_site_id
 _symmetry_equiv_pos_as_xyz
  1  'x, y, z'
loop_
 _atom_site_type_symbol
 _atom_site_label
 _atom_site_symmetry_multiplicity
 _atom_site_fract_x
 _atom_site_fract_y
 _atom_site_fract_z
 _atom_site_occupancy
  Hg  Hg0  1  0.89145164  0.46128604  0.29626810  1.0
  Hg  Hg1  1  0.89145164  0.03871396  0.79626810  1.0
  Hg  Hg2  1  0.10854836  0.96128604  0.20373190  1.0
  Hg  Hg3  1  0.10854836  0.53871396  0.70373190  1.0
  N  N4  1  0.72491968  0.09797416  0.44882023  1.0
  N  N5  1  0.72491968  0.40202584  0.94882023  1.0
  N  N6  1  0.27508032  0.59797416  0.05117977  1.0
  N  N7  1  0.27508032  0.90202584  0.55117977  1.0
  N  N8  1  0.62331937  0.18887753  0.40950237  1.0
  N  N9  1  0.62331937  0.31112247  0.90950237  1.0
  N  N10  1  0.37668063  0.68887753  0.09049763  1.0
  N  N11  1  0.37668063  0.81112247  0.59049763  1.0
  N  N12  1  0.51857275  0.27457339  0.35952483  1.0
  N  N13  1  0.51857275  0.22542661  0.85952483  1.0
  N  N14  1  0.48142725  0.77457339  0.14047517  1.0
  N  N15  1  0.48142725  0.72542661  0.64047517  1.0
