# generated using pymatgen
data_Sr2(GaAu2)3
_symmetry_space_group_name_H-M   'P 1'
_cell_length_a   8.90098065
_cell_length_b   8.90098065
_cell_length_c   8.90098065
_cell_angle_alpha   57.48236991
_cell_angle_beta   57.48236991
_cell_angle_gamma   57.48236991
_symmetry_Int_Tables_number   1
_chemical_formula_structural   Sr2(GaAu2)3
_chemical_formula_sum   'Sr4 Ga6 Au12'
_cell_volume   469.77643761
_cell_formula_units_Z   2
loop_
 _symmetry_equiv_pos_site_id
 _symmetry_equiv_pos_as_xyz
  1  'x, y, z'
loop_
 _atom_site_type_symbol
 _atom_site_label
 _atom_site_symmetry_multiplicity
 _atom_site_fract_x
 _atom_site_fract_y
 _atom_site_fract_z
 _atom_site_occupancy
  Sr  Sr0  1  0.91001416  -0.08998584  -0.08998584  1.0
  Sr  Sr1  1  0.41001416  0.41001416  0.41001416  1.0
  Sr  Sr2  1  0.58998584  0.58998584  -0.41001416  1.0
  Sr  Sr3  1  1.08998584  0.08998584  0.08998584  1.0
  Ga  Ga4  1  0.55661990  0.75000000  -0.05661990  1.0
  Ga  Ga5  1  1.05661990  -0.55661990  0.25000000  1.0
  Ga  Ga6  1  0.25000000  1.05661990  -0.55661990  1.0
  Ga  Ga7  1  0.75000000  0.94338010  -0.44338010  1.0
  Ga  Ga8  1  0.44338010  0.25000000  0.05661990  1.0
  Ga  Ga9  1  0.94338010  0.55661990  -0.25000000  1.0
  Au  Au10  1  0.63658672  0.02297091  0.29573950  1.0
  Au  Au11  1  1.13658672  0.79573950  -0.47702909  1.0
  Au  Au12  1  0.20426050  0.47702909  -0.13658672  1.0
  Au  Au13  1  0.70426050  0.36341328  -0.02297091  1.0
  Au  Au14  1  0.97702909  0.70426050  -0.63658672  1.0
  Au  Au15  1  0.47702909  0.86341328  -0.79573950  1.0
  Au  Au16  1  0.36341328  0.97702909  -0.29573950  1.0
  Au  Au17  1  0.86341328  0.20426050  -0.52297091  1.0
  Au  Au18  1  1.29573950  -0.36341328  0.02297091  1.0
  Au  Au19  1  0.79573950  0.52297091  0.13658672  1.0
  Au  Au20  1  0.52297091  1.13658672  -0.20426050  1.0
  Au  Au21  1  1.02297091  0.29573950  -0.36341328  1.0
