# generated using pymatgen
data_CuP2Se
_symmetry_space_group_name_H-M   'P 1'
_cell_length_a   5.64276776
_cell_length_b   6.55002959
_cell_length_c   17.41946163
_cell_angle_alpha   90.00000000
_cell_angle_beta   90.00000000
_cell_angle_gamma   90.00000000
_symmetry_Int_Tables_number   1
_chemical_formula_structural   CuP2Se
_chemical_formula_sum   'Cu8 P16 Se8'
_cell_volume   643.82845453
_cell_formula_units_Z   8
loop_
 _symmetry_equiv_pos_site_id
 _symmetry_equiv_pos_as_xyz
  1  'x, y, z'
loop_
 _atom_site_type_symbol
 _atom_site_label
 _atom_site_symmetry_multiplicity
 _atom_site_fract_x
 _atom_site_fract_y
 _atom_site_fract_z
 _atom_site_occupancy
  Cu  Cu0  1  0.16253786  0.57403660  0.88296861  1.0
  Cu  Cu1  1  0.16253786  0.92596340  0.38296861  1.0
  Cu  Cu2  1  0.66253786  0.57403660  0.61703139  1.0
  Cu  Cu3  1  0.66253786  0.92596340  0.11703139  1.0
  Cu  Cu4  1  0.83746214  0.07403660  0.61703139  1.0
  Cu  Cu5  1  0.83746214  0.42596340  0.11703139  1.0
  Cu  Cu6  1  0.33746214  0.07403660  0.88296861  1.0
  Cu  Cu7  1  0.33746214  0.42596340  0.38296861  1.0
  P  P8  1  0.30401457  0.98036246  0.50367110  1.0
  P  P9  1  0.30401457  0.51963754  0.00367110  1.0
  P  P10  1  0.80401457  0.98036246  0.99632890  1.0
  P  P11  1  0.80401457  0.51963754  0.49632890  1.0
  P  P12  1  0.69598543  0.48036246  0.99632890  1.0
  P  P13  1  0.69598543  0.01963754  0.49632890  1.0
  P  P14  1  0.19598543  0.48036246  0.50367110  1.0
  P  P15  1  0.19598543  0.01963754  0.00367110  1.0
  P  P16  1  0.30244580  0.71599911  0.58941374  1.0
  P  P17  1  0.30244580  0.78400089  0.08941374  1.0
  P  P18  1  0.80244580  0.71599911  0.91058626  1.0
  P  P19  1  0.80244580  0.78400089  0.41058626  1.0
  P  P20  1  0.69755420  0.21599911  0.91058626  1.0
  P  P21  1  0.69755420  0.28400089  0.41058626  1.0
  P  P22  1  0.19755420  0.21599911  0.58941374  1.0
  P  P23  1  0.19755420  0.28400089  0.08941374  1.0
  Se  Se24  1  0.49028355  0.75642876  0.82530224  1.0
  Se  Se25  1  0.49028355  0.74357124  0.32530224  1.0
  Se  Se26  1  0.99028355  0.75642876  0.67469776  1.0
  Se  Se27  1  0.99028355  0.74357124  0.17469776  1.0
  Se  Se28  1  0.50971645  0.25642876  0.67469776  1.0
  Se  Se29  1  0.50971645  0.24357124  0.17469776  1.0
  Se  Se30  1  0.00971645  0.25642876  0.82530224  1.0
  Se  Se31  1  0.00971645  0.24357124  0.32530224  1.0
