# generated using pymatgen
data_Ca4S2O9
_symmetry_space_group_name_H-M   'P 1'
_cell_length_a   7.33957585
_cell_length_b   7.33957585
_cell_length_c   15.62778033
_cell_angle_alpha   90.00000000
_cell_angle_beta   90.00000000
_cell_angle_gamma   120.00000000
_symmetry_Int_Tables_number   1
_chemical_formula_structural   Ca4S2O9
_chemical_formula_sum   'Ca12 S6 O27'
_cell_volume   729.07105258
_cell_formula_units_Z   3
loop_
 _symmetry_equiv_pos_site_id
 _symmetry_equiv_pos_as_xyz
  1  'x, y, z'
loop_
 _atom_site_type_symbol
 _atom_site_label
 _atom_site_symmetry_multiplicity
 _atom_site_fract_x
 _atom_site_fract_y
 _atom_site_fract_z
 _atom_site_occupancy
  Ca  Ca0  1  -0.16224109  0.18796916  0.53729847  1.0
  Ca  Ca1  1  0.18796916  -0.16224109  0.46270153  1.0
  Ca  Ca2  1  0.81203084  0.64978975  0.20396514  1.0
  Ca  Ca3  1  0.16224109  0.35021025  1.12936820  1.0
  Ca  Ca4  1  0.35021025  0.16224109  -0.12936820  1.0
  Ca  Ca5  1  0.64978975  0.81203084  0.79603486  1.0
  Ca  Ca6  1  -0.24074853  0.07245433  0.28460548  1.0
  Ca  Ca7  1  0.07245433  -0.24074853  0.71539452  1.0
  Ca  Ca8  1  0.92754567  0.68679714  0.95127215  1.0
  Ca  Ca9  1  0.24074853  0.31320286  0.38206118  1.0
  Ca  Ca10  1  0.31320286  0.24074853  0.61793882  1.0
  Ca  Ca11  1  0.68679714  0.92754567  0.04872785  1.0
  S  S12  1  0.30852090  -0.31664692  0.27653499  1.0
  S  S13  1  -0.31664692  0.30852090  0.72346501  1.0
  S  S14  1  0.31664692  0.62516783  0.94320166  1.0
  S  S15  1  0.69147910  0.37483217  0.39013168  1.0
  S  S16  1  0.37483217  0.69147910  0.60986832  1.0
  S  S17  1  0.62516783  0.31664692  0.05679834  1.0
  O  O18  1  0.36453178  -0.10992793  0.32329956  1.0
  O  O19  1  -0.10992793  0.36453178  0.67670044  1.0
  O  O20  1  1.10992793  0.47445971  0.98996623  1.0
  O  O21  1  0.63546822  0.52554029  0.34336711  1.0
  O  O22  1  0.52554029  0.63546822  0.65663289  1.0
  O  O23  1  0.47445971  1.10992793  0.01003377  1.0
  O  O24  1  0.09289337  0.21893495  0.25428049  1.0
  O  O25  1  0.21893495  0.09289337  0.74571951  1.0
  O  O26  1  0.78106505  0.87395842  0.92094715  1.0
  O  O27  1  0.90710663  0.12604158  0.41238618  1.0
  O  O28  1  0.12604158  0.90710663  0.58761382  1.0
  O  O29  1  0.87395842  0.78106505  0.07905285  1.0
  O  O30  1  0.12148209  0.62737210  0.21715681  1.0
  O  O31  1  0.62737210  0.12148209  0.78284319  1.0
  O  O32  1  0.37262790  0.49410999  0.88382348  1.0
  O  O33  1  0.87851791  0.50589001  0.44950985  1.0
  O  O34  1  0.50589001  0.87851791  0.55049015  1.0
  O  O35  1  0.49410999  0.37262790  0.11617652  1.0
  O  O36  1  0.49756579  -0.25601098  0.21402164  1.0
  O  O37  1  -0.25601098  0.49756579  0.78597836  1.0
  O  O38  1  1.25601098  0.75357677  0.88068830  1.0
  O  O39  1  0.50243421  0.24642323  0.45264503  1.0
  O  O40  1  0.24642323  0.50243421  0.54735497  1.0
  O  O41  1  0.75357677  1.25601098  0.11931170  1.0
  O  O42  1  -0.03786827  0.00000000  0.16666667  1.0
  O  O43  1  -0.00000000  -0.03786827  0.83333333  1.0
  O  O44  1  0.03786827  0.03786827  0.50000000  1.0
