# generated using pymatgen
data_Sr11Sb10
_symmetry_space_group_name_H-M   'P 1'
_cell_length_a   12.79523110
_cell_length_b   12.79523110
_cell_length_c   12.79523110
_cell_angle_alpha   120.93943879
_cell_angle_beta   120.93943879
_cell_angle_gamma   88.38040300
_symmetry_Int_Tables_number   1
_chemical_formula_structural   Sr11Sb10
_chemical_formula_sum   'Sr22 Sb20'
_cell_volume   1459.58745621
_cell_formula_units_Z   2
loop_
 _symmetry_equiv_pos_site_id
 _symmetry_equiv_pos_as_xyz
  1  'x, y, z'
loop_
 _atom_site_type_symbol
 _atom_site_label
 _atom_site_symmetry_multiplicity
 _atom_site_fract_x
 _atom_site_fract_y
 _atom_site_fract_z
 _atom_site_occupancy
  Sr  Sr0  1  0.43794982  0.68927067  0.74867915  1.0
  Sr  Sr1  1  1.05940848  0.31072933  0.74867915  1.0
  Sr  Sr2  1  0.94059152  0.68927067  1.25132085  1.0
  Sr  Sr3  1  0.56205018  0.31072933  0.25132085  1.0
  Sr  Sr4  1  0.68927067  0.43794982  0.74867915  1.0
  Sr  Sr5  1  0.31072933  1.05940848  0.74867915  1.0
  Sr  Sr6  1  0.68927067  0.94059152  1.25132085  1.0
  Sr  Sr7  1  0.31072933  0.56205018  0.25132085  1.0
  Sr  Sr8  1  0.56029835  0.89574094  0.66455741  1.0
  Sr  Sr9  1  0.76881647  0.10425906  0.66455741  1.0
  Sr  Sr10  1  1.23118353  0.89574094  1.33544259  1.0
  Sr  Sr11  1  0.43970165  0.10425906  0.33544259  1.0
  Sr  Sr12  1  0.89574094  0.56029835  0.66455741  1.0
  Sr  Sr13  1  0.10425906  0.76881647  0.66455741  1.0
  Sr  Sr14  1  0.89574094  1.23118353  1.33544259  1.0
  Sr  Sr15  1  0.10425906  0.43970165  0.33544259  1.0
  Sr  Sr16  1  0.66706932  0.66706932  1.33413864  1.0
  Sr  Sr17  1  0.33293068  0.66706932  1.00000000  1.0
  Sr  Sr18  1  0.66706932  0.33293068  1.00000000  1.0
  Sr  Sr19  1  0.33293068  0.33293068  0.66586136  1.0
  Sr  Sr20  1  0.83915457  0.83915457  1.00000000  1.0
  Sr  Sr21  1  0.16084543  0.16084543  -0.00000000  1.0
  Sb  Sb22  1  0.61202821  0.61202821  0.58212414  1.0
  Sb  Sb23  1  0.97009593  0.97009593  1.58212414  1.0
  Sb  Sb24  1  1.02990407  0.61202821  1.00000000  1.0
  Sb  Sb25  1  0.38797179  0.97009593  1.00000000  1.0
  Sb  Sb26  1  0.61202821  1.02990407  1.00000000  1.0
  Sb  Sb27  1  0.97009593  0.38797179  1.00000000  1.0
  Sb  Sb28  1  1.02990407  1.02990407  1.41787586  1.0
  Sb  Sb29  1  0.38797179  0.38797179  0.41787586  1.0
  Sb  Sb30  1  0.50000000  0.85194771  1.35194771  1.0
  Sb  Sb31  1  0.85194771  0.50000000  1.35194771  1.0
  Sb  Sb32  1  0.14805229  0.50000000  0.64805229  1.0
  Sb  Sb33  1  0.50000000  0.14805229  0.64805229  1.0
  Sb  Sb34  1  0.88029220  0.88029220  1.76058439  1.0
  Sb  Sb35  1  0.11970780  0.88029220  1.00000000  1.0
  Sb  Sb36  1  0.88029220  0.11970780  1.00000000  1.0
  Sb  Sb37  1  0.11970780  0.11970780  0.23941561  1.0
  Sb  Sb38  1  0.62426998  0.62426998  1.00000000  1.0
  Sb  Sb39  1  0.37573002  0.37573002  -0.00000000  1.0
  Sb  Sb40  1  0.25000000  0.75000000  0.50000000  1.0
  Sb  Sb41  1  0.75000000  0.25000000  0.50000000  1.0
