# generated using pymatgen
data_K2PtF6
_symmetry_space_group_name_H-M   'P 1'
_cell_length_a   5.90931039
_cell_length_b   5.90931039
_cell_length_c   4.76664294
_cell_angle_alpha   90.00000000
_cell_angle_beta   90.00000000
_cell_angle_gamma   120.00000000
_symmetry_Int_Tables_number   1
_chemical_formula_structural   K2PtF6
_chemical_formula_sum   'K2 Pt1 F6'
_cell_volume   144.15073349
_cell_formula_units_Z   1
loop_
 _symmetry_equiv_pos_site_id
 _symmetry_equiv_pos_as_xyz
  1  'x, y, z'
loop_
 _atom_site_type_symbol
 _atom_site_label
 _atom_site_symmetry_multiplicity
 _atom_site_fract_x
 _atom_site_fract_y
 _atom_site_fract_z
 _atom_site_occupancy
  K  K0  1  0.33333333  0.66666667  0.28271763  1.0
  K  K1  1  0.66666667  0.33333333  0.71728237  1.0
  Pt  Pt2  1  0.00000000  0.00000000  0.00000000  1.0
  F  F3  1  0.32433126  0.16216563  0.22233948  1.0
  F  F4  1  0.16216563  0.32433126  0.77766052  1.0
  F  F5  1  0.16216563  0.83783437  0.77766052  1.0
  F  F6  1  0.83783437  0.16216563  0.22233948  1.0
  F  F7  1  0.83783437  0.67566874  0.22233948  1.0
  F  F8  1  0.67566874  0.83783437  0.77766052  1.0
