# generated using pymatgen
data_VAsO5
_symmetry_space_group_name_H-M   'P 1'
_cell_length_a   6.43447929
_cell_length_b   9.69079190
_cell_length_c   9.09805604
_cell_angle_alpha   90.00000000
_cell_angle_beta   134.97587659
_cell_angle_gamma   90.00000000
_symmetry_Int_Tables_number   1
_chemical_formula_structural   VAsO5
_chemical_formula_sum   'V4 As4 O20'
_cell_volume   401.31838907
_cell_formula_units_Z   4
loop_
 _symmetry_equiv_pos_site_id
 _symmetry_equiv_pos_as_xyz
  1  'x, y, z'
loop_
 _atom_site_type_symbol
 _atom_site_label
 _atom_site_symmetry_multiplicity
 _atom_site_fract_x
 _atom_site_fract_y
 _atom_site_fract_z
 _atom_site_occupancy
  V  V0  1  0.62569872  0.30942229  0.15645853  1.0
  V  V1  1  0.62569872  0.19057771  0.65645853  1.0
  V  V2  1  0.37430128  0.80942229  0.34354147  1.0
  V  V3  1  0.37430128  0.69057771  0.84354147  1.0
  As  As4  1  0.87445532  0.74874199  0.34340448  1.0
  As  As5  1  0.87445532  0.75125801  0.84340448  1.0
  As  As6  1  0.12554468  0.24874199  0.15659552  1.0
  As  As7  1  0.12554468  0.25125801  0.65659552  1.0
  O  O8  1  0.94752273  0.35592681  0.19205492  1.0
  O  O9  1  0.94752273  0.14407319  0.69205492  1.0
  O  O10  1  0.05247727  0.85592681  0.30794508  1.0
  O  O11  1  0.05247727  0.64407319  0.80794508  1.0
  O  O12  1  0.87235128  0.35577919  0.44051399  1.0
  O  O13  1  0.87235128  0.14422081  0.94051399  1.0
  O  O14  1  0.12764872  0.85577919  0.05948601  1.0
  O  O15  1  0.12764872  0.64422081  0.55948601  1.0
  O  O16  1  0.69634102  0.85591110  0.37852465  1.0
  O  O17  1  0.69634102  0.64408890  0.87852465  1.0
  O  O18  1  0.30365898  0.35591110  0.12147535  1.0
  O  O19  1  0.30365898  0.14408890  0.62147535  1.0
  O  O20  1  0.62146372  0.14764518  0.15101015  1.0
  O  O21  1  0.62146372  0.35235482  0.65101015  1.0
  O  O22  1  0.37853628  0.64764518  0.34898985  1.0
  O  O23  1  0.37853628  0.85235482  0.84898985  1.0
  O  O24  1  0.37070031  0.13820375  0.36768265  1.0
  O  O25  1  0.37070031  0.36179625  0.86768265  1.0
  O  O26  1  0.62929969  0.63820375  0.13231735  1.0
  O  O27  1  0.62929969  0.86179625  0.63231735  1.0
