# generated using pymatgen
data_GeI4
_symmetry_space_group_name_H-M   'P 1'
_cell_length_a   12.89683332
_cell_length_b   12.89683332
_cell_length_c   12.89683332
_cell_angle_alpha   90.00000000
_cell_angle_beta   90.00000000
_cell_angle_gamma   90.00000000
_symmetry_Int_Tables_number   1
_chemical_formula_structural   GeI4
_chemical_formula_sum   'Ge8 I32'
_cell_volume   2145.10848559
_cell_formula_units_Z   8
loop_
 _symmetry_equiv_pos_site_id
 _symmetry_equiv_pos_as_xyz
  1  'x, y, z'
loop_
 _atom_site_type_symbol
 _atom_site_label
 _atom_site_symmetry_multiplicity
 _atom_site_fract_x
 _atom_site_fract_y
 _atom_site_fract_z
 _atom_site_occupancy
  Ge  Ge0  1  0.36492248  0.86492248  0.63507752  1.0
  Ge  Ge1  1  0.36492248  0.63507752  0.13507752  1.0
  Ge  Ge2  1  0.86492248  0.86492248  0.86492248  1.0
  Ge  Ge3  1  0.86492248  0.63507752  0.36492248  1.0
  Ge  Ge4  1  0.63507752  0.36492248  0.86492248  1.0
  Ge  Ge5  1  0.63507752  0.13507752  0.36492248  1.0
  Ge  Ge6  1  0.13507752  0.36492248  0.63507752  1.0
  Ge  Ge7  1  0.13507752  0.13507752  0.13507752  1.0
  I  I8  1  0.53782292  0.49473906  0.75167668  1.0
  I  I9  1  0.53782292  0.00526094  0.25167668  1.0
  I  I10  1  0.03782292  0.49473906  0.74832332  1.0
  I  I11  1  0.03782292  0.00526094  0.24832332  1.0
  I  I12  1  0.99473906  0.74832332  0.46217708  1.0
  I  I13  1  0.99473906  0.75167668  0.96217708  1.0
  I  I14  1  0.49473906  0.74832332  0.03782292  1.0
  I  I15  1  0.49473906  0.75167668  0.53782292  1.0
  I  I16  1  0.24832332  0.03782292  0.00526094  1.0
  I  I17  1  0.24832332  0.46217708  0.50526094  1.0
  I  I18  1  0.74832332  0.03782292  0.49473906  1.0
  I  I19  1  0.74832332  0.46217708  0.99473906  1.0
  I  I20  1  0.46217708  0.99473906  0.74832332  1.0
  I  I21  1  0.46217708  0.50526094  0.24832332  1.0
  I  I22  1  0.96217708  0.99473906  0.75167668  1.0
  I  I23  1  0.96217708  0.50526094  0.25167668  1.0
  I  I24  1  0.00526094  0.24832332  0.03782292  1.0
  I  I25  1  0.00526094  0.25167668  0.53782292  1.0
  I  I26  1  0.50526094  0.24832332  0.46217708  1.0
  I  I27  1  0.50526094  0.25167668  0.96217708  1.0
  I  I28  1  0.75167668  0.53782292  0.49473906  1.0
  I  I29  1  0.75167668  0.96217708  0.99473906  1.0
  I  I30  1  0.25167668  0.53782292  0.00526094  1.0
  I  I31  1  0.25167668  0.96217708  0.50526094  1.0
  I  I32  1  0.25141754  0.75141754  0.74858246  1.0
  I  I33  1  0.25141754  0.74858246  0.24858246  1.0
  I  I34  1  0.75141754  0.75141754  0.75141754  1.0
  I  I35  1  0.75141754  0.74858246  0.25141754  1.0
  I  I36  1  0.74858246  0.25141754  0.75141754  1.0
  I  I37  1  0.74858246  0.24858246  0.25141754  1.0
  I  I38  1  0.24858246  0.25141754  0.74858246  1.0
  I  I39  1  0.24858246  0.24858246  0.24858246  1.0
