# generated using pymatgen
data_Cs3Co(NO2)6
_symmetry_space_group_name_H-M   'P 1'
_cell_length_a   8.04527456
_cell_length_b   8.04527456
_cell_length_c   8.04527456
_cell_angle_alpha   60.00000000
_cell_angle_beta   60.00000000
_cell_angle_gamma   60.00000000
_symmetry_Int_Tables_number   1
_chemical_formula_structural   Cs3Co(NO2)6
_chemical_formula_sum   'Cs3 Co1 N6 O12'
_cell_volume   368.22020114
_cell_formula_units_Z   1
loop_
 _symmetry_equiv_pos_site_id
 _symmetry_equiv_pos_as_xyz
  1  'x, y, z'
loop_
 _atom_site_type_symbol
 _atom_site_label
 _atom_site_symmetry_multiplicity
 _atom_site_fract_x
 _atom_site_fract_y
 _atom_site_fract_z
 _atom_site_occupancy
  Cs  Cs0  1  0.25000000  0.25000000  0.25000000  1.0
  Cs  Cs1  1  0.75000000  0.75000000  -0.25000000  1.0
  Cs  Cs2  1  -0.50000000  0.50000000  0.50000000  1.0
  Co  Co3  1  -0.00000000  -0.00000000  0.00000000  1.0
  N  N4  1  -0.82734878  0.82734878  0.82734878  1.0
  N  N5  1  0.17265122  -0.17265122  0.17265122  1.0
  N  N6  1  -0.17265122  0.17265122  0.82734878  1.0
  N  N7  1  -0.17265122  0.82734878  0.17265122  1.0
  N  N8  1  0.17265122  1.17265122  -0.17265122  1.0
  N  N9  1  -0.17265122  0.17265122  0.17265122  1.0
  O  O10  1  1.13271416  0.67767907  -0.67767907  1.0
  O  O11  1  0.67767907  1.13271416  -0.13271416  1.0
  O  O12  1  0.32232093  -0.13271416  0.13271416  1.0
  O  O13  1  -0.13271416  0.32232093  0.67767907  1.0
  O  O14  1  -0.13271416  0.67767907  0.13271416  1.0
  O  O15  1  0.32232093  1.13271416  -0.32232093  1.0
  O  O16  1  -0.67767907  0.67767907  0.86728584  1.0
  O  O17  1  0.13271416  -0.13271416  0.67767907  1.0
  O  O18  1  -0.32232093  0.86728584  0.32232093  1.0
  O  O19  1  0.13271416  1.32232093  -0.13271416  1.0
  O  O20  1  -0.13271416  0.13271416  0.32232093  1.0
  O  O21  1  -0.32232093  0.32232093  1.13271416  1.0
