# generated using pymatgen
data_Sr(POs)2
_symmetry_space_group_name_H-M   'P 1'
_cell_length_a   6.36464966
_cell_length_b   6.36464966
_cell_length_c   6.36464966
_cell_angle_alpha   142.60322997
_cell_angle_beta   142.60322997
_cell_angle_gamma   53.92117407
_symmetry_Int_Tables_number   1
_chemical_formula_structural   Sr(POs)2
_chemical_formula_sum   'Sr1 P2 Os2'
_cell_volume   94.47270913
_cell_formula_units_Z   1
loop_
 _symmetry_equiv_pos_site_id
 _symmetry_equiv_pos_as_xyz
  1  'x, y, z'
loop_
 _atom_site_type_symbol
 _atom_site_label
 _atom_site_symmetry_multiplicity
 _atom_site_fract_x
 _atom_site_fract_y
 _atom_site_fract_z
 _atom_site_occupancy
  Sr  Sr0  1  0.00000000  0.00000000  0.00000000  1.0
  P  P1  1  0.64823474  0.64823474  1.00000000  1.0
  P  P2  1  0.35176526  0.35176526  0.00000000  1.0
  Os  Os3  1  0.25000000  0.75000000  0.50000000  1.0
  Os  Os4  1  0.75000000  0.25000000  0.50000000  1.0
