# generated using pymatgen
data_Ti7P4
_symmetry_space_group_name_H-M   'P 1'
_cell_length_a   7.51923800
_cell_length_b   7.51923800
_cell_length_c   13.64111611
_cell_angle_alpha   75.68992716
_cell_angle_beta   104.31007284
_cell_angle_gamma   153.91236718
_symmetry_Int_Tables_number   1
_chemical_formula_structural   Ti7P4
_chemical_formula_sum   'Ti14 P8'
_cell_volume   328.05787589
_cell_formula_units_Z   2
loop_
 _symmetry_equiv_pos_site_id
 _symmetry_equiv_pos_as_xyz
  1  'x, y, z'
loop_
 _atom_site_type_symbol
 _atom_site_label
 _atom_site_symmetry_multiplicity
 _atom_site_fract_x
 _atom_site_fract_y
 _atom_site_fract_z
 _atom_site_occupancy
  Ti  Ti0  1  0.99666937  0.00333063  0.83665296  1.0
  Ti  Ti1  1  0.00333063  -0.00333063  0.16334704  1.0
  Ti  Ti2  1  0.82149230  0.17850770  0.95832380  1.0
  Ti  Ti3  1  0.17850770  -0.17850770  0.04167620  1.0
  Ti  Ti4  1  0.79432160  0.20567840  0.70566611  1.0
  Ti  Ti5  1  0.20567840  -0.20567840  0.29433389  1.0
  Ti  Ti6  1  0.66042801  0.33957199  0.46855360  1.0
  Ti  Ti7  1  0.33957199  -0.33957199  0.53144640  1.0
  Ti  Ti8  1  0.57032057  0.42967943  0.67023827  1.0
  Ti  Ti9  1  0.42967943  -0.42967943  0.32976173  1.0
  Ti  Ti10  1  0.19667470  -0.19667470  0.80769534  1.0
  Ti  Ti11  1  0.80332530  0.19667470  0.19230466  1.0
  Ti  Ti12  1  -0.00000000  0.00000000  0.50000000  1.0
  Ti  Ti13  1  0.50000000  0.50000000  -0.00000000  1.0
  P  P14  1  0.36998945  -0.36998945  0.84200392  1.0
  P  P15  1  0.63001055  0.36998945  0.15799608  1.0
  P  P16  1  0.93821188  0.06178812  0.65011486  1.0
  P  P17  1  0.06178812  -0.06178812  0.34988514  1.0
  P  P18  1  0.82228972  0.17771028  0.39012253  1.0
  P  P19  1  0.17771028  -0.17771028  0.60987747  1.0
  P  P20  1  0.62742965  0.37257035  0.89631867  1.0
  P  P21  1  0.37257035  -0.37257035  0.10368133  1.0
