# generated using pymatgen
data_Lu2Si5Ru3
_symmetry_space_group_name_H-M   'P 1'
_cell_length_a   10.66679202
_cell_length_b   10.66679202
_cell_length_c   5.54870579
_cell_angle_alpha   90.00000000
_cell_angle_beta   90.00000000
_cell_angle_gamma   90.00000000
_symmetry_Int_Tables_number   1
_chemical_formula_structural   Lu2Si5Ru3
_chemical_formula_sum   'Lu8 Si20 Ru12'
_cell_volume   631.33425249
_cell_formula_units_Z   4
loop_
 _symmetry_equiv_pos_site_id
 _symmetry_equiv_pos_as_xyz
  1  'x, y, z'
loop_
 _atom_site_type_symbol
 _atom_site_label
 _atom_site_symmetry_multiplicity
 _atom_site_fract_x
 _atom_site_fract_y
 _atom_site_fract_z
 _atom_site_occupancy
  Lu  Lu0  1  0.23592744  0.92821129  0.50000000  1.0
  Lu  Lu1  1  0.73592744  0.57178871  0.00000000  1.0
  Lu  Lu2  1  0.07178871  0.23592744  0.50000000  1.0
  Lu  Lu3  1  0.57178871  0.26407256  0.00000000  1.0
  Lu  Lu4  1  0.76407256  0.07178871  0.50000000  1.0
  Lu  Lu5  1  0.26407256  0.42821129  0.00000000  1.0
  Lu  Lu6  1  0.92821129  0.76407256  0.50000000  1.0
  Lu  Lu7  1  0.42821129  0.73592744  0.00000000  1.0
  Si  Si8  1  0.47322054  0.81931442  0.50000000  1.0
  Si  Si9  1  0.97322054  0.68068558  0.00000000  1.0
  Si  Si10  1  0.18068558  0.47322054  0.50000000  1.0
  Si  Si11  1  0.68068558  0.02677946  0.00000000  1.0
  Si  Si12  1  0.52677946  0.18068558  0.50000000  1.0
  Si  Si13  1  0.02677946  0.31931442  0.00000000  1.0
  Si  Si14  1  0.81931442  0.52677946  0.50000000  1.0
  Si  Si15  1  0.31931442  0.97322054  0.00000000  1.0
  Si  Si16  1  0.32603268  0.17396732  0.25000000  1.0
  Si  Si17  1  0.32603268  0.17396732  0.75000000  1.0
  Si  Si18  1  0.82603268  0.32603268  0.75000000  1.0
  Si  Si19  1  0.82603268  0.32603268  0.25000000  1.0
  Si  Si20  1  0.67396732  0.82603268  0.25000000  1.0
  Si  Si21  1  0.67396732  0.82603268  0.75000000  1.0
  Si  Si22  1  0.17396732  0.67396732  0.75000000  1.0
  Si  Si23  1  0.17396732  0.67396732  0.25000000  1.0
  Si  Si24  1  0.50000000  0.50000000  0.24275123  1.0
  Si  Si25  1  0.50000000  0.50000000  0.75724877  1.0
  Si  Si26  1  0.00000000  0.00000000  0.74275123  1.0
  Si  Si27  1  0.00000000  0.00000000  0.25724877  1.0
  Ru  Ru28  1  0.35577694  0.62460558  0.50000000  1.0
  Ru  Ru29  1  0.85577694  0.87539442  0.00000000  1.0
  Ru  Ru30  1  0.37539442  0.35577694  0.50000000  1.0
  Ru  Ru31  1  0.87539442  0.14422306  0.00000000  1.0
  Ru  Ru32  1  0.64422306  0.37539442  0.50000000  1.0
  Ru  Ru33  1  0.14422306  0.12460558  0.00000000  1.0
  Ru  Ru34  1  0.62460558  0.64422306  0.50000000  1.0
  Ru  Ru35  1  0.12460558  0.85577694  0.00000000  1.0
  Ru  Ru36  1  0.50000000  0.00000000  0.25000000  1.0
  Ru  Ru37  1  0.50000000  0.00000000  0.75000000  1.0
  Ru  Ru38  1  0.00000000  0.50000000  0.75000000  1.0
  Ru  Ru39  1  0.00000000  0.50000000  0.25000000  1.0
