# generated using pymatgen
data_Zr11Os4
_symmetry_space_group_name_H-M   'P 1'
_cell_length_a   9.53761525
_cell_length_b   9.53761525
_cell_length_c   9.53761525
_cell_angle_alpha   60.00000000
_cell_angle_beta   60.00000000
_cell_angle_gamma   60.00000000
_symmetry_Int_Tables_number   1
_chemical_formula_structural   Zr11Os4
_chemical_formula_sum   'Zr22 Os8'
_cell_volume   613.48563568
_cell_formula_units_Z   2
loop_
 _symmetry_equiv_pos_site_id
 _symmetry_equiv_pos_as_xyz
  1  'x, y, z'
loop_
 _atom_site_type_symbol
 _atom_site_label
 _atom_site_symmetry_multiplicity
 _atom_site_fract_x
 _atom_site_fract_y
 _atom_site_fract_z
 _atom_site_occupancy
  Zr  Zr0  1  0.88330704  0.88330704  -0.11669296  1.0
  Zr  Zr1  1  1.11669296  0.11669296  0.64992112  1.0
  Zr  Zr2  1  1.11669296  0.64992112  0.11669296  1.0
  Zr  Zr3  1  0.35007888  0.88330704  -0.11669296  1.0
  Zr  Zr4  1  1.64992112  0.11669296  0.11669296  1.0
  Zr  Zr5  1  0.88330704  0.35007888  -0.11669296  1.0
  Zr  Zr6  1  0.88330704  0.88330704  -0.64992112  1.0
  Zr  Zr7  1  1.11669296  0.11669296  0.11669296  1.0
  Zr  Zr8  1  0.66312302  0.66312302  -0.33687698  1.0
  Zr  Zr9  1  0.33687698  1.33687698  -0.01063093  1.0
  Zr  Zr10  1  1.33687698  -0.01063093  0.33687698  1.0
  Zr  Zr11  1  1.01063093  0.66312302  0.66312302  1.0
  Zr  Zr12  1  -0.01063093  1.33687698  0.33687698  1.0
  Zr  Zr13  1  0.66312302  1.01063093  -0.33687698  1.0
  Zr  Zr14  1  0.66312302  0.66312302  1.01063093  1.0
  Zr  Zr15  1  1.33687698  0.33687698  0.33687698  1.0
  Zr  Zr16  1  -0.70046812  0.70046812  0.70046812  1.0
  Zr  Zr17  1  -0.29953188  0.29953188  0.70046812  1.0
  Zr  Zr18  1  0.70046812  0.70046812  -0.70046812  1.0
  Zr  Zr19  1  0.29953188  1.29953188  -0.29953188  1.0
  Zr  Zr20  1  0.29953188  -0.29953188  1.29953188  1.0
  Zr  Zr21  1  -0.29953188  0.29953188  0.29953188  1.0
  Os  Os22  1  -0.50000000  0.50000000  0.50000000  1.0
  Os  Os23  1  1.50000000  0.00000000  -0.00000000  1.0
  Os  Os24  1  1.00000000  0.50000000  -0.50000000  1.0
  Os  Os25  1  0.00000000  1.50000000  -0.00000000  1.0
  Os  Os26  1  0.50000000  1.00000000  -0.50000000  1.0
  Os  Os27  1  0.00000000  0.00000000  0.50000000  1.0
  Os  Os28  1  0.50000000  -0.50000000  1.00000000  1.0
  Os  Os29  1  0.00000000  0.00000000  0.00000000  1.0
