# generated using pymatgen
data_Sr2Cu3(SO)2
_symmetry_space_group_name_H-M   'P 1'
_cell_length_a   9.64930731
_cell_length_b   9.64930731
_cell_length_c   9.64930731
_cell_angle_alpha   156.43885440
_cell_angle_beta   156.43885440
_cell_angle_gamma   33.56407893
_symmetry_Int_Tables_number   1
_chemical_formula_structural   Sr2Cu3(SO)2
_chemical_formula_sum   'Sr2 Cu3 S2 O2'
_cell_volume   143.41854174
_cell_formula_units_Z   1
loop_
 _symmetry_equiv_pos_site_id
 _symmetry_equiv_pos_as_xyz
  1  'x, y, z'
loop_
 _atom_site_type_symbol
 _atom_site_label
 _atom_site_symmetry_multiplicity
 _atom_site_fract_x
 _atom_site_fract_y
 _atom_site_fract_z
 _atom_site_occupancy
  Sr  Sr0  1  0.59093893  0.59093893  1.00000000  1.0
  Sr  Sr1  1  0.40906107  0.40906107  -0.00000000  1.0
  Cu  Cu2  1  0.25000000  0.75000000  0.50000000  1.0
  Cu  Cu3  1  0.75000000  0.25000000  0.50000000  1.0
  Cu  Cu4  1  0.00000000  0.00000000  0.00000000  1.0
  S  S5  1  0.82562753  0.82562753  1.00000000  1.0
  S  S6  1  0.17437247  0.17437247  -0.00000000  1.0
  O  O7  1  0.50000000  0.00000000  0.50000000  1.0
  O  O8  1  0.00000000  0.50000000  0.50000000  1.0
