# generated using pymatgen
data_H3CBr
_symmetry_space_group_name_H-M   'P 1'
_cell_length_a   4.66114295
_cell_length_b   4.66114295
_cell_length_c   8.08206467
_cell_angle_alpha   90.00000000
_cell_angle_beta   90.00000000
_cell_angle_gamma   81.67963664
_symmetry_Int_Tables_number   1
_chemical_formula_structural   H3CBr
_chemical_formula_sum   'H6 C2 Br2'
_cell_volume   173.74476891
_cell_formula_units_Z   2
loop_
 _symmetry_equiv_pos_site_id
 _symmetry_equiv_pos_as_xyz
  1  'x, y, z'
loop_
 _atom_site_type_symbol
 _atom_site_label
 _atom_site_symmetry_multiplicity
 _atom_site_fract_x
 _atom_site_fract_y
 _atom_site_fract_z
 _atom_site_occupancy
  H  H0  1  -0.46257024  1.46257024  0.36456274  1.0
  H  H1  1  0.46257024  0.53742976  0.86456274  1.0
  H  H2  1  0.48215816  0.77450974  0.49910239  1.0
  H  H3  1  0.22549026  0.51784184  0.49910239  1.0
  H  H4  1  -0.48215816  1.22549026  0.99910239  1.0
  H  H5  1  -0.22549026  1.48215816  0.99910239  1.0
  C  C6  1  0.37779702  0.62220298  0.42566378  1.0
  C  C7  1  -0.37779702  1.37779702  0.92566378  1.0
  Br  Br8  1  0.15288052  0.84711948  0.25126870  1.0
  Br  Br9  1  -0.15288052  1.15288052  0.75126870  1.0
