# generated using pymatgen
data_SnH4S6(NCl)6
_symmetry_space_group_name_H-M   'P 1'
_cell_length_a   7.78267074
_cell_length_b   13.08064588
_cell_length_c   12.10105958
_cell_angle_alpha   90.00000000
_cell_angle_beta   123.24233503
_cell_angle_gamma   90.00000000
_symmetry_Int_Tables_number   1
_chemical_formula_structural   SnH4S6(NCl)6
_chemical_formula_sum   'Sn2 H8 S12 N12 Cl12'
_cell_volume   1030.32500116
_cell_formula_units_Z   2
loop_
 _symmetry_equiv_pos_site_id
 _symmetry_equiv_pos_as_xyz
  1  'x, y, z'
loop_
 _atom_site_type_symbol
 _atom_site_label
 _atom_site_symmetry_multiplicity
 _atom_site_fract_x
 _atom_site_fract_y
 _atom_site_fract_z
 _atom_site_occupancy
  Sn  Sn0  1  0.50000000  0.50000000  0.50000000  1.0
  Sn  Sn1  1  0.50000000  0.00000000  0.00000000  1.0
  H  H2  1  0.49326084  0.24078700  0.34142266  1.0
  H  H3  1  0.49326084  0.25921300  0.84142266  1.0
  H  H4  1  0.50673916  0.74078700  0.15857734  1.0
  H  H5  1  0.50673916  0.75921300  0.65857734  1.0
  H  H6  1  0.40279076  0.14649470  0.21861907  1.0
  H  H7  1  0.40279076  0.35350530  0.71861907  1.0
  H  H8  1  0.59720924  0.64649470  0.28138093  1.0
  H  H9  1  0.59720924  0.85350530  0.78138093  1.0
  S  S10  1  0.96170622  0.15222261  0.48653546  1.0
  S  S11  1  0.96170622  0.34777739  0.98653546  1.0
  S  S12  1  0.03829378  0.65222261  0.01346454  1.0
  S  S13  1  0.03829378  0.84777739  0.51346454  1.0
  S  S14  1  0.85575405  0.32873972  0.16831720  1.0
  S  S15  1  0.85575405  0.17126028  0.66831720  1.0
  S  S16  1  0.14424595  0.82873972  0.33168280  1.0
  S  S17  1  0.14424595  0.67126028  0.83168280  1.0
  S  S18  1  0.65099039  0.08292910  0.41583442  1.0
  S  S19  1  0.65099039  0.41707090  0.91583442  1.0
  S  S20  1  0.34900961  0.58292910  0.08416558  1.0
  S  S21  1  0.34900961  0.91707090  0.58416558  1.0
  N  N22  1  1.00224892  0.29894251  0.12185899  1.0
  N  N23  1  1.00224892  0.20105749  0.62185899  1.0
  N  N24  1  -0.00224892  0.79894251  0.37814101  1.0
  N  N25  1  -0.00224892  0.70105749  0.87814101  1.0
  N  N26  1  0.68086852  0.40324544  0.05934907  1.0
  N  N27  1  0.68086852  0.09675456  0.55934907  1.0
  N  N28  1  0.31913148  0.90324544  0.44065093  1.0
  N  N29  1  0.31913148  0.59675456  0.94065093  1.0
  N  N30  1  0.47620544  0.16383784  0.31791773  1.0
  N  N31  1  0.47620544  0.33616216  0.81791773  1.0
  N  N32  1  0.52379456  0.66383784  0.18208227  1.0
  N  N33  1  0.52379456  0.83616216  0.68208227  1.0
  Cl  Cl34  1  0.81746422  0.05315285  0.21207996  1.0
  Cl  Cl35  1  0.81746422  0.44684715  0.71207996  1.0
  Cl  Cl36  1  0.18253578  0.55315285  0.28792004  1.0
  Cl  Cl37  1  0.18253578  0.94684715  0.78792004  1.0
  Cl  Cl38  1  0.61572333  0.40502955  0.37492968  1.0
  Cl  Cl39  1  0.61572333  0.09497045  0.87492968  1.0
  Cl  Cl40  1  0.38427667  0.90502955  0.12507032  1.0
  Cl  Cl41  1  0.38427667  0.59497045  0.62507032  1.0
  Cl  Cl42  1  0.32059068  0.34489198  0.50431717  1.0
  Cl  Cl43  1  0.32059068  0.15510802  1.00431717  1.0
  Cl  Cl44  1  0.67940932  0.84489198  -0.00431717  1.0
  Cl  Cl45  1  0.67940932  0.65510802  0.49568283  1.0
