# generated using pymatgen
data_Rb2Ag(AsSe2)3
_symmetry_space_group_name_H-M   'P 1'
_cell_length_a   13.11597390
_cell_length_b   8.04012070
_cell_length_c   18.55950377
_cell_angle_alpha   90.00000000
_cell_angle_beta   127.04393065
_cell_angle_gamma   90.00000000
_symmetry_Int_Tables_number   1
_chemical_formula_structural   Rb2Ag(AsSe2)3
_chemical_formula_sum   'Rb8 Ag4 As12 Se24'
_cell_volume   1562.16521752
_cell_formula_units_Z   4
loop_
 _symmetry_equiv_pos_site_id
 _symmetry_equiv_pos_as_xyz
  1  'x, y, z'
loop_
 _atom_site_type_symbol
 _atom_site_label
 _atom_site_symmetry_multiplicity
 _atom_site_fract_x
 _atom_site_fract_y
 _atom_site_fract_z
 _atom_site_occupancy
  Rb  Rb0  1  0.91465433  0.10457018  0.26124583  1.0
  Rb  Rb1  1  0.91465433  0.39542982  0.76124583  1.0
  Rb  Rb2  1  0.08534567  0.60457018  0.23875417  1.0
  Rb  Rb3  1  0.08534567  0.89542982  0.73875417  1.0
  Rb  Rb4  1  0.71586412  0.86407771  0.38821632  1.0
  Rb  Rb5  1  0.71586412  0.63592229  0.88821632  1.0
  Rb  Rb6  1  0.28413588  0.36407771  0.11178368  1.0
  Rb  Rb7  1  0.28413588  0.13592229  0.61178368  1.0
  Ag  Ag8  1  0.97619335  0.01157407  0.07249701  1.0
  Ag  Ag9  1  0.97619335  0.48842593  0.57249701  1.0
  Ag  Ag10  1  0.02380665  0.51157407  0.42750299  1.0
  Ag  Ag11  1  0.02380665  0.98842593  0.92750299  1.0
  As  As12  1  0.72618318  0.40579022  0.35080121  1.0
  As  As13  1  0.72618318  0.09420978  0.85080121  1.0
  As  As14  1  0.27381682  0.90579022  0.14919879  1.0
  As  As15  1  0.27381682  0.59420978  0.64919879  1.0
  As  As16  1  0.62164026  0.32038121  0.49622594  1.0
  As  As17  1  0.62164026  0.17961879  0.99622594  1.0
  As  As18  1  0.37835974  0.82038121  0.00377406  1.0
  As  As19  1  0.37835974  0.67961879  0.50377406  1.0
  As  As20  1  0.32945459  0.04836377  0.35927072  1.0
  As  As21  1  0.32945459  0.45163623  0.85927072  1.0
  As  As22  1  0.67054541  0.54836377  0.14072928  1.0
  As  As23  1  0.67054541  0.95163623  0.64072928  1.0
  Se  Se24  1  0.91476550  0.23807910  0.44542169  1.0
  Se  Se25  1  0.91476550  0.26192090  0.94542169  1.0
  Se  Se26  1  0.08523450  0.73807910  0.05457831  1.0
  Se  Se27  1  0.08523450  0.76192090  0.55457831  1.0
  Se  Se28  1  0.84571432  0.67685502  0.27396496  1.0
  Se  Se29  1  0.84571432  0.82314498  0.77396496  1.0
  Se  Se30  1  0.15428568  0.17685502  0.22603504  1.0
  Se  Se31  1  0.15428568  0.32314498  0.72603504  1.0
  Se  Se32  1  0.78021761  0.40609941  0.08594371  1.0
  Se  Se33  1  0.78021761  0.09390059  0.58594371  1.0
  Se  Se34  1  0.21978239  0.90609941  0.41405629  1.0
  Se  Se35  1  0.21978239  0.59390059  0.91405629  1.0
  Se  Se36  1  0.62466246  0.29829089  0.19713471  1.0
  Se  Se37  1  0.62466246  0.20170911  0.69713471  1.0
  Se  Se38  1  0.37533754  0.79829089  0.30286529  1.0
  Se  Se39  1  0.37533754  0.70170911  0.80286529  1.0
  Se  Se40  1  0.55854935  0.25164972  0.34450024  1.0
  Se  Se41  1  0.55854935  0.24835028  0.84450024  1.0
  Se  Se42  1  0.44145065  0.75164972  0.15549976  1.0
  Se  Se43  1  0.44145065  0.74835028  0.65549976  1.0
  Se  Se44  1  0.24709598  0.44244498  0.46001203  1.0
  Se  Se45  1  0.24709598  0.05755502  0.96001203  1.0
  Se  Se46  1  0.75290402  0.94244498  0.03998797  1.0
  Se  Se47  1  0.75290402  0.55755502  0.53998797  1.0
