# generated using pymatgen
data_TaCoTe2
_symmetry_space_group_name_H-M   'P 1'
_cell_length_a   8.50860107
_cell_length_b   6.32362749
_cell_length_c   7.78296526
_cell_angle_alpha   90.00000000
_cell_angle_beta   114.55511416
_cell_angle_gamma   90.00000000
_symmetry_Int_Tables_number   1
_chemical_formula_structural   TaCoTe2
_chemical_formula_sum   'Ta4 Co4 Te8'
_cell_volume   380.89196877
_cell_formula_units_Z   4
loop_
 _symmetry_equiv_pos_site_id
 _symmetry_equiv_pos_as_xyz
  1  'x, y, z'
loop_
 _atom_site_type_symbol
 _atom_site_label
 _atom_site_symmetry_multiplicity
 _atom_site_fract_x
 _atom_site_fract_y
 _atom_site_fract_z
 _atom_site_occupancy
  Ta  Ta0  1  0.98566827  0.97721008  0.69052746  1.0
  Ta  Ta1  1  0.98566827  0.52278992  0.19052746  1.0
  Ta  Ta2  1  0.01433173  0.47721008  0.80947254  1.0
  Ta  Ta3  1  0.01433173  0.02278992  0.30947254  1.0
  Co  Co4  1  0.90021883  0.15053832  0.94083602  1.0
  Co  Co5  1  0.90021883  0.34946168  0.44083602  1.0
  Co  Co6  1  0.09978117  0.65053832  0.55916398  1.0
  Co  Co7  1  0.09978117  0.84946168  0.05916398  1.0
  Te  Te8  1  0.77573823  0.75542992  0.85611526  1.0
  Te  Te9  1  0.77573823  0.74457008  0.35611526  1.0
  Te  Te10  1  0.22426177  0.25542992  0.64388474  1.0
  Te  Te11  1  0.22426177  0.24457008  0.14388474  1.0
  Te  Te12  1  0.30259899  0.74946224  0.90404378  1.0
  Te  Te13  1  0.30259899  0.75053776  0.40404378  1.0
  Te  Te14  1  0.69740101  0.24946224  0.59595622  1.0
  Te  Te15  1  0.69740101  0.25053776  0.09595622  1.0
