# generated using pymatgen
data_As3Pb5ClO9
_symmetry_space_group_name_H-M   'P 1'
_cell_length_a   10.68099366
_cell_length_b   10.68099366
_cell_length_c   7.57932189
_cell_angle_alpha   90.00000000
_cell_angle_beta   90.00000000
_cell_angle_gamma   120.00000000
_symmetry_Int_Tables_number   1
_chemical_formula_structural   As3Pb5ClO9
_chemical_formula_sum   'As6 Pb10 Cl2 O18'
_cell_volume   748.83183235
_cell_formula_units_Z   2
loop_
 _symmetry_equiv_pos_site_id
 _symmetry_equiv_pos_as_xyz
  1  'x, y, z'
loop_
 _atom_site_type_symbol
 _atom_site_label
 _atom_site_symmetry_multiplicity
 _atom_site_fract_x
 _atom_site_fract_y
 _atom_site_fract_z
 _atom_site_occupancy
  As  As0  1  0.29799126  0.95884706  0.24733789  1.0
  As  As1  1  0.95884706  0.66085579  0.74733789  1.0
  As  As2  1  0.66085579  0.70200874  0.24733789  1.0
  As  As3  1  0.04115294  0.33914421  0.24733789  1.0
  As  As4  1  0.70200874  0.04115294  0.74733789  1.0
  As  As5  1  0.33914421  0.29799126  0.74733789  1.0
  Pb  Pb6  1  0.95179765  0.64247635  0.24684228  1.0
  Pb  Pb7  1  0.64247635  0.69067870  0.74684228  1.0
  Pb  Pb8  1  0.69067870  0.04820235  0.24684228  1.0
  Pb  Pb9  1  0.35752365  0.30932130  0.24684228  1.0
  Pb  Pb10  1  0.04820235  0.35752365  0.74684228  1.0
  Pb  Pb11  1  0.30932130  0.95179765  0.74684228  1.0
  Pb  Pb12  1  0.33333333  0.66666667  0.08831499  1.0
  Pb  Pb13  1  0.66666667  0.33333333  0.58831499  1.0
  Pb  Pb14  1  0.00000000  0.00000000  -0.05658507  1.0
  Pb  Pb15  1  0.00000000  0.00000000  0.44341493  1.0
  Cl  Cl16  1  0.33333333  0.66666667  0.73470249  1.0
  Cl  Cl17  1  0.66666667  0.33333333  0.23470249  1.0
  O  O18  1  0.26771863  0.86015087  0.03545566  1.0
  O  O19  1  0.86015087  0.59243224  0.53545566  1.0
  O  O20  1  0.59243224  0.73228137  0.03545566  1.0
  O  O21  1  0.13984913  0.40756776  0.03545566  1.0
  O  O22  1  0.73228137  0.13984913  0.53545566  1.0
  O  O23  1  0.40756776  0.26771863  0.53545566  1.0
  O  O24  1  0.86091212  0.80369244  0.22527232  1.0
  O  O25  1  0.80369244  0.94278032  0.72527232  1.0
  O  O26  1  0.94278032  0.13908788  0.22527232  1.0
  O  O27  1  0.19630756  0.05721968  0.22527232  1.0
  O  O28  1  0.13908788  0.19630756  0.72527232  1.0
  O  O29  1  0.05721968  0.86091212  0.72527232  1.0
  O  O30  1  0.16948766  0.81089522  0.37628104  1.0
  O  O31  1  0.81089522  0.64140755  0.87628104  1.0
  O  O32  1  0.64140755  0.83051234  0.37628104  1.0
  O  O33  1  0.18910478  0.35859245  0.37628104  1.0
  O  O34  1  0.83051234  0.18910478  0.87628104  1.0
  O  O35  1  0.35859245  0.16948766  0.87628104  1.0
