# generated using pymatgen
data_NaMgF3
_symmetry_space_group_name_H-M   'P 1'
_cell_length_a   5.57178472
_cell_length_b   7.77400555
_cell_length_c   5.43276624
_cell_angle_alpha   90.00000000
_cell_angle_beta   90.00000000
_cell_angle_gamma   90.00000000
_symmetry_Int_Tables_number   1
_chemical_formula_structural   NaMgF3
_chemical_formula_sum   'Na4 Mg4 F12'
_cell_volume   235.32073320
_cell_formula_units_Z   4
loop_
 _symmetry_equiv_pos_site_id
 _symmetry_equiv_pos_as_xyz
  1  'x, y, z'
loop_
 _atom_site_type_symbol
 _atom_site_label
 _atom_site_symmetry_multiplicity
 _atom_site_fract_x
 _atom_site_fract_y
 _atom_site_fract_z
 _atom_site_occupancy
  Na  Na0  1  0.04587135  0.75000000  0.51140964  1.0
  Na  Na1  1  0.54587135  0.75000000  0.98859036  1.0
  Na  Na2  1  0.95412865  0.25000000  0.48859036  1.0
  Na  Na3  1  0.45412865  0.25000000  0.01140964  1.0
  Mg  Mg4  1  0.50000000  0.00000000  0.50000000  1.0
  Mg  Mg5  1  0.50000000  0.50000000  0.50000000  1.0
  Mg  Mg6  1  0.00000000  0.00000000  0.00000000  1.0
  Mg  Mg7  1  0.00000000  0.50000000  0.00000000  1.0
  F  F8  1  0.29389915  0.95322030  0.79620465  1.0
  F  F9  1  0.29389915  0.54677970  0.79620465  1.0
  F  F10  1  0.79389915  0.95322030  0.70379535  1.0
  F  F11  1  0.79389915  0.54677970  0.70379535  1.0
  F  F12  1  0.70610085  0.45322030  0.20379535  1.0
  F  F13  1  0.70610085  0.04677970  0.20379535  1.0
  F  F14  1  0.20610085  0.45322030  0.29620465  1.0
  F  F15  1  0.20610085  0.04677970  0.29620465  1.0
  F  F16  1  0.97153968  0.75000000  0.08934284  1.0
  F  F17  1  0.47153968  0.75000000  0.41065716  1.0
  F  F18  1  0.02846032  0.25000000  0.91065716  1.0
  F  F19  1  0.52846032  0.25000000  0.58934284  1.0
