# generated using pymatgen
data_BaSiC
_symmetry_space_group_name_H-M   'P 1'
_cell_length_a   8.99061459
_cell_length_b   5.97955741
_cell_length_c   11.44469245
_cell_angle_alpha   90.00000000
_cell_angle_beta   90.00000000
_cell_angle_gamma   90.00000000
_symmetry_Int_Tables_number   1
_chemical_formula_structural   BaSiC
_chemical_formula_sum   'Ba8 Si8 C8'
_cell_volume   615.26547681
_cell_formula_units_Z   8
loop_
 _symmetry_equiv_pos_site_id
 _symmetry_equiv_pos_as_xyz
  1  'x, y, z'
loop_
 _atom_site_type_symbol
 _atom_site_label
 _atom_site_symmetry_multiplicity
 _atom_site_fract_x
 _atom_site_fract_y
 _atom_site_fract_z
 _atom_site_occupancy
  Ba  Ba0  1  -0.02379274  0.25000000  0.35143526  1.0
  Ba  Ba1  1  0.47620726  0.25000000  0.14856474  1.0
  Ba  Ba2  1  1.02379274  0.75000000  0.64856474  1.0
  Ba  Ba3  1  0.52379274  0.75000000  0.85143526  1.0
  Ba  Ba4  1  0.88489842  0.25000000  0.92429447  1.0
  Ba  Ba5  1  0.38489842  0.25000000  0.57570553  1.0
  Ba  Ba6  1  0.11510158  0.75000000  0.07570553  1.0
  Ba  Ba7  1  0.61510158  0.75000000  0.42429447  1.0
  Si  Si8  1  0.21366963  0.05247254  0.83458281  1.0
  Si  Si9  1  0.71366963  0.44752746  0.66541719  1.0
  Si  Si10  1  0.78633037  0.55247254  0.16541719  1.0
  Si  Si11  1  0.28633037  0.94752746  0.33458281  1.0
  Si  Si12  1  0.78633037  0.94752746  0.16541719  1.0
  Si  Si13  1  0.28633037  0.55247254  0.33458281  1.0
  Si  Si14  1  0.21366963  0.44752746  0.83458281  1.0
  Si  Si15  1  0.71366963  0.05247254  0.66541719  1.0
  C  C16  1  0.34865828  0.25000000  0.93039698  1.0
  C  C17  1  0.84865828  0.25000000  0.56960302  1.0
  C  C18  1  0.65134172  0.75000000  0.06960302  1.0
  C  C19  1  0.15134172  0.75000000  0.43039698  1.0
  C  C20  1  0.19842665  0.25000000  -0.02321116  1.0
  C  C21  1  0.69842665  0.25000000  0.52321116  1.0
  C  C22  1  0.80157335  0.75000000  1.02321116  1.0
  C  C23  1  0.30157335  0.75000000  0.47678884  1.0
