# generated using pymatgen
data_Ba2LuCu3O7
_symmetry_space_group_name_H-M   'P 1'
_cell_length_a   3.81631136
_cell_length_b   3.90885385
_cell_length_c   11.78137458
_cell_angle_alpha   90.00000000
_cell_angle_beta   90.00000000
_cell_angle_gamma   90.00000000
_symmetry_Int_Tables_number   1
_chemical_formula_structural   Ba2LuCu3O7
_chemical_formula_sum   'Ba2 Lu1 Cu3 O7'
_cell_volume   175.74751663
_cell_formula_units_Z   1
loop_
 _symmetry_equiv_pos_site_id
 _symmetry_equiv_pos_as_xyz
  1  'x, y, z'
loop_
 _atom_site_type_symbol
 _atom_site_label
 _atom_site_symmetry_multiplicity
 _atom_site_fract_x
 _atom_site_fract_y
 _atom_site_fract_z
 _atom_site_occupancy
  Ba  Ba0  1  0.50000000  0.50000000  0.81930000  1.0
  Ba  Ba1  1  0.50000000  0.50000000  0.18070000  1.0
  Lu  Lu2  1  0.50000000  0.50000000  0.50000000  1.0
  Cu  Cu3  1  0.00000000  0.00000000  0.64446954  1.0
  Cu  Cu4  1  0.00000000  0.00000000  0.35553046  1.0
  Cu  Cu5  1  0.00000000  0.00000000  0.00000000  1.0
  O  O6  1  0.50000000  0.00000000  0.61730691  1.0
  O  O7  1  0.50000000  0.00000000  0.38269309  1.0
  O  O8  1  0.00000000  0.50000000  0.61899283  1.0
  O  O9  1  0.00000000  0.50000000  0.38100717  1.0
  O  O10  1  0.00000000  0.00000000  0.84015483  1.0
  O  O11  1  0.00000000  0.00000000  0.15984517  1.0
  O  O12  1  0.00000000  0.50000000  0.00000000  1.0
