# generated using pymatgen
data_LiWCl6
_symmetry_space_group_name_H-M   'P 1'
_cell_length_a   9.50456865
_cell_length_b   9.50456865
_cell_length_c   9.50456865
_cell_angle_alpha   83.57039401
_cell_angle_beta   83.57039401
_cell_angle_gamma   83.57039401
_symmetry_Int_Tables_number   1
_chemical_formula_structural   LiWCl6
_chemical_formula_sum   'Li4 W4 Cl24'
_cell_volume   843.53531740
_cell_formula_units_Z   4
loop_
 _symmetry_equiv_pos_site_id
 _symmetry_equiv_pos_as_xyz
  1  'x, y, z'
loop_
 _atom_site_type_symbol
 _atom_site_label
 _atom_site_symmetry_multiplicity
 _atom_site_fract_x
 _atom_site_fract_y
 _atom_site_fract_z
 _atom_site_occupancy
  Li  Li0  1  0.18563048  0.68449776  -0.81384893  1.0
  Li  Li1  1  0.68449776  0.18615107  -0.81436952  1.0
  Li  Li2  1  0.18615107  0.18563048  -0.31550224  1.0
  Li  Li3  1  0.01972522  0.01972522  0.01972522  1.0
  W  W4  1  0.84806999  0.84869406  -0.64060717  1.0
  W  W5  1  0.84869406  0.35939283  -0.15193001  1.0
  W  W6  1  0.35939283  0.84806999  -0.15130594  1.0
  W  W7  1  0.35339914  0.35339914  -0.64660086  1.0
  Cl  Cl8  1  1.12998777  1.27390747  0.43247027  1.0
  Cl  Cl9  1  1.27390747  1.43247027  0.12998777  1.0
  Cl  Cl10  1  1.43247027  1.12998777  0.27390747  1.0
  Cl  Cl11  1  0.42061267  0.28049997  -0.41707639  1.0
  Cl  Cl12  1  0.28049997  0.58292361  -0.57938733  1.0
  Cl  Cl13  1  0.58292361  0.42061267  -0.71950003  1.0
  Cl  Cl14  1  0.62734010  0.77834820  -0.57864027  1.0
  Cl  Cl15  1  0.77834820  0.42135973  -0.37265990  1.0
  Cl  Cl16  1  0.42135973  0.62734010  -0.22165180  1.0
  Cl  Cl17  1  1.08113895  -0.07580720  -0.73041484  1.0
  Cl  Cl18  1  0.92419280  -0.73041484  0.08113895  1.0
  Cl  Cl19  1  0.26958516  0.08113895  -0.07580720  1.0
  Cl  Cl20  1  0.78021327  0.08090766  -0.57996457  1.0
  Cl  Cl21  1  1.08090766  -0.57996457  -0.21978673  1.0
  Cl  Cl22  1  0.42003543  -0.21978673  0.08090766  1.0
  Cl  Cl23  1  0.27260987  0.93055766  -0.37036910  1.0
  Cl  Cl24  1  0.93055766  0.62963090  -0.72739013  1.0
  Cl  Cl25  1  0.62963090  0.27260987  -0.06944234  1.0
  Cl  Cl26  1  0.92696935  0.78110448  -0.42417849  1.0
  Cl  Cl27  1  0.78110448  0.57582151  -0.07303065  1.0
  Cl  Cl28  1  0.57582151  0.92696935  -0.21889552  1.0
  Cl  Cl29  1  0.93537645  0.12263231  -0.21958610  1.0
  Cl  Cl30  1  1.12263231  -0.21958610  -0.06462355  1.0
  Cl  Cl31  1  0.78041390  -0.06462355  0.12263231  1.0
