# generated using pymatgen
data_CaTi4(PO4)6
_symmetry_space_group_name_H-M   'P 1'
_cell_length_a   8.86947582
_cell_length_b   8.86947582
_cell_length_c   8.86947582
_cell_angle_alpha   57.80333098
_cell_angle_beta   57.80333098
_cell_angle_gamma   57.80333098
_symmetry_Int_Tables_number   1
_chemical_formula_structural   CaTi4(PO4)6
_chemical_formula_sum   'Ca1 Ti4 P6 O24'
_cell_volume   468.49000300
_cell_formula_units_Z   1
loop_
 _symmetry_equiv_pos_site_id
 _symmetry_equiv_pos_as_xyz
  1  'x, y, z'
loop_
 _atom_site_type_symbol
 _atom_site_label
 _atom_site_symmetry_multiplicity
 _atom_site_fract_x
 _atom_site_fract_y
 _atom_site_fract_z
 _atom_site_occupancy
  Ca  Ca0  1  0.00000000  0.00000000  0.00000000  1.0
  Ti  Ti1  1  0.14850745  0.14850745  0.14850745  1.0
  Ti  Ti2  1  0.85149255  -0.14850745  -0.14850745  1.0
  Ti  Ti3  1  0.36027870  0.36027870  -0.63972130  1.0
  Ti  Ti4  1  0.63972130  0.63972130  -0.36027870  1.0
  P  P5  1  0.53999035  0.24707340  -0.03002613  1.0
  P  P6  1  1.03002613  -0.53999035  -0.24707340  1.0
  P  P7  1  0.75292660  0.03002613  -0.53999035  1.0
  P  P8  1  0.46000965  -0.24707340  0.03002613  1.0
  P  P9  1  0.96997387  -0.46000965  0.24707340  1.0
  P  P10  1  1.24707340  -0.03002613  -0.46000965  1.0
  O  O11  1  0.19651829  1.00492262  -0.62212634  1.0
  O  O12  1  0.62212634  -0.19651829  -0.00492262  1.0
  O  O13  1  0.99507738  -0.37787366  -0.19651829  1.0
  O  O14  1  0.80348171  -0.00492262  -0.37787366  1.0
  O  O15  1  0.37787366  0.19651829  0.00492262  1.0
  O  O16  1  1.00492262  0.37787366  -0.80348171  1.0
  O  O17  1  0.56353443  0.19886527  -0.53934706  1.0
  O  O18  1  0.53934706  0.43646557  -0.19886527  1.0
  O  O19  1  0.80113473  0.53934706  -0.56353443  1.0
  O  O20  1  0.43646557  0.80113473  -0.46065294  1.0
  O  O21  1  0.46065294  0.56353443  -0.80113473  1.0
  O  O22  1  0.19886527  0.46065294  -0.43646557  1.0
  O  O23  1  0.26506706  0.91150987  -0.91869235  1.0
  O  O24  1  0.91869235  -0.26506706  0.08849013  1.0
  O  O25  1  1.08849013  -0.08130765  -0.26506706  1.0
  O  O26  1  0.73493294  0.08849013  -0.08130765  1.0
  O  O27  1  0.08130765  0.26506706  -0.08849013  1.0
  O  O28  1  0.91150987  0.08130765  -0.73493294  1.0
  O  O29  1  0.51452786  0.25602656  0.15102306  1.0
  O  O30  1  0.84897694  -0.51452786  -0.25602656  1.0
  O  O31  1  0.74397344  -0.15102306  -0.51452786  1.0
  O  O32  1  0.48547214  -0.25602656  -0.15102306  1.0
  O  O33  1  1.15102306  -0.48547214  0.25602656  1.0
  O  O34  1  1.25602656  0.15102306  -0.48547214  1.0
