# generated using pymatgen
data_Zr3Zn3N
_symmetry_space_group_name_H-M   'P 1'
_cell_length_a   8.58535371
_cell_length_b   8.58535371
_cell_length_c   8.58535371
_cell_angle_alpha   60.00000000
_cell_angle_beta   60.00000000
_cell_angle_gamma   60.00000000
_symmetry_Int_Tables_number   1
_chemical_formula_structural   Zr3Zn3N
_chemical_formula_sum   'Zr12 Zn12 N4'
_cell_volume   447.46552453
_cell_formula_units_Z   4
loop_
 _symmetry_equiv_pos_site_id
 _symmetry_equiv_pos_as_xyz
  1  'x, y, z'
loop_
 _atom_site_type_symbol
 _atom_site_label
 _atom_site_symmetry_multiplicity
 _atom_site_fract_x
 _atom_site_fract_y
 _atom_site_fract_z
 _atom_site_occupancy
  Zr  Zr0  1  1.43652860  0.43652860  0.06347140  1.0
  Zr  Zr1  1  1.06347140  0.43652860  0.06347140  1.0
  Zr  Zr2  1  1.43652860  0.06347140  0.06347140  1.0
  Zr  Zr3  1  1.06347140  0.06347140  0.43652860  1.0
  Zr  Zr4  1  1.43652860  0.06347140  0.43652860  1.0
  Zr  Zr5  1  1.06347140  0.43652860  0.43652860  1.0
  Zr  Zr6  1  0.81347140  0.81347140  -0.81347140  1.0
  Zr  Zr7  1  1.18652860  -0.18652860  0.18652860  1.0
  Zr  Zr8  1  -0.18652860  0.18652860  0.18652860  1.0
  Zr  Zr9  1  0.18652860  0.18652860  -0.18652860  1.0
  Zr  Zr10  1  0.81347140  -0.81347140  0.81347140  1.0
  Zr  Zr11  1  -0.81347140  0.81347140  0.81347140  1.0
  Zn  Zn12  1  0.83102987  -0.16897013  0.50691039  1.0
  Zn  Zn13  1  0.83102987  -0.49308961  0.83102987  1.0
  Zn  Zn14  1  0.50691039  0.83102987  0.83102987  1.0
  Zn  Zn15  1  0.83102987  0.83102987  0.83102987  1.0
  Zn  Zn16  1  1.41897013  0.41897013  -0.25691039  1.0
  Zn  Zn17  1  1.41897013  -0.25691039  0.41897013  1.0
  Zn  Zn18  1  0.74308961  0.41897013  0.41897013  1.0
  Zn  Zn19  1  1.41897013  0.41897013  0.41897013  1.0
  Zn  Zn20  1  0.62500000  0.62500000  1.12500000  1.0
  Zn  Zn21  1  0.62500000  1.12500000  0.62500000  1.0
  Zn  Zn22  1  1.12500000  0.62500000  0.62500000  1.0
  Zn  Zn23  1  0.62500000  0.62500000  0.62500000  1.0
  N  N24  1  0.12500000  0.12500000  1.62500000  1.0
  N  N25  1  0.12500000  0.62500000  1.12500000  1.0
  N  N26  1  1.62500000  0.12500000  0.12500000  1.0
  N  N27  1  1.12500000  0.12500000  0.12500000  1.0
