# generated using pymatgen
data_CdGe(BiO3)2
_symmetry_space_group_name_H-M   'P 1'
_cell_length_a   7.35592795
_cell_length_b   8.66278373
_cell_length_c   13.11148734
_cell_angle_alpha   90.00000000
_cell_angle_beta   122.80542277
_cell_angle_gamma   90.00000000
_symmetry_Int_Tables_number   1
_chemical_formula_structural   CdGe(BiO3)2
_chemical_formula_sum   'Cd4 Ge4 Bi8 O24'
_cell_volume   702.25127662
_cell_formula_units_Z   4
loop_
 _symmetry_equiv_pos_site_id
 _symmetry_equiv_pos_as_xyz
  1  'x, y, z'
loop_
 _atom_site_type_symbol
 _atom_site_label
 _atom_site_symmetry_multiplicity
 _atom_site_fract_x
 _atom_site_fract_y
 _atom_site_fract_z
 _atom_site_occupancy
  Cd  Cd0  1  0.38056087  0.32400939  0.02318154  1.0
  Cd  Cd1  1  0.38056087  0.17599061  0.52318154  1.0
  Cd  Cd2  1  0.61943913  0.82400939  0.47681846  1.0
  Cd  Cd3  1  0.61943913  0.67599061  0.97681846  1.0
  Ge  Ge4  1  0.65280210  0.28862287  0.46406314  1.0
  Ge  Ge5  1  0.65280210  0.21137713  0.96406314  1.0
  Ge  Ge6  1  0.34719790  0.78862287  0.03593686  1.0
  Ge  Ge7  1  0.34719790  0.71137713  0.53593686  1.0
  Bi  Bi8  1  0.89109862  0.16514007  0.26999047  1.0
  Bi  Bi9  1  0.89109862  0.33485993  0.76999047  1.0
  Bi  Bi10  1  0.10890138  0.66514007  0.23000953  1.0
  Bi  Bi11  1  0.10890138  0.83485993  0.73000953  1.0
  Bi  Bi12  1  0.29222767  0.17726542  0.19113637  1.0
  Bi  Bi13  1  0.29222767  0.32273458  0.69113637  1.0
  Bi  Bi14  1  0.70777233  0.67726542  0.30886363  1.0
  Bi  Bi15  1  0.70777233  0.82273458  0.80886363  1.0
  O  O16  1  1.09167650  0.63792180  0.40968301  1.0
  O  O17  1  1.09167650  0.86207820  0.90968301  1.0
  O  O18  1  -0.09167650  0.13792180  0.09031699  1.0
  O  O19  1  -0.09167650  0.36207820  0.59031699  1.0
  O  O20  1  0.67395575  0.20992176  0.34038517  1.0
  O  O21  1  0.67395575  0.29007824  0.84038517  1.0
  O  O22  1  0.32604425  0.70992176  0.15961483  1.0
  O  O23  1  0.32604425  0.79007824  0.65961483  1.0
  O  O24  1  0.81491315  0.47841572  0.11109937  1.0
  O  O25  1  0.81491315  0.02158428  0.61109937  1.0
  O  O26  1  0.18508685  0.97841572  0.38890063  1.0
  O  O27  1  0.18508685  0.52158428  0.88890063  1.0
  O  O28  1  0.52810640  0.48776873  0.37605005  1.0
  O  O29  1  0.52810640  0.01223127  0.87605005  1.0
  O  O30  1  0.47189360  0.98776873  0.12394995  1.0
  O  O31  1  0.47189360  0.51223127  0.62394995  1.0
  O  O32  1  0.69583633  0.94188666  0.21631612  1.0
  O  O33  1  0.69583633  0.55811334  0.71631612  1.0
  O  O34  1  0.30416367  0.44188666  0.28368388  1.0
  O  O35  1  0.30416367  0.05811334  0.78368388  1.0
  O  O36  1  0.73168562  0.41404784  0.18179420  1.0
  O  O37  1  0.73168562  0.08595216  0.68179420  1.0
  O  O38  1  0.26831438  0.91404784  0.31820580  1.0
  O  O39  1  0.26831438  0.58595216  0.81820580  1.0
