# generated using pymatgen
data_Be(PO3)2
_symmetry_space_group_name_H-M   'P 1'
_cell_length_a   5.03871142
_cell_length_b   13.19900651
_cell_length_c   7.32162430
_cell_angle_alpha   90.00000000
_cell_angle_beta   112.29109609
_cell_angle_gamma   90.00000000
_symmetry_Int_Tables_number   1
_chemical_formula_structural   Be(PO3)2
_chemical_formula_sum   'Be4 P8 O24'
_cell_volume   450.54277386
_cell_formula_units_Z   4
loop_
 _symmetry_equiv_pos_site_id
 _symmetry_equiv_pos_as_xyz
  1  'x, y, z'
loop_
 _atom_site_type_symbol
 _atom_site_label
 _atom_site_symmetry_multiplicity
 _atom_site_fract_x
 _atom_site_fract_y
 _atom_site_fract_z
 _atom_site_occupancy
  Be  Be0  1  0.33513503  0.43027331  0.22985904  1.0
  Be  Be1  1  0.33513503  0.06972669  0.72985904  1.0
  Be  Be2  1  0.66486497  0.93027331  0.27014096  1.0
  Be  Be3  1  0.66486497  0.56972669  0.77014096  1.0
  P  P4  1  0.96685685  0.13022857  0.32826757  1.0
  P  P5  1  0.96685685  0.36977143  0.82826757  1.0
  P  P6  1  0.03314315  0.63022857  0.17173243  1.0
  P  P7  1  0.03314315  0.86977143  0.67173243  1.0
  P  P8  1  0.93069224  0.34717371  0.41169129  1.0
  P  P9  1  0.93069224  0.15282629  0.91169129  1.0
  P  P10  1  0.06930776  0.84717371  0.08830871  1.0
  P  P11  1  0.06930776  0.65282629  0.58830871  1.0
  O  O12  1  0.93286198  0.65553150  0.35078985  1.0
  O  O13  1  0.93286198  0.84446850  0.85078985  1.0
  O  O14  1  0.06713802  0.15553150  0.14921015  1.0
  O  O15  1  0.06713802  0.34446850  0.64921015  1.0
  O  O16  1  0.80836272  0.23345768  0.35207509  1.0
  O  O17  1  0.80836272  0.26654232  0.85207509  1.0
  O  O18  1  0.19163728  0.73345768  0.14792491  1.0
  O  O19  1  0.19163728  0.76654232  0.64792491  1.0
  O  O20  1  0.82317476  0.86459976  0.15181731  1.0
  O  O21  1  0.82317476  0.63540024  0.65181731  1.0
  O  O22  1  0.17682524  0.36459976  0.34818269  1.0
  O  O23  1  0.17682524  0.13540024  0.84818269  1.0
  O  O24  1  0.76078290  0.88537302  0.49424917  1.0
  O  O25  1  0.76078290  0.61462698  0.99424917  1.0
  O  O26  1  0.23921710  0.38537302  0.00575083  1.0
  O  O27  1  0.23921710  0.11462698  0.50575083  1.0
  O  O28  1  0.73883121  0.05025270  0.27214666  1.0
  O  O29  1  0.73883121  0.44974730  0.77214666  1.0
  O  O30  1  0.26116879  0.55025270  0.22785334  1.0
  O  O31  1  0.26116879  0.94974730  0.72785334  1.0
  O  O32  1  0.68052171  0.41840412  0.33889636  1.0
  O  O33  1  0.68052171  0.08159588  0.83889636  1.0
  O  O34  1  0.31947829  0.91840412  0.16110364  1.0
  O  O35  1  0.31947829  0.58159588  0.66110364  1.0
