# generated using pymatgen
data_NbF5
_symmetry_space_group_name_H-M   'P 1'
_cell_length_a   9.12306655
_cell_length_b   9.12306655
_cell_length_c   5.68183397
_cell_angle_alpha   88.63070393
_cell_angle_beta   91.36929607
_cell_angle_gamma   68.15247366
_symmetry_Int_Tables_number   1
_chemical_formula_structural   NbF5
_chemical_formula_sum   'Nb4 F20'
_cell_volume   438.53664841
_cell_formula_units_Z   4
loop_
 _symmetry_equiv_pos_site_id
 _symmetry_equiv_pos_as_xyz
  1  'x, y, z'
loop_
 _atom_site_type_symbol
 _atom_site_label
 _atom_site_symmetry_multiplicity
 _atom_site_fract_x
 _atom_site_fract_y
 _atom_site_fract_z
 _atom_site_occupancy
  Nb  Nb0  1  0.74656448  -0.74656448  0.73615552  1.0
  Nb  Nb1  1  0.25343552  -0.25343552  0.26384448  1.0
  Nb  Nb2  1  0.80406512  -0.19593488  0.50000000  1.0
  Nb  Nb3  1  1.19593488  0.19593488  0.50000000  1.0
  F  F4  1  1.78683826  0.02627332  0.61574813  1.0
  F  F5  1  0.97372668  -0.78683826  0.61574813  1.0
  F  F6  1  1.02627332  0.78683826  0.38425187  1.0
  F  F7  1  0.21316174  -0.02627332  0.38425187  1.0
  F  F8  1  0.60671765  -0.16124175  0.61649566  1.0
  F  F9  1  1.16124175  0.39328235  0.61649566  1.0
  F  F10  1  0.83875825  -0.39328235  0.38350434  1.0
  F  F11  1  1.39328235  0.16124175  0.38350434  1.0
  F  F12  1  1.54855381  0.26799158  0.82790401  1.0
  F  F13  1  0.73200842  -0.54855381  0.82790401  1.0
  F  F14  1  1.26799158  0.54855381  0.17209599  1.0
  F  F15  1  0.45144619  -0.26799158  0.17209599  1.0
  F  F16  1  1.26803607  0.08305735  0.78642646  1.0
  F  F17  1  0.91694265  -0.26803607  0.78642646  1.0
  F  F18  1  1.08305735  0.26803607  0.21357354  1.0
  F  F19  1  0.73196393  -0.08305735  0.21357354  1.0
  F  F20  1  0.85972132  -0.85972132  0.00209798  1.0
  F  F21  1  0.14027868  -0.14027868  0.99790202  1.0
  F  F22  1  0.68721822  -0.68721822  0.41859206  1.0
  F  F23  1  0.31278178  -0.31278178  0.58140794  1.0
