# generated using pymatgen
data_K6CoS4
_symmetry_space_group_name_H-M   'P 1'
_cell_length_a   9.80313526
_cell_length_b   9.80313526
_cell_length_c   7.70631799
_cell_angle_alpha   90.00000000
_cell_angle_beta   90.00000000
_cell_angle_gamma   120.00000000
_symmetry_Int_Tables_number   1
_chemical_formula_structural   K6CoS4
_chemical_formula_sum   'K12 Co2 S8'
_cell_volume   641.36838318
_cell_formula_units_Z   2
loop_
 _symmetry_equiv_pos_site_id
 _symmetry_equiv_pos_as_xyz
  1  'x, y, z'
loop_
 _atom_site_type_symbol
 _atom_site_label
 _atom_site_symmetry_multiplicity
 _atom_site_fract_x
 _atom_site_fract_y
 _atom_site_fract_z
 _atom_site_occupancy
  K  K0  1  0.70643179  0.85321589  0.29240221  1.0
  K  K1  1  0.85321589  0.70643179  0.79240221  1.0
  K  K2  1  0.85321589  0.14678411  0.79240221  1.0
  K  K3  1  0.14678411  0.85321589  0.29240221  1.0
  K  K4  1  0.14678411  0.29356821  0.29240221  1.0
  K  K5  1  0.29356821  0.14678411  0.79240221  1.0
  K  K6  1  0.94080542  0.47040271  0.11647637  1.0
  K  K7  1  0.47040271  0.94080542  0.61647637  1.0
  K  K8  1  0.47040271  0.52959729  0.61647637  1.0
  K  K9  1  0.52959729  0.47040271  0.11647637  1.0
  K  K10  1  0.52959729  0.05919458  0.11647637  1.0
  K  K11  1  0.05919458  0.52959729  0.61647637  1.0
  Co  Co12  1  0.33333333  0.66666667  0.00266208  1.0
  Co  Co13  1  0.66666667  0.33333333  0.50266208  1.0
  S  S14  1  0.40079001  0.20039501  0.40599766  1.0
  S  S15  1  0.20039501  0.40079001  0.90599766  1.0
  S  S16  1  0.20039501  0.79960499  0.90599766  1.0
  S  S17  1  0.79960499  0.20039501  0.40599766  1.0
  S  S18  1  0.79960499  0.59920999  0.40599766  1.0
  S  S19  1  0.59920999  0.79960499  0.90599766  1.0
  S  S20  1  0.33333333  0.66666667  0.30980919  1.0
  S  S21  1  0.66666667  0.33333333  0.80980919  1.0
