# generated using pymatgen
data_Yb2Ge2O7
_symmetry_space_group_name_H-M   'P 1'
_cell_length_a   6.85671264
_cell_length_b   6.85671264
_cell_length_c   12.40196522
_cell_angle_alpha   90.00000000
_cell_angle_beta   90.00000000
_cell_angle_gamma   90.00000000
_symmetry_Int_Tables_number   1
_chemical_formula_structural   Yb2Ge2O7
_chemical_formula_sum   'Yb8 Ge8 O28'
_cell_volume   583.07229607
_cell_formula_units_Z   4
loop_
 _symmetry_equiv_pos_site_id
 _symmetry_equiv_pos_as_xyz
  1  'x, y, z'
loop_
 _atom_site_type_symbol
 _atom_site_label
 _atom_site_symmetry_multiplicity
 _atom_site_fract_x
 _atom_site_fract_y
 _atom_site_fract_z
 _atom_site_occupancy
  Yb  Yb0  1  0.14264846  0.62511338  0.86407512  1.0
  Yb  Yb1  1  0.64264846  0.87488662  0.88592488  1.0
  Yb  Yb2  1  0.37488662  0.85735154  0.63592488  1.0
  Yb  Yb3  1  0.87488662  0.64264846  0.11407512  1.0
  Yb  Yb4  1  0.85735154  0.37488662  0.36407512  1.0
  Yb  Yb5  1  0.35735154  0.12511338  0.38592488  1.0
  Yb  Yb6  1  0.62511338  0.14264846  0.13592488  1.0
  Yb  Yb7  1  0.12511338  0.35735154  0.61407512  1.0
  Ge  Ge8  1  0.40099659  0.64960578  0.11816821  1.0
  Ge  Ge9  1  0.90099659  0.85039422  0.63183179  1.0
  Ge  Ge10  1  0.35039422  0.59900341  0.38183179  1.0
  Ge  Ge11  1  0.85039422  0.90099659  0.36816821  1.0
  Ge  Ge12  1  0.59900341  0.35039422  0.61816821  1.0
  Ge  Ge13  1  0.09900341  0.14960578  0.13183179  1.0
  Ge  Ge14  1  0.64960578  0.40099659  0.88183179  1.0
  Ge  Ge15  1  0.14960578  0.09900341  0.86816821  1.0
  O  O16  1  0.46499073  0.57895217  0.87842084  1.0
  O  O17  1  0.96499073  0.92104783  0.87157916  1.0
  O  O18  1  0.42104783  0.53500927  0.62157916  1.0
  O  O19  1  0.92104783  0.96499073  0.12842084  1.0
  O  O20  1  0.53500927  0.42104783  0.37842084  1.0
  O  O21  1  0.03500927  0.07895217  0.37157916  1.0
  O  O22  1  0.57895217  0.46499073  0.12157916  1.0
  O  O23  1  0.07895217  0.03500927  0.62842084  1.0
  O  O24  1  0.33712777  0.93547071  0.82085809  1.0
  O  O25  1  0.83712777  0.56452929  0.92914191  1.0
  O  O26  1  0.06452929  0.66287223  0.67914191  1.0
  O  O27  1  0.56452929  0.83712777  0.07085809  1.0
  O  O28  1  0.66287223  0.06452929  0.32085809  1.0
  O  O29  1  0.16287223  0.43547071  0.42914191  1.0
  O  O30  1  0.93547071  0.33712777  0.17914191  1.0
  O  O31  1  0.43547071  0.16287223  0.57085809  1.0
  O  O32  1  0.18170299  0.64364738  0.04398404  1.0
  O  O33  1  0.68170299  0.85635262  0.70601596  1.0
  O  O34  1  0.35635262  0.81829701  0.45601596  1.0
  O  O35  1  0.85635262  0.68170299  0.29398404  1.0
  O  O36  1  0.81829701  0.35635262  0.54398404  1.0
  O  O37  1  0.31829701  0.14364738  0.20601596  1.0
  O  O38  1  0.64364738  0.18170299  0.95601596  1.0
  O  O39  1  0.14364738  0.31829701  0.79398404  1.0
  O  O40  1  0.30453201  0.69546799  0.25000000  1.0
  O  O41  1  0.80453201  0.80453201  0.50000000  1.0
  O  O42  1  0.69546799  0.30453201  0.75000000  1.0
  O  O43  1  0.19546799  0.19546799  0.00000000  1.0
