# generated using pymatgen
data_Na2Ga2GeS6
_symmetry_space_group_name_H-M   'P 1'
_cell_length_a   12.06807229
_cell_length_b   7.34306306
_cell_length_c   13.10841598
_cell_angle_alpha   65.40857899
_cell_angle_beta   33.59239922
_cell_angle_gamma   80.99902179
_symmetry_Int_Tables_number   1
_chemical_formula_structural   Na2Ga2GeS6
_chemical_formula_sum   'Na4 Ga4 Ge2 S12'
_cell_volume   541.03861047
_cell_formula_units_Z   2
loop_
 _symmetry_equiv_pos_site_id
 _symmetry_equiv_pos_as_xyz
  1  'x, y, z'
loop_
 _atom_site_type_symbol
 _atom_site_label
 _atom_site_symmetry_multiplicity
 _atom_site_fract_x
 _atom_site_fract_y
 _atom_site_fract_z
 _atom_site_occupancy
  Na  Na0  1  0.70060730  1.28027960  0.38804724  1.0
  Na  Na1  1  0.86195276  -0.38106586  0.54939270  1.0
  Na  Na2  1  1.28027960  -0.29939270  0.63106586  1.0
  Na  Na3  1  0.61893414  -0.13804724  0.96972040  1.0
  Ga  Ga4  1  1.28759877  0.26792015  -0.05249675  1.0
  Ga  Ga5  1  0.30249675  -0.24697783  0.96240123  1.0
  Ga  Ga6  1  0.26792015  0.28759877  1.49697783  1.0
  Ga  Ga7  1  0.75302217  -0.69750325  0.98207985  1.0
  Ge  Ge8  1  0.99617334  -0.00382666  0.00382666  1.0
  Ge  Ge9  1  0.24617334  0.24617334  1.25382666  1.0
  S  S10  1  -0.05161522  0.69807775  1.20045856  1.0
  S  S11  1  0.04954144  0.09692108  1.30161522  1.0
  S  S12  1  1.69807775  -0.05161522  0.15307892  1.0
  S  S13  1  0.09692108  0.04954144  1.55192225  1.0
  S  S14  1  0.25441775  0.58151784  1.19739036  1.0
  S  S15  1  1.05260964  0.28332595  -0.00441775  1.0
  S  S16  1  1.58151784  0.25441775  -0.03332595  1.0
  S  S17  1  0.28332595  0.05260964  1.66848216  1.0
  S  S18  1  0.51329357  1.10252915  0.76348700  1.0
  S  S19  1  0.48651300  -0.37069028  0.73670643  1.0
  S  S20  1  1.10252915  -0.48670643  0.62069028  1.0
  S  S21  1  0.62930972  0.48651300  1.14747085  1.0
