# generated using pymatgen
data_CaMnF5
_symmetry_space_group_name_H-M   'P 1'
_cell_length_a   9.08000069
_cell_length_b   6.44701579
_cell_length_c   8.01710629
_cell_angle_alpha   90.00000000
_cell_angle_beta   116.01629084
_cell_angle_gamma   90.00000000
_symmetry_Int_Tables_number   1
_chemical_formula_structural   CaMnF5
_chemical_formula_sum   'Ca4 Mn4 F20'
_cell_volume   421.75689967
_cell_formula_units_Z   4
loop_
 _symmetry_equiv_pos_site_id
 _symmetry_equiv_pos_as_xyz
  1  'x, y, z'
loop_
 _atom_site_type_symbol
 _atom_site_label
 _atom_site_symmetry_multiplicity
 _atom_site_fract_x
 _atom_site_fract_y
 _atom_site_fract_z
 _atom_site_occupancy
  Ca  Ca0  1  0.50000000  0.95722323  0.75000000  1.0
  Ca  Ca1  1  0.50000000  0.04277677  0.25000000  1.0
  Ca  Ca2  1  0.00000000  0.54278519  0.75000000  1.0
  Ca  Ca3  1  0.00000000  0.45721481  0.25000000  1.0
  Mn  Mn4  1  0.50000000  0.50000000  -0.00000000  1.0
  Mn  Mn5  1  0.50000000  0.50000000  0.50000000  1.0
  Mn  Mn6  1  -0.00000000  0.00000000  -0.00000000  1.0
  Mn  Mn7  1  0.00000000  0.00000000  0.50000000  1.0
  F  F8  1  0.99140556  0.70391826  0.45722177  1.0
  F  F9  1  0.99140556  0.29608174  0.95722177  1.0
  F  F10  1  0.00859444  0.70391826  0.04277823  1.0
  F  F11  1  0.00859444  0.29608174  0.54277823  1.0
  F  F12  1  0.77537497  0.98638745  0.89085509  1.0
  F  F13  1  0.77537497  0.01361255  0.39085509  1.0
  F  F14  1  0.22462503  0.98638745  0.60914491  1.0
  F  F15  1  0.22462503  0.01361255  0.10914491  1.0
  F  F16  1  0.72462838  0.51354564  0.60920003  1.0
  F  F17  1  0.72462838  0.48645436  0.10920003  1.0
  F  F18  1  0.27537162  0.51354564  0.89079997  1.0
  F  F19  1  0.27537162  0.48645436  0.39079997  1.0
  F  F20  1  0.49145364  0.79607700  0.45723103  1.0
  F  F21  1  0.49145364  0.20392300  0.95723103  1.0
  F  F22  1  0.50854636  0.79607700  0.04276897  1.0
  F  F23  1  0.50854636  0.20392300  0.54276897  1.0
  F  F24  1  0.50000000  0.59991879  0.75000000  1.0
  F  F25  1  0.50000000  0.40008121  0.25000000  1.0
  F  F26  1  0.00000000  0.90011185  0.75000000  1.0
  F  F27  1  0.00000000  0.09988815  0.25000000  1.0
