# generated using pymatgen
data_Ba4Zn(ReO6)2
_symmetry_space_group_name_H-M   'P 1'
_cell_length_a   9.95584559
_cell_length_b   9.95584559
_cell_length_c   9.95584559
_cell_angle_alpha   33.72224480
_cell_angle_beta   33.72224480
_cell_angle_gamma   33.72224480
_symmetry_Int_Tables_number   1
_chemical_formula_structural   Ba4Zn(ReO6)2
_chemical_formula_sum   'Ba4 Zn1 Re2 O12'
_cell_volume   270.98380782
_cell_formula_units_Z   1
loop_
 _symmetry_equiv_pos_site_id
 _symmetry_equiv_pos_as_xyz
  1  'x, y, z'
loop_
 _atom_site_type_symbol
 _atom_site_label
 _atom_site_symmetry_multiplicity
 _atom_site_fract_x
 _atom_site_fract_y
 _atom_site_fract_z
 _atom_site_occupancy
  Ba  Ba0  1  0.86949970  0.86949970  0.86949970  1.0
  Ba  Ba1  1  1.13050030  1.13050030  0.13050030  1.0
  Ba  Ba2  1  0.70803564  0.70803564  0.70803564  1.0
  Ba  Ba3  1  1.29196436  1.29196436  0.29196436  1.0
  Zn  Zn4  1  0.00000000  0.00000000  0.00000000  1.0
  Re  Re5  1  1.58084779  0.58084779  0.58084779  1.0
  Re  Re6  1  1.41915221  0.41915221  0.41915221  1.0
  O  O7  1  1.39000707  0.39000707  0.85796940  1.0
  O  O8  1  1.39000707  0.85796940  0.39000707  1.0
  O  O9  1  1.14203060  0.60999293  0.60999293  1.0
  O  O10  1  1.60999293  0.14203060  0.60999293  1.0
  O  O11  1  1.60999293  0.60999293  0.14203060  1.0
  O  O12  1  0.85796940  1.39000707  0.39000707  1.0
  O  O13  1  1.22087544  0.22087544  0.68997552  1.0
  O  O14  1  1.22087544  0.68997552  0.22087544  1.0
  O  O15  1  1.31002448  0.77912456  0.77912456  1.0
  O  O16  1  1.77912456  0.31002448  0.77912456  1.0
  O  O17  1  1.77912456  0.77912456  0.31002448  1.0
  O  O18  1  0.68997552  1.22087544  0.22087544  1.0
