# generated using pymatgen
data_K3Gd(AsS4)2
_symmetry_space_group_name_H-M   'P 1'
_cell_length_a   11.05521583
_cell_length_b   11.05521583
_cell_length_c   9.10058481
_cell_angle_alpha   77.13789013
_cell_angle_beta   102.86210987
_cell_angle_gamma   56.89151554
_symmetry_Int_Tables_number   1
_chemical_formula_structural   K3Gd(AsS4)2
_chemical_formula_sum   'K6 Gd2 As4 S16'
_cell_volume   823.66575573
_cell_formula_units_Z   2
loop_
 _symmetry_equiv_pos_site_id
 _symmetry_equiv_pos_as_xyz
  1  'x, y, z'
loop_
 _atom_site_type_symbol
 _atom_site_label
 _atom_site_symmetry_multiplicity
 _atom_site_fract_x
 _atom_site_fract_y
 _atom_site_fract_z
 _atom_site_occupancy
  K  K0  1  0.99716863  0.99716863  0.75000000  1.0
  K  K1  1  1.00283137  0.00283137  0.25000000  1.0
  K  K2  1  0.74575749  0.74575749  0.75000000  1.0
  K  K3  1  1.25424251  0.25424251  0.25000000  1.0
  K  K4  1  0.50000000  -0.50000000  -0.00000000  1.0
  K  K5  1  0.50000000  -0.50000000  0.50000000  1.0
  Gd  Gd6  1  1.24272618  0.24272618  0.75000000  1.0
  Gd  Gd7  1  0.75727382  0.75727382  0.25000000  1.0
  As  As8  1  1.65604847  0.09228160  0.90045321  1.0
  As  As9  1  0.90771840  0.34395153  0.40045321  1.0
  As  As10  1  1.09228160  0.65604847  0.59954679  1.0
  As  As11  1  1.34395153  -0.09228160  0.09954679  1.0
  S  S12  1  1.83906040  -0.13058266  0.47181174  1.0
  S  S13  1  1.13058266  0.16093960  0.97181174  1.0
  S  S14  1  0.86941734  0.83906040  0.02818826  1.0
  S  S15  1  1.16093960  0.13058266  0.52818826  1.0
  S  S16  1  1.47294524  -0.12370568  0.94033928  1.0
  S  S17  1  1.12370568  0.52705476  0.44033928  1.0
  S  S18  1  0.87629432  0.47294524  0.55966072  1.0
  S  S19  1  1.52705476  0.12370568  0.05966072  1.0
  S  S20  1  1.73094641  0.23741401  0.87355599  1.0
  S  S21  1  0.76258599  0.26905359  0.37355599  1.0
  S  S22  1  1.23741401  0.73094641  0.62644401  1.0
  S  S23  1  1.26905359  -0.23741401  0.12644401  1.0
  S  S24  1  1.50142015  0.14033078  0.65866600  1.0
  S  S25  1  0.85966922  0.49857985  0.15866600  1.0
  S  S26  1  1.14033078  0.50142015  0.84133400  1.0
  S  S27  1  1.49857985  -0.14033078  0.34133400  1.0
