# generated using pymatgen
data_ZnS
_symmetry_space_group_name_H-M   'P 1'
_cell_length_a   3.84916506
_cell_length_b   3.84916506
_cell_length_c   62.93820022
_cell_angle_alpha   90.00000000
_cell_angle_beta   90.00000000
_cell_angle_gamma   120.00000000
_symmetry_Int_Tables_number   1
_chemical_formula_structural   ZnS
_chemical_formula_sum   'Zn20 S20'
_cell_volume   807.56599238
_cell_formula_units_Z   20
loop_
 _symmetry_equiv_pos_site_id
 _symmetry_equiv_pos_as_xyz
  1  'x, y, z'
loop_
 _atom_site_type_symbol
 _atom_site_label
 _atom_site_symmetry_multiplicity
 _atom_site_fract_x
 _atom_site_fract_y
 _atom_site_fract_z
 _atom_site_occupancy
  Zn  Zn0  1  0.00000000  0.00000000  0.04998876  1.0
  Zn  Zn1  1  0.00000000  0.00000000  0.25000037  1.0
  Zn  Zn2  1  0.00000000  0.00000000  0.39999388  1.0
  Zn  Zn3  1  0.00000000  0.00000000  0.54998905  1.0
  Zn  Zn4  1  0.00000000  0.00000000  0.75000142  1.0
  Zn  Zn5  1  0.00000000  0.00000000  0.89999458  1.0
  Zn  Zn6  1  0.66666667  0.33333333  0.14999440  1.0
  Zn  Zn7  1  0.66666667  0.33333333  0.34996236  1.0
  Zn  Zn8  1  0.66666667  0.33333333  0.45002941  1.0
  Zn  Zn9  1  0.66666667  0.33333333  0.59995304  1.0
  Zn  Zn10  1  0.66666667  0.33333333  0.70002906  1.0
  Zn  Zn11  1  0.66666667  0.33333333  0.84995480  1.0
  Zn  Zn12  1  0.66666667  0.33333333  0.95002430  1.0
  Zn  Zn13  1  0.33333333  0.66666667  -0.00003888  1.0
  Zn  Zn14  1  0.33333333  0.66666667  0.09998977  1.0
  Zn  Zn15  1  0.33333333  0.66666667  0.19998884  1.0
  Zn  Zn16  1  0.33333333  0.66666667  0.30002528  1.0
  Zn  Zn17  1  0.33333333  0.66666667  0.50000221  1.0
  Zn  Zn18  1  0.33333333  0.66666667  0.64999225  1.0
  Zn  Zn19  1  0.33333333  0.66666667  0.79998871  1.0
  S  S20  1  0.00000000  0.00000000  0.01245854  1.0
  S  S21  1  0.00000000  0.00000000  0.21247394  1.0
  S  S22  1  0.00000000  0.00000000  0.36245976  1.0
  S  S23  1  0.00000000  0.00000000  0.51250723  1.0
  S  S24  1  0.00000000  0.00000000  0.71252292  1.0
  S  S25  1  0.00000000  0.00000000  0.86245855  1.0
  S  S26  1  0.66666667  0.33333333  0.11247147  1.0
  S  S27  1  0.66666667  0.33333333  0.31250539  1.0
  S  S28  1  0.66666667  0.33333333  0.41255763  1.0
  S  S29  1  0.66666667  0.33333333  0.56248728  1.0
  S  S30  1  0.66666667  0.33333333  0.66255742  1.0
  S  S31  1  0.66666667  0.33333333  0.81248874  1.0
  S  S32  1  0.66666667  0.33333333  0.91255591  1.0
  S  S33  1  0.33333333  0.66666667  0.06254022  1.0
  S  S34  1  0.33333333  0.66666667  0.16254057  1.0
  S  S35  1  0.33333333  0.66666667  0.26255914  1.0
  S  S36  1  0.33333333  0.66666667  0.46252410  1.0
  S  S37  1  0.33333333  0.66666667  0.61245662  1.0
  S  S38  1  0.33333333  0.66666667  0.76250657  1.0
  S  S39  1  0.33333333  0.66666667  0.96250440  1.0
