# generated using pymatgen
data_Ba3(LiSb)4
_symmetry_space_group_name_H-M   'P 1'
_cell_length_a   9.46737549
_cell_length_b   9.46737549
_cell_length_c   9.46737549
_cell_angle_alpha   149.19563203
_cell_angle_beta   132.08539087
_cell_angle_gamma   58.05139994
_symmetry_Int_Tables_number   1
_chemical_formula_structural   Ba3(LiSb)4
_chemical_formula_sum   'Ba3 Li4 Sb4'
_cell_volume   320.08263919
_cell_formula_units_Z   1
loop_
 _symmetry_equiv_pos_site_id
 _symmetry_equiv_pos_as_xyz
  1  'x, y, z'
loop_
 _atom_site_type_symbol
 _atom_site_label
 _atom_site_symmetry_multiplicity
 _atom_site_fract_x
 _atom_site_fract_y
 _atom_site_fract_z
 _atom_site_occupancy
  Ba  Ba0  1  0.00000000  0.00000000  0.00000000  1.0
  Ba  Ba1  1  0.63209522  0.13209522  0.50000000  1.0
  Ba  Ba2  1  0.36790478  0.86790478  0.50000000  1.0
  Li  Li3  1  0.36721179  0.67472985  0.69248194  1.0
  Li  Li4  1  1.01775209  0.32527015  0.69248194  1.0
  Li  Li5  1  0.98224791  0.67472985  1.30751806  1.0
  Li  Li6  1  0.63278821  0.32527015  0.30751806  1.0
  Sb  Sb7  1  0.78632585  0.78632585  1.00000000  1.0
  Sb  Sb8  1  0.21367415  0.21367415  -0.00000000  1.0
  Sb  Sb9  1  0.31310964  0.50000000  0.81310964  1.0
  Sb  Sb10  1  0.68689036  0.50000000  1.18689036  1.0
