# generated using pymatgen
data_BeCl2
_symmetry_space_group_name_H-M   'P 1'
_cell_length_a   12.06752910
_cell_length_b   12.06752910
_cell_length_c   12.06752910
_cell_angle_alpha   124.19181662
_cell_angle_beta   124.19181662
_cell_angle_gamma   82.88100314
_symmetry_Int_Tables_number   1
_chemical_formula_structural   BeCl2
_chemical_formula_sum   'Be16 Cl32'
_cell_volume   1154.11307244
_cell_formula_units_Z   16
loop_
 _symmetry_equiv_pos_site_id
 _symmetry_equiv_pos_as_xyz
  1  'x, y, z'
loop_
 _atom_site_type_symbol
 _atom_site_label
 _atom_site_symmetry_multiplicity
 _atom_site_fract_x
 _atom_site_fract_y
 _atom_site_fract_z
 _atom_site_occupancy
  Be  Be0  1  1.11310167  0.81126927  0.55229675  1.0
  Be  Be1  1  1.61310167  1.06080492  1.30183240  1.0
  Be  Be2  1  1.06126927  1.86310167  1.05229675  1.0
  Be  Be3  1  1.56126927  1.50897252  1.19816760  1.0
  Be  Be4  1  0.63689833  0.43873073  0.94770325  1.0
  Be  Be5  1  0.13689833  0.18919508  0.19816760  1.0
  Be  Be6  1  1.68873073  1.38689833  1.44770325  1.0
  Be  Be7  1  1.18873073  1.74102748  1.30183240  1.0
  Be  Be8  1  0.75897252  1.31126927  0.69816760  1.0
  Be  Be9  1  1.25897252  1.56080492  1.44770325  1.0
  Be  Be10  1  1.31080492  1.36310167  0.80183240  1.0
  Be  Be11  1  1.81080492  1.00897252  0.94770325  1.0
  Be  Be12  1  0.99102748  0.93873073  1.80183240  1.0
  Be  Be13  1  0.49102748  0.68919508  1.05229675  1.0
  Be  Be14  1  1.43919508  0.88689833  0.69816760  1.0
  Be  Be15  1  0.93919508  1.24102748  0.55229675  1.0
  Cl  Cl16  1  1.30188653  0.95371727  0.75510598  1.0
  Cl  Cl17  1  0.80188653  1.04678055  0.34816926  1.0
  Cl  Cl18  1  0.20371727  0.05188653  0.25510598  1.0
  Cl  Cl19  1  0.70371727  0.44861129  1.15183074  1.0
  Cl  Cl20  1  1.44811347  1.29628273  0.74489402  1.0
  Cl  Cl21  1  1.94811347  1.20321945  1.15183074  1.0
  Cl  Cl22  1  1.54628273  1.19811347  1.24489402  1.0
  Cl  Cl23  1  1.04628273  0.80138871  0.34816926  1.0
  Cl  Cl24  1  1.69861129  1.45371727  1.65183074  1.0
  Cl  Cl25  1  1.19861129  1.54678055  1.24489402  1.0
  Cl  Cl26  1  0.29678055  0.55188653  0.84816926  1.0
  Cl  Cl27  1  0.79678055  0.94861129  1.74489402  1.0
  Cl  Cl28  1  1.05138871  1.79628273  0.84816926  1.0
  Cl  Cl29  1  1.55138871  1.70321945  1.25510598  1.0
  Cl  Cl30  1  1.45321945  1.69811347  1.65183074  1.0
  Cl  Cl31  1  0.95321945  1.30138871  0.75510598  1.0
  Cl  Cl32  1  0.11866439  0.61866439  0.50000000  1.0
  Cl  Cl33  1  0.61866439  0.11866439  0.50000000  1.0
  Cl  Cl34  1  0.86866439  0.86866439  -0.00000000  1.0
  Cl  Cl35  1  1.36866439  1.36866439  1.00000000  1.0
  Cl  Cl36  1  0.63133561  0.63133561  -0.00000000  1.0
  Cl  Cl37  1  1.13133561  1.13133561  1.00000000  1.0
  Cl  Cl38  1  0.88133561  1.38133561  0.50000000  1.0
  Cl  Cl39  1  1.38133561  0.88133561  0.50000000  1.0
  Cl  Cl40  1  0.96468480  0.87500000  0.58968480  1.0
  Cl  Cl41  1  1.46468480  0.87500000  1.08968480  1.0
  Cl  Cl42  1  1.12500000  1.71468480  1.08968480  1.0
  Cl  Cl43  1  1.62500000  1.53531520  1.41031520  1.0
  Cl  Cl44  1  0.78531520  1.37500000  0.91031520  1.0
  Cl  Cl45  1  1.28531520  1.37500000  1.41031520  1.0
  Cl  Cl46  1  1.12500000  1.21468480  0.58968480  1.0
  Cl  Cl47  1  1.62500000  1.03531520  0.91031520  1.0
