# generated using pymatgen
data_Mn3O4
_symmetry_space_group_name_H-M   'P 1'
_cell_length_a   3.02450647
_cell_length_b   9.90149550
_cell_length_c   9.66074993
_cell_angle_alpha   90.00000000
_cell_angle_beta   90.00000000
_cell_angle_gamma   90.00000000
_symmetry_Int_Tables_number   1
_chemical_formula_structural   Mn3O4
_chemical_formula_sum   'Mn12 O16'
_cell_volume   289.31180339
_cell_formula_units_Z   4
loop_
 _symmetry_equiv_pos_site_id
 _symmetry_equiv_pos_as_xyz
  1  'x, y, z'
loop_
 _atom_site_type_symbol
 _atom_site_label
 _atom_site_symmetry_multiplicity
 _atom_site_fract_x
 _atom_site_fract_y
 _atom_site_fract_z
 _atom_site_occupancy
  Mn  Mn0  1  0.79754888  0.11631214  0.43052559  1.0
  Mn  Mn1  1  0.79754888  0.11631214  0.06947441  1.0
  Mn  Mn2  1  0.79754888  0.38368786  0.93052559  1.0
  Mn  Mn3  1  0.79754888  0.38368786  0.56947441  1.0
  Mn  Mn4  1  0.20245112  0.61631214  0.43052559  1.0
  Mn  Mn5  1  0.20245112  0.61631214  0.06947441  1.0
  Mn  Mn6  1  0.20245112  0.88368786  0.93052559  1.0
  Mn  Mn7  1  0.20245112  0.88368786  0.56947441  1.0
  Mn  Mn8  1  0.32832126  0.35681071  0.25000000  1.0
  Mn  Mn9  1  0.32832126  0.14318929  0.75000000  1.0
  Mn  Mn10  1  0.67167874  0.85681071  0.25000000  1.0
  Mn  Mn11  1  0.67167874  0.64318929  0.75000000  1.0
  O  O12  1  0.79381200  0.46987382  0.38715501  1.0
  O  O13  1  0.79381200  0.46987382  0.11284499  1.0
  O  O14  1  0.79381200  0.03012618  0.88715501  1.0
  O  O15  1  0.79381200  0.03012618  0.61284499  1.0
  O  O16  1  0.20618800  0.96987382  0.38715501  1.0
  O  O17  1  0.20618800  0.96987382  0.11284499  1.0
  O  O18  1  0.20618800  0.53012618  0.88715501  1.0
  O  O19  1  0.20618800  0.53012618  0.61284499  1.0
  O  O20  1  0.82150995  0.20441402  0.25000000  1.0
  O  O21  1  0.82150995  0.29558598  0.75000000  1.0
  O  O22  1  0.17849005  0.70441402  0.25000000  1.0
  O  O23  1  0.17849005  0.79558598  0.75000000  1.0
  O  O24  1  0.37507781  0.25000000  0.50000000  1.0
  O  O25  1  0.37507781  0.25000000  0.00000000  1.0
  O  O26  1  0.62492219  0.75000000  0.50000000  1.0
  O  O27  1  0.62492219  0.75000000  0.00000000  1.0
