# generated using pymatgen
data_MnSnO6
_symmetry_space_group_name_H-M   'P 1'
_cell_length_a   7.14129587
_cell_length_b   7.14129587
_cell_length_c   7.14129587
_cell_angle_alpha   90.00000000
_cell_angle_beta   90.00000000
_cell_angle_gamma   90.00000000
_symmetry_Int_Tables_number   1
_chemical_formula_structural   MnSnO6
_chemical_formula_sum   'Mn4 Sn4 O24'
_cell_volume   364.19256830
_cell_formula_units_Z   4
loop_
 _symmetry_equiv_pos_site_id
 _symmetry_equiv_pos_as_xyz
  1  'x, y, z'
loop_
 _atom_site_type_symbol
 _atom_site_label
 _atom_site_symmetry_multiplicity
 _atom_site_fract_x
 _atom_site_fract_y
 _atom_site_fract_z
 _atom_site_occupancy
  Mn  Mn0  1  0.75000000  0.25000000  0.25000000  1.0
  Mn  Mn1  1  0.25000000  0.25000000  0.75000000  1.0
  Mn  Mn2  1  0.25000000  0.75000000  0.25000000  1.0
  Mn  Mn3  1  0.75000000  0.75000000  0.75000000  1.0
  Sn  Sn4  1  0.25000000  0.75000000  0.75000000  1.0
  Sn  Sn5  1  0.75000000  0.75000000  0.25000000  1.0
  Sn  Sn6  1  0.75000000  0.25000000  0.75000000  1.0
  Sn  Sn7  1  0.25000000  0.25000000  0.25000000  1.0
  O  O8  1  0.52149825  0.33399544  0.18510390  1.0
  O  O9  1  0.47850175  0.33399544  0.81489610  1.0
  O  O10  1  0.47850175  0.66600456  0.18510390  1.0
  O  O11  1  0.52149825  0.66600456  0.81489610  1.0
  O  O12  1  0.18510390  0.52149825  0.33399544  1.0
  O  O13  1  0.81489610  0.47850175  0.33399544  1.0
  O  O14  1  0.18510390  0.47850175  0.66600456  1.0
  O  O15  1  0.81489610  0.52149825  0.66600456  1.0
  O  O16  1  0.33399544  0.18510390  0.52149825  1.0
  O  O17  1  0.33399544  0.81489610  0.47850175  1.0
  O  O18  1  0.66600456  0.18510390  0.47850175  1.0
  O  O19  1  0.66600456  0.81489610  0.52149825  1.0
  O  O20  1  -0.02149825  0.16600456  0.31489610  1.0
  O  O21  1  1.02149825  0.16600456  0.68510390  1.0
  O  O22  1  1.02149825  0.83399544  0.31489610  1.0
  O  O23  1  -0.02149825  0.83399544  0.68510390  1.0
  O  O24  1  0.31489610  -0.02149825  0.16600456  1.0
  O  O25  1  0.68510390  1.02149825  0.16600456  1.0
  O  O26  1  0.31489610  1.02149825  0.83399544  1.0
  O  O27  1  0.68510390  -0.02149825  0.83399544  1.0
  O  O28  1  0.16600456  0.31489610  -0.02149825  1.0
  O  O29  1  0.16600456  0.68510390  1.02149825  1.0
  O  O30  1  0.83399544  0.31489610  1.02149825  1.0
  O  O31  1  0.83399544  0.68510390  -0.02149825  1.0
