# generated using pymatgen
data_CuHClO
_symmetry_space_group_name_H-M   'P 1'
_cell_length_a   6.18315339
_cell_length_b   6.80776746
_cell_length_c   5.66320386
_cell_angle_alpha   90.00000000
_cell_angle_beta   116.30283662
_cell_angle_gamma   90.00000000
_symmetry_Int_Tables_number   1
_chemical_formula_structural   CuHClO
_chemical_formula_sum   'Cu4 H4 Cl4 O4'
_cell_volume   213.70270602
_cell_formula_units_Z   4
loop_
 _symmetry_equiv_pos_site_id
 _symmetry_equiv_pos_as_xyz
  1  'x, y, z'
loop_
 _atom_site_type_symbol
 _atom_site_label
 _atom_site_symmetry_multiplicity
 _atom_site_fract_x
 _atom_site_fract_y
 _atom_site_fract_z
 _atom_site_occupancy
  Cu  Cu0  1  0.97019138  0.61929495  0.74730988  1.0
  Cu  Cu1  1  0.97019138  0.88070505  0.24730988  1.0
  Cu  Cu2  1  0.02980862  0.11929495  0.75269012  1.0
  Cu  Cu3  1  0.02980862  0.38070505  0.25269012  1.0
  H  H4  1  0.29008549  0.84232111  0.73149759  1.0
  H  H5  1  0.29008549  0.65767889  0.23149759  1.0
  H  H6  1  0.70991451  0.34232111  0.76850241  1.0
  H  H7  1  0.70991451  0.15767889  0.26850241  1.0
  Cl  Cl8  1  0.68635816  0.91396568  0.82513273  1.0
  Cl  Cl9  1  0.68635816  0.58603432  0.32513273  1.0
  Cl  Cl10  1  0.31364184  0.41396568  0.67486727  1.0
  Cl  Cl11  1  0.31364184  0.08603432  0.17486727  1.0
  O  O12  1  0.88779041  0.35659268  0.85074395  1.0
  O  O13  1  0.88779041  0.14340732  0.35074395  1.0
  O  O14  1  0.11220959  0.85659268  0.64925605  1.0
  O  O15  1  0.11220959  0.64340732  0.14925605  1.0
