# generated using pymatgen
data_AlNi2
_symmetry_space_group_name_H-M   'P 1'
_cell_length_a   4.02438633
_cell_length_b   4.02438633
_cell_length_c   4.97015532
_cell_angle_alpha   90.00000000
_cell_angle_beta   90.00000000
_cell_angle_gamma   120.00000000
_symmetry_Int_Tables_number   1
_chemical_formula_structural   AlNi2
_chemical_formula_sum   'Al2 Ni4'
_cell_volume   69.71077690
_cell_formula_units_Z   2
loop_
 _symmetry_equiv_pos_site_id
 _symmetry_equiv_pos_as_xyz
  1  'x, y, z'
loop_
 _atom_site_type_symbol
 _atom_site_label
 _atom_site_symmetry_multiplicity
 _atom_site_fract_x
 _atom_site_fract_y
 _atom_site_fract_z
 _atom_site_occupancy
  Al  Al0  1  0.33333333  0.66666667  0.19274775  1.0
  Al  Al1  1  0.66666667  0.33333333  0.80725225  1.0
  Ni  Ni2  1  0.33333333  0.66666667  0.68861880  1.0
  Ni  Ni3  1  0.66666667  0.33333333  0.31138120  1.0
  Ni  Ni4  1  0.00000000  0.00000000  0.50000000  1.0
  Ni  Ni5  1  0.00000000  0.00000000  0.00000000  1.0
