# generated using pymatgen
data_Na7Cu3O8
_symmetry_space_group_name_H-M   'P 1'
_cell_length_a   6.16002016
_cell_length_b   5.65930995
_cell_length_c   7.97820844
_cell_angle_alpha   108.01376242
_cell_angle_beta   109.99886050
_cell_angle_gamma   89.65955522
_symmetry_Int_Tables_number   1
_chemical_formula_structural   Na7Cu3O8
_chemical_formula_sum   'Na7 Cu3 O8'
_cell_volume   246.99373387
_cell_formula_units_Z   1
loop_
 _symmetry_equiv_pos_site_id
 _symmetry_equiv_pos_as_xyz
  1  'x, y, z'
loop_
 _atom_site_type_symbol
 _atom_site_label
 _atom_site_symmetry_multiplicity
 _atom_site_fract_x
 _atom_site_fract_y
 _atom_site_fract_z
 _atom_site_occupancy
  Na  Na0  1  -0.84062718  -0.88001292  -0.28943306  1.0
  Na  Na1  1  -0.15937282  -0.11998708  -0.71056694  1.0
  Na  Na2  1  -0.39105816  -0.78236882  -0.38323771  1.0
  Na  Na3  1  -0.60894184  -0.21763118  -0.61676229  1.0
  Na  Na4  1  -0.36731893  -0.75310566  -0.94284918  1.0
  Na  Na5  1  -0.63268107  -0.24689434  -0.05715082  1.0
  Na  Na6  1  0.00000000  -0.50000000  -0.50000000  1.0
  Cu  Cu7  1  -0.75031903  -0.75658262  -0.76109495  1.0
  Cu  Cu8  1  -0.24968097  -0.24341738  -0.23890505  1.0
  Cu  Cu9  1  -0.00000000  -0.50000000  0.00000000  1.0
  O  O10  1  -0.50150873  -0.93313692  -0.75462857  1.0
  O  O11  1  -0.49849127  -0.06686308  -0.24537143  1.0
  O  O12  1  -0.80750090  -0.84962626  -0.57760946  1.0
  O  O13  1  -0.19249910  -0.15037374  -0.42239054  1.0
  O  O14  1  -0.71999518  -0.63202944  -0.94962168  1.0
  O  O15  1  -0.28000482  -0.36797056  -0.05037832  1.0
  O  O16  1  -0.98935914  -0.53906124  -0.77795257  1.0
  O  O17  1  -0.01064086  -0.46093876  -0.22204743  1.0
