# generated using pymatgen
data_As2Pb8O13
_symmetry_space_group_name_H-M   'P 1'
_cell_length_a   7.74891742
_cell_length_b   7.74891742
_cell_length_c   15.08905093
_cell_angle_alpha   84.57182889
_cell_angle_beta   95.42817111
_cell_angle_gamma   91.52318112
_symmetry_Int_Tables_number   1
_chemical_formula_structural   As2Pb8O13
_chemical_formula_sum   'As4 Pb16 O26'
_cell_volume   897.78295745
_cell_formula_units_Z   2
loop_
 _symmetry_equiv_pos_site_id
 _symmetry_equiv_pos_as_xyz
  1  'x, y, z'
loop_
 _atom_site_type_symbol
 _atom_site_label
 _atom_site_symmetry_multiplicity
 _atom_site_fract_x
 _atom_site_fract_y
 _atom_site_fract_z
 _atom_site_occupancy
  As  As0  1  0.83589466  0.16410534  0.40398107  1.0
  As  As1  1  1.16410534  -0.16410534  0.59601893  1.0
  As  As2  1  0.74846647  0.74846647  0.00000000  1.0
  As  As3  1  0.25153353  0.25153353  -0.00000000  1.0
  Pb  Pb4  1  1.68350565  -0.16553431  0.60110584  1.0
  Pb  Pb5  1  1.16553431  -0.68350565  0.60110584  1.0
  Pb  Pb6  1  0.83446569  0.68350565  0.39889416  1.0
  Pb  Pb7  1  0.31649435  0.16553431  0.39889416  1.0
  Pb  Pb8  1  0.46635960  0.07778151  0.79653142  1.0
  Pb  Pb9  1  0.92221849  0.53364040  0.79653142  1.0
  Pb  Pb10  1  1.07778151  -0.53364040  0.20346858  1.0
  Pb  Pb11  1  1.53364040  -0.07778151  0.20346858  1.0
  Pb  Pb12  1  0.92874599  0.07125401  0.80572457  1.0
  Pb  Pb13  1  1.07125401  -0.07125401  0.19427543  1.0
  Pb  Pb14  1  0.73154151  0.26845849  0.98165422  1.0
  Pb  Pb15  1  1.26845849  -0.26845849  0.01834578  1.0
  Pb  Pb16  1  0.68400279  0.31599721  0.61951832  1.0
  Pb  Pb17  1  1.31599721  -0.31599721  0.38048168  1.0
  Pb  Pb18  1  1.43464711  -0.43464711  0.77592604  1.0
  Pb  Pb19  1  0.56535289  0.43464711  0.22407396  1.0
  O  O20  1  1.73305959  -0.05403871  0.93442524  1.0
  O  O21  1  1.05403871  -0.73305959  0.93442524  1.0
  O  O22  1  0.94596129  0.73305959  0.06557476  1.0
  O  O23  1  0.26694041  0.05403871  0.06557476  1.0
  O  O24  1  1.76072728  -0.02518337  0.35731544  1.0
  O  O25  1  1.02518337  -0.76072728  0.35731544  1.0
  O  O26  1  0.97481663  0.76072728  0.64268456  1.0
  O  O27  1  0.23927272  0.02518337  0.64268456  1.0
  O  O28  1  0.68109017  0.03874851  0.69833143  1.0
  O  O29  1  0.96125149  0.31890983  0.69833143  1.0
  O  O30  1  1.03874851  -0.31890983  0.30166857  1.0
  O  O31  1  1.31890983  -0.03874851  0.30166857  1.0
  O  O32  1  0.41944406  0.27271636  0.92939464  1.0
  O  O33  1  0.72728364  0.58055594  0.92939464  1.0
  O  O34  1  1.27271636  -0.58055594  0.07060536  1.0
  O  O35  1  1.58055594  -0.27271636  0.07060536  1.0
  O  O36  1  0.39789661  0.32161184  0.70756914  1.0
  O  O37  1  0.67838816  0.60210339  0.70756914  1.0
  O  O38  1  1.32161184  -0.60210339  0.29243086  1.0
  O  O39  1  1.60210339  -0.32161184  0.29243086  1.0
  O  O40  1  0.86237317  0.13762683  0.52006818  1.0
  O  O41  1  1.13762683  -0.13762683  0.47993182  1.0
  O  O42  1  0.72953758  0.27046242  0.83434967  1.0
  O  O43  1  1.27046242  -0.27046242  0.16565033  1.0
  O  O44  1  0.67863503  0.32136497  0.37272962  1.0
  O  O45  1  1.32136497  -0.32136497  0.62727038  1.0
