# generated using pymatgen
data_Y3(AgGe)4
_symmetry_space_group_name_H-M   'P 1'
_cell_length_a   8.37045074
_cell_length_b   8.37045074
_cell_length_c   8.37045074
_cell_angle_alpha   149.97320551
_cell_angle_beta   129.43973783
_cell_angle_gamma   59.92999329
_symmetry_Int_Tables_number   1
_chemical_formula_structural   Y3(AgGe)4
_chemical_formula_sum   'Y3 Ag4 Ge4'
_cell_volume   224.82169850
_cell_formula_units_Z   1
loop_
 _symmetry_equiv_pos_site_id
 _symmetry_equiv_pos_as_xyz
  1  'x, y, z'
loop_
 _atom_site_type_symbol
 _atom_site_label
 _atom_site_symmetry_multiplicity
 _atom_site_fract_x
 _atom_site_fract_y
 _atom_site_fract_z
 _atom_site_occupancy
  Y  Y0  1  0.62561692  0.12561692  0.50000000  1.0
  Y  Y1  1  0.37438308  0.87438308  0.50000000  1.0
  Y  Y2  1  -0.00000000  -0.00000000  -0.00000000  1.0
  Ag  Ag3  1  0.36673375  0.66955987  0.69717388  1.0
  Ag  Ag4  1  1.02761402  0.33044013  0.69717388  1.0
  Ag  Ag5  1  0.97238598  0.66955987  1.30282612  1.0
  Ag  Ag6  1  0.63326625  0.33044013  0.30282612  1.0
  Ge  Ge7  1  0.78300422  0.78300422  1.00000000  1.0
  Ge  Ge8  1  0.21699578  0.21699578  -0.00000000  1.0
  Ge  Ge9  1  0.31646670  0.50000000  0.81646670  1.0
  Ge  Ge10  1  0.68353330  0.50000000  1.18353330  1.0
