# generated using pymatgen
data_Na3VO4
_symmetry_space_group_name_H-M   'P 1'
_cell_length_a   7.10879200
_cell_length_b   6.16459875
_cell_length_c   5.62396765
_cell_angle_alpha   90.00000000
_cell_angle_beta   90.00000000
_cell_angle_gamma   90.00000000
_symmetry_Int_Tables_number   1
_chemical_formula_structural   Na3VO4
_chemical_formula_sum   'Na6 V2 O8'
_cell_volume   246.45829226
_cell_formula_units_Z   2
loop_
 _symmetry_equiv_pos_site_id
 _symmetry_equiv_pos_as_xyz
  1  'x, y, z'
loop_
 _atom_site_type_symbol
 _atom_site_label
 _atom_site_symmetry_multiplicity
 _atom_site_fract_x
 _atom_site_fract_y
 _atom_site_fract_z
 _atom_site_occupancy
  Na  Na0  1  0.24478756  0.17447623  -0.00592737  1.0
  Na  Na1  1  0.74478756  0.82552377  0.49407263  1.0
  Na  Na2  1  0.75521244  0.17447623  -0.00592737  1.0
  Na  Na3  1  0.25521244  0.82552377  0.49407263  1.0
  Na  Na4  1  0.50000000  0.65027778  0.99191647  1.0
  Na  Na5  1  0.00000000  0.34972222  0.49191647  1.0
  V  V6  1  0.50000000  0.32231139  0.50347945  1.0
  V  V7  1  0.00000000  0.67768861  0.00347945  1.0
  O  O8  1  0.50000000  0.58933367  0.40734615  1.0
  O  O9  1  0.00000000  0.41066633  0.90734615  1.0
  O  O10  1  0.29886555  0.19068120  0.40474542  1.0
  O  O11  1  0.79886555  0.80931880  0.90474542  1.0
  O  O12  1  0.70113445  0.19068120  0.40474542  1.0
  O  O13  1  0.20113445  0.80931880  0.90474542  1.0
  O  O14  1  0.50000000  0.31734266  0.80892183  1.0
  O  O15  1  0.00000000  0.68265734  0.30892183  1.0
