# generated using pymatgen
data_Cs4PbCl6
_symmetry_space_group_name_H-M   'P 1'
_cell_length_a   9.57869434
_cell_length_b   9.57869434
_cell_length_c   9.57869434
_cell_angle_alpha   89.26842852
_cell_angle_beta   89.26842852
_cell_angle_gamma   89.26842852
_symmetry_Int_Tables_number   1
_chemical_formula_structural   Cs4PbCl6
_chemical_formula_sum   'Cs8 Pb2 Cl12'
_cell_volume   878.64536921
_cell_formula_units_Z   2
loop_
 _symmetry_equiv_pos_site_id
 _symmetry_equiv_pos_as_xyz
  1  'x, y, z'
loop_
 _atom_site_type_symbol
 _atom_site_label
 _atom_site_symmetry_multiplicity
 _atom_site_fract_x
 _atom_site_fract_y
 _atom_site_fract_z
 _atom_site_occupancy
  Cs  Cs0  1  0.87793792  0.25000000  -0.37793792  1.0
  Cs  Cs1  1  0.37793792  0.12206208  -0.25000000  1.0
  Cs  Cs2  1  0.75000000  0.37793792  -0.87793792  1.0
  Cs  Cs3  1  0.25000000  0.62206208  -0.12206208  1.0
  Cs  Cs4  1  0.12206208  0.75000000  -0.62206208  1.0
  Cs  Cs5  1  0.62206208  -0.12206208  0.25000000  1.0
  Cs  Cs6  1  1.25000000  1.25000000  0.25000000  1.0
  Cs  Cs7  1  0.75000000  0.75000000  -0.25000000  1.0
  Pb  Pb8  1  0.50000000  0.50000000  -0.50000000  1.0
  Pb  Pb9  1  0.00000000  0.00000000  0.00000000  1.0
  Cl  Cl10  1  0.20976051  0.42650068  -0.43966419  1.0
  Cl  Cl11  1  0.70976051  0.06033581  -0.07349932  1.0
  Cl  Cl12  1  0.93966419  0.07349932  -0.70976051  1.0
  Cl  Cl13  1  0.43966419  0.79023949  -0.42650068  1.0
  Cl  Cl14  1  0.57349932  0.43966419  -0.20976051  1.0
  Cl  Cl15  1  1.07349932  -0.70976051  -0.06033581  1.0
  Cl  Cl16  1  0.79023949  0.57349932  -0.56033581  1.0
  Cl  Cl17  1  0.29023949  -0.06033581  0.07349932  1.0
  Cl  Cl18  1  0.56033581  0.20976051  -0.57349932  1.0
  Cl  Cl19  1  1.06033581  -0.07349932  -0.29023949  1.0
  Cl  Cl20  1  0.92650068  -0.29023949  0.06033581  1.0
  Cl  Cl21  1  0.42650068  0.56033581  -0.79023949  1.0
