# generated using pymatgen
data_EuGe2Ir
_symmetry_space_group_name_H-M   'P 1'
_cell_length_a   8.98038414
_cell_length_b   8.98038414
_cell_length_c   4.32288656
_cell_angle_alpha   90.00000000
_cell_angle_beta   90.00000000
_cell_angle_gamma   151.55606272
_symmetry_Int_Tables_number   1
_chemical_formula_structural   EuGe2Ir
_chemical_formula_sum   'Eu2 Ge4 Ir2'
_cell_volume   166.05157464
_cell_formula_units_Z   2
loop_
 _symmetry_equiv_pos_site_id
 _symmetry_equiv_pos_as_xyz
  1  'x, y, z'
loop_
 _atom_site_type_symbol
 _atom_site_label
 _atom_site_symmetry_multiplicity
 _atom_site_fract_x
 _atom_site_fract_y
 _atom_site_fract_z
 _atom_site_occupancy
  Eu  Eu0  1  0.39292077  0.60707923  0.75000000  1.0
  Eu  Eu1  1  -0.39292077  0.39292077  0.25000000  1.0
  Ge  Ge2  1  0.04069943  0.95930057  0.75000000  1.0
  Ge  Ge3  1  -0.04069943  0.04069943  0.25000000  1.0
  Ge  Ge4  1  -0.25100249  0.25100249  0.75000000  1.0
  Ge  Ge5  1  0.25100249  0.74899751  0.25000000  1.0
  Ir  Ir6  1  0.17955861  0.82044139  0.75000000  1.0
  Ir  Ir7  1  -0.17955861  0.17955861  0.25000000  1.0
