# generated using pymatgen
data_Zr6Co23
_symmetry_space_group_name_H-M   'P 1'
_cell_length_a   8.11687643
_cell_length_b   8.11687643
_cell_length_c   8.11687643
_cell_angle_alpha   60.00000000
_cell_angle_beta   60.00000000
_cell_angle_gamma   60.00000000
_symmetry_Int_Tables_number   1
_chemical_formula_structural   Zr6Co23
_chemical_formula_sum   'Zr6 Co23'
_cell_volume   378.13929081
_cell_formula_units_Z   1
loop_
 _symmetry_equiv_pos_site_id
 _symmetry_equiv_pos_as_xyz
  1  'x, y, z'
loop_
 _atom_site_type_symbol
 _atom_site_label
 _atom_site_symmetry_multiplicity
 _atom_site_fract_x
 _atom_site_fract_y
 _atom_site_fract_z
 _atom_site_occupancy
  Zr  Zr0  1  -0.71135398  0.71135398  0.71135398  1.0
  Zr  Zr1  1  -0.28864602  0.28864602  0.71135398  1.0
  Zr  Zr2  1  0.71135398  0.71135398  -0.71135398  1.0
  Zr  Zr3  1  0.28864602  1.28864602  -0.28864602  1.0
  Zr  Zr4  1  0.28864602  -0.28864602  1.28864602  1.0
  Zr  Zr5  1  -0.28864602  0.28864602  0.28864602  1.0
  Co  Co6  1  0.87888812  0.87888812  -0.12111188  1.0
  Co  Co7  1  1.12111188  0.12111188  0.63666437  1.0
  Co  Co8  1  1.12111188  0.63666437  0.12111188  1.0
  Co  Co9  1  0.36333563  0.87888812  -0.12111188  1.0
  Co  Co10  1  1.63666437  0.12111188  0.12111188  1.0
  Co  Co11  1  0.87888812  0.36333563  -0.12111188  1.0
  Co  Co12  1  0.87888812  0.87888812  -0.63666437  1.0
  Co  Co13  1  1.12111188  0.12111188  0.12111188  1.0
  Co  Co14  1  0.67465975  0.67465975  -0.32534025  1.0
  Co  Co15  1  1.32534025  0.32534025  0.02397925  1.0
  Co  Co16  1  1.32534025  0.02397925  0.32534025  1.0
  Co  Co17  1  0.97602075  0.67465975  -0.32534025  1.0
  Co  Co18  1  1.02397925  0.32534025  0.32534025  1.0
  Co  Co19  1  0.67465975  0.97602075  -0.32534025  1.0
  Co  Co20  1  0.67465975  0.67465975  -0.02397925  1.0
  Co  Co21  1  1.32534025  0.32534025  0.32534025  1.0
  Co  Co22  1  1.50000000  0.00000000  -0.00000000  1.0
  Co  Co23  1  1.00000000  0.50000000  -0.50000000  1.0
  Co  Co24  1  0.00000000  1.50000000  -0.00000000  1.0
  Co  Co25  1  0.50000000  1.00000000  -0.50000000  1.0
  Co  Co26  1  0.00000000  0.00000000  0.50000000  1.0
  Co  Co27  1  0.50000000  -0.50000000  1.00000000  1.0
  Co  Co28  1  0.00000000  0.00000000  0.00000000  1.0
