# generated using pymatgen
data_Cs2Li14Pb3O14
_symmetry_space_group_name_H-M   'P 1'
_cell_length_a   8.56367878
_cell_length_b   8.56367878
_cell_length_c   8.56367878
_cell_angle_alpha   128.88253668
_cell_angle_beta   123.36839805
_cell_angle_gamma   79.76150100
_symmetry_Int_Tables_number   1
_chemical_formula_structural   Cs2Li14Pb3O14
_chemical_formula_sum   'Cs2 Li14 Pb3 O14'
_cell_volume   394.50262201
_cell_formula_units_Z   1
loop_
 _symmetry_equiv_pos_site_id
 _symmetry_equiv_pos_as_xyz
  1  'x, y, z'
loop_
 _atom_site_type_symbol
 _atom_site_label
 _atom_site_symmetry_multiplicity
 _atom_site_fract_x
 _atom_site_fract_y
 _atom_site_fract_z
 _atom_site_occupancy
  Cs  Cs0  1  0.50000000  0.76555451  1.26555451  1.0
  Cs  Cs1  1  0.50000000  0.23444549  0.73444549  1.0
  Li  Li2  1  0.71061692  0.59204627  0.57331767  1.0
  Li  Li3  1  0.98127140  0.86270075  1.57331767  1.0
  Li  Li4  1  1.01872860  0.59204627  0.88142935  1.0
  Li  Li5  1  0.28938308  0.86270075  0.88142935  1.0
  Li  Li6  1  0.71061692  1.13729925  1.11857065  1.0
  Li  Li7  1  0.98127140  0.40795373  1.11857065  1.0
  Li  Li8  1  1.01872860  1.13729925  1.42668233  1.0
  Li  Li9  1  0.28938308  0.40795373  0.42668233  1.0
  Li  Li10  1  0.41518370  0.76885017  0.64633353  1.0
  Li  Li11  1  0.87748336  0.23114983  0.64633353  1.0
  Li  Li12  1  1.12251664  0.76885017  1.35366647  1.0
  Li  Li13  1  0.58481630  0.23114983  0.35366647  1.0
  Li  Li14  1  0.15722032  0.50000000  0.65722032  1.0
  Li  Li15  1  0.84277968  0.50000000  1.34277968  1.0
  Pb  Pb16  1  0.72950716  0.72950716  1.00000000  1.0
  Pb  Pb17  1  0.27049284  0.27049284  -0.00000000  1.0
  Pb  Pb18  1  0.00000000  0.00000000  0.00000000  1.0
  O  O19  1  0.40975341  0.63123079  0.77852262  1.0
  O  O20  1  1.14729182  0.36876921  0.77852262  1.0
  O  O21  1  0.85270818  0.63123079  1.22147738  1.0
  O  O22  1  0.59024659  0.36876921  0.22147738  1.0
  O  O23  1  0.75121922  0.45822546  0.70700624  1.0
  O  O24  1  0.24878078  0.95578702  0.70700624  1.0
  O  O25  1  0.75121922  1.04421298  1.29299376  1.0
  O  O26  1  0.24878078  0.54177454  0.29299376  1.0
  O  O27  1  0.68643295  0.87181626  0.81461669  1.0
  O  O28  1  0.94280043  0.12818374  0.81461669  1.0
  O  O29  1  1.05719957  0.87181626  1.18538331  1.0
  O  O30  1  0.31356705  0.12818374  0.18538331  1.0
  O  O31  1  -0.00000000  0.70400861  0.70400861  1.0
  O  O32  1  -0.00000000  0.29599139  0.29599139  1.0
