# generated using pymatgen
data_La5P12Ru19
_symmetry_space_group_name_H-M   'P 1'
_cell_length_a   12.68862963
_cell_length_b   12.68862963
_cell_length_c   4.03401419
_cell_angle_alpha   90.00000000
_cell_angle_beta   90.00000000
_cell_angle_gamma   120.00000000
_symmetry_Int_Tables_number   1
_chemical_formula_structural   La5P12Ru19
_chemical_formula_sum   'La5 P12 Ru19'
_cell_volume   562.46757972
_cell_formula_units_Z   1
loop_
 _symmetry_equiv_pos_site_id
 _symmetry_equiv_pos_as_xyz
  1  'x, y, z'
loop_
 _atom_site_type_symbol
 _atom_site_label
 _atom_site_symmetry_multiplicity
 _atom_site_fract_x
 _atom_site_fract_y
 _atom_site_fract_z
 _atom_site_occupancy
  La  La0  1  0.33333333  0.66666667  0.00000000  1.0
  La  La1  1  0.66666667  0.33333333  0.00000000  1.0
  La  La2  1  0.18338132  0.18338132  0.50000000  1.0
  La  La3  1  0.00000000  0.81661868  0.50000000  1.0
  La  La4  1  0.81661868  0.00000000  0.50000000  1.0
  P  P5  1  0.81065951  0.81065951  0.00000000  1.0
  P  P6  1  0.00000000  0.18934049  0.00000000  1.0
  P  P7  1  0.18934049  0.00000000  0.00000000  1.0
  P  P8  1  0.37664259  0.37664259  0.00000000  1.0
  P  P9  1  -0.00000000  0.62335741  0.00000000  1.0
  P  P10  1  0.62335741  0.00000000  0.00000000  1.0
  P  P11  1  0.30421768  0.82931450  0.50000000  1.0
  P  P12  1  0.82931450  0.30421768  0.50000000  1.0
  P  P13  1  0.52509682  0.69578232  0.50000000  1.0
  P  P14  1  0.17068550  0.47490318  0.50000000  1.0
  P  P15  1  0.69578232  0.52509682  0.50000000  1.0
  P  P16  1  0.47490318  0.17068550  0.50000000  1.0
  Ru  Ru17  1  0.00000000  0.00000000  0.00000000  1.0
  Ru  Ru18  1  0.55515850  0.55515850  0.00000000  1.0
  Ru  Ru19  1  0.00000000  0.44484150  0.00000000  1.0
  Ru  Ru20  1  0.44484150  0.00000000  0.00000000  1.0
  Ru  Ru21  1  0.12375264  0.63230148  0.50000000  1.0
  Ru  Ru22  1  0.63230148  0.12375264  0.50000000  1.0
  Ru  Ru23  1  0.50854884  0.87624736  0.50000000  1.0
  Ru  Ru24  1  0.36769852  0.49145116  0.50000000  1.0
  Ru  Ru25  1  0.87624736  0.50854884  0.50000000  1.0
  Ru  Ru26  1  0.49145116  0.36769852  0.50000000  1.0
  Ru  Ru27  1  0.19423151  0.81540336  0.00000000  1.0
  Ru  Ru28  1  0.81540336  0.19423151  0.00000000  1.0
  Ru  Ru29  1  0.62117185  0.80576849  0.00000000  1.0
  Ru  Ru30  1  0.18459664  0.37882815  0.00000000  1.0
  Ru  Ru31  1  0.80576849  0.62117185  0.00000000  1.0
  Ru  Ru32  1  0.37882815  0.18459664  0.00000000  1.0
  Ru  Ru33  1  0.71381726  0.71381726  0.50000000  1.0
  Ru  Ru34  1  0.00000000  0.28618274  0.50000000  1.0
  Ru  Ru35  1  0.28618274  0.00000000  0.50000000  1.0
