# generated using pymatgen
data_Cs3SbH2S4O
_symmetry_space_group_name_H-M   'P 1'
_cell_length_a   9.93411378
_cell_length_b   10.22855951
_cell_length_c   16.39676577
_cell_angle_alpha   90.00000000
_cell_angle_beta   126.35860342
_cell_angle_gamma   90.00000000
_symmetry_Int_Tables_number   1
_chemical_formula_structural   Cs3SbH2S4O
_chemical_formula_sum   'Cs12 Sb4 H8 S16 O4'
_cell_volume   1341.74981328
_cell_formula_units_Z   4
loop_
 _symmetry_equiv_pos_site_id
 _symmetry_equiv_pos_as_xyz
  1  'x, y, z'
loop_
 _atom_site_type_symbol
 _atom_site_label
 _atom_site_symmetry_multiplicity
 _atom_site_fract_x
 _atom_site_fract_y
 _atom_site_fract_z
 _atom_site_occupancy
  Cs  Cs0  1  0.71170949  0.08624005  0.45096140  1.0
  Cs  Cs1  1  0.71170949  0.41375995  0.95096140  1.0
  Cs  Cs2  1  0.28829051  0.58624005  0.04903860  1.0
  Cs  Cs3  1  0.28829051  0.91375995  0.54903860  1.0
  Cs  Cs4  1  0.89181776  0.36488984  0.29294905  1.0
  Cs  Cs5  1  0.89181776  0.13511016  0.79294905  1.0
  Cs  Cs6  1  0.10818224  0.86488984  0.20705095  1.0
  Cs  Cs7  1  0.10818224  0.63511016  0.70705095  1.0
  Cs  Cs8  1  0.41701682  0.08286296  0.07700707  1.0
  Cs  Cs9  1  0.41701682  0.41713704  0.57700707  1.0
  Cs  Cs10  1  0.58298318  0.58286296  0.42299293  1.0
  Cs  Cs11  1  0.58298318  0.91713704  0.92299293  1.0
  Sb  Sb12  1  0.23694475  0.29293317  0.21958225  1.0
  Sb  Sb13  1  0.23694475  0.20706683  0.71958225  1.0
  Sb  Sb14  1  0.76305525  0.79293317  0.28041775  1.0
  Sb  Sb15  1  0.76305525  0.70706683  0.78041775  1.0
  H  H16  1  0.86303651  0.14591605  0.09844303  1.0
  H  H17  1  0.86303651  0.35408395  0.59844303  1.0
  H  H18  1  0.13696349  0.64591605  0.40155697  1.0
  H  H19  1  0.13696349  0.85408395  0.90155697  1.0
  H  H20  1  0.81321232  0.08795964  0.16648962  1.0
  H  H21  1  0.81321232  0.41204036  0.66648962  1.0
  H  H22  1  0.18678768  0.58795964  0.33351038  1.0
  H  H23  1  0.18678768  0.91204036  0.83351038  1.0
  S  S24  1  0.49585935  0.33025776  0.24606478  1.0
  S  S25  1  0.49585935  0.16974224  0.74606478  1.0
  S  S26  1  0.50414065  0.83025776  0.25393522  1.0
  S  S27  1  0.50414065  0.66974224  0.75393522  1.0
  S  S28  1  0.06127746  0.16146336  0.07355555  1.0
  S  S29  1  0.06127746  0.33853664  0.57355555  1.0
  S  S30  1  0.93872254  0.66146336  0.42644445  1.0
  S  S31  1  0.93872254  0.83853664  0.92644445  1.0
  S  S32  1  0.10505993  0.49904577  0.18913936  1.0
  S  S33  1  0.10505993  0.00095423  0.68913936  1.0
  S  S34  1  0.89494007  -0.00095423  0.31086064  1.0
  S  S35  1  0.89494007  0.50095423  0.81086064  1.0
  S  S36  1  0.28111267  0.19034257  0.36224047  1.0
  S  S37  1  0.28111267  0.30965743  0.86224047  1.0
  S  S38  1  0.71888733  0.69034257  0.13775953  1.0
  S  S39  1  0.71888733  0.80965743  0.63775953  1.0
  O  O40  1  0.76719823  0.13698949  0.10241116  1.0
  O  O41  1  0.76719823  0.36301051  0.60241116  1.0
  O  O42  1  0.23280177  0.63698949  0.39758884  1.0
  O  O43  1  0.23280177  0.86301051  0.89758884  1.0
