# generated using pymatgen
data_BaYCuTe3
_symmetry_space_group_name_H-M   'P 1'
_cell_length_a   7.81299390
_cell_length_b   7.81299390
_cell_length_c   11.43768326
_cell_angle_alpha   90.00000000
_cell_angle_beta   90.00000000
_cell_angle_gamma   146.97801973
_symmetry_Int_Tables_number   1
_chemical_formula_structural   BaYCuTe3
_chemical_formula_sum   'Ba2 Y2 Cu2 Te6'
_cell_volume   380.48561848
_cell_formula_units_Z   2
loop_
 _symmetry_equiv_pos_site_id
 _symmetry_equiv_pos_as_xyz
  1  'x, y, z'
loop_
 _atom_site_type_symbol
 _atom_site_label
 _atom_site_symmetry_multiplicity
 _atom_site_fract_x
 _atom_site_fract_y
 _atom_site_fract_z
 _atom_site_occupancy
  Ba  Ba0  1  -0.24879281  0.24879281  0.75000000  1.0
  Ba  Ba1  1  0.24879281  0.75120719  0.25000000  1.0
  Y  Y2  1  0.00000000  0.00000000  0.00000000  1.0
  Y  Y3  1  0.00000000  0.00000000  0.50000000  1.0
  Cu  Cu4  1  0.46823576  0.53176424  0.75000000  1.0
  Cu  Cu5  1  -0.46823576  0.46823576  0.25000000  1.0
  Te  Te6  1  0.36359046  0.63640954  0.93916909  1.0
  Te  Te7  1  0.36359046  0.63640954  0.56083091  1.0
  Te  Te8  1  -0.36359046  0.36359046  0.43916909  1.0
  Te  Te9  1  -0.36359046  0.36359046  0.06083091  1.0
  Te  Te10  1  0.07115675  0.92884325  0.75000000  1.0
  Te  Te11  1  -0.07115675  0.07115675  0.25000000  1.0
