# generated using pymatgen
data_K3BiTe3
_symmetry_space_group_name_H-M   'P 1'
_cell_length_a   10.53544606
_cell_length_b   10.53544606
_cell_length_c   10.53544606
_cell_angle_alpha   90.00000000
_cell_angle_beta   90.00000000
_cell_angle_gamma   90.00000000
_symmetry_Int_Tables_number   1
_chemical_formula_structural   K3BiTe3
_chemical_formula_sum   'K12 Bi4 Te12'
_cell_volume   1169.38840659
_cell_formula_units_Z   4
loop_
 _symmetry_equiv_pos_site_id
 _symmetry_equiv_pos_as_xyz
  1  'x, y, z'
loop_
 _atom_site_type_symbol
 _atom_site_label
 _atom_site_symmetry_multiplicity
 _atom_site_fract_x
 _atom_site_fract_y
 _atom_site_fract_z
 _atom_site_occupancy
  K  K0  1  0.92463463  0.42463463  0.07536537  1.0
  K  K1  1  0.42463463  0.07536537  0.92463463  1.0
  K  K2  1  0.07536537  0.92463463  0.42463463  1.0
  K  K3  1  0.57536537  0.57536537  0.57536537  1.0
  K  K4  1  0.43319311  0.93319311  0.56680689  1.0
  K  K5  1  0.93319311  0.56680689  0.43319311  1.0
  K  K6  1  0.56680689  0.43319311  0.93319311  1.0
  K  K7  1  0.06680689  0.06680689  0.06680689  1.0
  K  K8  1  0.67321314  0.17321314  0.32678686  1.0
  K  K9  1  0.17321314  0.32678686  0.67321314  1.0
  K  K10  1  0.32678686  0.67321314  0.17321314  1.0
  K  K11  1  0.82678686  0.82678686  0.82678686  1.0
  Bi  Bi12  1  0.21607989  0.71607989  0.78392011  1.0
  Bi  Bi13  1  0.71607989  0.78392011  0.21607989  1.0
  Bi  Bi14  1  0.78392011  0.21607989  0.71607989  1.0
  Bi  Bi15  1  0.28392011  0.28392011  0.28392011  1.0
  Te  Te16  1  0.47851977  0.75019037  0.86559771  1.0
  Te  Te17  1  0.97851977  0.74980963  0.13440229  1.0
  Te  Te18  1  0.25019037  0.63440229  0.52148023  1.0
  Te  Te19  1  0.75019037  0.86559771  0.47851977  1.0
  Te  Te20  1  0.13440229  0.97851977  0.74980963  1.0
  Te  Te21  1  0.63440229  0.52148023  0.25019037  1.0
  Te  Te22  1  0.52148023  0.25019037  0.63440229  1.0
  Te  Te23  1  0.02148023  0.24980963  0.36559771  1.0
  Te  Te24  1  0.74980963  0.13440229  0.97851977  1.0
  Te  Te25  1  0.24980963  0.36559771  0.02148023  1.0
  Te  Te26  1  0.86559771  0.47851977  0.75019037  1.0
  Te  Te27  1  0.36559771  0.02148023  0.24980963  1.0
