# generated using pymatgen
data_NaAs
_symmetry_space_group_name_H-M   'P 1'
_cell_length_a   6.01213754
_cell_length_b   6.29087113
_cell_length_c   10.59771986
_cell_angle_alpha   90.00000000
_cell_angle_beta   90.00000000
_cell_angle_gamma   90.00000000
_symmetry_Int_Tables_number   1
_chemical_formula_structural   NaAs
_chemical_formula_sum   'Na8 As8'
_cell_volume   400.82253582
_cell_formula_units_Z   8
loop_
 _symmetry_equiv_pos_site_id
 _symmetry_equiv_pos_as_xyz
  1  'x, y, z'
loop_
 _atom_site_type_symbol
 _atom_site_label
 _atom_site_symmetry_multiplicity
 _atom_site_fract_x
 _atom_site_fract_y
 _atom_site_fract_z
 _atom_site_occupancy
  Na  Na0  1  0.38679561  0.89910400  0.92181722  1.0
  Na  Na1  1  0.88679561  0.60089600  0.07818278  1.0
  Na  Na2  1  0.61320439  0.39910400  0.57818278  1.0
  Na  Na3  1  0.11320439  0.10089600  0.42181722  1.0
  Na  Na4  1  0.84796189  0.84199411  0.70454303  1.0
  Na  Na5  1  0.34796189  0.65800589  0.29545697  1.0
  Na  Na6  1  0.15203811  0.34199411  0.79545697  1.0
  Na  Na7  1  0.65203811  0.15800589  0.20454303  1.0
  As  As8  1  0.34784357  0.83173169  0.62605269  1.0
  As  As9  1  0.84784357  0.66826831  0.37394731  1.0
  As  As10  1  0.65215643  0.33173169  0.87394731  1.0
  As  As11  1  0.15215643  0.16826831  0.12605269  1.0
  As  As12  1  0.11531615  0.53772230  0.54050766  1.0
  As  As13  1  0.61531615  0.96227770  0.45949234  1.0
  As  As14  1  0.88468385  0.03772230  0.95949234  1.0
  As  As15  1  0.38468385  0.46227770  0.04050766  1.0
