# generated using pymatgen
data_Pd(S3N)2
_symmetry_space_group_name_H-M   'P 1'
_cell_length_a   13.07178726
_cell_length_b   9.50187043
_cell_length_c   8.03984567
_cell_angle_alpha   90.00000000
_cell_angle_beta   96.48550600
_cell_angle_gamma   90.00000000
_symmetry_Int_Tables_number   1
_chemical_formula_structural   Pd(S3N)2
_chemical_formula_sum   'Pd4 S24 N8'
_cell_volume   992.20993502
_cell_formula_units_Z   4
loop_
 _symmetry_equiv_pos_site_id
 _symmetry_equiv_pos_as_xyz
  1  'x, y, z'
loop_
 _atom_site_type_symbol
 _atom_site_label
 _atom_site_symmetry_multiplicity
 _atom_site_fract_x
 _atom_site_fract_y
 _atom_site_fract_z
 _atom_site_occupancy
  N  N0  1  0.19659889  0.89784805  0.66708708  1.0
  N  N1  1  0.80340111  0.39784805  0.83291292  1.0
  N  N2  1  0.80340111  0.10215195  0.33291292  1.0
  N  N3  1  0.19659889  0.60215195  0.16708708  1.0
  N  N4  1  0.41717715  0.32882536  0.72274810  1.0
  N  N5  1  0.58282285  0.82882536  0.77725190  1.0
  N  N6  1  0.58282285  0.67117464  0.27725190  1.0
  N  N7  1  0.41717715  0.17117464  0.22274810  1.0
  Pd  Pd8  1  0.24206808  0.56601787  0.67550715  1.0
  Pd  Pd9  1  0.75793192  0.06601787  0.82449285  1.0
  Pd  Pd10  1  0.75793192  0.43398213  0.32449285  1.0
  Pd  Pd11  1  0.24206808  0.93398213  0.17550715  1.0
  S  S12  1  0.41072107  0.49970347  0.71986107  1.0
  S  S13  1  0.58927893  0.99970347  0.78013893  1.0
  S  S14  1  0.58927893  0.50029653  0.28013893  1.0
  S  S15  1  0.41072107  0.00029653  0.21986107  1.0
  S  S16  1  0.07017977  0.63555738  0.63332172  1.0
  S  S17  1  0.92982023  0.13555738  0.86667828  1.0
  S  S18  1  0.92982023  0.36444262  0.36667828  1.0
  S  S19  1  0.07017977  0.86444262  0.13332172  1.0
  S  S20  1  0.08082121  0.84978473  0.63958950  1.0
  S  S21  1  0.91917879  0.34978473  0.86041050  1.0
  S  S22  1  0.91917879  0.15021527  0.36041050  1.0
  S  S23  1  0.08082121  0.65021527  0.13958950  1.0
  S  S24  1  0.29636974  0.79459566  0.68988590  1.0
  S  S25  1  0.70363026  0.29459566  0.81011410  1.0
  S  S26  1  0.70363026  0.20540434  0.31011410  1.0
  S  S27  1  0.29636974  0.70540434  0.18988590  1.0
  S  S28  1  0.32319057  0.22458171  0.69914410  1.0
  S  S29  1  0.67680943  0.72458171  0.80085590  1.0
  S  S30  1  0.67680943  0.77541829  0.30085590  1.0
  S  S31  1  0.32319057  0.27541829  0.19914410  1.0
  S  S32  1  0.18767390  0.33270685  0.66082485  1.0
  S  S33  1  0.81232610  0.83270685  0.83917515  1.0
  S  S34  1  0.81232610  0.66729315  0.33917515  1.0
  S  S35  1  0.18767390  0.16729315  0.16082485  1.0
