# generated using pymatgen
data_YAl2Ni
_symmetry_space_group_name_H-M   'P 1'
_cell_length_a   5.51893506
_cell_length_b   5.51893506
_cell_length_c   6.88329734
_cell_angle_alpha   90.00000000
_cell_angle_beta   90.00000000
_cell_angle_gamma   136.88335738
_symmetry_Int_Tables_number   1
_chemical_formula_structural   YAl2Ni
_chemical_formula_sum   'Y2 Al4 Ni2'
_cell_volume   143.29684113
_cell_formula_units_Z   2
loop_
 _symmetry_equiv_pos_site_id
 _symmetry_equiv_pos_as_xyz
  1  'x, y, z'
loop_
 _atom_site_type_symbol
 _atom_site_label
 _atom_site_symmetry_multiplicity
 _atom_site_fract_x
 _atom_site_fract_y
 _atom_site_fract_z
 _atom_site_occupancy
  Y  Y0  1  0.43935956  0.56064044  0.75000000  1.0
  Y  Y1  1  -0.43935956  0.43935956  0.25000000  1.0
  Al  Al2  1  0.15826272  0.84173728  0.94502777  1.0
  Al  Al3  1  0.15826272  0.84173728  0.55497223  1.0
  Al  Al4  1  -0.15826272  0.15826272  0.44502777  1.0
  Al  Al5  1  -0.15826272  0.15826272  0.05497223  1.0
  Ni  Ni6  1  -0.28395116  0.28395116  0.75000000  1.0
  Ni  Ni7  1  0.28395116  0.71604884  0.25000000  1.0
