# generated using pymatgen
data_La2SiS5
_symmetry_space_group_name_H-M   'P 1'
_cell_length_a   7.67599076
_cell_length_b   12.70130160
_cell_length_c   7.95182202
_cell_angle_alpha   90.00000000
_cell_angle_beta   101.26978617
_cell_angle_gamma   90.00000000
_symmetry_Int_Tables_number   1
_chemical_formula_structural   La2SiS5
_chemical_formula_sum   'La8 Si4 S20'
_cell_volume   760.31472819
_cell_formula_units_Z   4
loop_
 _symmetry_equiv_pos_site_id
 _symmetry_equiv_pos_as_xyz
  1  'x, y, z'
loop_
 _atom_site_type_symbol
 _atom_site_label
 _atom_site_symmetry_multiplicity
 _atom_site_fract_x
 _atom_site_fract_y
 _atom_site_fract_z
 _atom_site_occupancy
  La  La0  1  0.83734684  0.83538412  0.37010841  1.0
  La  La1  1  0.83734684  0.66461588  0.87010841  1.0
  La  La2  1  0.16265316  0.33538412  0.12989159  1.0
  La  La3  1  0.16265316  0.16461588  0.62989159  1.0
  La  La4  1  0.75981348  0.40545546  0.45467922  1.0
  La  La5  1  0.75981348  0.09454454  0.95467922  1.0
  La  La6  1  0.24018652  0.90545546  0.04532078  1.0
  La  La7  1  0.24018652  0.59454454  0.54532078  1.0
  Si  Si8  1  0.66945359  0.11664764  0.40295399  1.0
  Si  Si9  1  0.66945359  0.38335236  0.90295399  1.0
  Si  Si10  1  0.33054641  0.61664764  0.09704601  1.0
  Si  Si11  1  0.33054641  0.88335236  0.59704601  1.0
  S  S12  1  0.41988435  0.49803332  0.28164299  1.0
  S  S13  1  0.41988435  0.00196668  0.78164299  1.0
  S  S14  1  0.58011565  0.99803332  0.21835701  1.0
  S  S15  1  0.58011565  0.50196668  0.71835701  1.0
  S  S16  1  0.87166816  0.20244547  0.30489332  1.0
  S  S17  1  0.87166816  0.29755453  0.80489332  1.0
  S  S18  1  0.12833184  0.70244547  0.19510668  1.0
  S  S19  1  0.12833184  0.79755453  0.69510668  1.0
  S  S20  1  0.86357573  0.87849043  0.00625230  1.0
  S  S21  1  0.86357573  0.62150957  0.50625230  1.0
  S  S22  1  0.13642427  0.37849043  0.49374770  1.0
  S  S23  1  0.13642427  0.12150957  0.99374770  1.0
  S  S24  1  0.82409437  0.46979060  0.11090400  1.0
  S  S25  1  0.82409437  0.03020940  0.61090400  1.0
  S  S26  1  0.17590563  0.96979060  0.38909600  1.0
  S  S27  1  0.17590563  0.53020940  0.88909600  1.0
  S  S28  1  0.47600924  0.22680699  0.44767780  1.0
  S  S29  1  0.47600924  0.27319301  0.94767780  1.0
  S  S30  1  0.52399076  0.72680699  0.05232220  1.0
  S  S31  1  0.52399076  0.77319301  0.55232220  1.0
