# generated using pymatgen
data_KGaP2O7
_symmetry_space_group_name_H-M   'P 1'
_cell_length_a   7.44140626
_cell_length_b   9.98567988
_cell_length_c   8.30350414
_cell_angle_alpha   90.00000000
_cell_angle_beta   106.95492694
_cell_angle_gamma   90.00000000
_symmetry_Int_Tables_number   1
_chemical_formula_structural   KGaP2O7
_chemical_formula_sum   'K4 Ga4 P8 O28'
_cell_volume   590.19385425
_cell_formula_units_Z   4
loop_
 _symmetry_equiv_pos_site_id
 _symmetry_equiv_pos_as_xyz
  1  'x, y, z'
loop_
 _atom_site_type_symbol
 _atom_site_label
 _atom_site_symmetry_multiplicity
 _atom_site_fract_x
 _atom_site_fract_y
 _atom_site_fract_z
 _atom_site_occupancy
  K  K0  1  0.82404265  0.82123279  0.44367402  1.0
  K  K1  1  0.82404265  0.67876721  0.94367402  1.0
  K  K2  1  0.17595735  0.32123279  0.05632598  1.0
  K  K3  1  0.17595735  0.17876721  0.55632598  1.0
  Ga  Ga4  1  0.76196896  0.39922296  0.24029736  1.0
  Ga  Ga5  1  0.76196896  0.10077704  0.74029736  1.0
  Ga  Ga6  1  0.23803104  0.89922296  0.25970264  1.0
  Ga  Ga7  1  0.23803104  0.60077704  0.75970264  1.0
  P  P8  1  0.87033654  0.09690160  0.16925894  1.0
  P  P9  1  0.87033654  0.40309840  0.66925894  1.0
  P  P10  1  0.12966346  0.59690160  0.33074106  1.0
  P  P11  1  0.12966346  0.90309840  0.83074106  1.0
  P  P12  1  0.56098020  0.13432295  0.30881953  1.0
  P  P13  1  0.56098020  0.36567705  0.80881953  1.0
  P  P14  1  0.43901980  0.63432295  0.19118047  1.0
  P  P15  1  0.43901980  0.86567705  0.69118047  1.0
  O  O16  1  0.99203983  0.49487909  0.22134075  1.0
  O  O17  1  0.99203983  0.00512091  0.72134075  1.0
  O  O18  1  0.00796017  0.99487909  0.27865925  1.0
  O  O19  1  0.00796017  0.50512091  0.77865925  1.0
  O  O20  1  0.92035334  0.23713312  0.24797998  1.0
  O  O21  1  0.92035334  0.26286688  0.74797998  1.0
  O  O22  1  0.07964666  0.73713312  0.25202002  1.0
  O  O23  1  0.07964666  0.76286688  0.75202002  1.0
  O  O24  1  0.85795383  0.40742950  0.48484336  1.0
  O  O25  1  0.85795383  0.09257050  0.98484336  1.0
  O  O26  1  0.14204617  0.90742950  0.01515664  1.0
  O  O27  1  0.14204617  0.59257050  0.51515664  1.0
  O  O28  1  0.68054386  0.10361520  0.48808913  1.0
  O  O29  1  0.68054386  0.39638480  0.98808913  1.0
  O  O30  1  0.31945614  0.60361520  0.01191087  1.0
  O  O31  1  0.31945614  0.89638480  0.51191087  1.0
  O  O32  1  0.66447571  0.05582464  0.18687765  1.0
  O  O33  1  0.66447571  0.44417536  0.68687765  1.0
  O  O34  1  0.33552429  0.55582464  0.31312235  1.0
  O  O35  1  0.33552429  0.94417536  0.81312235  1.0
  O  O36  1  0.54733354  0.28353434  0.25629412  1.0
  O  O37  1  0.54733354  0.21646566  0.75629412  1.0
  O  O38  1  0.45266645  0.78353434  0.24370588  1.0
  O  O39  1  0.45266646  0.71646566  0.74370588  1.0
  O  O40  1  0.36076300  0.07674501  0.26293206  1.0
  O  O41  1  0.36076300  0.42325499  0.76293206  1.0
  O  O42  1  0.63923700  0.57674501  0.23706794  1.0
  O  O43  1  0.63923700  0.92325499  0.73706794  1.0
