# generated using pymatgen
data_Nb14S5
_symmetry_space_group_name_H-M   'P 1'
_cell_length_a   18.58092865
_cell_length_b   3.39159755
_cell_length_c   19.88756131
_cell_angle_alpha   90.00000000
_cell_angle_beta   90.00000000
_cell_angle_gamma   90.00000000
_symmetry_Int_Tables_number   1
_chemical_formula_structural   Nb14S5
_chemical_formula_sum   'Nb56 S20'
_cell_volume   1253.29486423
_cell_formula_units_Z   4
loop_
 _symmetry_equiv_pos_site_id
 _symmetry_equiv_pos_as_xyz
  1  'x, y, z'
loop_
 _atom_site_type_symbol
 _atom_site_label
 _atom_site_symmetry_multiplicity
 _atom_site_fract_x
 _atom_site_fract_y
 _atom_site_fract_z
 _atom_site_occupancy
  Nb  Nb0  1  0.94968485  0.75000000  0.44978099  1.0
  Nb  Nb1  1  0.44968485  0.75000000  0.05021901  1.0
  Nb  Nb2  1  0.05031515  0.25000000  0.55021901  1.0
  Nb  Nb3  1  0.55031515  0.25000000  0.94978099  1.0
  Nb  Nb4  1  0.94851474  0.75000000  0.61512105  1.0
  Nb  Nb5  1  0.44851474  0.75000000  0.88487895  1.0
  Nb  Nb6  1  0.05148526  0.25000000  0.38487895  1.0
  Nb  Nb7  1  0.55148526  0.25000000  0.11512105  1.0
  Nb  Nb8  1  0.93030498  0.75000000  0.12170390  1.0
  Nb  Nb9  1  0.43030498  0.75000000  0.37829610  1.0
  Nb  Nb10  1  0.06969502  0.25000000  0.87829610  1.0
  Nb  Nb11  1  0.56969502  0.25000000  0.62170390  1.0
  Nb  Nb12  1  0.85946893  0.75000000  0.75788871  1.0
  Nb  Nb13  1  0.35946893  0.75000000  0.74211129  1.0
  Nb  Nb14  1  0.14053107  0.25000000  0.24211129  1.0
  Nb  Nb15  1  0.64053107  0.25000000  0.25788871  1.0
  Nb  Nb16  1  0.79848338  0.75000000  0.53447846  1.0
  Nb  Nb17  1  0.29848338  0.75000000  0.96552154  1.0
  Nb  Nb18  1  0.20151662  0.25000000  0.46552154  1.0
  Nb  Nb19  1  0.70151662  0.25000000  0.03447846  1.0
  Nb  Nb20  1  0.75540715  0.75000000  0.29615620  1.0
  Nb  Nb21  1  0.25540715  0.75000000  0.20384380  1.0
  Nb  Nb22  1  0.24459285  0.25000000  0.70384380  1.0
  Nb  Nb23  1  0.74459285  0.25000000  0.79615620  1.0
  Nb  Nb24  1  0.70043690  0.75000000  0.67747213  1.0
  Nb  Nb25  1  0.20043690  0.75000000  0.82252787  1.0
  Nb  Nb26  1  0.29956310  0.25000000  0.32252787  1.0
  Nb  Nb27  1  0.79956310  0.25000000  0.17747213  1.0
  Nb  Nb28  1  0.67074595  0.75000000  0.15179228  1.0
  Nb  Nb29  1  0.17074595  0.75000000  0.34820772  1.0
  Nb  Nb30  1  0.32925405  0.25000000  0.84820772  1.0
  Nb  Nb31  1  0.82925405  0.25000000  0.65179228  1.0
  Nb  Nb32  1  0.63851646  0.75000000  0.51977666  1.0
  Nb  Nb33  1  0.13851646  0.75000000  0.98022334  1.0
  Nb  Nb34  1  0.36148354  0.25000000  0.48022334  1.0
  Nb  Nb35  1  0.86148354  0.25000000  0.01977666  1.0
  Nb  Nb36  1  0.61824588  0.75000000  0.83344290  1.0
  Nb  Nb37  1  0.11824588  0.75000000  0.66655710  1.0
  Nb  Nb38  1  0.38175412  0.25000000  0.16655710  1.0
  Nb  Nb39  1  0.88175412  0.25000000  0.33344290  1.0
  Nb  Nb40  1  0.60211022  0.75000000  0.36461934  1.0
  Nb  Nb41  1  0.10211022  0.75000000  0.13538066  1.0
  Nb  Nb42  1  0.39788978  0.25000000  0.63538066  1.0
  Nb  Nb43  1  0.89788978  0.25000000  0.86461934  1.0
  Nb  Nb44  1  0.50880393  0.75000000  0.22664333  1.0
  Nb  Nb45  1  0.00880393  0.75000000  0.27335667  1.0
  Nb  Nb46  1  0.49119607  0.25000000  0.77335667  1.0
  Nb  Nb47  1  0.99119607  0.25000000  0.72664333  1.0
  Nb  Nb48  1  0.46696267  0.75000000  0.54409265  1.0
  Nb  Nb49  1  0.96696267  0.75000000  0.95590735  1.0
  Nb  Nb50  1  0.53303733  0.25000000  0.45590735  1.0
  Nb  Nb51  1  0.03303733  0.25000000  0.04409265  1.0
  Nb  Nb52  1  0.28045002  0.75000000  0.58138140  1.0
  Nb  Nb53  1  0.78045002  0.75000000  0.91861860  1.0
  Nb  Nb54  1  0.71954998  0.25000000  0.41861860  1.0
  Nb  Nb55  1  0.21954998  0.25000000  0.08138140  1.0
  S  S56  1  0.98562635  0.75000000  0.82208648  1.0
  S  S57  1  0.48562635  0.75000000  0.67791352  1.0
  S  S58  1  0.01437365  0.25000000  0.17791352  1.0
  S  S59  1  0.51437365  0.25000000  0.32208648  1.0
  S  S60  1  0.87926082  0.75000000  0.23892917  1.0
  S  S61  1  0.37926082  0.75000000  0.26107083  1.0
  S  S62  1  0.12073918  0.25000000  0.76107083  1.0
  S  S63  1  0.62073918  0.25000000  0.73892917  1.0
  S  S64  1  0.82246452  0.75000000  0.41106448  1.0
  S  S65  1  0.32246452  0.75000000  0.08893552  1.0
  S  S66  1  0.17753548  0.25000000  0.58893552  1.0
  S  S67  1  0.67753548  0.25000000  0.91106448  1.0
  S  S68  1  0.78952624  0.75000000  0.07973095  1.0
  S  S69  1  0.28952624  0.75000000  0.42026905  1.0
  S  S70  1  0.21047376  0.25000000  0.92026905  1.0
  S  S71  1  0.71047376  0.25000000  0.57973095  1.0
  S  S72  1  0.59713679  0.75000000  0.03400720  1.0
  S  S73  1  0.09713679  0.75000000  0.46599280  1.0
  S  S74  1  0.40286321  0.25000000  0.96599280  1.0
  S  S75  1  0.90286321  0.25000000  0.53400720  1.0
