# generated using pymatgen
data_Ba3(CdAs2)2
_symmetry_space_group_name_H-M   'P 1'
_cell_length_a   8.93082636
_cell_length_b   8.93082636
_cell_length_c   7.40816965
_cell_angle_alpha   68.71040707
_cell_angle_beta   111.28959293
_cell_angle_gamma   149.86198530
_symmetry_Int_Tables_number   1
_chemical_formula_structural   Ba3(CdAs2)2
_chemical_formula_sum   'Ba3 Cd2 As4'
_cell_volume   274.89726597
_cell_formula_units_Z   1
loop_
 _symmetry_equiv_pos_site_id
 _symmetry_equiv_pos_as_xyz
  1  'x, y, z'
loop_
 _atom_site_type_symbol
 _atom_site_label
 _atom_site_symmetry_multiplicity
 _atom_site_fract_x
 _atom_site_fract_y
 _atom_site_fract_z
 _atom_site_occupancy
  Ba  Ba0  1  0.85786939  -0.85786939  0.42094556  1.0
  Ba  Ba1  1  1.14213061  -0.14213061  0.57905444  1.0
  Ba  Ba2  1  0.00000000  0.00000000  0.00000000  1.0
  Cd  Cd3  1  0.66923707  -0.66923707  0.97101170  1.0
  Cd  Cd4  1  1.33076293  -0.33076293  0.02898830  1.0
  As  As5  1  0.79315629  -0.79315629  0.80743287  1.0
  As  As6  1  1.20684371  -0.20684371  0.19256713  1.0
  As  As7  1  0.50511694  -0.50511694  0.67426667  1.0
  As  As8  1  1.49488306  -0.49488306  0.32573333  1.0
