# generated using pymatgen
data_Na3H7Ru
_symmetry_space_group_name_H-M   'P 1'
_cell_length_a   9.58635568
_cell_length_b   9.58635568
_cell_length_c   5.29228686
_cell_angle_alpha   90.00000000
_cell_angle_beta   90.00000000
_cell_angle_gamma   90.00000000
_symmetry_Int_Tables_number   1
_chemical_formula_structural   Na3H7Ru
_chemical_formula_sum   'Na12 H28 Ru4'
_cell_volume   486.35171685
_cell_formula_units_Z   4
loop_
 _symmetry_equiv_pos_site_id
 _symmetry_equiv_pos_as_xyz
  1  'x, y, z'
loop_
 _atom_site_type_symbol
 _atom_site_label
 _atom_site_symmetry_multiplicity
 _atom_site_fract_x
 _atom_site_fract_y
 _atom_site_fract_z
 _atom_site_occupancy
  Na  Na0  1  0.30006119  0.03243949  0.50000000  1.0
  Na  Na1  1  0.80006119  0.46756051  0.00000000  1.0
  Na  Na2  1  0.96756051  0.69993881  0.50000000  1.0
  Na  Na3  1  0.46756051  0.80006119  0.00000000  1.0
  Na  Na4  1  0.69993881  0.96756051  0.50000000  1.0
  Na  Na5  1  0.19993881  0.53243949  0.00000000  1.0
  Na  Na6  1  0.03243949  0.30006119  0.50000000  1.0
  Na  Na7  1  0.53243949  0.19993881  0.00000000  1.0
  Na  Na8  1  0.38390988  0.38390988  0.50000000  1.0
  Na  Na9  1  0.88390988  0.11609012  0.00000000  1.0
  Na  Na10  1  0.61609012  0.61609012  0.50000000  1.0
  Na  Na11  1  0.11609012  0.88390988  0.00000000  1.0
  H  H12  1  0.39515803  0.60484197  0.30421487  1.0
  H  H13  1  0.39515803  0.60484197  0.69578513  1.0
  H  H14  1  0.89515803  0.89515803  0.80421487  1.0
  H  H15  1  0.89515803  0.89515803  0.19578513  1.0
  H  H16  1  0.60484197  0.39515803  0.30421487  1.0
  H  H17  1  0.60484197  0.39515803  0.69578513  1.0
  H  H18  1  0.10484197  0.10484197  0.80421487  1.0
  H  H19  1  0.10484197  0.10484197  0.19578513  1.0
  H  H20  1  0.25854088  0.74145912  0.20688944  1.0
  H  H21  1  0.25854088  0.74145912  0.79311056  1.0
  H  H22  1  0.75854088  0.75854088  0.70688944  1.0
  H  H23  1  0.75854088  0.75854088  0.29311056  1.0
  H  H24  1  0.74145912  0.25854088  0.20688944  1.0
  H  H25  1  0.74145912  0.25854088  0.79311056  1.0
  H  H26  1  0.24145912  0.24145912  0.70688944  1.0
  H  H27  1  0.24145912  0.24145912  0.29311056  1.0
  H  H28  1  0.43061953  0.82428090  0.50000000  1.0
  H  H29  1  0.93061953  0.67571910  0.00000000  1.0
  H  H30  1  0.17571910  0.56938047  0.50000000  1.0
  H  H31  1  0.67571910  0.93061953  0.00000000  1.0
  H  H32  1  0.56938047  0.17571910  0.50000000  1.0
  H  H33  1  0.06938047  0.32428090  0.00000000  1.0
  H  H34  1  0.82428090  0.43061953  0.50000000  1.0
  H  H35  1  0.32428090  0.06938047  0.00000000  1.0
  H  H36  1  0.17590076  0.82409924  0.50000000  1.0
  H  H37  1  0.67590076  0.67590076  0.00000000  1.0
  H  H38  1  0.82409924  0.17590076  0.50000000  1.0
  H  H39  1  0.32409924  0.32409924  0.00000000  1.0
  Ru  Ru40  1  0.29837604  0.70162396  0.50000000  1.0
  Ru  Ru41  1  0.79837604  0.79837604  0.00000000  1.0
  Ru  Ru42  1  0.70162396  0.29837604  0.50000000  1.0
  Ru  Ru43  1  0.20162396  0.20162396  0.00000000  1.0
