# generated using pymatgen
data_H6CN4O3
_symmetry_space_group_name_H-M   'P 1'
_cell_length_a   6.75899618
_cell_length_b   6.75899618
_cell_length_c   3.91165839
_cell_angle_alpha   82.38978336
_cell_angle_beta   97.61021664
_cell_angle_gamma   113.91774242
_symmetry_Int_Tables_number   1
_chemical_formula_structural   H6CN4O3
_chemical_formula_sum   'H6 C1 N4 O3'
_cell_volume   161.30362782
_cell_formula_units_Z   1
loop_
 _symmetry_equiv_pos_site_id
 _symmetry_equiv_pos_as_xyz
  1  'x, y, z'
loop_
 _atom_site_type_symbol
 _atom_site_label
 _atom_site_symmetry_multiplicity
 _atom_site_fract_x
 _atom_site_fract_y
 _atom_site_fract_z
 _atom_site_occupancy
  H  H0  1  0.60845790  -0.36801660  0.90830672  1.0
  H  H1  1  1.36801660  0.39154210  0.90830672  1.0
  H  H2  1  0.60685211  -0.05306248  0.60240133  1.0
  H  H3  1  1.05306248  0.39314789  0.60240133  1.0
  H  H4  1  0.36379542  -0.05058623  0.36951126  1.0
  H  H5  1  1.05058623  0.63620458  0.36951126  1.0
  C  C6  1  0.34372517  -0.34372517  0.61698988  1.0
  N  N7  1  0.44725478  -0.13303706  0.51723068  1.0
  N  N8  1  1.13303706  0.55274522  0.51723068  1.0
  N  N9  1  0.00293089  -0.00293089  -0.01893302  1.0
  N  N10  1  0.45199754  -0.45199754  0.81219564  1.0
  O  O11  1  1.20035137  0.09648910  0.08350219  1.0
  O  O12  1  0.90351090  -0.20035137  0.08350219  1.0
  O  O13  1  0.90472154  -0.90472154  0.77634314  1.0
