# generated using pymatgen
data_MnCuF6
_symmetry_space_group_name_H-M   'P 1'
_cell_length_a   5.05591292
_cell_length_b   5.39338514
_cell_length_c   5.17075509
_cell_angle_alpha   59.79093403
_cell_angle_beta   60.32097657
_cell_angle_gamma   61.54948761
_symmetry_Int_Tables_number   1
_chemical_formula_structural   MnCuF6
_chemical_formula_sum   'Mn1 Cu1 F6'
_cell_volume   100.89895952
_cell_formula_units_Z   1
loop_
 _symmetry_equiv_pos_site_id
 _symmetry_equiv_pos_as_xyz
  1  'x, y, z'
loop_
 _atom_site_type_symbol
 _atom_site_label
 _atom_site_symmetry_multiplicity
 _atom_site_fract_x
 _atom_site_fract_y
 _atom_site_fract_z
 _atom_site_occupancy
  Mn  Mn0  1  -0.50000000  -0.50000000  -0.50000000  1.0
  Cu  Cu1  1  0.00000000  0.00000000  0.00000000  1.0
  F  F2  1  -0.25874897  -0.25881470  -0.63443973  1.0
  F  F3  1  -0.74125103  -0.74118530  -0.36556027  1.0
  F  F4  1  -0.36793618  -0.74387011  -0.14940355  1.0
  F  F5  1  -0.63206382  -0.25612989  -0.85059645  1.0
  F  F6  1  -0.83751167  -0.26921589  -0.27327703  1.0
  F  F7  1  -0.16248833  -0.73078411  -0.72672297  1.0
