# generated using pymatgen
data_H7C3N11O2
_symmetry_space_group_name_H-M   'P 1'
_cell_length_a   10.01830188
_cell_length_b   8.08875355
_cell_length_c   7.01542264
_cell_angle_alpha   101.30631606
_cell_angle_beta   106.08396916
_cell_angle_gamma   107.73798857
_symmetry_Int_Tables_number   1
_chemical_formula_structural   H7C3N11O2
_chemical_formula_sum   'H14 C6 N22 O4'
_cell_volume   495.24419579
_cell_formula_units_Z   2
loop_
 _symmetry_equiv_pos_site_id
 _symmetry_equiv_pos_as_xyz
  1  'x, y, z'
loop_
 _atom_site_type_symbol
 _atom_site_label
 _atom_site_symmetry_multiplicity
 _atom_site_fract_x
 _atom_site_fract_y
 _atom_site_fract_z
 _atom_site_occupancy
  H  H0  1  -0.71876134  -0.49921072  -0.85798647  1.0
  H  H1  1  -0.28123866  -0.50078928  -0.14201353  1.0
  H  H2  1  -0.12585759  -0.60020618  -0.80686385  1.0
  H  H3  1  -0.87414241  -0.39979382  -0.19313615  1.0
  H  H4  1  -0.54468736  -0.38878538  -0.66602634  1.0
  H  H5  1  -0.45531264  -0.61121462  -0.33397366  1.0
  H  H6  1  -0.69219021  -0.32921452  -0.64778658  1.0
  H  H7  1  -0.30780979  -0.67078548  -0.35221342  1.0
  H  H8  1  -0.68691776  -0.52975116  -0.61754097  1.0
  H  H9  1  -0.31308224  -0.47024884  -0.38245903  1.0
  H  H10  1  -0.76554919  -0.60392855  -0.23698487  1.0
  H  H11  1  -0.23445081  -0.39607145  -0.76301513  1.0
  H  H12  1  -0.91791401  -0.68197369  -0.19925951  1.0
  H  H13  1  -0.08208599  -0.31802631  -0.80074049  1.0
  C  C14  1  -0.19485507  -0.89380022  -0.89807670  1.0
  C  C15  1  -0.80514493  -0.10619978  -0.10192330  1.0
  C  C16  1  -0.98552930  -0.88569124  -0.72421740  1.0
  C  C17  1  -0.01447070  -0.11430876  -0.27578260  1.0
  C  C18  1  -0.87130178  -0.95205520  -0.63736570  1.0
  C  C19  1  -0.12869822  -0.04794480  -0.36263430  1.0
  N  N20  1  -0.65816412  -0.05813737  -0.97128763  1.0
  N  N21  1  -0.34183588  -0.94186263  -0.02871237  1.0
  N  N22  1  -0.58624862  -0.89350295  -0.88153682  1.0
  N  N23  1  -0.41375138  -0.10649705  -0.11846318  1.0
  N  N24  1  -0.12614767  -1.00553981  -0.85364038  1.0
  N  N25  1  -0.87385233  0.00553981  -0.14635962  1.0
  N  N26  1  -0.50772687  -0.74673178  -0.78937509  1.0
  N  N27  1  -0.49227313  -0.25326822  -0.21062491  1.0
  N  N28  1  -0.10212041  -0.71772205  -0.80119825  1.0
  N  N29  1  -0.89787959  -0.28227795  -0.19880175  1.0
  N  N30  1  -0.66062940  -0.43716004  -0.69807694  1.0
  N  N31  1  -0.33937060  -0.56283996  -0.30192306  1.0
  N  N32  1  -0.96553186  -0.70927800  -0.68801952  1.0
  N  N33  1  -0.03446814  -0.29072200  -0.31198048  1.0
  N  N34  1  -0.88921803  -0.12832664  -0.68028326  1.0
  N  N35  1  -0.11078197  -0.87167336  -0.31971674  1.0
  N  N36  1  -0.72855532  -0.85167661  -0.50072766  1.0
  N  N37  1  -0.27144468  -0.14832339  -0.49927234  1.0
  N  N38  1  -0.24238732  -0.86809958  -0.42875801  1.0
  N  N39  1  -0.75761268  -0.13190042  -0.57124199  1.0
  N  N40  1  -0.65868843  -0.96664593  -0.46109899  1.0
  N  N41  1  -0.34131157  -0.03335407  -0.53890101  1.0
  O  O42  1  -0.66212410  -0.67484039  -0.41430325  1.0
  O  O43  1  -0.33787590  -0.32515961  -0.58569675  1.0
  O  O44  1  -0.82225354  -0.57324086  -0.14946652  1.0
  O  O45  1  -0.17774646  -0.42675914  -0.85053348  1.0
