# generated using pymatgen
data_Li4TeO5
_symmetry_space_group_name_H-M   'P 1'
_cell_length_a   5.30759642
_cell_length_b   5.21808247
_cell_length_c   8.12141344
_cell_angle_alpha   69.92312247
_cell_angle_beta   68.47508253
_cell_angle_gamma   78.25848711
_symmetry_Int_Tables_number   1
_chemical_formula_structural   Li4TeO5
_chemical_formula_sum   'Li8 Te2 O10'
_cell_volume   195.74918889
_cell_formula_units_Z   2
loop_
 _symmetry_equiv_pos_site_id
 _symmetry_equiv_pos_as_xyz
  1  'x, y, z'
loop_
 _atom_site_type_symbol
 _atom_site_label
 _atom_site_symmetry_multiplicity
 _atom_site_fract_x
 _atom_site_fract_y
 _atom_site_fract_z
 _atom_site_occupancy
  Li  Li0  1  0.48229895  -0.41642798  0.31817751  1.0
  Li  Li1  1  -0.48229895  -0.58357202  0.68182249  1.0
  Li  Li2  1  0.01464466  -0.29490946  0.60616705  1.0
  Li  Li3  1  -0.01464466  -0.70509054  0.39383295  1.0
  Li  Li4  1  -0.49903730  -0.22917745  0.88354883  1.0
  Li  Li5  1  0.49903730  -0.77082255  0.11645117  1.0
  Li  Li6  1  0.00000000  -0.50000000  -0.00000000  1.0
  Li  Li7  1  -0.50000000  -0.00000000  0.50000000  1.0
  Te  Te8  1  0.00035422  -0.89003300  0.78758925  1.0
  Te  Te9  1  -0.00035422  -0.10996700  0.21241075  1.0
  O  O10  1  -0.23305796  -0.95083425  0.66839935  1.0
  O  O11  1  0.23305796  -0.04916575  0.33160065  1.0
  O  O12  1  -0.78469145  -0.86301972  0.95291458  1.0
  O  O13  1  0.78469145  -0.13698028  0.04708542  1.0
  O  O14  1  0.25127184  -0.65768096  0.56908290  1.0
  O  O15  1  -0.25127184  -0.34231904  0.43091710  1.0
  O  O16  1  -0.24241024  -0.57117408  0.84818265  1.0
  O  O17  1  0.24241024  -0.42882592  0.15181735  1.0
  O  O18  1  0.24310180  -0.22214326  0.74871127  1.0
  O  O19  1  -0.24310180  -0.77785674  0.25128873  1.0
