# generated using pymatgen
data_Lu2Mg3Ni2
_symmetry_space_group_name_H-M   'P 1'
_cell_length_a   10.73371838
_cell_length_b   10.73371838
_cell_length_c   3.69385880
_cell_angle_alpha   90.00000000
_cell_angle_beta   90.00000000
_cell_angle_gamma   160.20573694
_symmetry_Int_Tables_number   1
_chemical_formula_structural   Lu2Mg3Ni2
_chemical_formula_sum   'Lu2 Mg3 Ni2'
_cell_volume   144.11981508
_cell_formula_units_Z   1
loop_
 _symmetry_equiv_pos_site_id
 _symmetry_equiv_pos_as_xyz
  1  'x, y, z'
loop_
 _atom_site_type_symbol
 _atom_site_label
 _atom_site_symmetry_multiplicity
 _atom_site_fract_x
 _atom_site_fract_y
 _atom_site_fract_z
 _atom_site_occupancy
  Lu  Lu0  1  0.40986884  0.59013116  0.50000000  1.0
  Lu  Lu1  1  -0.40986884  0.40986884  0.50000000  1.0
  Mg  Mg2  1  0.18829991  0.81170009  0.00000000  1.0
  Mg  Mg3  1  -0.18829991  0.18829991  0.00000000  1.0
  Mg  Mg4  1  0.00000000  0.00000000  0.00000000  1.0
  Ni  Ni5  1  0.28454045  0.71545955  0.50000000  1.0
  Ni  Ni6  1  -0.28454045  0.28454045  0.50000000  1.0
