# generated using pymatgen
data_SiO2
_symmetry_space_group_name_H-M   'P 1'
_cell_length_a   13.15724365
_cell_length_b   13.15724365
_cell_length_c   3.90217380
_cell_angle_alpha   90.00000000
_cell_angle_beta   90.00000000
_cell_angle_gamma   120.00000000
_symmetry_Int_Tables_number   1
_chemical_formula_structural   SiO2
_chemical_formula_sum   'Si12 O24'
_cell_volume   585.01509890
_cell_formula_units_Z   12
loop_
 _symmetry_equiv_pos_site_id
 _symmetry_equiv_pos_as_xyz
  1  'x, y, z'
loop_
 _atom_site_type_symbol
 _atom_site_label
 _atom_site_symmetry_multiplicity
 _atom_site_fract_x
 _atom_site_fract_y
 _atom_site_fract_z
 _atom_site_occupancy
  Si  Si0  1  0.51950361  0.65069322  0.84315088  1.0
  Si  Si1  1  0.34930678  0.86881039  0.84315088  1.0
  Si  Si2  1  0.13118961  0.48049639  0.84315088  1.0
  Si  Si3  1  0.48049639  0.34930678  0.84315088  1.0
  Si  Si4  1  0.65069322  0.13118961  0.84315088  1.0
  Si  Si5  1  0.86881039  0.51950361  0.84315088  1.0
  Si  Si6  1  0.65069322  0.51950361  0.15684912  1.0
  Si  Si7  1  0.86881039  0.34930678  0.15684912  1.0
  Si  Si8  1  0.48049639  0.13118961  0.15684912  1.0
  Si  Si9  1  0.34930678  0.48049639  0.15684912  1.0
  Si  Si10  1  0.13118961  0.65069322  0.15684912  1.0
  Si  Si11  1  0.51950361  0.86881039  0.15684912  1.0
  O  O12  1  0.78416873  0.39208437  0.00000000  1.0
  O  O13  1  0.60791563  0.39208437  0.00000000  1.0
  O  O14  1  0.60791563  0.21583127  0.00000000  1.0
  O  O15  1  0.21583127  0.60791563  0.00000000  1.0
  O  O16  1  0.39208437  0.60791563  -0.00000000  1.0
  O  O17  1  0.39208437  0.78416873  0.00000000  1.0
  O  O18  1  0.00000000  0.38607940  0.00000000  1.0
  O  O19  1  0.61392060  0.61392060  0.00000000  1.0
  O  O20  1  0.38607940  -0.00000000  0.00000000  1.0
  O  O21  1  -0.00000000  0.61392060  -0.00000000  1.0
  O  O22  1  0.38607940  0.38607940  0.00000000  1.0
  O  O23  1  0.61392060  0.00000000  0.00000000  1.0
  O  O24  1  0.79288093  0.20711907  0.00000000  1.0
  O  O25  1  0.79288093  0.58576186  0.00000000  1.0
  O  O26  1  0.41423814  0.20711907  -0.00000000  1.0
  O  O27  1  0.20711907  0.79288093  0.00000000  1.0
  O  O28  1  0.20711907  0.41423814  0.00000000  1.0
  O  O29  1  0.58576186  0.79288093  0.00000000  1.0
  O  O30  1  0.89427306  0.44713653  0.50000000  1.0
  O  O31  1  0.55286347  0.44713653  0.50000000  1.0
  O  O32  1  0.55286347  0.10572694  0.50000000  1.0
  O  O33  1  0.10572694  0.55286347  0.50000000  1.0
  O  O34  1  0.44713653  0.55286347  0.50000000  1.0
  O  O35  1  0.44713653  0.89427306  0.50000000  1.0
