# generated using pymatgen
data_Rb2Ti6O13
_symmetry_space_group_name_H-M   'P 1'
_cell_length_a   8.29548732
_cell_length_b   8.29548732
_cell_length_c   9.21450140
_cell_angle_alpha   79.41625732
_cell_angle_beta   100.58374268
_cell_angle_gamma   153.26179241
_symmetry_Int_Tables_number   1
_chemical_formula_structural   Rb2Ti6O13
_chemical_formula_sum   'Rb2 Ti6 O13'
_cell_volume   280.15935201
_cell_formula_units_Z   1
loop_
 _symmetry_equiv_pos_site_id
 _symmetry_equiv_pos_as_xyz
  1  'x, y, z'
loop_
 _atom_site_type_symbol
 _atom_site_label
 _atom_site_symmetry_multiplicity
 _atom_site_fract_x
 _atom_site_fract_y
 _atom_site_fract_z
 _atom_site_occupancy
  Rb  Rb0  1  0.54401857  0.45598143  0.74528404  1.0
  Rb  Rb1  1  0.45598143  -0.45598143  0.25471596  1.0
  Ti  Ti2  1  0.88552297  0.11447703  0.90502531  1.0
  Ti  Ti3  1  0.11447703  -0.11447703  0.09497469  1.0
  Ti  Ti4  1  0.82519136  0.17480864  0.56226838  1.0
  Ti  Ti5  1  0.17480864  -0.17480864  0.43773162  1.0
  Ti  Ti6  1  0.23338592  -0.23338592  0.78061128  1.0
  Ti  Ti7  1  0.76661408  0.23338592  0.21938872  1.0
  O  O8  1  0.91669999  0.08330001  0.71153770  1.0
  O  O9  1  0.08330001  -0.08330001  0.28846230  1.0
  O  O10  1  0.86055282  0.13944718  0.38624234  1.0
  O  O11  1  0.13944718  -0.13944718  0.61375766  1.0
  O  O12  1  0.76121466  0.23878534  0.76273012  1.0
  O  O13  1  0.23878534  -0.23878534  0.23726988  1.0
  O  O14  1  0.70349996  0.29650004  0.42870105  1.0
  O  O15  1  0.29650004  -0.29650004  0.57129895  1.0
  O  O16  1  0.35834006  -0.35834006  0.89123246  1.0
  O  O17  1  0.64165994  0.35834006  0.10876754  1.0
  O  O18  1  0.16887986  -0.16887986  0.91524776  1.0
  O  O19  1  0.83112014  0.16887986  0.08475224  1.0
  O  O20  1  0.00000000  0.00000000  0.00000000  1.0
