# generated using pymatgen
data_SnAu5
_symmetry_space_group_name_H-M   'P 1'
_cell_length_a   5.70054795
_cell_length_b   5.70054795
_cell_length_c   5.70054795
_cell_angle_alpha   54.08279266
_cell_angle_beta   54.08279266
_cell_angle_gamma   54.08279266
_symmetry_Int_Tables_number   1
_chemical_formula_structural   SnAu5
_chemical_formula_sum   'Sn1 Au5'
_cell_volume   112.89035909
_cell_formula_units_Z   1
loop_
 _symmetry_equiv_pos_site_id
 _symmetry_equiv_pos_as_xyz
  1  'x, y, z'
loop_
 _atom_site_type_symbol
 _atom_site_label
 _atom_site_symmetry_multiplicity
 _atom_site_fract_x
 _atom_site_fract_y
 _atom_site_fract_z
 _atom_site_occupancy
  Sn  Sn0  1  0.00000000  0.00000000  0.00000000  1.0
  Au  Au1  1  1.17362541  0.50000000  0.82637459  1.0
  Au  Au2  1  1.50000000  0.82637459  0.17362541  1.0
  Au  Au3  1  1.82637459  0.17362541  0.50000000  1.0
  Au  Au4  1  0.67083612  0.67083612  0.67083612  1.0
  Au  Au5  1  1.32916388  1.32916388  0.32916388  1.0
