# generated using pymatgen
data_BaAs3
_symmetry_space_group_name_H-M   'P 1'
_cell_length_a   6.48142625
_cell_length_b   6.48142625
_cell_length_c   6.11525076
_cell_angle_alpha   71.59388138
_cell_angle_beta   108.40611862
_cell_angle_gamma   105.15361370
_symmetry_Int_Tables_number   1
_chemical_formula_structural   BaAs3
_chemical_formula_sum   'Ba2 As6'
_cell_volume   227.52144911
_cell_formula_units_Z   2
loop_
 _symmetry_equiv_pos_site_id
 _symmetry_equiv_pos_as_xyz
  1  'x, y, z'
loop_
 _atom_site_type_symbol
 _atom_site_label
 _atom_site_symmetry_multiplicity
 _atom_site_fract_x
 _atom_site_fract_y
 _atom_site_fract_z
 _atom_site_occupancy
  Ba  Ba0  1  0.83504321  0.16495679  0.66493026  1.0
  Ba  Ba1  1  1.16495679  -0.16495679  0.33506974  1.0
  As  As2  1  0.37299701  0.09531647  0.81631320  1.0
  As  As3  1  0.90468353  0.62700299  0.81631320  1.0
  As  As4  1  1.09531647  -0.62700299  0.18368680  1.0
  As  As5  1  1.62700299  -0.09531647  0.18368680  1.0
  As  As6  1  0.50392307  0.49607693  0.79549964  1.0
  As  As7  1  1.49607693  -0.49607693  0.20450036  1.0
