# generated using pymatgen
data_Nb5Ge4
_symmetry_space_group_name_H-M   'P 1'
_cell_length_a   6.75593197
_cell_length_b   13.19375307
_cell_length_c   6.83664908
_cell_angle_alpha   90.00000000
_cell_angle_beta   90.00000000
_cell_angle_gamma   90.00000000
_symmetry_Int_Tables_number   1
_chemical_formula_structural   Nb5Ge4
_chemical_formula_sum   'Nb20 Ge16'
_cell_volume   609.39222380
_cell_formula_units_Z   4
loop_
 _symmetry_equiv_pos_site_id
 _symmetry_equiv_pos_as_xyz
  1  'x, y, z'
loop_
 _atom_site_type_symbol
 _atom_site_label
 _atom_site_symmetry_multiplicity
 _atom_site_fract_x
 _atom_site_fract_y
 _atom_site_fract_z
 _atom_site_occupancy
  Nb  Nb0  1  0.67073990  0.75000000  0.50814455  1.0
  Nb  Nb1  1  0.17073990  0.75000000  0.99185545  1.0
  Nb  Nb2  1  0.32926010  0.25000000  0.49185545  1.0
  Nb  Nb3  1  0.82926010  0.25000000  0.00814455  1.0
  Nb  Nb4  1  0.65444955  0.12445385  0.33609000  1.0
  Nb  Nb5  1  0.15444955  0.37554615  0.16391000  1.0
  Nb  Nb6  1  0.34555045  0.62445385  0.66391000  1.0
  Nb  Nb7  1  0.84555045  0.87554615  0.83609000  1.0
  Nb  Nb8  1  0.34555045  0.87554615  0.66391000  1.0
  Nb  Nb9  1  0.84555045  0.62445385  0.83609000  1.0
  Nb  Nb10  1  0.65444955  0.37554615  0.33609000  1.0
  Nb  Nb11  1  0.15444955  0.12445385  0.16391000  1.0
  Nb  Nb12  1  0.51977776  0.58640043  0.17569835  1.0
  Nb  Nb13  1  0.01977776  0.91359957  0.32430165  1.0
  Nb  Nb14  1  0.48022224  0.08640043  0.82430165  1.0
  Nb  Nb15  1  0.98022224  0.41359957  0.67569835  1.0
  Nb  Nb16  1  0.48022224  0.41359957  0.82430165  1.0
  Nb  Nb17  1  0.98022224  0.08640043  0.67569835  1.0
  Nb  Nb18  1  0.51977776  0.91359957  0.17569835  1.0
  Nb  Nb19  1  0.01977776  0.58640043  0.32430165  1.0
  Ge  Ge20  1  0.54489297  0.75000000  0.89604783  1.0
  Ge  Ge21  1  0.04489297  0.75000000  0.60395217  1.0
  Ge  Ge22  1  0.45510703  0.25000000  0.10395217  1.0
  Ge  Ge23  1  0.95510703  0.25000000  0.39604783  1.0
  Ge  Ge24  1  0.81761748  0.75000000  0.16028901  1.0
  Ge  Ge25  1  0.31761748  0.75000000  0.33971099  1.0
  Ge  Ge26  1  0.18238252  0.25000000  0.83971099  1.0
  Ge  Ge27  1  0.68238252  0.25000000  0.66028901  1.0
  Ge  Ge28  1  0.81043222  0.04119142  0.03488558  1.0
  Ge  Ge29  1  0.31043222  0.45880858  0.46511442  1.0
  Ge  Ge30  1  0.18956778  0.54119142  0.96511442  1.0
  Ge  Ge31  1  0.68956778  0.95880858  0.53488558  1.0
  Ge  Ge32  1  0.18956778  0.95880858  0.96511442  1.0
  Ge  Ge33  1  0.68956778  0.54119142  0.53488558  1.0
  Ge  Ge34  1  0.81043222  0.45880858  0.03488558  1.0
  Ge  Ge35  1  0.31043222  0.04119142  0.46511442  1.0
