# generated using pymatgen
data_Ba(InS2)2
_symmetry_space_group_name_H-M   'P 1'
_cell_length_a   15.65634175
_cell_length_b   12.96681131
_cell_length_c   12.87516615
_cell_angle_alpha   74.57900473
_cell_angle_beta   52.97732462
_cell_angle_gamma   52.44367064
_symmetry_Int_Tables_number   1
_chemical_formula_structural   Ba(InS2)2
_chemical_formula_sum   'Ba8 In16 S32'
_cell_volume   1633.12775081
_cell_formula_units_Z   8
loop_
 _symmetry_equiv_pos_site_id
 _symmetry_equiv_pos_as_xyz
  1  'x, y, z'
loop_
 _atom_site_type_symbol
 _atom_site_label
 _atom_site_symmetry_multiplicity
 _atom_site_fract_x
 _atom_site_fract_y
 _atom_site_fract_z
 _atom_site_occupancy
  Ba  Ba0  1  0.75000000  0.75000000  0.75000000  1.0
  Ba  Ba1  1  0.50000000  0.50000000  -0.50000000  1.0
  Ba  Ba2  1  0.25000000  1.25000000  0.25000000  1.0
  Ba  Ba3  1  1.00000000  0.00000000  -0.00000000  1.0
  Ba  Ba4  1  0.49763870  0.49763870  0.00236130  1.0
  Ba  Ba5  1  0.00236130  1.00236130  0.49763870  1.0
  Ba  Ba6  1  0.75236130  0.75236130  0.24763870  1.0
  Ba  Ba7  1  1.24763870  0.24763870  -0.24763870  1.0
  In  In8  1  0.26830147  0.98194808  0.58821975  1.0
  In  In9  1  -0.01805192  1.26830147  0.16153070  1.0
  In  In10  1  0.58821975  0.16153070  0.26830147  1.0
  In  In11  1  0.16153070  0.58821975  -0.01805192  1.0
  In  In12  1  -0.01830147  1.26805192  0.66178025  1.0
  In  In13  1  1.26805192  -0.01830147  0.08846930  1.0
  In  In14  1  0.66178025  1.08846930  -0.01830147  1.0
  In  In15  1  1.08846930  0.66178025  0.26805192  1.0
  In  In16  1  0.48707503  0.76412393  0.23550854  1.0
  In  In17  1  0.76412393  0.48707503  -0.48670749  1.0
  In  In18  1  1.23550854  0.51329251  -0.51292497  1.0
  In  In19  1  0.51329251  1.23550854  -0.23587607  1.0
  In  In20  1  0.76292497  0.48587607  0.01449146  1.0
  In  In21  1  0.48587607  0.76292497  0.73670749  1.0
  In  In22  1  0.01449146  0.73670749  0.76292497  1.0
  In  In23  1  0.73670749  0.01449146  0.48587607  1.0
  S  S24  1  1.04013754  0.54211750  -0.28968881  1.0
  S  S25  1  0.54211750  1.04013754  0.70743377  1.0
  S  S26  1  0.71031119  0.70743377  0.04013754  1.0
  S  S27  1  0.70743377  0.71031119  0.54211750  1.0
  S  S28  1  0.20986246  0.70788250  0.53968881  1.0
  S  S29  1  -0.29211750  1.20986246  0.54256623  1.0
  S  S30  1  0.53968881  0.54256623  0.20986246  1.0
  S  S31  1  0.54256623  0.53968881  -0.29211750  1.0
  S  S32  1  0.03979010  1.54161653  0.21015593  1.0
  S  S33  1  0.54161653  1.03979010  0.20843744  1.0
  S  S34  1  0.21015593  1.20843744  0.03979010  1.0
  S  S35  1  0.20843744  1.21015593  0.54161653  1.0
  S  S36  1  0.21020990  0.70838347  1.03984407  1.0
  S  S37  1  0.70838347  0.21020990  0.04156256  1.0
  S  S38  1  1.03984407  0.04156256  0.21020990  1.0
  S  S39  1  0.04156256  1.03984407  0.70838347  1.0
  S  S40  1  0.96878397  0.27908062  -0.02794321  1.0
  S  S41  1  0.27908062  0.96878397  0.78007862  1.0
  S  S42  1  -0.02794321  0.78007862  0.96878397  1.0
  S  S43  1  0.78007862  -0.02794321  0.27908062  1.0
  S  S44  1  0.28121603  0.97091938  0.27794321  1.0
  S  S45  1  -0.02908062  1.28121603  0.46992138  1.0
  S  S46  1  0.27794321  1.46992138  0.28121603  1.0
  S  S47  1  0.46992138  1.27794321  -0.02908062  1.0
  S  S48  1  -0.22318502  1.47540021  0.31086205  1.0
  S  S49  1  0.47540021  0.77681498  0.43692276  1.0
  S  S50  1  0.31086205  1.43692276  -0.22318502  1.0
  S  S51  1  0.43692276  1.31086205  0.47540021  1.0
  S  S52  1  0.47318502  0.77459979  0.93913795  1.0
  S  S53  1  0.77459979  0.47318502  -0.18692276  1.0
  S  S54  1  0.93913795  -0.18692276  0.47318502  1.0
  S  S55  1  -0.18692276  0.93913795  0.77459979  1.0
