# generated using pymatgen
data_Li3As
_symmetry_space_group_name_H-M   'P 1'
_cell_length_a   7.56318547
_cell_length_b   7.56318547
_cell_length_c   7.79743083
_cell_angle_alpha   90.00000000
_cell_angle_beta   90.00000000
_cell_angle_gamma   120.00000000
_symmetry_Int_Tables_number   1
_chemical_formula_structural   Li3As
_chemical_formula_sum   'Li18 As6'
_cell_volume   386.27060844
_cell_formula_units_Z   6
loop_
 _symmetry_equiv_pos_site_id
 _symmetry_equiv_pos_as_xyz
  1  'x, y, z'
loop_
 _atom_site_type_symbol
 _atom_site_label
 _atom_site_symmetry_multiplicity
 _atom_site_fract_x
 _atom_site_fract_y
 _atom_site_fract_z
 _atom_site_occupancy
  Li  Li0  1  0.99973427  0.66650810  0.08458218  1.0
  Li  Li1  1  0.99973427  0.33322617  0.58458218  1.0
  Li  Li2  1  0.66650810  0.99973427  0.41541782  1.0
  Li  Li3  1  0.66650810  0.66677383  0.91541782  1.0
  Li  Li4  1  0.66677383  0.66650810  0.58458218  1.0
  Li  Li5  1  0.66677383  0.00026573  0.08458218  1.0
  Li  Li6  1  0.33349190  0.00026573  0.58458218  1.0
  Li  Li7  1  0.33349190  0.33322617  0.08458218  1.0
  Li  Li8  1  0.00026573  0.66677383  0.41541782  1.0
  Li  Li9  1  0.00026573  0.33349190  0.91541782  1.0
  Li  Li10  1  0.33322617  0.99973427  0.91541782  1.0
  Li  Li11  1  0.33322617  0.33349190  0.41541782  1.0
  Li  Li12  1  0.33333333  0.66666667  0.24954614  1.0
  Li  Li13  1  0.33333333  0.66666667  0.74954614  1.0
  Li  Li14  1  0.66666667  0.33333333  0.25045386  1.0
  Li  Li15  1  0.66666667  0.33333333  0.75045386  1.0
  Li  Li16  1  0.00000000  0.00000000  0.25000000  1.0
  Li  Li17  1  0.00000000  0.00000000  0.75000000  1.0
  As  As18  1  0.66667572  0.66667572  0.25000000  1.0
  As  As19  1  0.66667572  0.00000000  0.75000000  1.0
  As  As20  1  -0.00000000  0.66667572  0.75000000  1.0
  As  As21  1  0.00000000  0.33332428  0.25000000  1.0
  As  As22  1  0.33332428  0.33332428  0.75000000  1.0
  As  As23  1  0.33332428  0.00000000  0.25000000  1.0
