# generated using pymatgen
data_Tb2Fe17H3
_symmetry_space_group_name_H-M   'P 1'
_cell_length_a   8.51201545
_cell_length_b   8.51201545
_cell_length_c   8.15403204
_cell_angle_alpha   90.00000000
_cell_angle_beta   90.00000000
_cell_angle_gamma   120.00000000
_symmetry_Int_Tables_number   1
_chemical_formula_structural   Tb2Fe17H3
_chemical_formula_sum   'Tb4 Fe34 H6'
_cell_volume   511.64396045
_cell_formula_units_Z   2
loop_
 _symmetry_equiv_pos_site_id
 _symmetry_equiv_pos_as_xyz
  1  'x, y, z'
loop_
 _atom_site_type_symbol
 _atom_site_label
 _atom_site_symmetry_multiplicity
 _atom_site_fract_x
 _atom_site_fract_y
 _atom_site_fract_z
 _atom_site_occupancy
  Tb  Tb0  1  0.33333333  0.66666667  0.25000000  1.0
  Tb  Tb1  1  0.66666667  0.33333333  0.75000000  1.0
  Tb  Tb2  1  -0.00000000  -0.00000000  0.25000000  1.0
  Tb  Tb3  1  0.00000000  0.00000000  0.75000000  1.0
  Fe  Fe4  1  0.16654922  0.83345078  0.48407658  1.0
  Fe  Fe5  1  0.16654922  0.83345078  0.01592342  1.0
  Fe  Fe6  1  0.16654922  0.33309845  0.48407658  1.0
  Fe  Fe7  1  0.16654922  0.33309845  0.01592342  1.0
  Fe  Fe8  1  0.83345078  0.16654922  0.98407658  1.0
  Fe  Fe9  1  0.83345078  0.16654922  0.51592342  1.0
  Fe  Fe10  1  0.83345078  0.66690155  0.98407658  1.0
  Fe  Fe11  1  0.83345078  0.66690155  0.51592342  1.0
  Fe  Fe12  1  0.66690155  0.83345078  0.48407658  1.0
  Fe  Fe13  1  0.66690155  0.83345078  0.01592342  1.0
  Fe  Fe14  1  0.33309845  0.16654922  0.98407658  1.0
  Fe  Fe15  1  0.33309845  0.16654922  0.51592342  1.0
  Fe  Fe16  1  0.67131910  0.62190865  0.25000000  1.0
  Fe  Fe17  1  0.67131910  0.04941045  0.25000000  1.0
  Fe  Fe18  1  0.62190865  0.67131910  0.75000000  1.0
  Fe  Fe19  1  0.62190865  0.95058955  0.75000000  1.0
  Fe  Fe20  1  0.95058955  0.62190865  0.25000000  1.0
  Fe  Fe21  1  0.95058955  0.32868090  0.25000000  1.0
  Fe  Fe22  1  0.37809135  0.32868090  0.25000000  1.0
  Fe  Fe23  1  0.37809135  0.04941045  0.25000000  1.0
  Fe  Fe24  1  0.32868090  0.95058955  0.75000000  1.0
  Fe  Fe25  1  0.32868090  0.37809135  0.75000000  1.0
  Fe  Fe26  1  0.04941045  0.67131910  0.75000000  1.0
  Fe  Fe27  1  0.04941045  0.37809135  0.75000000  1.0
  Fe  Fe28  1  0.50000000  0.50000000  0.50000000  1.0
  Fe  Fe29  1  0.50000000  0.50000000  -0.00000000  1.0
  Fe  Fe30  1  0.50000000  -0.00000000  0.50000000  1.0
  Fe  Fe31  1  0.50000000  0.00000000  0.00000000  1.0
  Fe  Fe32  1  -0.00000000  0.50000000  0.50000000  1.0
  Fe  Fe33  1  -0.00000000  0.50000000  -0.00000000  1.0
  Fe  Fe34  1  0.33333333  0.66666667  0.89395608  1.0
  Fe  Fe35  1  0.33333333  0.66666667  0.60604392  1.0
  Fe  Fe36  1  0.66666667  0.33333333  0.39395608  1.0
  Fe  Fe37  1  0.66666667  0.33333333  0.10604392  1.0
  H  H38  1  0.16493302  0.83506698  0.25000000  1.0
  H  H39  1  0.16493302  0.32986604  0.25000000  1.0
  H  H40  1  0.83506698  0.16493302  0.75000000  1.0
  H  H41  1  0.83506698  0.67013396  0.75000000  1.0
  H  H42  1  0.67013396  0.83506698  0.25000000  1.0
  H  H43  1  0.32986604  0.16493302  0.75000000  1.0
