# generated using pymatgen
data_SiBr
_symmetry_space_group_name_H-M   'P 1'
_cell_length_a   3.40757373
_cell_length_b   3.40757373
_cell_length_c   11.55547589
_cell_angle_alpha   90.00000000
_cell_angle_beta   90.00000000
_cell_angle_gamma   60.40670689
_symmetry_Int_Tables_number   1
_chemical_formula_structural   SiBr
_chemical_formula_sum   'Si2 Br2'
_cell_volume   116.67405366
_cell_formula_units_Z   2
loop_
 _symmetry_equiv_pos_site_id
 _symmetry_equiv_pos_as_xyz
  1  'x, y, z'
loop_
 _atom_site_type_symbol
 _atom_site_label
 _atom_site_symmetry_multiplicity
 _atom_site_fract_x
 _atom_site_fract_y
 _atom_site_fract_z
 _atom_site_occupancy
  Si  Si0  1  0.25693840  0.74306160  0.00245328  1.0
  Si  Si1  1  -0.25693840  1.25693840  0.50245328  1.0
  Br  Br2  1  0.25654497  0.74345503  0.19494672  1.0
  Br  Br3  1  -0.25654497  1.25654497  0.69494672  1.0
