# generated using pymatgen
data_KHCS2N
_symmetry_space_group_name_H-M   'P 1'
_cell_length_a   13.21809569
_cell_length_b   6.87682656
_cell_length_c   10.92128611
_cell_angle_alpha   90.00000000
_cell_angle_beta   90.00000000
_cell_angle_gamma   90.00000000
_symmetry_Int_Tables_number   1
_chemical_formula_structural   KHCS2N
_chemical_formula_sum   'K8 H8 C8 S16 N8'
_cell_volume   992.72908770
_cell_formula_units_Z   8
loop_
 _symmetry_equiv_pos_site_id
 _symmetry_equiv_pos_as_xyz
  1  'x, y, z'
loop_
 _atom_site_type_symbol
 _atom_site_label
 _atom_site_symmetry_multiplicity
 _atom_site_fract_x
 _atom_site_fract_y
 _atom_site_fract_z
 _atom_site_occupancy
  K  K0  1  0.14729926  0.30503041  0.54034028  1.0
  K  K1  1  0.14729926  0.69496959  0.04034028  1.0
  K  K2  1  0.64729926  0.80503041  0.95965972  1.0
  K  K3  1  0.64729926  0.19496959  0.45965972  1.0
  K  K4  1  0.85270074  0.30503041  0.95965972  1.0
  K  K5  1  0.85270074  0.69496959  0.45965972  1.0
  K  K6  1  0.35270074  0.80503041  0.54034028  1.0
  K  K7  1  0.35270074  0.19496959  0.04034028  1.0
  H  H8  1  0.47354506  0.48113337  0.87125767  1.0
  H  H9  1  0.47354506  0.51886663  0.37125767  1.0
  H  H10  1  0.97354506  0.98113337  0.62874233  1.0
  H  H11  1  0.97354506  0.01886663  0.12874233  1.0
  H  H12  1  0.52645494  0.48113337  0.62874233  1.0
  H  H13  1  0.52645494  0.51886663  0.12874233  1.0
  H  H14  1  0.02645494  0.98113337  0.87125767  1.0
  H  H15  1  0.02645494  0.01886663  0.37125767  1.0
  C  C16  1  0.40767419  0.28525295  0.64654568  1.0
  C  C17  1  0.40767419  0.71474705  0.14654568  1.0
  C  C18  1  0.90767419  0.78525295  0.85345432  1.0
  C  C19  1  0.90767419  0.21474705  0.35345432  1.0
  C  C20  1  0.59232581  0.28525295  0.85345432  1.0
  C  C21  1  0.59232581  0.71474705  0.35345432  1.0
  C  C22  1  0.09232581  0.78525295  0.64654568  1.0
  C  C23  1  0.09232581  0.21474705  0.14654568  1.0
  S  S24  1  0.33461646  0.14964666  0.74128821  1.0
  S  S25  1  0.33461646  0.85035334  0.24128821  1.0
  S  S26  1  0.83461646  0.64964666  0.75871179  1.0
  S  S27  1  0.83461646  0.35035334  0.25871179  1.0
  S  S28  1  0.66538354  0.14964666  0.75871179  1.0
  S  S29  1  0.66538354  0.85035334  0.25871179  1.0
  S  S30  1  0.16538354  0.64964666  0.74128821  1.0
  S  S31  1  0.16538354  0.35035334  0.24128821  1.0
  S  S32  1  0.88920163  0.20899407  0.51061655  1.0
  S  S33  1  0.88920163  0.79100593  0.01061655  1.0
  S  S34  1  0.38920163  0.70899407  0.98938345  1.0
  S  S35  1  0.38920163  0.29100593  0.48938345  1.0
  S  S36  1  0.11079837  0.20899407  0.98938345  1.0
  S  S37  1  0.11079837  0.79100593  0.48938345  1.0
  S  S38  1  0.61079837  0.70899407  0.51061655  1.0
  S  S39  1  0.61079837  0.29100593  0.01061655  1.0
  N  N40  1  0.48504501  0.39706381  0.68957515  1.0
  N  N41  1  0.48504501  0.60293619  0.18957515  1.0
  N  N42  1  0.98504501  0.89706381  0.81042485  1.0
  N  N43  1  0.98504501  0.10293619  0.31042485  1.0
  N  N44  1  0.51495499  0.39706381  0.81042485  1.0
  N  N45  1  0.51495499  0.60293619  0.31042485  1.0
  N  N46  1  0.01495499  0.89706381  0.68957515  1.0
  N  N47  1  0.01495499  0.10293619  0.18957515  1.0
