# generated using pymatgen
data_CuHgC4(SN)4
_symmetry_space_group_name_H-M   'P 1'
_cell_length_a   6.46394476
_cell_length_b   6.46394476
_cell_length_c   15.55214191
_cell_angle_alpha   94.69267621
_cell_angle_beta   85.30732379
_cell_angle_gamma   94.52952427
_symmetry_Int_Tables_number   1
_chemical_formula_structural   CuHgC4(SN)4
_chemical_formula_sum   'Cu2 Hg2 C8 S8 N8'
_cell_volume   643.74831228
_cell_formula_units_Z   2
loop_
 _symmetry_equiv_pos_site_id
 _symmetry_equiv_pos_as_xyz
  1  'x, y, z'
loop_
 _atom_site_type_symbol
 _atom_site_label
 _atom_site_symmetry_multiplicity
 _atom_site_fract_x
 _atom_site_fract_y
 _atom_site_fract_z
 _atom_site_occupancy
  Cu  Cu0  1  0.00000000  -0.00000000  0.50000000  1.0
  Cu  Cu1  1  0.00000000  0.00000000  0.00000000  1.0
  Hg  Hg2  1  1.53266781  0.53266781  0.25000000  1.0
  Hg  Hg3  1  0.46733219  -0.53266781  0.75000000  1.0
  C  C4  1  0.69533125  -0.04083339  0.35415964  1.0
  C  C5  1  1.04083339  0.30466875  0.85415964  1.0
  C  C6  1  0.95916661  -0.30466875  0.14584036  1.0
  C  C7  1  1.30466875  0.04083339  0.64584036  1.0
  C  C8  1  1.60447195  0.21930747  0.07426251  1.0
  C  C9  1  0.78069253  -0.60447195  0.57426251  1.0
  C  C10  1  1.21930747  0.60447195  0.42573749  1.0
  C  C11  1  0.39552805  -0.21930747  0.92573749  1.0
  S  S12  1  0.52815443  -0.05869650  0.27931030  1.0
  S  S13  1  1.05869650  0.47184557  0.77931030  1.0
  S  S14  1  0.94130350  -0.47184557  0.22068970  1.0
  S  S15  1  1.47184557  0.05869650  0.72068970  1.0
  S  S16  1  1.34142868  0.39639550  0.39016883  1.0
  S  S17  1  0.60360450  -0.34142868  0.89016883  1.0
  S  S18  1  1.39639550  0.34142868  0.10983117  1.0
  S  S19  1  0.65857132  -0.39639550  0.60983117  1.0
  N  N20  1  0.81542514  -0.02294886  0.40751807  1.0
  N  N21  1  1.02294886  0.18457486  0.90751807  1.0
  N  N22  1  0.97705114  -0.18457486  0.09248193  1.0
  N  N23  1  1.18457486  0.02294886  0.59248193  1.0
  N  N24  1  1.74780367  0.12640861  0.04734933  1.0
  N  N25  1  0.87359139  -0.74780367  0.54734933  1.0
  N  N26  1  1.12640861  0.74780367  0.45265067  1.0
  N  N27  1  0.25219633  -0.12640861  0.95265067  1.0
