# generated using pymatgen
data_Ca2Al2(SiO4)3
_symmetry_space_group_name_H-M   'P 1'
_cell_length_a   18.69968920
_cell_length_b   5.50930887
_cell_length_c   4.73930237
_cell_angle_alpha   90.00000000
_cell_angle_beta   90.00000000
_cell_angle_gamma   90.00000000
_symmetry_Int_Tables_number   1
_chemical_formula_structural   Ca2Al2(SiO4)3
_chemical_formula_sum   'Ca4 Al4 Si6 O24'
_cell_volume   488.25413186
_cell_formula_units_Z   2
loop_
 _symmetry_equiv_pos_site_id
 _symmetry_equiv_pos_as_xyz
  1  'x, y, z'
loop_
 _atom_site_type_symbol
 _atom_site_label
 _atom_site_symmetry_multiplicity
 _atom_site_fract_x
 _atom_site_fract_y
 _atom_site_fract_z
 _atom_site_occupancy
  Si  Si0  1  0.50000000  0.00000000  -0.00916619  1.0
  Si  Si1  1  0.00000000  0.00000000  -0.00916619  1.0
  Si  Si2  1  0.36949561  0.74929813  0.68517700  1.0
  Si  Si3  1  0.86949561  0.25070187  0.68517700  1.0
  Si  Si4  1  0.63050439  0.25070187  0.68517700  1.0
  Si  Si5  1  0.13050439  0.74929813  0.68517700  1.0
  Ca  Ca6  1  0.85070183  0.73774179  0.20036408  1.0
  Ca  Ca7  1  0.35070183  0.26225821  0.20036408  1.0
  Ca  Ca8  1  0.14929817  0.26225821  0.20036408  1.0
  Ca  Ca9  1  0.64929817  0.73774179  0.20036408  1.0
  O  O10  1  0.98043063  0.76065486  0.17581583  1.0
  O  O11  1  0.48043063  0.23934514  0.17581583  1.0
  O  O12  1  0.01956937  0.23934514  0.17581583  1.0
  O  O13  1  0.51956937  0.76065486  0.17581583  1.0
  O  O14  1  0.32396423  0.88780411  0.44032622  1.0
  O  O15  1  0.82396423  0.11219589  0.44032622  1.0
  O  O16  1  0.67603577  0.11219589  0.44032622  1.0
  O  O17  1  0.17603577  0.88780411  0.44032622  1.0
  O  O18  1  0.41727924  0.52612153  0.54991360  1.0
  O  O19  1  0.91727924  0.47387847  0.54991360  1.0
  O  O20  1  0.58272076  0.47387847  0.54991360  1.0
  O  O21  1  0.08272076  0.52612153  0.54991360  1.0
  O  O22  1  0.42666419  0.96052386  0.80565479  1.0
  O  O23  1  0.92666419  0.03947614  0.80565479  1.0
  O  O24  1  0.57333581  0.03947614  0.80565479  1.0
  O  O25  1  0.07333581  0.96052386  0.80565479  1.0
  O  O26  1  0.25000000  0.45300817  0.36512817  1.0
  O  O27  1  0.75000000  0.54699183  0.36512817  1.0
  O  O28  1  0.25000000  0.07544082  1.02412860  1.0
  O  O29  1  0.75000000  0.92455918  1.02412860  1.0
  O  O30  1  0.32435877  0.63899126  0.94904719  1.0
  O  O31  1  0.82435877  0.36100874  0.94904719  1.0
  O  O32  1  0.67564123  0.36100874  0.94904719  1.0
  O  O33  1  0.17564123  0.63899126  0.94904719  1.0
  Al  Al34  1  0.50000000  0.50000000  0.37726719  1.0
  Al  Al35  1  0.00000000  0.50000000  0.37726719  1.0
  Al  Al36  1  0.25000000  0.76325432  0.19204480  1.0
  Al  Al37  1  0.75000000  0.23674568  0.19204480  1.0
