# generated using pymatgen
data_C3S2NO
_symmetry_space_group_name_H-M   'P 1'
_cell_length_a   5.36238506
_cell_length_b   5.36238506
_cell_length_c   16.00528606
_cell_angle_alpha   90.00000000
_cell_angle_beta   90.00000000
_cell_angle_gamma   99.60526943
_symmetry_Int_Tables_number   1
_chemical_formula_structural   C3S2NO
_chemical_formula_sum   'C12 S8 N4 O4'
_cell_volume   453.78260677
_cell_formula_units_Z   4
loop_
 _symmetry_equiv_pos_site_id
 _symmetry_equiv_pos_as_xyz
  1  'x, y, z'
loop_
 _atom_site_type_symbol
 _atom_site_label
 _atom_site_symmetry_multiplicity
 _atom_site_fract_x
 _atom_site_fract_y
 _atom_site_fract_z
 _atom_site_occupancy
  C  C0  1  0.41132254  0.58867746  0.66309500  1.0
  C  C1  1  -0.41132254  1.41132254  0.16309500  1.0
  C  C2  1  0.23409307  0.76590693  0.64080397  1.0
  C  C3  1  -0.23409307  1.23409307  0.14080397  1.0
  C  C4  1  0.11162288  0.88837712  0.70417075  1.0
  C  C5  1  -0.11162288  1.11162288  0.20417075  1.0
  C  C6  1  0.13994867  0.86005133  0.79236997  1.0
  C  C7  1  -0.13994867  1.13994867  0.29236997  1.0
  C  C8  1  0.31069850  0.68930150  0.81334047  1.0
  C  C9  1  -0.31069850  1.31069850  0.31334047  1.0
  C  C10  1  0.44231168  0.55768832  0.75493779  1.0
  C  C11  1  -0.44231168  1.44231168  0.25493779  1.0
  S  S12  1  -0.38402929  1.38402929  0.88350208  1.0
  S  S13  1  0.38402929  0.61597071  0.38350208  1.0
  S  S14  1  0.36677280  0.63322720  0.91689640  1.0
  S  S15  1  -0.36677280  1.36677280  0.41689640  1.0
  S  S16  1  -0.00482397  1.00482397  0.54382579  1.0
  S  S17  1  0.00482397  0.99517603  0.04382579  1.0
  S  S18  1  -0.08806360  1.08806360  0.66873529  1.0
  S  S19  1  0.08806360  0.91193640  0.16873529  1.0
  N  N20  1  -0.40593065  1.40593065  0.78338920  1.0
  N  N21  1  0.40593065  0.59406935  0.28338920  1.0
  N  N22  1  0.19031835  0.80968165  0.56140408  1.0
  N  N23  1  -0.19031835  1.19031835  0.06140408  1.0
  O  O24  1  -0.47896039  1.47896039  0.61050266  1.0
  O  O25  1  0.47896039  0.52103961  0.11050266  1.0
  O  O26  1  0.02667590  0.97332410  0.84653654  1.0
  O  O27  1  -0.02667590  1.02667590  0.34653654  1.0
