# generated using pymatgen
data_NbO2
_symmetry_space_group_name_H-M   'P 1'
_cell_length_a   10.21067640
_cell_length_b   10.21067640
_cell_length_c   10.21067640
_cell_angle_alpha   95.02070400
_cell_angle_beta   95.02070400
_cell_angle_gamma   145.58530496
_symmetry_Int_Tables_number   1
_chemical_formula_structural   NbO2
_chemical_formula_sum   'Nb16 O32'
_cell_volume   574.72746187
_cell_formula_units_Z   16
loop_
 _symmetry_equiv_pos_site_id
 _symmetry_equiv_pos_as_xyz
  1  'x, y, z'
loop_
 _atom_site_type_symbol
 _atom_site_label
 _atom_site_symmetry_multiplicity
 _atom_site_fract_x
 _atom_site_fract_y
 _atom_site_fract_z
 _atom_site_occupancy
  Nb  Nb0  1  0.22574899  0.71280284  0.73974543  1.0
  Nb  Nb1  1  0.97305741  0.48600356  1.26025457  1.0
  Nb  Nb2  1  0.46280284  1.22305741  0.98705385  1.0
  Nb  Nb3  1  1.23600356  0.47574899  1.01294615  1.0
  Nb  Nb4  1  1.52425101  1.53719716  1.76025457  1.0
  Nb  Nb5  1  0.77694259  0.76399644  0.23974543  1.0
  Nb  Nb6  1  1.28719716  1.02694259  1.51294615  1.0
  Nb  Nb7  1  0.51399644  0.77425101  0.48705385  1.0
  Nb  Nb8  1  0.77954592  1.28795026  0.75847917  1.0
  Nb  Nb9  1  0.52947109  1.02106676  1.24152083  1.0
  Nb  Nb10  1  1.03795026  1.77947109  1.00840433  1.0
  Nb  Nb11  1  0.77106676  1.02954592  0.99159567  1.0
  Nb  Nb12  1  0.97045408  0.96204974  1.74152083  1.0
  Nb  Nb13  1  1.22052891  1.22893324  1.25847917  1.0
  Nb  Nb14  1  1.71204974  1.47052891  1.49159567  1.0
  Nb  Nb15  1  0.97893324  1.22045408  1.50840433  1.0
  O  O16  1  0.73431104  1.09711934  0.61037617  1.0
  O  O17  1  1.48674316  1.12393487  1.38962383  1.0
  O  O18  1  1.84711934  1.73674316  1.86280830  1.0
  O  O19  1  0.87393487  0.98431104  0.13719170  1.0
  O  O20  1  1.01568896  0.15288066  0.88962383  1.0
  O  O21  1  0.26325684  1.12606513  1.11037617  1.0
  O  O22  1  0.90288066  1.51325684  0.63719170  1.0
  O  O23  1  1.87606513  1.26568896  1.36280830  1.0
  O  O24  1  0.25690630  0.60443797  0.59999943  1.0
  O  O25  1  1.00443854  0.65690686  1.40000057  1.0
  O  O26  1  1.35443797  1.25443854  1.84753167  1.0
  O  O27  1  0.40690686  0.50690630  0.15246833  1.0
  O  O28  1  1.49309370  0.64556203  0.90000057  1.0
  O  O29  1  0.74556146  1.59309314  1.09999943  1.0
  O  O30  1  0.39556203  0.99556146  0.65246833  1.0
  O  O31  1  1.34309314  0.74309370  1.34753167  1.0
  O  O32  1  0.74776675  1.39570250  0.89760674  1.0
  O  O33  1  0.49809576  0.85016001  1.10239326  1.0
  O  O34  1  1.14570250  1.74809576  1.14793575  1.0
  O  O35  1  0.60016001  0.99776675  0.85206425  1.0
  O  O36  1  1.00223325  0.85429750  1.60239326  1.0
  O  O37  1  1.25190424  1.39983999  1.39760674  1.0
  O  O38  1  1.60429750  1.50190424  1.35206425  1.0
  O  O39  1  1.14983999  1.25223325  1.64793575  1.0
  O  O40  1  0.25781140  0.89562480  0.88877207  1.0
  O  O41  1  1.00685272  1.36903933  1.11122793  1.0
  O  O42  1  0.64562480  1.25685272  1.13781339  1.0
  O  O43  1  1.11903933  1.50781140  0.86218661  1.0
  O  O44  1  1.49218860  1.35437520  1.61122793  1.0
  O  O45  1  0.74314728  0.88096067  1.38877207  1.0
  O  O46  1  1.10437520  0.99314728  1.36218661  1.0
  O  O47  1  1.63096067  1.74218860  1.63781339  1.0
