# generated using pymatgen
data_LaP5
_symmetry_space_group_name_H-M   'P 1'
_cell_length_a   5.60601366
_cell_length_b   9.73274898
_cell_length_c   9.84386310
_cell_angle_alpha   90.00000000
_cell_angle_beta   105.21483885
_cell_angle_gamma   90.00000000
_symmetry_Int_Tables_number   1
_chemical_formula_structural   LaP5
_chemical_formula_sum   'La4 P20'
_cell_volume   518.27397534
_cell_formula_units_Z   4
loop_
 _symmetry_equiv_pos_site_id
 _symmetry_equiv_pos_as_xyz
  1  'x, y, z'
loop_
 _atom_site_type_symbol
 _atom_site_label
 _atom_site_symmetry_multiplicity
 _atom_site_fract_x
 _atom_site_fract_y
 _atom_site_fract_z
 _atom_site_occupancy
  La  La0  1  0.40183938  0.75000000  0.04219172  1.0
  La  La1  1  0.59816062  0.25000000  0.95780828  1.0
  La  La2  1  0.34976376  0.75000000  0.50288220  1.0
  La  La3  1  0.65023624  0.25000000  0.49711780  1.0
  P  P4  1  0.98487040  0.90292512  0.81254520  1.0
  P  P5  1  0.98487040  0.59707488  0.81254520  1.0
  P  P6  1  0.01512960  0.40292512  0.18745480  1.0
  P  P7  1  0.01512960  0.09707488  0.18745480  1.0
  P  P8  1  0.94054848  0.91801552  0.31104212  1.0
  P  P9  1  0.94054848  0.58198448  0.31104212  1.0
  P  P10  1  0.05945152  0.41801552  0.68895788  1.0
  P  P11  1  0.05945152  0.08198448  0.68895788  1.0
  P  P12  1  0.64573449  0.95578281  0.87005364  1.0
  P  P13  1  0.64573449  0.54421719  0.87005364  1.0
  P  P14  1  0.35426551  0.45578281  0.12994636  1.0
  P  P15  1  0.35426551  0.04421719  0.12994636  1.0
  P  P16  1  0.57340246  0.96521264  0.33732507  1.0
  P  P17  1  0.57340246  0.53478736  0.33732507  1.0
  P  P18  1  0.42659754  0.46521264  0.66267493  1.0
  P  P19  1  0.42659754  0.03478736  0.66267493  1.0
  P  P20  1  0.95533270  0.75000000  0.15915498  1.0
  P  P21  1  0.04466730  0.25000000  0.84084502  1.0
  P  P22  1  0.90785017  0.75000000  0.63796974  1.0
  P  P23  1  0.09214983  0.25000000  0.36203026  1.0
