# generated using pymatgen
data_K4Sb2O3
_symmetry_space_group_name_H-M   'P 1'
_cell_length_a   6.35949474
_cell_length_b   6.35949474
_cell_length_c   14.55655807
_cell_angle_alpha   90.00000000
_cell_angle_beta   90.00000000
_cell_angle_gamma   120.00000000
_symmetry_Int_Tables_number   1
_chemical_formula_structural   K4Sb2O3
_chemical_formula_sum   'K8 Sb4 O6'
_cell_volume   509.84076124
_cell_formula_units_Z   2
loop_
 _symmetry_equiv_pos_site_id
 _symmetry_equiv_pos_as_xyz
  1  'x, y, z'
loop_
 _atom_site_type_symbol
 _atom_site_label
 _atom_site_symmetry_multiplicity
 _atom_site_fract_x
 _atom_site_fract_y
 _atom_site_fract_z
 _atom_site_occupancy
  K  K0  1  0.33333333  0.66666667  0.14748649  1.0
  K  K1  1  0.66666667  0.33333333  0.64748649  1.0
  K  K2  1  0.33333333  0.66666667  0.80886332  1.0
  K  K3  1  0.66666667  0.33333333  0.30886332  1.0
  K  K4  1  0.00000000  0.00000000  0.01962202  1.0
  K  K5  1  0.00000000  0.00000000  0.51962202  1.0
  K  K6  1  -0.00000000  0.00000000  0.25531982  1.0
  K  K7  1  0.00000000  -0.00000000  0.75531982  1.0
  Sb  Sb8  1  0.33333333  0.66666667  0.39283761  1.0
  Sb  Sb9  1  0.66666667  0.33333333  0.89283761  1.0
  Sb  Sb10  1  0.33333333  0.66666667  0.58249308  1.0
  Sb  Sb11  1  0.66666667  0.33333333  0.08249308  1.0
  O  O12  1  0.35560190  0.17780095  0.14292588  1.0
  O  O13  1  0.17780095  0.35560190  0.64292588  1.0
  O  O14  1  0.17780095  0.82219905  0.64292588  1.0
  O  O15  1  0.82219905  0.17780095  0.14292588  1.0
  O  O16  1  0.82219905  0.64439810  0.14292588  1.0
  O  O17  1  0.64439810  0.82219905  0.64292588  1.0
