# generated using pymatgen
data_GaHSeO4
_symmetry_space_group_name_H-M   'P 1'
_cell_length_a   11.93141813
_cell_length_b   6.15533230
_cell_length_c   4.51843144
_cell_angle_alpha   90.00000000
_cell_angle_beta   90.00000000
_cell_angle_gamma   90.00000000
_symmetry_Int_Tables_number   1
_chemical_formula_structural   GaHSeO4
_chemical_formula_sum   'Ga4 H4 Se4 O16'
_cell_volume   331.84193428
_cell_formula_units_Z   4
loop_
 _symmetry_equiv_pos_site_id
 _symmetry_equiv_pos_as_xyz
  1  'x, y, z'
loop_
 _atom_site_type_symbol
 _atom_site_label
 _atom_site_symmetry_multiplicity
 _atom_site_fract_x
 _atom_site_fract_y
 _atom_site_fract_z
 _atom_site_occupancy
  Ga  Ga0  1  0.00000000  0.50000000  0.00000000  1.0
  Ga  Ga1  1  -0.00000000  -0.00000000  -0.00000000  1.0
  Ga  Ga2  1  0.50000000  0.50000000  0.50000000  1.0
  Ga  Ga3  1  0.50000000  0.00000000  0.50000000  1.0
  H  H4  1  0.92713961  0.25000000  0.39888176  1.0
  H  H5  1  0.42713961  0.25000000  0.10111824  1.0
  H  H6  1  0.07286039  0.75000000  0.60111824  1.0
  H  H7  1  0.57286039  0.75000000  0.89888176  1.0
  Se  Se8  1  0.67069028  0.25000000  0.02389074  1.0
  Se  Se9  1  0.17069028  0.25000000  0.47610926  1.0
  Se  Se10  1  0.32930972  0.75000000  0.97610926  1.0
  Se  Se11  1  0.82930972  0.75000000  0.52389074  1.0
  O  O12  1  0.63420415  0.47081171  0.23169544  1.0
  O  O13  1  0.63420415  0.02918829  0.23169544  1.0
  O  O14  1  0.13420415  0.47081171  0.26830456  1.0
  O  O15  1  0.13420415  0.02918829  0.26830456  1.0
  O  O16  1  0.36579585  0.97081171  0.76830456  1.0
  O  O17  1  0.36579585  0.52918829  0.76830456  1.0
  O  O18  1  0.86579585  0.97081171  0.73169544  1.0
  O  O19  1  0.86579585  0.52918829  0.73169544  1.0
  O  O20  1  0.92183308  0.25000000  0.18198034  1.0
  O  O21  1  0.42183308  0.25000000  0.31801966  1.0
  O  O22  1  0.07816692  0.75000000  0.81801966  1.0
  O  O23  1  0.57816692  0.75000000  0.68198034  1.0
  O  O24  1  0.55415468  0.25000000  0.76549950  1.0
  O  O25  1  0.05415468  0.25000000  0.73450050  1.0
  O  O26  1  0.44584532  0.75000000  0.23450050  1.0
  O  O27  1  0.94584532  0.75000000  0.26549950  1.0
