# generated using pymatgen
data_CdCu2SnSe4
_symmetry_space_group_name_H-M   'P 1'
_cell_length_a   7.15194611
_cell_length_b   7.15194611
_cell_length_c   7.15194611
_cell_angle_alpha   131.14480649
_cell_angle_beta   131.14480649
_cell_angle_gamma   71.58311270
_symmetry_Int_Tables_number   1
_chemical_formula_structural   CdCu2SnSe4
_chemical_formula_sum   'Cd1 Cu2 Sn1 Se4'
_cell_volume   202.99028594
_cell_formula_units_Z   1
loop_
 _symmetry_equiv_pos_site_id
 _symmetry_equiv_pos_as_xyz
  1  'x, y, z'
loop_
 _atom_site_type_symbol
 _atom_site_label
 _atom_site_symmetry_multiplicity
 _atom_site_fract_x
 _atom_site_fract_y
 _atom_site_fract_z
 _atom_site_occupancy
  Cd  Cd0  1  0.00000000  0.00000000  0.00000000  1.0
  Cu  Cu1  1  0.25000000  0.75000000  0.50000000  1.0
  Cu  Cu2  1  0.75000000  0.25000000  0.50000000  1.0
  Sn  Sn3  1  0.50000000  0.50000000  1.00000000  1.0
  Se  Se4  1  0.39608686  0.88651288  1.00000000  1.0
  Se  Se5  1  1.11348712  1.11348712  1.50957398  1.0
  Se  Se6  1  0.60391314  0.60391314  0.49042602  1.0
  Se  Se7  1  0.88651288  0.39608686  1.00000000  1.0
