# generated using pymatgen
data_Mg3V2O8
_symmetry_space_group_name_H-M   'P 1'
_cell_length_a   6.53024252
_cell_length_b   6.53024252
_cell_length_c   8.38122851
_cell_angle_alpha   90.00000000
_cell_angle_beta   90.00000000
_cell_angle_gamma   124.26218765
_symmetry_Int_Tables_number   1
_chemical_formula_structural   Mg3V2O8
_chemical_formula_sum   'Mg6 V4 O16'
_cell_volume   295.38837746
_cell_formula_units_Z   2
loop_
 _symmetry_equiv_pos_site_id
 _symmetry_equiv_pos_as_xyz
  1  'x, y, z'
loop_
 _atom_site_type_symbol
 _atom_site_label
 _atom_site_symmetry_multiplicity
 _atom_site_fract_x
 _atom_site_fract_y
 _atom_site_fract_z
 _atom_site_occupancy
  Mg  Mg0  1  -0.11405572  0.61405572  0.75000000  1.0
  Mg  Mg1  1  0.38594428  1.11405572  0.75000000  1.0
  Mg  Mg2  1  0.61405572  0.88594428  0.25000000  1.0
  Mg  Mg3  1  0.11405572  0.38594428  0.25000000  1.0
  Mg  Mg4  1  0.00000000  0.00000000  0.00000000  1.0
  Mg  Mg5  1  0.50000000  0.50000000  0.50000000  1.0
  V  V6  1  0.38007207  0.61992793  0.88039290  1.0
  V  V7  1  -0.11992793  0.11992793  0.61960710  1.0
  V  V8  1  -0.38007207  0.38007207  0.11960710  1.0
  V  V9  1  0.11992793  0.88007207  0.38039290  1.0
  O  O10  1  -0.15590274  0.60989883  1.00109548  1.0
  O  O11  1  0.34409726  1.10989883  0.49890452  1.0
  O  O12  1  0.60989883  0.84409726  -0.00109548  1.0
  O  O13  1  0.10989883  0.34409726  0.50109548  1.0
  O  O14  1  0.39010117  1.15590274  1.00109548  1.0
  O  O15  1  -0.10989883  0.65590274  0.49890452  1.0
  O  O16  1  0.15590274  0.39010117  -0.00109548  1.0
  O  O17  1  0.65590274  0.89010117  0.50109548  1.0
  O  O18  1  0.00214686  0.99785314  0.75473164  1.0
  O  O19  1  -0.49785314  0.49785314  0.74526836  1.0
  O  O20  1  -0.00214686  0.00214686  0.24526836  1.0
  O  O21  1  0.49785314  0.50214686  0.25473164  1.0
  O  O22  1  0.25155250  0.74844750  0.77595646  1.0
  O  O23  1  -0.24844750  0.24844750  0.72404354  1.0
  O  O24  1  -0.25155250  0.25155250  0.22404354  1.0
  O  O25  1  0.24844750  0.75155250  0.27595646  1.0
