# generated using pymatgen
data_MgPS3
_symmetry_space_group_name_H-M   'P 1'
_cell_length_a   6.11581011
_cell_length_b   6.11581011
_cell_length_c   7.74910264
_cell_angle_alpha   82.50654607
_cell_angle_beta   97.49345393
_cell_angle_gamma   59.99739450
_symmetry_Int_Tables_number   1
_chemical_formula_structural   MgPS3
_chemical_formula_sum   'Mg2 P2 S6'
_cell_volume   242.31389433
_cell_formula_units_Z   2
loop_
 _symmetry_equiv_pos_site_id
 _symmetry_equiv_pos_as_xyz
  1  'x, y, z'
loop_
 _atom_site_type_symbol
 _atom_site_label
 _atom_site_symmetry_multiplicity
 _atom_site_fract_x
 _atom_site_fract_y
 _atom_site_fract_z
 _atom_site_occupancy
  Mg  Mg0  1  0.83321996  -0.16678004  -0.00000000  1.0
  Mg  Mg1  1  0.16678004  0.16678004  -0.00000000  1.0
  P  P2  1  0.45110805  -0.45110805  0.85248657  1.0
  P  P3  1  0.54889195  -0.54889195  0.14751343  1.0
  S  S4  1  0.42757509  -0.10414338  0.78103563  1.0
  S  S5  1  1.10414338  -0.42757509  0.78103563  1.0
  S  S6  1  0.89585662  -0.57242491  0.21896437  1.0
  S  S7  1  0.57242491  0.10414338  0.21896437  1.0
  S  S8  1  0.75111194  -0.75111194  0.78119475  1.0
  S  S9  1  0.24888806  -0.24888806  0.21880525  1.0
