# generated using pymatgen
data_Gd2B5
_symmetry_space_group_name_H-M   'P 1'
_cell_length_a   7.14850077
_cell_length_b   7.14873431
_cell_length_c   7.18007100
_cell_angle_alpha   90.00000000
_cell_angle_beta   102.43703008
_cell_angle_gamma   90.00000000
_symmetry_Int_Tables_number   1
_chemical_formula_structural   Gd2B5
_chemical_formula_sum   'Gd8 B20'
_cell_volume   358.31081539
_cell_formula_units_Z   4
loop_
 _symmetry_equiv_pos_site_id
 _symmetry_equiv_pos_as_xyz
  1  'x, y, z'
loop_
 _atom_site_type_symbol
 _atom_site_label
 _atom_site_symmetry_multiplicity
 _atom_site_fract_x
 _atom_site_fract_y
 _atom_site_fract_z
 _atom_site_occupancy
  B  B0  1  0.99691929  0.46118810  0.32615632  1.0
  B  B1  1  0.99691929  0.03881190  0.82615632  1.0
  B  B2  1  0.00308071  0.96118810  0.17384368  1.0
  B  B3  1  0.00308071  0.53881190  0.67384368  1.0
  B  B4  1  0.99980439  0.41012721  0.09006874  1.0
  B  B5  1  0.99980439  0.08987279  0.59006874  1.0
  B  B6  1  0.00019561  0.91012721  0.40993126  1.0
  B  B7  1  0.00019561  0.58987279  0.90993126  1.0
  B  B8  1  0.99717815  0.67338912  0.46012364  1.0
  B  B9  1  0.99717815  0.82661088  0.96012364  1.0
  B  B10  1  0.00282185  0.17338912  0.03987636  1.0
  B  B11  1  0.00282185  0.32661088  0.53987636  1.0
  B  B12  1  0.81534700  0.49841086  0.46135739  1.0
  B  B13  1  0.81534700  0.00158914  0.96135739  1.0
  B  B14  1  0.18465300  0.99841086  0.03864261  1.0
  B  B15  1  0.18465300  0.50158914  0.53864261  1.0
  B  B16  1  0.57731865  0.49255977  0.42967568  1.0
  B  B17  1  0.57731865  0.00744023  0.92967568  1.0
  B  B18  1  0.42268135  0.99255977  0.07032432  1.0
  B  B19  1  0.42268135  0.50744023  0.57032432  1.0
  Gd  Gd20  1  0.26662906  0.19136457  0.37039390  1.0
  Gd  Gd21  1  0.26662906  0.30863543  0.87039390  1.0
  Gd  Gd22  1  0.73337094  0.69136457  0.12960610  1.0
  Gd  Gd23  1  0.73337094  0.80863543  0.62960610  1.0
  Gd  Gd24  1  0.74131061  0.18450371  0.25572878  1.0
  Gd  Gd25  1  0.74131061  0.31549629  0.75572878  1.0
  Gd  Gd26  1  0.25868939  0.68450371  0.24427122  1.0
  Gd  Gd27  1  0.25868939  0.81549629  0.74427122  1.0
