# generated using pymatgen
data_NaCaVO4
_symmetry_space_group_name_H-M   'P 1'
_cell_length_a   5.62708073
_cell_length_b   5.62708073
_cell_length_c   7.09572294
_cell_angle_alpha   90.00000000
_cell_angle_beta   90.00000000
_cell_angle_gamma   114.71138360
_symmetry_Int_Tables_number   1
_chemical_formula_structural   NaCaVO4
_chemical_formula_sum   'Na2 Ca2 V2 O8'
_cell_volume   204.10426688
_cell_formula_units_Z   2
loop_
 _symmetry_equiv_pos_site_id
 _symmetry_equiv_pos_as_xyz
  1  'x, y, z'
loop_
 _atom_site_type_symbol
 _atom_site_label
 _atom_site_symmetry_multiplicity
 _atom_site_fract_x
 _atom_site_fract_y
 _atom_site_fract_z
 _atom_site_occupancy
  Na  Na0  1  0.00000000  0.00000000  0.50000000  1.0
  Na  Na1  1  0.00000000  0.00000000  0.00000000  1.0
  Ca  Ca2  1  -0.32635379  1.32635379  0.25000000  1.0
  Ca  Ca3  1  0.32635379  0.67364621  0.75000000  1.0
  V  V4  1  0.35492417  0.64507583  0.25000000  1.0
  V  V5  1  -0.35492417  1.35492417  0.75000000  1.0
  O  O6  1  0.24609195  0.30871420  0.25000000  1.0
  O  O7  1  -0.69128580  1.24609195  0.75000000  1.0
  O  O8  1  0.69128580  0.75390805  0.25000000  1.0
  O  O9  1  -0.24609195  1.69128580  0.75000000  1.0
  O  O10  1  0.25009025  0.74990975  0.44695929  1.0
  O  O11  1  0.25009025  0.74990975  0.05304071  1.0
  O  O12  1  -0.25009025  1.25009025  0.94695929  1.0
  O  O13  1  -0.25009025  1.25009025  0.55304071  1.0
