# generated using pymatgen
data_CsV3O8
_symmetry_space_group_name_H-M   'P 1'
_cell_length_a   5.12732581
_cell_length_b   8.72720129
_cell_length_c   8.55684852
_cell_angle_alpha   90.00000000
_cell_angle_beta   98.46839334
_cell_angle_gamma   90.00000000
_symmetry_Int_Tables_number   1
_chemical_formula_structural   CsV3O8
_chemical_formula_sum   'Cs2 V6 O16'
_cell_volume   378.72044114
_cell_formula_units_Z   2
loop_
 _symmetry_equiv_pos_site_id
 _symmetry_equiv_pos_as_xyz
  1  'x, y, z'
loop_
 _atom_site_type_symbol
 _atom_site_label
 _atom_site_symmetry_multiplicity
 _atom_site_fract_x
 _atom_site_fract_y
 _atom_site_fract_z
 _atom_site_occupancy
  Cs  Cs0  1  0.57101736  0.25000000  0.45046337  1.0
  Cs  Cs1  1  0.42898264  0.75000000  0.54953663  1.0
  V  V2  1  0.06071580  0.44059766  0.83222967  1.0
  V  V3  1  0.06071580  0.05940234  0.83222967  1.0
  V  V4  1  0.93928420  0.94059766  0.16777033  1.0
  V  V5  1  0.93928420  0.55940234  0.16777033  1.0
  V  V6  1  0.58828290  0.25000000  0.94685132  1.0
  V  V7  1  0.41171710  0.75000000  0.05314868  1.0
  O  O8  1  0.93791978  0.95075180  0.68733017  1.0
  O  O9  1  0.93791978  0.54924820  0.68733017  1.0
  O  O10  1  0.06208022  0.45075180  0.31266983  1.0
  O  O11  1  0.06208022  0.04924820  0.31266983  1.0
  O  O12  1  0.82970547  0.40926114  0.99779983  1.0
  O  O13  1  0.82970547  0.09073886  0.99779983  1.0
  O  O14  1  0.17029453  0.90926114  0.00220017  1.0
  O  O15  1  0.17029453  0.59073886  0.00220017  1.0
  O  O16  1  0.38207811  0.39373075  0.80565534  1.0
  O  O17  1  0.38207811  0.10626925  0.80565534  1.0
  O  O18  1  0.61792189  0.89373075  0.19434466  1.0
  O  O19  1  0.61792189  0.60626925  0.19434466  1.0
  O  O20  1  0.92343442  0.25000000  0.76875791  1.0
  O  O21  1  0.07656558  0.75000000  0.23124209  1.0
  O  O22  1  0.42790393  0.25000000  0.09293021  1.0
  O  O23  1  0.57209607  0.75000000  0.90706979  1.0
