# generated using pymatgen
data_Rb2CrF5
_symmetry_space_group_name_H-M   'P 1'
_cell_length_a   7.70197610
_cell_length_b   5.84900010
_cell_length_c   12.22315081
_cell_angle_alpha   90.00000000
_cell_angle_beta   90.00000000
_cell_angle_gamma   90.00000000
_symmetry_Int_Tables_number   1
_chemical_formula_structural   Rb2CrF5
_chemical_formula_sum   'Rb8 Cr4 F20'
_cell_volume   550.63899684
_cell_formula_units_Z   4
loop_
 _symmetry_equiv_pos_site_id
 _symmetry_equiv_pos_as_xyz
  1  'x, y, z'
loop_
 _atom_site_type_symbol
 _atom_site_label
 _atom_site_symmetry_multiplicity
 _atom_site_fract_x
 _atom_site_fract_y
 _atom_site_fract_z
 _atom_site_occupancy
  Rb  Rb0  1  0.85001546  0.75000000  0.41601303  1.0
  Rb  Rb1  1  0.35001546  0.75000000  0.08398697  1.0
  Rb  Rb2  1  0.14998454  0.25000000  0.58398697  1.0
  Rb  Rb3  1  0.64998454  0.25000000  0.91601303  1.0
  Rb  Rb4  1  0.51055474  0.75000000  0.72467176  1.0
  Rb  Rb5  1  0.01055474  0.75000000  0.77532824  1.0
  Rb  Rb6  1  0.48944526  0.25000000  0.27532824  1.0
  Rb  Rb7  1  0.98944526  0.25000000  0.22467176  1.0
  Cr  Cr8  1  0.84274588  0.75000000  0.05958312  1.0
  Cr  Cr9  1  0.34274588  0.75000000  0.44041688  1.0
  Cr  Cr10  1  0.15725412  0.25000000  0.94041688  1.0
  Cr  Cr11  1  0.65725412  0.25000000  0.55958312  1.0
  F  F12  1  0.69653570  0.98290215  0.11384755  1.0
  F  F13  1  0.69653570  0.51709785  0.11384755  1.0
  F  F14  1  0.19653570  0.98290215  0.38615245  1.0
  F  F15  1  0.19653570  0.51709785  0.38615245  1.0
  F  F16  1  0.30346430  0.48290215  0.88615245  1.0
  F  F17  1  0.30346430  0.01709785  0.88615245  1.0
  F  F18  1  0.80346430  0.48290215  0.61384755  1.0
  F  F19  1  0.80346430  0.01709785  0.61384755  1.0
  F  F20  1  0.97854030  0.75000000  0.18921861  1.0
  F  F21  1  0.47854030  0.75000000  0.31078139  1.0
  F  F22  1  0.02145970  0.25000000  0.81078139  1.0
  F  F23  1  0.52145970  0.25000000  0.68921861  1.0
  F  F24  1  0.72028816  0.75000000  0.92048881  1.0
  F  F25  1  0.22028816  0.75000000  0.57951119  1.0
  F  F26  1  0.27971184  0.25000000  0.07951119  1.0
  F  F27  1  0.77971184  0.25000000  0.42048881  1.0
  F  F28  1  0.00000000  0.00000000  0.00000000  1.0
  F  F29  1  0.00000000  0.50000000  0.00000000  1.0
  F  F30  1  0.50000000  0.00000000  0.50000000  1.0
  F  F31  1  0.50000000  0.50000000  0.50000000  1.0
