# generated using pymatgen
data_Ga9Ir2
_symmetry_space_group_name_H-M   'P 1'
_cell_length_a   6.48540978
_cell_length_b   6.47461588
_cell_length_c   8.90347750
_cell_angle_alpha   90.00000000
_cell_angle_beta   93.31023598
_cell_angle_gamma   90.00000000
_symmetry_Int_Tables_number   1
_chemical_formula_structural   Ga9Ir2
_chemical_formula_sum   'Ga18 Ir4'
_cell_volume   373.23802072
_cell_formula_units_Z   2
loop_
 _symmetry_equiv_pos_site_id
 _symmetry_equiv_pos_as_xyz
  1  'x, y, z'
loop_
 _atom_site_type_symbol
 _atom_site_label
 _atom_site_symmetry_multiplicity
 _atom_site_fract_x
 _atom_site_fract_y
 _atom_site_fract_z
 _atom_site_occupancy
  Ga  Ga0  1  0.89675109  0.78081321  0.27187423  1.0
  Ga  Ga1  1  0.89675109  0.71918679  0.77187423  1.0
  Ga  Ga2  1  0.10324891  0.28081321  0.22812577  1.0
  Ga  Ga3  1  0.10324891  0.21918679  0.72812577  1.0
  Ga  Ga4  1  0.79701333  0.09964119  0.45958239  1.0
  Ga  Ga5  1  0.79701333  0.40035881  0.95958239  1.0
  Ga  Ga6  1  0.20298667  0.59964119  0.04041761  1.0
  Ga  Ga7  1  0.20298667  0.90035881  0.54041761  1.0
  Ga  Ga8  1  0.60179340  0.48620099  0.23068988  1.0
  Ga  Ga9  1  0.60179340  0.01379901  0.73068988  1.0
  Ga  Ga10  1  0.39820660  0.98620099  0.26931012  1.0
  Ga  Ga11  1  0.39820660  0.51379901  0.76931012  1.0
  Ga  Ga12  1  0.39484088  0.30076559  0.49614068  1.0
  Ga  Ga13  1  0.39484088  0.19923441  0.99614068  1.0
  Ga  Ga14  1  0.60515912  0.80076559  0.00385932  1.0
  Ga  Ga15  1  0.60515912  0.69923441  0.50385932  1.0
  Ga  Ga16  1  0.00000000  0.50000000  0.50000000  1.0
  Ga  Ga17  1  -0.00000000  0.00000000  -0.00000000  1.0
  Ir  Ir18  1  0.73888167  0.12596222  0.16855396  1.0
  Ir  Ir19  1  0.73888167  0.37403778  0.66855396  1.0
  Ir  Ir20  1  0.26111833  0.62596222  0.33144604  1.0
  Ir  Ir21  1  0.26111833  0.87403778  0.83144604  1.0
