# generated using pymatgen
data_Ba3Nb2CdO9
_symmetry_space_group_name_H-M   'P 1'
_cell_length_a   5.93807962
_cell_length_b   5.93807962
_cell_length_c   7.34032498
_cell_angle_alpha   90.00000000
_cell_angle_beta   90.00000000
_cell_angle_gamma   120.00000000
_symmetry_Int_Tables_number   1
_chemical_formula_structural   Ba3Nb2CdO9
_chemical_formula_sum   'Ba3 Nb2 Cd1 O9'
_cell_volume   224.14959209
_cell_formula_units_Z   1
loop_
 _symmetry_equiv_pos_site_id
 _symmetry_equiv_pos_as_xyz
  1  'x, y, z'
loop_
 _atom_site_type_symbol
 _atom_site_label
 _atom_site_symmetry_multiplicity
 _atom_site_fract_x
 _atom_site_fract_y
 _atom_site_fract_z
 _atom_site_occupancy
  Ba  Ba0  1  0.33333333  0.66666667  0.67030336  1.0
  Ba  Ba1  1  0.66666667  0.33333333  0.32969664  1.0
  Ba  Ba2  1  0.00000000  0.00000000  0.00000000  1.0
  Nb  Nb3  1  0.33333333  0.66666667  0.17006250  1.0
  Nb  Nb4  1  0.66666667  0.33333333  0.82993750  1.0
  Cd  Cd5  1  0.00000000  0.00000000  0.50000000  1.0
  O  O6  1  0.64647724  0.82323862  0.31315327  1.0
  O  O7  1  0.82323862  0.64647724  0.68684673  1.0
  O  O8  1  0.82323862  0.17676138  0.68684673  1.0
  O  O9  1  0.17676138  0.82323862  0.31315327  1.0
  O  O10  1  0.17676138  0.35352276  0.31315327  1.0
  O  O11  1  0.35352276  0.17676138  0.68684673  1.0
  O  O12  1  0.50000000  0.50000000  0.00000000  1.0
  O  O13  1  0.50000000  0.00000000  0.00000000  1.0
  O  O14  1  0.00000000  0.50000000  0.00000000  1.0
