# generated using pymatgen
data_Ta2CrO6
_symmetry_space_group_name_H-M   'P 1'
_cell_length_a   4.85064023
_cell_length_b   5.21528882
_cell_length_c   9.96585312
_cell_angle_alpha   90.00000000
_cell_angle_beta   119.08446354
_cell_angle_gamma   90.00000000
_symmetry_Int_Tables_number   1
_chemical_formula_structural   Ta2CrO6
_chemical_formula_sum   'Ta4 Cr2 O12'
_cell_volume   220.32088712
_cell_formula_units_Z   2
loop_
 _symmetry_equiv_pos_site_id
 _symmetry_equiv_pos_as_xyz
  1  'x, y, z'
loop_
 _atom_site_type_symbol
 _atom_site_label
 _atom_site_symmetry_multiplicity
 _atom_site_fract_x
 _atom_site_fract_y
 _atom_site_fract_z
 _atom_site_occupancy
  Ta  Ta0  1  -0.18730813  0.00011675  0.31281106  1.0
  Ta  Ta1  1  0.18730813  0.50011675  0.18718894  1.0
  Ta  Ta2  1  0.18730813  -0.00011675  0.68718894  1.0
  Ta  Ta3  1  -0.18730813  0.49988325  0.81281106  1.0
  Cr  Cr4  1  0.00000000  0.00000000  0.00000000  1.0
  Cr  Cr5  1  0.00000000  0.50000000  0.50000000  1.0
  O  O6  1  0.05553644  0.32516348  0.32189591  1.0
  O  O7  1  0.94446356  0.82516348  0.17810409  1.0
  O  O8  1  0.94446356  0.67483652  0.67810409  1.0
  O  O9  1  0.05553644  0.17483652  0.82189591  1.0
  O  O10  1  0.58791005  0.67521002  0.32176165  1.0
  O  O11  1  0.41208995  0.17521002  0.17823835  1.0
  O  O12  1  0.41208995  0.32478998  0.67823835  1.0
  O  O13  1  0.58791005  0.82478998  0.82176165  1.0
  O  O14  1  0.18664946  0.66354120  -0.00006337  1.0
  O  O15  1  0.81335054  1.16354120  0.50006337  1.0
  O  O16  1  0.81335054  0.33645880  0.00006337  1.0
  O  O17  1  0.18664946  -0.16354120  0.49993663  1.0
