# generated using pymatgen
data_GeTe7As4
_symmetry_space_group_name_H-M   'P 1'
_cell_length_a   4.12490539
_cell_length_b   4.12490539
_cell_length_c   23.46143233
_cell_angle_alpha   90.00000000
_cell_angle_beta   90.00000000
_cell_angle_gamma   120.00000000
_symmetry_Int_Tables_number   1
_chemical_formula_structural   GeTe7As4
_chemical_formula_sum   'Ge1 Te7 As4'
_cell_volume   345.71095219
_cell_formula_units_Z   1
loop_
 _symmetry_equiv_pos_site_id
 _symmetry_equiv_pos_as_xyz
  1  'x, y, z'
loop_
 _atom_site_type_symbol
 _atom_site_label
 _atom_site_symmetry_multiplicity
 _atom_site_fract_x
 _atom_site_fract_y
 _atom_site_fract_z
 _atom_site_occupancy
  Ge  Ge0  1  0.00000000  0.00000000  0.50000000  1.0
  Te  Te1  1  0.00000000  0.00000000  0.00000000  1.0
  Te  Te2  1  0.66666667  0.33333333  0.85379105  1.0
  Te  Te3  1  0.33333333  0.66666667  0.14620895  1.0
  Te  Te4  1  0.00000000  0.00000000  0.72223027  1.0
  Te  Te5  1  0.00000000  0.00000000  0.27776973  1.0
  Te  Te6  1  0.66666667  0.33333333  0.57562661  1.0
  Te  Te7  1  0.33333333  0.66666667  0.42437339  1.0
  As  As8  1  0.33333333  0.66666667  0.92148272  1.0
  As  As9  1  0.66666667  0.33333333  0.07851728  1.0
  As  As10  1  0.33333333  0.66666667  0.65535667  1.0
  As  As11  1  0.66666667  0.33333333  0.34464333  1.0
