# generated using pymatgen
data_HS8N
_symmetry_space_group_name_H-M   'P 1'
_cell_length_a   14.52788264
_cell_length_b   8.39135758
_cell_length_c   9.25529751
_cell_angle_alpha   90.00000000
_cell_angle_beta   90.00000000
_cell_angle_gamma   90.00000000
_symmetry_Int_Tables_number   1
_chemical_formula_structural   HS8N
_chemical_formula_sum   'H4 S32 N4'
_cell_volume   1128.30089951
_cell_formula_units_Z   4
loop_
 _symmetry_equiv_pos_site_id
 _symmetry_equiv_pos_as_xyz
  1  'x, y, z'
loop_
 _atom_site_type_symbol
 _atom_site_label
 _atom_site_symmetry_multiplicity
 _atom_site_fract_x
 _atom_site_fract_y
 _atom_site_fract_z
 _atom_site_occupancy
  H  H0  1  0.46739273  0.27794515  0.87847279  1.0
  H  H1  1  0.96739273  0.72205485  0.87847279  1.0
  H  H2  1  0.53260727  0.72205485  0.37847279  1.0
  H  H3  1  0.03260727  0.27794515  0.37847279  1.0
  S  S4  1  0.49861872  0.05405290  0.64728975  1.0
  S  S5  1  0.99861872  0.94594710  0.64728975  1.0
  S  S6  1  0.50138128  0.94594710  0.14728975  1.0
  S  S7  1  0.00138128  0.05405290  0.14728975  1.0
  S  S8  1  0.25715914  0.27535440  0.59056195  1.0
  S  S9  1  0.75715914  0.72464560  0.59056195  1.0
  S  S10  1  0.74284086  0.72464560  0.09056195  1.0
  S  S11  1  0.24284086  0.27535440  0.09056195  1.0
  S  S12  1  0.19948485  0.06782949  0.50709506  1.0
  S  S13  1  0.69948485  0.93217051  0.50709506  1.0
  S  S14  1  0.80051515  0.93217051  0.00709506  1.0
  S  S15  1  0.30051515  0.06782949  0.00709506  1.0
  S  S16  1  0.15157993  0.41639013  0.67002058  1.0
  S  S17  1  0.65157993  0.58360987  0.67002058  1.0
  S  S18  1  0.84842007  0.58360987  0.17002058  1.0
  S  S19  1  0.34842007  0.41639013  0.17002058  1.0
  S  S20  1  0.07492214  0.50746308  0.50040064  1.0
  S  S21  1  0.57492214  0.49253692  0.50040064  1.0
  S  S22  1  0.92507786  0.49253692  0.00040064  1.0
  S  S23  1  0.42507786  0.50746308  0.00040064  1.0
  S  S24  1  0.94801421  0.16596179  0.71668676  1.0
  S  S25  1  0.44801421  0.83403821  0.71668676  1.0
  S  S26  1  0.05198579  0.83403821  0.21668676  1.0
  S  S27  1  0.55198579  0.16596179  0.21668676  1.0
  S  S28  1  0.90911742  0.29087275  0.53295512  1.0
  S  S29  1  0.40911742  0.70912725  0.53295512  1.0
  S  S30  1  0.09088258  0.70912725  0.03295512  1.0
  S  S31  1  0.59088258  0.29087275  0.03295512  1.0
  S  S32  1  0.63993409  0.05664895  0.67798697  1.0
  S  S33  1  0.13993409  0.94335105  0.67798697  1.0
  S  S34  1  0.36006591  0.94335105  0.17798697  1.0
  S  S35  1  0.86006591  0.05664895  0.17798697  1.0
  N  N36  1  0.49733455  0.36079699  0.94473037  1.0
  N  N37  1  0.99733455  0.63920301  0.94473037  1.0
  N  N38  1  0.50266545  0.63920301  0.44473037  1.0
  N  N39  1  0.00266545  0.36079699  0.44473037  1.0
