# generated using pymatgen
data_HgBrN
_symmetry_space_group_name_H-M   'P 1'
_cell_length_a   3.99476464
_cell_length_b   4.46746343
_cell_length_c   4.23901341
_cell_angle_alpha   90.00000000
_cell_angle_beta   90.00000000
_cell_angle_gamma   90.00000000
_symmetry_Int_Tables_number   1
_chemical_formula_structural   HgBrN
_chemical_formula_sum   'Hg1 Br1 N1'
_cell_volume   75.65140422
_cell_formula_units_Z   1
loop_
 _symmetry_equiv_pos_site_id
 _symmetry_equiv_pos_as_xyz
  1  'x, y, z'
loop_
 _atom_site_type_symbol
 _atom_site_label
 _atom_site_symmetry_multiplicity
 _atom_site_fract_x
 _atom_site_fract_y
 _atom_site_fract_z
 _atom_site_occupancy
  Hg  Hg0  1  0.00000000  0.00000000  -0.03028734  1.0
  Br  Br1  1  0.50000000  0.50000000  0.66421771  1.0
  N  N2  1  0.50000000  0.00000000  0.82606963  1.0
