# generated using pymatgen
data_NaMnH3(CO2)3
_symmetry_space_group_name_H-M   'P 1'
_cell_length_a   9.29507740
_cell_length_b   9.29507740
_cell_length_c   9.29507740
_cell_angle_alpha   90.00000000
_cell_angle_beta   90.00000000
_cell_angle_gamma   90.00000000
_symmetry_Int_Tables_number   1
_chemical_formula_structural   NaMnH3(CO2)3
_chemical_formula_sum   'Na4 Mn4 H12 C12 O24'
_cell_volume   803.08040874
_cell_formula_units_Z   4
loop_
 _symmetry_equiv_pos_site_id
 _symmetry_equiv_pos_as_xyz
  1  'x, y, z'
loop_
 _atom_site_type_symbol
 _atom_site_label
 _atom_site_symmetry_multiplicity
 _atom_site_fract_x
 _atom_site_fract_y
 _atom_site_fract_z
 _atom_site_occupancy
  Na  Na0  1  0.18462354  0.18462354  0.18462354  1.0
  Na  Na1  1  0.81537646  0.68462354  0.31537646  1.0
  Na  Na2  1  0.68462354  0.31537646  0.81537646  1.0
  Na  Na3  1  0.31537646  0.81537646  0.68462354  1.0
  Mn  Mn4  1  0.36243025  0.13756975  0.86243025  1.0
  Mn  Mn5  1  0.13756975  0.86243025  0.36243025  1.0
  Mn  Mn6  1  0.63756975  0.63756975  0.63756975  1.0
  Mn  Mn7  1  0.86243025  0.36243025  0.13756975  1.0
  H  H8  1  0.03172425  0.21656049  0.74695456  1.0
  H  H9  1  0.25304544  0.53172425  0.28343951  1.0
  H  H10  1  0.71656049  0.75304544  0.96827575  1.0
  H  H11  1  0.53172425  0.28343951  0.25304544  1.0
  H  H12  1  0.75304544  0.96827575  0.71656049  1.0
  H  H13  1  0.21656049  0.74695456  0.03172425  1.0
  H  H14  1  0.96827575  0.71656049  0.75304544  1.0
  H  H15  1  0.74695456  0.03172425  0.21656049  1.0
  H  H16  1  0.28343951  0.25304544  0.53172425  1.0
  H  H17  1  0.46827575  0.78343951  0.24695456  1.0
  H  H18  1  0.24695456  0.46827575  0.78343951  1.0
  H  H19  1  0.78343951  0.24695456  0.46827575  1.0
  C  C20  1  0.03462278  0.24228408  0.86390414  1.0
  C  C21  1  0.13609586  0.53462278  0.25771592  1.0
  C  C22  1  0.74228408  0.63609586  0.96537722  1.0
  C  C23  1  0.53462278  0.25771592  0.13609586  1.0
  C  C24  1  0.63609586  0.96537722  0.74228408  1.0
  C  C25  1  0.24228408  0.86390414  0.03462278  1.0
  C  C26  1  0.96537722  0.74228408  0.63609586  1.0
  C  C27  1  0.86390414  0.03462278  0.24228408  1.0
  C  C28  1  0.25771592  0.13609586  0.53462278  1.0
  C  C29  1  0.46537722  0.75771592  0.36390414  1.0
  C  C30  1  0.36390414  0.46537722  0.75771592  1.0
  C  C31  1  0.75771592  0.36390414  0.46537722  1.0
  O  O32  1  0.15045310  0.21792470  0.93054827  1.0
  O  O33  1  0.06945173  0.65045310  0.28207530  1.0
  O  O34  1  0.71792470  0.56945173  0.84954690  1.0
  O  O35  1  0.65045310  0.28207530  0.06945173  1.0
  O  O36  1  0.56945173  0.84954690  0.71792470  1.0
  O  O37  1  0.21792470  0.93054827  0.15045310  1.0
  O  O38  1  0.84954690  0.71792470  0.56945173  1.0
  O  O39  1  0.93054827  0.15045310  0.21792470  1.0
  O  O40  1  0.28207530  0.06945173  0.65045310  1.0
  O  O41  1  0.34954690  0.78207530  0.43054827  1.0
  O  O42  1  0.43054827  0.34954690  0.78207530  1.0
  O  O43  1  0.78207530  0.43054827  0.34954690  1.0
  O  O44  1  0.92033567  0.29359242  0.91737073  1.0
  O  O45  1  0.08262927  0.42033567  0.20640758  1.0
  O  O46  1  0.79359242  0.58262927  0.07966433  1.0
  O  O47  1  0.42033567  0.20640758  0.08262927  1.0
  O  O48  1  0.58262927  0.07966433  0.79359242  1.0
  O  O49  1  0.29359242  0.91737073  0.92033567  1.0
  O  O50  1  0.07966433  0.79359242  0.58262927  1.0
  O  O51  1  0.91737073  0.92033567  0.29359242  1.0
  O  O52  1  0.20640758  0.08262927  0.42033567  1.0
  O  O53  1  0.57966433  0.70640758  0.41737073  1.0
  O  O54  1  0.41737073  0.57966433  0.70640758  1.0
  O  O55  1  0.70640758  0.41737073  0.57966433  1.0
