# generated using pymatgen
data_BCl
_symmetry_space_group_name_H-M   'P 1'
_cell_length_a   12.95508630
_cell_length_b   12.95508630
_cell_length_c   12.95508630
_cell_angle_alpha   90.00000000
_cell_angle_beta   90.00000000
_cell_angle_gamma   90.00000000
_symmetry_Int_Tables_number   1
_chemical_formula_structural   BCl
_chemical_formula_sum   'B48 Cl48'
_cell_volume   2174.30733611
_cell_formula_units_Z   48
loop_
 _symmetry_equiv_pos_site_id
 _symmetry_equiv_pos_as_xyz
  1  'x, y, z'
loop_
 _atom_site_type_symbol
 _atom_site_label
 _atom_site_symmetry_multiplicity
 _atom_site_fract_x
 _atom_site_fract_y
 _atom_site_fract_z
 _atom_site_occupancy
  B  B0  1  0.47613788  0.96586239  0.62692601  1.0
  B  B1  1  0.47613788  0.53413761  0.12692601  1.0
  B  B2  1  0.97613788  0.96586239  0.87307399  1.0
  B  B3  1  0.97613788  0.53413761  0.37307399  1.0
  B  B4  1  0.46586239  0.87307399  0.52386212  1.0
  B  B5  1  0.46586239  0.62692601  0.02386212  1.0
  B  B6  1  0.96586239  0.87307399  0.97613788  1.0
  B  B7  1  0.96586239  0.62692601  0.47613788  1.0
  B  B8  1  0.37307399  0.97613788  0.53413761  1.0
  B  B9  1  0.37307399  0.52386212  0.03413761  1.0
  B  B10  1  0.87307399  0.97613788  0.96586239  1.0
  B  B11  1  0.87307399  0.52386212  0.46586239  1.0
  B  B12  1  0.52386212  0.46586239  0.87307399  1.0
  B  B13  1  0.52386212  0.03413761  0.37307399  1.0
  B  B14  1  0.02386212  0.46586239  0.62692601  1.0
  B  B15  1  0.02386212  0.03413761  0.12692601  1.0
  B  B16  1  0.53413761  0.37307399  0.97613788  1.0
  B  B17  1  0.53413761  0.12692601  0.47613788  1.0
  B  B18  1  0.03413761  0.37307399  0.52386212  1.0
  B  B19  1  0.03413761  0.12692601  0.02386212  1.0
  B  B20  1  0.62692601  0.47613788  0.96586239  1.0
  B  B21  1  0.62692601  0.02386212  0.46586239  1.0
  B  B22  1  0.12692601  0.47613788  0.53413761  1.0
  B  B23  1  0.12692601  0.02386212  0.03413761  1.0
  B  B24  1  0.42502632  0.55813927  0.90626954  1.0
  B  B25  1  0.42502632  0.94186073  0.40626954  1.0
  B  B26  1  0.92502632  0.55813927  0.59373046  1.0
  B  B27  1  0.92502632  0.94186073  0.09373046  1.0
  B  B28  1  0.05813927  0.59373046  0.57497368  1.0
  B  B29  1  0.05813927  0.90626954  0.07497368  1.0
  B  B30  1  0.55813927  0.59373046  0.92502632  1.0
  B  B31  1  0.55813927  0.90626954  0.42502632  1.0
  B  B32  1  0.09373046  0.92502632  0.94186073  1.0
  B  B33  1  0.09373046  0.57497368  0.44186073  1.0
  B  B34  1  0.59373046  0.92502632  0.55813927  1.0
  B  B35  1  0.59373046  0.57497368  0.05813927  1.0
  B  B36  1  0.57497368  0.05813927  0.59373046  1.0
  B  B37  1  0.57497368  0.44186073  0.09373046  1.0
  B  B38  1  0.07497368  0.05813927  0.90626954  1.0
  B  B39  1  0.07497368  0.44186073  0.40626954  1.0
  B  B40  1  0.94186073  0.09373046  0.92502632  1.0
  B  B41  1  0.94186073  0.40626954  0.42502632  1.0
  B  B42  1  0.44186073  0.09373046  0.57497368  1.0
  B  B43  1  0.44186073  0.40626954  0.07497368  1.0
  B  B44  1  0.90626954  0.42502632  0.55813927  1.0
  B  B45  1  0.90626954  0.07497368  0.05813927  1.0
  B  B46  1  0.40626954  0.42502632  0.94186073  1.0
  B  B47  1  0.40626954  0.07497368  0.44186073  1.0
  Cl  Cl48  1  0.45263758  0.93190031  0.75646339  1.0
  Cl  Cl49  1  0.45263758  0.56809969  0.25646339  1.0
  Cl  Cl50  1  0.95263758  0.93190031  0.74353661  1.0
  Cl  Cl51  1  0.95263758  0.56809969  0.24353661  1.0
  Cl  Cl52  1  0.43190031  0.74353661  0.54736242  1.0
  Cl  Cl53  1  0.43190031  0.75646339  0.04736242  1.0
  Cl  Cl54  1  0.93190031  0.74353661  0.95263758  1.0
  Cl  Cl55  1  0.93190031  0.75646339  0.45263758  1.0
  Cl  Cl56  1  0.24353661  0.95263758  0.56809969  1.0
  Cl  Cl57  1  0.24353661  0.54736242  0.06809969  1.0
  Cl  Cl58  1  0.74353661  0.95263758  0.93190031  1.0
  Cl  Cl59  1  0.74353661  0.54736242  0.43190031  1.0
  Cl  Cl60  1  0.54736242  0.43190031  0.74353661  1.0
  Cl  Cl61  1  0.54736242  0.06809969  0.24353661  1.0
  Cl  Cl62  1  0.04736242  0.43190031  0.75646339  1.0
  Cl  Cl63  1  0.04736242  0.06809969  0.25646339  1.0
  Cl  Cl64  1  0.56809969  0.24353661  0.95263758  1.0
  Cl  Cl65  1  0.56809969  0.25646339  0.45263758  1.0
  Cl  Cl66  1  0.06809969  0.24353661  0.54736242  1.0
  Cl  Cl67  1  0.06809969  0.25646339  0.04736242  1.0
  Cl  Cl68  1  0.75646339  0.45263758  0.93190031  1.0
  Cl  Cl69  1  0.75646339  0.04736242  0.43190031  1.0
  Cl  Cl70  1  0.25646339  0.45263758  0.56809969  1.0
  Cl  Cl71  1  0.25646339  0.04736242  0.06809969  1.0
  Cl  Cl72  1  0.34791022  0.61855117  0.81208081  1.0
  Cl  Cl73  1  0.34791022  0.88144883  0.31208081  1.0
  Cl  Cl74  1  0.84791022  0.61855117  0.68791919  1.0
  Cl  Cl75  1  0.84791022  0.88144883  0.18791919  1.0
  Cl  Cl76  1  0.11855117  0.68791919  0.65208978  1.0
  Cl  Cl77  1  0.11855117  0.81208081  0.15208978  1.0
  Cl  Cl78  1  0.61855117  0.68791919  0.84791022  1.0
  Cl  Cl79  1  0.61855117  0.81208081  0.34791022  1.0
  Cl  Cl80  1  0.18791919  0.84791022  0.88144883  1.0
  Cl  Cl81  1  0.18791919  0.65208978  0.38144883  1.0
  Cl  Cl82  1  0.68791919  0.84791022  0.61855117  1.0
  Cl  Cl83  1  0.68791919  0.65208978  0.11855117  1.0
  Cl  Cl84  1  0.65208978  0.11855117  0.68791919  1.0
  Cl  Cl85  1  0.65208978  0.38144883  0.18791919  1.0
  Cl  Cl86  1  0.15208978  0.11855117  0.81208081  1.0
  Cl  Cl87  1  0.15208978  0.38144883  0.31208081  1.0
  Cl  Cl88  1  0.88144883  0.18791919  0.84791022  1.0
  Cl  Cl89  1  0.88144883  0.31208081  0.34791022  1.0
  Cl  Cl90  1  0.38144883  0.18791919  0.65208978  1.0
  Cl  Cl91  1  0.38144883  0.31208081  0.15208978  1.0
  Cl  Cl92  1  0.81208081  0.34791022  0.61855117  1.0
  Cl  Cl93  1  0.81208081  0.15208978  0.11855117  1.0
  Cl  Cl94  1  0.31208081  0.34791022  0.88144883  1.0
  Cl  Cl95  1  0.31208081  0.15208978  0.38144883  1.0
