# generated using pymatgen
data_Li2MnSnS4
_symmetry_space_group_name_H-M   'P 1'
_cell_length_a   13.73721593
_cell_length_b   8.04009319
_cell_length_c   6.48859033
_cell_angle_alpha   90.00000000
_cell_angle_beta   90.00000000
_cell_angle_gamma   90.00000000
_symmetry_Int_Tables_number   1
_chemical_formula_structural   Li2MnSnS4
_chemical_formula_sum   'Li8 Mn4 Sn4 S16'
_cell_volume   716.65504420
_cell_formula_units_Z   4
loop_
 _symmetry_equiv_pos_site_id
 _symmetry_equiv_pos_as_xyz
  1  'x, y, z'
loop_
 _atom_site_type_symbol
 _atom_site_label
 _atom_site_symmetry_multiplicity
 _atom_site_fract_x
 _atom_site_fract_y
 _atom_site_fract_z
 _atom_site_occupancy
  Li  Li0  1  0.33480482  0.49711187  0.50962231  1.0
  Li  Li1  1  0.83480482  1.00288813  0.50962231  1.0
  Li  Li2  1  0.66519518  0.50288813  1.00962231  1.0
  Li  Li3  1  0.16519518  -0.00288813  1.00962231  1.0
  Li  Li4  1  0.08020140  0.24783655  0.50771178  1.0
  Li  Li5  1  0.58020140  0.25216345  0.50771178  1.0
  Li  Li6  1  0.91979860  0.75216345  0.00771178  1.0
  Li  Li7  1  0.41979860  0.74783655  0.00771178  1.0
  Mn  Mn8  1  0.33408374  0.99363844  0.51028035  1.0
  Mn  Mn9  1  0.83408374  0.50636156  0.51028035  1.0
  Mn  Mn10  1  0.66591626  0.00636156  0.01028035  1.0
  Mn  Mn11  1  0.16591626  0.49363844  0.01028035  1.0
  Sn  Sn12  1  0.41448215  0.24315537  0.01062708  1.0
  Sn  Sn13  1  0.91448215  0.25684463  0.01062708  1.0
  Sn  Sn14  1  0.58551785  0.75684463  0.51062708  1.0
  Sn  Sn15  1  0.08551785  0.74315537  0.51062708  1.0
  S  S16  1  0.41822998  0.74912575  0.38865489  1.0
  S  S17  1  0.91822998  0.75087425  0.38865489  1.0
  S  S18  1  0.58177002  0.25087425  0.88865489  1.0
  S  S19  1  0.08177002  0.24912575  0.88865489  1.0
  S  S20  1  0.41070468  0.24174898  0.38643470  1.0
  S  S21  1  0.91070468  0.25825102  0.38643470  1.0
  S  S22  1  0.58929532  0.75825102  0.88643470  1.0
  S  S23  1  0.08929532  0.74174898  0.88643470  1.0
  S  S24  1  0.16748851  0.49647020  0.38147920  1.0
  S  S25  1  0.66748851  0.00352980  0.38147920  1.0
  S  S26  1  0.83251149  0.50352980  0.88147920  1.0
  S  S27  1  0.33251149  -0.00352980  0.88147920  1.0
  S  S28  1  0.16802253  0.99285241  0.38918969  1.0
  S  S29  1  0.66802253  0.50714759  0.38918969  1.0
  S  S30  1  0.83197747  0.00714759  0.88918969  1.0
  S  S31  1  0.33197747  0.49285241  0.88918969  1.0
