# generated using pymatgen
data_Y3Ni4B4C3
_symmetry_space_group_name_H-M   'P 1'
_cell_length_a   13.01012029
_cell_length_b   13.01012029
_cell_length_c   13.01012029
_cell_angle_alpha   164.24507773
_cell_angle_beta   164.24507773
_cell_angle_gamma   22.35216979
_symmetry_Int_Tables_number   1
_chemical_formula_structural   Y3Ni4B4C3
_chemical_formula_sum   'Y3 Ni4 B4 C3'
_cell_volume   162.32223530
_cell_formula_units_Z   1
loop_
 _symmetry_equiv_pos_site_id
 _symmetry_equiv_pos_as_xyz
  1  'x, y, z'
loop_
 _atom_site_type_symbol
 _atom_site_label
 _atom_site_symmetry_multiplicity
 _atom_site_fract_x
 _atom_site_fract_y
 _atom_site_fract_z
 _atom_site_occupancy
  Y  Y0  1  0.79910611  0.79910611  1.00000000  1.0
  Y  Y1  1  0.20089389  0.20089389  -0.00000000  1.0
  Y  Y2  1  0.50000000  0.50000000  1.00000000  1.0
  Ni  Ni3  1  0.39940580  0.89940580  0.50000000  1.0
  Ni  Ni4  1  0.60059420  0.10059420  0.50000000  1.0
  Ni  Ni5  1  0.89940580  0.39940580  0.50000000  1.0
  Ni  Ni6  1  0.10059420  0.60059420  0.50000000  1.0
  B  B7  1  0.94139775  0.94139775  1.00000000  1.0
  B  B8  1  0.05860225  0.05860225  -0.00000000  1.0
  B  B9  1  0.64505302  0.64505302  1.00000000  1.0
  B  B10  1  0.35494698  0.35494698  -0.00000000  1.0
  C  C11  1  0.70356759  0.70356759  1.00000000  1.0
  C  C12  1  0.29643241  0.29643241  -0.00000000  1.0
  C  C13  1  0.00000000  0.00000000  0.00000000  1.0
