# generated using pymatgen
data_MgSi(HO)6
_symmetry_space_group_name_H-M   'P 1'
_cell_length_a   5.16927722
_cell_length_b   5.20644048
_cell_length_c   7.37161992
_cell_angle_alpha   90.00000000
_cell_angle_beta   89.89655092
_cell_angle_gamma   90.00000000
_symmetry_Int_Tables_number   1
_chemical_formula_structural   MgSi(HO)6
_chemical_formula_sum   'Mg2 Si2 H12 O12'
_cell_volume   198.39602125
_cell_formula_units_Z   2
loop_
 _symmetry_equiv_pos_site_id
 _symmetry_equiv_pos_as_xyz
  1  'x, y, z'
loop_
 _atom_site_type_symbol
 _atom_site_label
 _atom_site_symmetry_multiplicity
 _atom_site_fract_x
 _atom_site_fract_y
 _atom_site_fract_z
 _atom_site_occupancy
  Mg  Mg0  1  0.75251924  0.53123782  0.25108424  1.0
  Mg  Mg1  1  0.24748076  0.03123782  0.74891576  1.0
  Si  Si2  1  0.74781665  0.53129984  0.75076317  1.0
  Si  Si3  1  0.25218335  0.03129984  0.24923683  1.0
  H  H4  1  0.96397922  0.72461723  0.98513532  1.0
  H  H5  1  0.03602078  0.22461723  0.01486468  1.0
  H  H6  1  0.93330707  0.87694315  0.44666883  1.0
  H  H7  1  0.06669293  0.37694315  0.55333117  1.0
  H  H8  1  0.77321872  0.97708640  0.73132713  1.0
  H  H9  1  0.22678128  0.47708640  0.26867287  1.0
  H  H10  1  0.59016125  0.21437508  0.94855253  1.0
  H  H11  1  0.40983875  0.71437508  0.05144747  1.0
  H  H12  1  0.45840380  0.82462456  0.48917277  1.0
  H  H13  1  0.54159620  0.32462456  0.51082723  1.0
  H  H14  1  0.30415553  0.56762826  0.77423802  1.0
  H  H15  1  0.69584447  0.06762826  0.22576198  1.0
  O  O16  1  0.94889643  0.87337307  0.31241719  1.0
  O  O17  1  0.05110357  0.37337307  0.68758281  1.0
  O  O18  1  0.88911651  0.83434450  0.69085743  1.0
  O  O19  1  0.11088349  0.33434450  0.30914257  1.0
  O  O20  1  0.86664122  0.56247923  0.97976374  1.0
  O  O21  1  0.13335878  0.06247923  0.02023626  1.0
  O  O22  1  0.63328532  0.48964483  0.52091217  1.0
  O  O23  1  0.36671468  -0.01035517  0.47908783  1.0
  O  O24  1  0.59928749  0.22927959  0.81361181  1.0
  O  O25  1  0.40071251  0.72927959  0.18638819  1.0
  O  O26  1  0.44146047  0.69106643  0.81155187  1.0
  O  O27  1  0.55853953  0.19106643  0.18844813  1.0
