# generated using pymatgen
data_H9Rh(NCl)3
_symmetry_space_group_name_H-M   'P 1'
_cell_length_a   5.60295938
_cell_length_b   9.61994895
_cell_length_c   7.24958731
_cell_angle_alpha   90.00000000
_cell_angle_beta   92.67822589
_cell_angle_gamma   90.00000000
_symmetry_Int_Tables_number   1
_chemical_formula_structural   H9Rh(NCl)3
_chemical_formula_sum   'H18 Rh2 N6 Cl6'
_cell_volume   390.32726562
_cell_formula_units_Z   2
loop_
 _symmetry_equiv_pos_site_id
 _symmetry_equiv_pos_as_xyz
  1  'x, y, z'
loop_
 _atom_site_type_symbol
 _atom_site_label
 _atom_site_symmetry_multiplicity
 _atom_site_fract_x
 _atom_site_fract_y
 _atom_site_fract_z
 _atom_site_occupancy
  H  H0  1  0.08146622  0.60639695  0.15427834  1.0
  H  H1  1  0.91853378  0.10639695  0.84572166  1.0
  H  H2  1  0.91853378  0.39360305  0.84572166  1.0
  H  H3  1  0.08146622  0.89360305  0.15427834  1.0
  H  H4  1  0.31328374  0.50007036  0.14620809  1.0
  H  H5  1  0.68671626  0.00007036  0.85379191  1.0
  H  H6  1  0.68671626  0.49992964  0.85379191  1.0
  H  H7  1  0.31328374  0.99992964  0.14620809  1.0
  H  H8  1  0.24214603  0.59739335  0.96585901  1.0
  H  H9  1  0.75785397  0.09739335  0.03414099  1.0
  H  H10  1  0.75785397  0.40260665  0.03414099  1.0
  H  H11  1  0.24214603  0.90260665  0.96585901  1.0
  H  H12  1  0.36679624  0.66330088  0.53334042  1.0
  H  H13  1  0.63320376  0.16330088  0.46665958  1.0
  H  H14  1  0.63320376  0.33669912  0.46665958  1.0
  H  H15  1  0.36679624  0.83669912  0.53334042  1.0
  H  H16  1  0.13375727  0.75000000  0.44245729  1.0
  H  H17  1  0.86624273  0.25000000  0.55754271  1.0
  Rh  Rh18  1  0.48313510  0.75000000  0.20787076  1.0
  Rh  Rh19  1  0.51686490  0.25000000  0.79212924  1.0
  N  N20  1  0.25219618  0.59737754  0.10769999  1.0
  N  N21  1  0.74780382  0.09737754  0.89230001  1.0
  N  N22  1  0.74780382  0.40262246  0.89230001  1.0
  N  N23  1  0.25219618  0.90262246  0.10769999  1.0
  N  N24  1  0.31706901  0.75000000  0.45801536  1.0
  N  N25  1  0.68293099  0.25000000  0.54198464  1.0
  Cl  Cl26  1  0.66243162  0.75000000  0.91548286  1.0
  Cl  Cl27  1  0.33756838  0.25000000  0.08451714  1.0
  Cl  Cl28  1  0.74658031  0.57300421  0.32604848  1.0
  Cl  Cl29  1  0.25341969  0.07300421  0.67395152  1.0
  Cl  Cl30  1  0.25341969  0.42699579  0.67395152  1.0
  Cl  Cl31  1  0.74658031  0.92699579  0.32604848  1.0
