# generated using pymatgen
data_GaSi3C3N
_symmetry_space_group_name_H-M   'P 1'
_cell_length_a   5.10711602
_cell_length_b   3.11263673
_cell_length_c   5.40087868
_cell_angle_alpha   90.00000000
_cell_angle_beta   90.24434945
_cell_angle_gamma   90.00000000
_symmetry_Int_Tables_number   1
_chemical_formula_structural   GaSi3C3N
_chemical_formula_sum   'Ga1 Si3 C3 N1'
_cell_volume   85.85481085
_cell_formula_units_Z   1
loop_
 _symmetry_equiv_pos_site_id
 _symmetry_equiv_pos_as_xyz
  1  'x, y, z'
loop_
 _atom_site_type_symbol
 _atom_site_label
 _atom_site_symmetry_multiplicity
 _atom_site_fract_x
 _atom_site_fract_y
 _atom_site_fract_z
 _atom_site_occupancy
  Ga  Ga0  1  0.50859740  0.50000000  0.16309598  1.0
  Si  Si1  1  0.00835205  0.00000000  0.33753244  1.0
  Si  Si2  1  0.49727936  0.00000000  0.66504100  1.0
  Si  Si3  1  0.00123633  0.50000000  0.83094843  1.0
  C  C4  1  0.90436951  0.50000000  0.16948580  1.0
  C  C5  1  0.37068576  0.50000000  0.81505154  1.0
  C  C6  1  0.87157712  0.00000000  0.66460551  1.0
  N  N7  1  0.36600247  0.00000000  0.35423930  1.0
