# generated using pymatgen
data_Ba2GaGeN
_symmetry_space_group_name_H-M   'P 1'
_cell_length_a   7.30793409
_cell_length_b   4.24230148
_cell_length_c   9.39613232
_cell_angle_alpha   90.00000000
_cell_angle_beta   108.92471090
_cell_angle_gamma   90.00000000
_symmetry_Int_Tables_number   1
_chemical_formula_structural   Ba2GaGeN
_chemical_formula_sum   'Ba4 Ga2 Ge2 N2'
_cell_volume   275.55698322
_cell_formula_units_Z   2
loop_
 _symmetry_equiv_pos_site_id
 _symmetry_equiv_pos_as_xyz
  1  'x, y, z'
loop_
 _atom_site_type_symbol
 _atom_site_label
 _atom_site_symmetry_multiplicity
 _atom_site_fract_x
 _atom_site_fract_y
 _atom_site_fract_z
 _atom_site_occupancy
  Ba  Ba0  1  0.20407793  0.25000000  0.96148668  1.0
  Ba  Ba1  1  0.79592207  0.75000000  0.03851332  1.0
  Ba  Ba2  1  0.19189911  0.25000000  0.38212227  1.0
  Ba  Ba3  1  0.80810089  0.75000000  0.61787773  1.0
  Ga  Ga4  1  0.54082925  0.25000000  0.75518458  1.0
  Ga  Ga5  1  0.45917075  0.75000000  0.24481542  1.0
  Ge  Ge6  1  0.66023861  0.25000000  0.29775575  1.0
  Ge  Ge7  1  0.33976139  0.75000000  0.70224425  1.0
  N  N8  1  0.81679763  0.25000000  0.82841349  1.0
  N  N9  1  0.18320237  0.75000000  0.17158651  1.0
