# generated using pymatgen
data_Cs3CdH5
_symmetry_space_group_name_H-M   'P 1'
_cell_length_a   8.76126797
_cell_length_b   8.76126797
_cell_length_c   8.76126797
_cell_angle_alpha   122.18327747
_cell_angle_beta   122.18327747
_cell_angle_gamma   86.25830086
_symmetry_Int_Tables_number   1
_chemical_formula_structural   Cs3CdH5
_chemical_formula_sum   'Cs6 Cd2 H10'
_cell_volume   458.78045331
_cell_formula_units_Z   2
loop_
 _symmetry_equiv_pos_site_id
 _symmetry_equiv_pos_as_xyz
  1  'x, y, z'
loop_
 _atom_site_type_symbol
 _atom_site_label
 _atom_site_symmetry_multiplicity
 _atom_site_fract_x
 _atom_site_fract_y
 _atom_site_fract_z
 _atom_site_occupancy
  Cs  Cs0  1  0.81882891  0.31882891  1.13765781  1.0
  Cs  Cs1  1  0.68117109  0.81882891  1.50000000  1.0
  Cs  Cs2  1  0.31882891  0.18117109  0.50000000  1.0
  Cs  Cs3  1  0.18117109  0.68117109  0.86234219  1.0
  Cs  Cs4  1  0.75000000  0.75000000  1.00000000  1.0
  Cs  Cs5  1  0.25000000  0.25000000  0.00000000  1.0
  Cd  Cd6  1  0.25000000  0.75000000  0.50000000  1.0
  Cd  Cd7  1  0.75000000  0.25000000  0.50000000  1.0
  H  H8  1  0.00000000  0.00000000  0.00000000  1.0
  H  H9  1  0.50000000  0.50000000  1.00000000  1.0
  H  H10  1  1.21358290  0.71358290  1.25326268  1.0
  H  H11  1  0.53967978  1.03967978  1.25326268  1.0
  H  H12  1  0.96032022  1.21358290  1.50000000  1.0
  H  H13  1  0.28641710  0.53967978  0.50000000  1.0
  H  H14  1  0.71358290  0.46032022  0.50000000  1.0
  H  H15  1  1.03967978  0.78641710  1.50000000  1.0
  H  H16  1  0.46032022  0.96032022  0.74673732  1.0
  H  H17  1  0.78641710  0.28641710  0.74673732  1.0
