# generated using pymatgen
data_LiV(WO4)2
_symmetry_space_group_name_H-M   'P 1'
_cell_length_a   7.43880468
_cell_length_b   7.43880468
_cell_length_c   4.94872376
_cell_angle_alpha   89.74304634
_cell_angle_beta   90.25695366
_cell_angle_gamma   77.85387342
_symmetry_Int_Tables_number   1
_chemical_formula_structural   LiV(WO4)2
_chemical_formula_sum   'Li2 V2 W4 O16'
_cell_volume   267.70466931
_cell_formula_units_Z   2
loop_
 _symmetry_equiv_pos_site_id
 _symmetry_equiv_pos_as_xyz
  1  'x, y, z'
loop_
 _atom_site_type_symbol
 _atom_site_label
 _atom_site_symmetry_multiplicity
 _atom_site_fract_x
 _atom_site_fract_y
 _atom_site_fract_z
 _atom_site_occupancy
  Li  Li0  1  1.35471074  0.35471074  0.25000000  1.0
  Li  Li1  1  0.64528926  -0.35471074  0.75000000  1.0
  V  V2  1  0.82441592  -0.17558408  0.25000000  1.0
  V  V3  1  1.17558408  0.17558408  0.75000000  1.0
  W  W4  1  0.33850815  -0.15967449  0.26257873  1.0
  W  W5  1  1.15967449  0.66149185  0.76257873  1.0
  W  W6  1  0.84032551  -0.66149185  0.23742127  1.0
  W  W7  1  1.66149185  0.15967449  0.73742127  1.0
  O  O8  1  0.70611451  -0.05827716  0.91950484  1.0
  O  O9  1  1.05827716  0.29388549  0.41950484  1.0
  O  O10  1  0.94172284  -0.29388549  0.58049516  1.0
  O  O11  1  1.29388549  0.05827716  0.08049516  1.0
  O  O12  1  1.80253178  0.07308929  0.41309737  1.0
  O  O13  1  0.92691071  -0.80253178  0.91309737  1.0
  O  O14  1  1.07308929  0.80253178  0.08690263  1.0
  O  O15  1  0.19746822  -0.07308929  0.58690263  1.0
  O  O16  1  0.57274765  -0.18039168  0.38613949  1.0
  O  O17  1  1.18039168  0.42725235  0.88613949  1.0
  O  O18  1  0.81960832  -0.42725235  0.11386051  1.0
  O  O19  1  1.42725235  0.18039168  0.61386051  1.0
  O  O20  1  1.60032700  0.30806714  0.04928964  1.0
  O  O21  1  0.69193286  -0.60032700  0.54928964  1.0
  O  O22  1  1.30806714  0.60032700  0.45071036  1.0
  O  O23  1  0.39967300  -0.30806714  0.95071036  1.0
