# generated using pymatgen
data_CaBHO3
_symmetry_space_group_name_H-M   'P 1'
_cell_length_a   3.58512437
_cell_length_b   9.57334888
_cell_length_c   8.18801626
_cell_angle_alpha   90.00000000
_cell_angle_beta   111.63612549
_cell_angle_gamma   90.00000000
_symmetry_Int_Tables_number   1
_chemical_formula_structural   CaBHO3
_chemical_formula_sum   'Ca4 B4 H4 O12'
_cell_volume   261.22627147
_cell_formula_units_Z   4
loop_
 _symmetry_equiv_pos_site_id
 _symmetry_equiv_pos_as_xyz
  1  'x, y, z'
loop_
 _atom_site_type_symbol
 _atom_site_label
 _atom_site_symmetry_multiplicity
 _atom_site_fract_x
 _atom_site_fract_y
 _atom_site_fract_z
 _atom_site_occupancy
  Ca  Ca0  1  0.92244722  0.49296976  0.21083642  1.0
  Ca  Ca1  1  0.92244722  0.00703024  0.71083642  1.0
  Ca  Ca2  1  0.07755278  0.99296976  0.28916358  1.0
  Ca  Ca3  1  0.07755278  0.50703024  0.78916358  1.0
  B  B4  1  0.71400547  0.26325540  0.42737957  1.0
  B  B5  1  0.71400547  0.23674460  0.92737957  1.0
  B  B6  1  0.28599453  0.76325540  0.07262043  1.0
  B  B7  1  0.28599453  0.73674460  0.57262043  1.0
  H  H8  1  0.79494459  0.73949710  0.34820138  1.0
  H  H9  1  0.79494459  0.76050290  0.84820138  1.0
  H  H10  1  0.20505541  0.23949710  0.15179862  1.0
  H  H11  1  0.20505541  0.26050290  0.65179862  1.0
  O  O12  1  0.00788057  0.16874047  0.07181686  1.0
  O  O13  1  0.00788057  0.33125953  0.57181686  1.0
  O  O14  1  0.99211943  0.66874047  0.42818314  1.0
  O  O15  1  0.99211943  0.83125953  0.92818314  1.0
  O  O16  1  0.69038312  0.12011155  0.42705632  1.0
  O  O17  1  0.69038312  0.37988845  0.92705632  1.0
  O  O18  1  0.30961688  0.62011155  0.07294368  1.0
  O  O19  1  0.30961688  0.87988845  0.57294368  1.0
  O  O20  1  0.48466336  0.34727906  0.29232511  1.0
  O  O21  1  0.48466336  0.15272094  0.79232511  1.0
  O  O22  1  0.51533664  0.84727906  0.20767489  1.0
  O  O23  1  0.51533664  0.65272094  0.70767489  1.0
