# generated using pymatgen
data_Pr2Ge5Ru3
_symmetry_space_group_name_H-M   'P 1'
_cell_length_a   11.13045862
_cell_length_b   11.13045862
_cell_length_c   5.85942350
_cell_angle_alpha   90.00000000
_cell_angle_beta   90.00000000
_cell_angle_gamma   90.00000000
_symmetry_Int_Tables_number   1
_chemical_formula_structural   Pr2Ge5Ru3
_chemical_formula_sum   'Pr8 Ge20 Ru12'
_cell_volume   725.90703730
_cell_formula_units_Z   4
loop_
 _symmetry_equiv_pos_site_id
 _symmetry_equiv_pos_as_xyz
  1  'x, y, z'
loop_
 _atom_site_type_symbol
 _atom_site_label
 _atom_site_symmetry_multiplicity
 _atom_site_fract_x
 _atom_site_fract_y
 _atom_site_fract_z
 _atom_site_occupancy
  Pr  Pr0  1  0.93036406  0.76713988  0.50000000  1.0
  Pr  Pr1  1  0.06963594  0.23286012  0.50000000  1.0
  Pr  Pr2  1  0.56963594  0.26713988  0.00000000  1.0
  Pr  Pr3  1  0.43036406  0.73286012  0.00000000  1.0
  Pr  Pr4  1  0.76713988  0.06963594  0.50000000  1.0
  Pr  Pr5  1  0.23286012  0.93036406  0.50000000  1.0
  Pr  Pr6  1  0.26713988  0.43036406  0.00000000  1.0
  Pr  Pr7  1  0.73286012  0.56963594  0.00000000  1.0
  Ge  Ge8  1  0.81925974  0.53116428  0.50000000  1.0
  Ge  Ge9  1  0.18074026  0.46883572  0.50000000  1.0
  Ge  Ge10  1  0.68074026  0.03116428  0.00000000  1.0
  Ge  Ge11  1  0.31925974  0.96883572  0.00000000  1.0
  Ge  Ge12  1  0.53116428  0.18074026  0.50000000  1.0
  Ge  Ge13  1  0.46883572  0.81925974  0.50000000  1.0
  Ge  Ge14  1  0.03116428  0.31925974  0.00000000  1.0
  Ge  Ge15  1  0.96883572  0.68074026  0.00000000  1.0
  Ge  Ge16  1  0.17423921  0.67423921  0.25000000  1.0
  Ge  Ge17  1  0.82576079  0.32576079  0.25000000  1.0
  Ge  Ge18  1  0.32576079  0.17423921  0.75000000  1.0
  Ge  Ge19  1  0.67423921  0.82576079  0.75000000  1.0
  Ge  Ge20  1  0.67423921  0.82576079  0.25000000  1.0
  Ge  Ge21  1  0.32576079  0.17423921  0.25000000  1.0
  Ge  Ge22  1  0.17423921  0.67423921  0.75000000  1.0
  Ge  Ge23  1  0.82576079  0.32576079  0.75000000  1.0
  Ge  Ge24  1  0.50000000  0.50000000  0.25777864  1.0
  Ge  Ge25  1  0.00000000  0.00000000  0.75777864  1.0
  Ge  Ge26  1  0.50000000  0.50000000  0.74222136  1.0
  Ge  Ge27  1  0.00000000  0.00000000  0.24222136  1.0
  Ru  Ru28  1  0.62248335  0.64396806  0.50000000  1.0
  Ru  Ru29  1  0.37751665  0.35603194  0.50000000  1.0
  Ru  Ru30  1  0.87751665  0.14396806  0.00000000  1.0
  Ru  Ru31  1  0.12248335  0.85603194  0.00000000  1.0
  Ru  Ru32  1  0.64396806  0.37751665  0.50000000  1.0
  Ru  Ru33  1  0.35603194  0.62248335  0.50000000  1.0
  Ru  Ru34  1  0.14396806  0.12248335  0.00000000  1.0
  Ru  Ru35  1  0.85603194  0.87751665  0.00000000  1.0
  Ru  Ru36  1  0.00000000  0.50000000  0.25000000  1.0
  Ru  Ru37  1  0.50000000  0.00000000  0.75000000  1.0
  Ru  Ru38  1  0.50000000  0.00000000  0.25000000  1.0
  Ru  Ru39  1  0.00000000  0.50000000  0.75000000  1.0
