# generated using pymatgen
data_K4MnCl6
_symmetry_space_group_name_H-M   'P 1'
_cell_length_a   7.78540222
_cell_length_b   7.78540222
_cell_length_c   7.78540222
_cell_angle_alpha   109.43454846
_cell_angle_beta   109.43454846
_cell_angle_gamma   109.43454846
_symmetry_Int_Tables_number   1
_chemical_formula_structural   K4MnCl6
_chemical_formula_sum   'K4 Mn1 Cl6'
_cell_volume   363.75547532
_cell_formula_units_Z   1
loop_
 _symmetry_equiv_pos_site_id
 _symmetry_equiv_pos_as_xyz
  1  'x, y, z'
loop_
 _atom_site_type_symbol
 _atom_site_label
 _atom_site_symmetry_multiplicity
 _atom_site_fract_x
 _atom_site_fract_y
 _atom_site_fract_z
 _atom_site_occupancy
  K  K0  1  0.00000000  0.00000000  0.00000000  1.0
  K  K1  1  0.50000000  1.00000000  -0.50000000  1.0
  K  K2  1  1.00000000  0.50000000  -0.50000000  1.0
  K  K3  1  0.50000000  0.50000000  -0.00000000  1.0
  Mn  Mn4  1  0.50000000  0.50000000  0.50000000  1.0
  Cl  Cl5  1  0.78571199  0.78571199  0.49978539  1.0
  Cl  Cl6  1  0.78571199  1.49978539  -0.21428801  1.0
  Cl  Cl7  1  1.49978539  0.78571199  -0.21428801  1.0
  Cl  Cl8  1  1.21428801  0.21428801  -0.49978539  1.0
  Cl  Cl9  1  1.21428801  -0.49978539  0.21428801  1.0
  Cl  Cl10  1  0.50021461  0.21428801  0.21428801  1.0
