# generated using pymatgen
data_K2Co(PO3)4
_symmetry_space_group_name_H-M   'P 1'
_cell_length_a   8.49757547
_cell_length_b   8.49757547
_cell_length_c   7.80712202
_cell_angle_alpha   81.62741548
_cell_angle_beta   98.37258452
_cell_angle_gamma   82.98229291
_symmetry_Int_Tables_number   1
_chemical_formula_structural   K2Co(PO3)4
_chemical_formula_sum   'K4 Co2 P8 O24'
_cell_volume   545.83811103
_cell_formula_units_Z   2
loop_
 _symmetry_equiv_pos_site_id
 _symmetry_equiv_pos_as_xyz
  1  'x, y, z'
loop_
 _atom_site_type_symbol
 _atom_site_label
 _atom_site_symmetry_multiplicity
 _atom_site_fract_x
 _atom_site_fract_y
 _atom_site_fract_z
 _atom_site_occupancy
  K  K0  1  0.87218632  -0.12487323  0.49745618  1.0
  K  K1  1  1.12487323  0.12781368  -0.00254382  1.0
  K  K2  1  1.56632344  0.16474062  0.82991554  1.0
  K  K3  1  0.83525938  -0.56632344  0.32991554  1.0
  Co  Co4  1  0.51973532  -0.21426052  0.16820698  1.0
  Co  Co5  1  1.21426052  0.48026468  0.66820698  1.0
  P  P6  1  1.18418862  0.66369117  0.25488368  1.0
  P  P7  1  0.33630883  -0.18418862  0.75488368  1.0
  P  P8  1  1.49546864  0.12413098  0.33790057  1.0
  P  P9  1  0.87586902  -0.49546864  0.83790057  1.0
  P  P10  1  1.19196246  0.12984080  0.49611990  1.0
  P  P11  1  0.87015920  -0.19196246  0.99611990  1.0
  P  P12  1  1.40018814  0.44294062  0.09844716  1.0
  P  P13  1  0.55705938  -0.40018814  0.59844716  1.0
  O  O14  1  0.63770030  -0.33979708  0.44645962  1.0
  O  O15  1  1.33979708  0.36229970  0.94645962  1.0
  O  O16  1  0.76289778  -0.23959727  0.12749978  1.0
  O  O17  1  1.23959727  0.23710222  0.62749978  1.0
  O  O18  1  0.50523568  -0.42729226  0.07557611  1.0
  O  O19  1  1.42729226  0.49476432  0.57557611  1.0
  O  O20  1  0.85317656  -0.02203592  0.90335959  1.0
  O  O21  1  1.02203592  0.14682344  0.40335959  1.0
  O  O22  1  1.24583019  0.49994294  0.18575794  1.0
  O  O23  1  0.50005706  -0.24583019  0.68575794  1.0
  O  O24  1  0.31430980  -0.23141148  0.27574924  1.0
  O  O25  1  1.23141148  0.68569020  0.77574924  1.0
  O  O26  1  1.52935861  0.01958362  0.20161635  1.0
  O  O27  1  0.98041638  -0.52935861  0.70161635  1.0
  O  O28  1  1.59720345  0.08745318  0.51552170  1.0
  O  O29  1  0.91254682  -0.59720345  0.01552170  1.0
  O  O30  1  1.09751762  0.61497874  0.40575376  1.0
  O  O31  1  0.38502126  -0.09751762  0.90575376  1.0
  O  O32  1  1.05651715  0.76172061  0.08897520  1.0
  O  O33  1  0.23827939  -0.05651715  0.58897520  1.0
  O  O34  1  1.50969544  0.30813496  0.25389975  1.0
  O  O35  1  0.69186504  -0.50969544  0.75389975  1.0
  O  O36  1  1.30302642  0.13763144  0.34180097  1.0
  O  O37  1  0.86236856  -0.30302642  0.84180097  1.0
