# generated using pymatgen
data_Mo(Br2N)2
_symmetry_space_group_name_H-M   'P 1'
_cell_length_a   8.87595811
_cell_length_b   8.87595811
_cell_length_c   8.87595811
_cell_angle_alpha   103.58059097
_cell_angle_beta   103.58059097
_cell_angle_gamma   122.03074876
_symmetry_Int_Tables_number   1
_chemical_formula_structural   Mo(Br2N)2
_chemical_formula_sum   'Mo2 Br8 N4'
_cell_volume   518.56634165
_cell_formula_units_Z   2
loop_
 _symmetry_equiv_pos_site_id
 _symmetry_equiv_pos_as_xyz
  1  'x, y, z'
loop_
 _atom_site_type_symbol
 _atom_site_label
 _atom_site_symmetry_multiplicity
 _atom_site_fract_x
 _atom_site_fract_y
 _atom_site_fract_z
 _atom_site_occupancy
  Mo  Mo0  1  0.84932067  0.84932067  -0.00000000  1.0
  Mo  Mo1  1  0.15067933  0.15067933  -0.00000000  1.0
  Br  Br2  1  0.57129533  0.78847182  0.78282351  1.0
  Br  Br3  1  0.99435169  1.21152818  0.78282351  1.0
  Br  Br4  1  1.00564831  0.78847182  1.21717649  1.0
  Br  Br5  1  1.42870467  1.21152818  1.21717649  1.0
  Br  Br6  1  0.78847182  1.57129533  0.78282351  1.0
  Br  Br7  1  0.21152818  0.99435169  0.78282351  1.0
  Br  Br8  1  0.78847182  1.00564831  0.21717649  1.0
  Br  Br9  1  0.21152818  0.42870467  0.21717649  1.0
  N  N10  1  0.72142224  0.72142224  0.44284449  1.0
  N  N11  1  1.27857776  0.72142224  1.00000000  1.0
  N  N12  1  0.72142224  0.27857776  1.00000000  1.0
  N  N13  1  0.27857776  0.27857776  0.55715551  1.0
