# generated using pymatgen
data_KHO
_symmetry_space_group_name_H-M   'P 1'
_cell_length_a   6.57598647
_cell_length_b   6.57598647
_cell_length_c   7.42565274
_cell_angle_alpha   90.00000000
_cell_angle_beta   90.00000000
_cell_angle_gamma   90.00000000
_symmetry_Int_Tables_number   1
_chemical_formula_structural   KHO
_chemical_formula_sum   'K8 H8 O8'
_cell_volume   321.11194286
_cell_formula_units_Z   8
loop_
 _symmetry_equiv_pos_site_id
 _symmetry_equiv_pos_as_xyz
  1  'x, y, z'
loop_
 _atom_site_type_symbol
 _atom_site_label
 _atom_site_symmetry_multiplicity
 _atom_site_fract_x
 _atom_site_fract_y
 _atom_site_fract_z
 _atom_site_occupancy
  K  K0  1  0.00000000  0.50000000  0.25000000  1.0
  K  K1  1  0.50000000  0.00000000  0.75000000  1.0
  K  K2  1  0.50000000  0.00000000  0.25000000  1.0
  K  K3  1  0.00000000  0.50000000  0.75000000  1.0
  K  K4  1  0.50000000  0.50000000  0.20624150  1.0
  K  K5  1  0.00000000  0.00000000  0.70624150  1.0
  K  K6  1  0.50000000  0.50000000  0.79375850  1.0
  K  K7  1  0.00000000  0.00000000  0.29375850  1.0
  H  H8  1  0.72273602  0.61208805  0.50000000  1.0
  H  H9  1  0.27726398  0.38791195  0.50000000  1.0
  H  H10  1  0.77726398  0.11208805  0.00000000  1.0
  H  H11  1  0.22273602  0.88791195  0.00000000  1.0
  H  H12  1  0.61208805  0.27726398  0.50000000  1.0
  H  H13  1  0.38791195  0.72273602  0.50000000  1.0
  H  H14  1  0.11208805  0.22273602  -0.00000000  1.0
  H  H15  1  0.88791195  0.77726398  -0.00000000  1.0
  O  O16  1  0.75967485  0.30033640  0.50000000  1.0
  O  O17  1  0.24032515  0.69966360  0.50000000  1.0
  O  O18  1  0.74032515  0.80033640  -0.00000000  1.0
  O  O19  1  0.25967485  0.19966360  -0.00000000  1.0
  O  O20  1  0.30033640  0.24032515  0.50000000  1.0
  O  O21  1  0.69966360  0.75967485  0.50000000  1.0
  O  O22  1  0.80033640  0.25967485  0.00000000  1.0
  O  O23  1  0.19966360  0.74032515  0.00000000  1.0
