# generated using pymatgen
data_SrHg2
_symmetry_space_group_name_H-M   'P 1'
_cell_length_a   6.46653128
_cell_length_b   6.46653128
_cell_length_c   6.46653128
_cell_angle_alpha   133.80411764
_cell_angle_beta   104.01181074
_cell_angle_gamma   93.76607307
_symmetry_Int_Tables_number   1
_chemical_formula_structural   SrHg2
_chemical_formula_sum   'Sr2 Hg4'
_cell_volume   178.53104248
_cell_formula_units_Z   2
loop_
 _symmetry_equiv_pos_site_id
 _symmetry_equiv_pos_as_xyz
  1  'x, y, z'
loop_
 _atom_site_type_symbol
 _atom_site_label
 _atom_site_symmetry_multiplicity
 _atom_site_fract_x
 _atom_site_fract_y
 _atom_site_fract_z
 _atom_site_occupancy
  Sr  Sr0  1  1.73766296  1.48766296  1.25000000  1.0
  Sr  Sr1  1  0.26233704  0.51233704  0.75000000  1.0
  Hg  Hg2  1  1.31803871  0.83379857  1.48424013  1.0
  Hg  Hg3  1  1.15044156  0.16620143  0.98424013  1.0
  Hg  Hg4  1  0.68196129  1.16620143  0.51575987  1.0
  Hg  Hg5  1  0.84955844  0.83379857  0.01575987  1.0
