# generated using pymatgen
data_Sn2H12Cl6O7
_symmetry_space_group_name_H-M   'P 1'
_cell_length_a   7.26078693
_cell_length_b   7.26078693
_cell_length_c   18.73562894
_cell_angle_alpha   75.52670958
_cell_angle_beta   104.47329042
_cell_angle_gamma   112.39969517
_symmetry_Int_Tables_number   1
_chemical_formula_structural   Sn2H12Cl6O7
_chemical_formula_sum   'Sn4 H24 Cl12 O14'
_cell_volume   870.91644385
_cell_formula_units_Z   2
loop_
 _symmetry_equiv_pos_site_id
 _symmetry_equiv_pos_as_xyz
  1  'x, y, z'
loop_
 _atom_site_type_symbol
 _atom_site_label
 _atom_site_symmetry_multiplicity
 _atom_site_fract_x
 _atom_site_fract_y
 _atom_site_fract_z
 _atom_site_occupancy
  Sn  Sn0  1  0.89205181  -0.59499995  0.41961370  1.0
  Sn  Sn1  1  0.40500005  -0.10794819  0.08038630  1.0
  Sn  Sn2  1  1.10794819  0.59499995  0.58038630  1.0
  Sn  Sn3  1  1.59499995  0.10794819  0.91961370  1.0
  H  H4  1  0.85665734  -0.79290609  0.56399027  1.0
  H  H5  1  0.20709391  -0.14334266  0.93600973  1.0
  H  H6  1  1.14334266  0.79290609  0.43600973  1.0
  H  H7  1  1.79290609  0.14334266  0.06399027  1.0
  H  H8  1  1.23014776  0.30802785  0.49853077  1.0
  H  H9  1  1.30802785  0.23014776  0.00146923  1.0
  H  H10  1  0.76985224  -0.30802785  0.50146923  1.0
  H  H11  1  0.69197215  -0.23014776  0.99853077  1.0
  H  H12  1  1.15260899  0.17937464  0.42855477  1.0
  H  H13  1  1.17937464  0.15260899  0.07144523  1.0
  H  H14  1  0.84739101  -0.17937464  0.57144523  1.0
  H  H15  1  0.82062536  -0.15260899  0.92855477  1.0
  H  H16  1  0.11153670  0.02538684  0.33420502  1.0
  H  H17  1  1.02538684  -0.88846330  0.16579498  1.0
  H  H18  1  1.88846330  -0.02538684  0.66579498  1.0
  H  H19  1  0.97461316  0.88846330  0.83420502  1.0
  H  H20  1  1.33549242  0.07885603  0.38143381  1.0
  H  H21  1  1.07885603  0.33549242  0.11856619  1.0
  H  H22  1  0.66450758  -0.07885603  0.61856619  1.0
  H  H23  1  0.92114397  -0.33549242  0.88143381  1.0
  H  H24  1  0.82135092  -0.04460718  0.24456756  1.0
  H  H25  1  0.95539282  -0.17864908  0.25543244  1.0
  H  H26  1  1.17864908  0.04460718  0.75543244  1.0
  H  H27  1  1.04460718  0.17864908  0.74456756  1.0
  Cl  Cl28  1  0.63513446  -0.43617021  0.39281509  1.0
  Cl  Cl29  1  0.56382979  -0.36486554  0.10718491  1.0
  Cl  Cl30  1  1.36486554  0.43617021  0.60718491  1.0
  Cl  Cl31  1  1.43617021  0.36486554  0.89281509  1.0
  Cl  Cl32  1  0.99244869  0.51586592  0.29885094  1.0
  Cl  Cl33  1  1.51586592  -0.00755131  0.20114906  1.0
  Cl  Cl34  1  1.00755131  -0.51586592  0.70114906  1.0
  Cl  Cl35  1  0.48413408  0.00755131  0.79885094  1.0
  Cl  Cl36  1  1.65136153  0.07593361  0.39969780  1.0
  Cl  Cl37  1  1.07593361  0.65136153  0.10030220  1.0
  Cl  Cl38  1  0.34863847  -0.07593361  0.60030220  1.0
  Cl  Cl39  1  0.92406639  -0.65136153  0.89969780  1.0
  O  O40  1  0.87765571  -0.65214146  0.53526533  1.0
  O  O41  1  0.34785854  -0.12234429  0.96473467  1.0
  O  O42  1  1.12234429  0.65214146  0.46473467  1.0
  O  O43  1  1.65214146  0.12234429  0.03526533  1.0
  O  O44  1  1.11655293  0.25401247  0.45927232  1.0
  O  O45  1  1.25401247  0.11655293  0.04072768  1.0
  O  O46  1  0.88344707  -0.25401247  0.54072768  1.0
  O  O47  1  0.74598753  -0.11655293  0.95927232  1.0
  O  O48  1  1.19201218  0.03548103  0.38579194  1.0
  O  O49  1  1.03548103  0.19201218  0.11420806  1.0
  O  O50  1  0.80798782  -0.03548103  0.61420806  1.0
  O  O51  1  0.96451897  -0.19201218  0.88579194  1.0
  O  O52  1  0.96254560  -0.03745440  0.25000000  1.0
  O  O53  1  1.03745440  0.03745440  0.75000000  1.0
