# generated using pymatgen
data_SNF3
_symmetry_space_group_name_H-M   'P 1'
_cell_length_a   7.75684457
_cell_length_b   6.70392442
_cell_length_c   7.53880739
_cell_angle_alpha   90.00000000
_cell_angle_beta   90.00000000
_cell_angle_gamma   90.00000000
_symmetry_Int_Tables_number   1
_chemical_formula_structural   SNF3
_chemical_formula_sum   'S4 N4 F12'
_cell_volume   392.02778266
_cell_formula_units_Z   4
loop_
 _symmetry_equiv_pos_site_id
 _symmetry_equiv_pos_as_xyz
  1  'x, y, z'
loop_
 _atom_site_type_symbol
 _atom_site_label
 _atom_site_symmetry_multiplicity
 _atom_site_fract_x
 _atom_site_fract_y
 _atom_site_fract_z
 _atom_site_occupancy
  S  S0  1  0.32982931  0.75000000  0.50232684  1.0
  S  S1  1  0.82982931  0.75000000  0.99767316  1.0
  S  S2  1  0.67017069  0.25000000  0.49767316  1.0
  S  S3  1  0.17017069  0.25000000  0.00232684  1.0
  N  N4  1  0.96774311  0.75000000  0.12336728  1.0
  N  N5  1  0.46774311  0.75000000  0.37663272  1.0
  N  N6  1  0.03225689  0.25000000  0.87663272  1.0
  N  N7  1  0.53225689  0.25000000  0.62336728  1.0
  F  F8  1  0.19002083  0.92371473  0.51157860  1.0
  F  F9  1  0.19002083  0.57628527  0.51157860  1.0
  F  F10  1  0.69002083  0.92371473  0.98842140  1.0
  F  F11  1  0.69002083  0.57628527  0.98842140  1.0
  F  F12  1  0.80997917  0.42371473  0.48842140  1.0
  F  F13  1  0.80997917  0.07628527  0.48842140  1.0
  F  F14  1  0.30997917  0.42371473  0.01157860  1.0
  F  F15  1  0.30997917  0.07628527  0.01157860  1.0
  F  F16  1  0.36293753  0.75000000  0.71143883  1.0
  F  F17  1  0.86293753  0.75000000  0.78856117  1.0
  F  F18  1  0.63706247  0.25000000  0.28856117  1.0
  F  F19  1  0.13706247  0.25000000  0.21143883  1.0
