# generated using pymatgen
data_KAlSe2
_symmetry_space_group_name_H-M   'P 1'
_cell_length_a   7.77691336
_cell_length_b   7.77691336
_cell_length_c   15.70832521
_cell_angle_alpha   82.83527602
_cell_angle_beta   97.16472398
_cell_angle_gamma   90.00011945
_symmetry_Int_Tables_number   1
_chemical_formula_structural   KAlSe2
_chemical_formula_sum   'K8 Al8 Se16'
_cell_volume   935.15016520
_cell_formula_units_Z   8
loop_
 _symmetry_equiv_pos_site_id
 _symmetry_equiv_pos_as_xyz
  1  'x, y, z'
loop_
 _atom_site_type_symbol
 _atom_site_label
 _atom_site_symmetry_multiplicity
 _atom_site_fract_x
 _atom_site_fract_y
 _atom_site_fract_z
 _atom_site_occupancy
  K  K0  1  0.65357001  0.22356297  0.61094738  1.0
  K  K1  1  0.77643703  0.34642999  0.11094738  1.0
  K  K2  1  1.22356297  -0.34642999  0.88905262  1.0
  K  K3  1  1.34642999  -0.22356297  0.38905262  1.0
  K  K4  1  0.22460003  0.15127080  0.89140530  1.0
  K  K5  1  0.84872920  0.77539997  0.39140530  1.0
  K  K6  1  1.15127080  -0.77539997  0.60859470  1.0
  K  K7  1  1.77539997  -0.15127080  0.10859470  1.0
  Al  Al8  1  1.70942743  -0.08780232  0.83689744  1.0
  Al  Al9  1  1.08780232  -0.70942743  0.33689744  1.0
  Al  Al10  1  0.91219768  0.70942743  0.66310256  1.0
  Al  Al11  1  0.29057257  0.08780232  0.16310256  1.0
  Al  Al12  1  1.41983097  -0.29049816  0.66274372  1.0
  Al  Al13  1  1.29049816  -0.41983097  0.16274372  1.0
  Al  Al14  1  0.70950184  0.41983097  0.83725628  1.0
  Al  Al15  1  0.58016903  0.29049816  0.33725628  1.0
  Se  Se16  1  1.64215702  -0.26682608  0.56718608  1.0
  Se  Se17  1  1.26682608  -0.64215702  0.06718608  1.0
  Se  Se18  1  0.73317392  0.64215702  0.93281392  1.0
  Se  Se19  1  0.35784298  0.26682608  0.43281392  1.0
  Se  Se20  1  0.73205952  0.14263425  0.92891648  1.0
  Se  Se21  1  0.85736575  0.26794048  0.42891648  1.0
  Se  Se22  1  1.14263425  -0.26794048  0.57108352  1.0
  Se  Se23  1  1.26794048  -0.14263425  0.07108352  1.0
  Se  Se24  1  1.43140813  -0.05546369  0.74948639  1.0
  Se  Se25  1  1.05546369  -0.43140813  0.24948639  1.0
  Se  Se26  1  0.94453631  0.43140813  0.75051361  1.0
  Se  Se27  1  0.56859187  0.05546369  0.25051361  1.0
  Se  Se28  1  0.94426430  0.94426430  0.75000000  1.0
  Se  Se29  1  0.05573570  0.05573570  0.25000000  1.0
  Se  Se30  1  0.43136527  0.43136527  0.75000000  1.0
  Se  Se31  1  0.56863473  0.56863473  0.25000000  1.0
