# generated using pymatgen
data_Cs2MnSe2
_symmetry_space_group_name_H-M   'P 1'
_cell_length_a   8.89781909
_cell_length_b   8.89781909
_cell_length_c   8.89781909
_cell_angle_alpha   129.04518041
_cell_angle_beta   70.29599567
_cell_angle_gamma   135.00982661
_symmetry_Int_Tables_number   1
_chemical_formula_structural   Cs2MnSe2
_chemical_formula_sum   'Cs4 Mn2 Se4'
_cell_volume   379.19489460
_cell_formula_units_Z   2
loop_
 _symmetry_equiv_pos_site_id
 _symmetry_equiv_pos_as_xyz
  1  'x, y, z'
loop_
 _atom_site_type_symbol
 _atom_site_label
 _atom_site_symmetry_multiplicity
 _atom_site_fract_x
 _atom_site_fract_y
 _atom_site_fract_z
 _atom_site_occupancy
  Cs  Cs0  1  0.14663058  0.33038525  0.47701583  1.0
  Cs  Cs1  1  0.35336942  0.83038525  1.18375467  1.0
  Cs  Cs2  1  0.64663058  1.16961475  0.81624533  1.0
  Cs  Cs3  1  0.85336942  0.66961475  0.52298417  1.0
  Mn  Mn4  1  0.25000000  0.25000000  0.00000000  1.0
  Mn  Mn5  1  0.75000000  0.75000000  0.00000000  1.0
  Se  Se6  1  0.40378883  0.32439192  0.72818075  1.0
  Se  Se7  1  0.09621117  0.82439192  0.92060308  1.0
  Se  Se8  1  0.90378883  1.17560808  1.07939692  1.0
  Se  Se9  1  0.59621117  0.67560808  0.27181925  1.0
