# generated using pymatgen
data_Rb2(NbCl3)3
_symmetry_space_group_name_H-M   'P 1'
_cell_length_a   10.17365096
_cell_length_b   10.17365096
_cell_length_c   9.98665138
_cell_angle_alpha   77.17028740
_cell_angle_beta   102.82971260
_cell_angle_gamma   62.13918265
_symmetry_Int_Tables_number   1
_chemical_formula_structural   Rb2(NbCl3)3
_chemical_formula_sum   'Rb4 Nb6 Cl18'
_cell_volume   824.91828821
_cell_formula_units_Z   2
loop_
 _symmetry_equiv_pos_site_id
 _symmetry_equiv_pos_as_xyz
  1  'x, y, z'
loop_
 _atom_site_type_symbol
 _atom_site_label
 _atom_site_symmetry_multiplicity
 _atom_site_fract_x
 _atom_site_fract_y
 _atom_site_fract_z
 _atom_site_occupancy
  Rb  Rb0  1  0.73166289  -0.05176655  0.67850210  1.0
  Rb  Rb1  1  1.05176655  0.26833711  0.67850210  1.0
  Rb  Rb2  1  0.94823345  -0.26833711  0.32149790  1.0
  Rb  Rb3  1  1.26833711  0.05176655  0.32149790  1.0
  Nb  Nb4  1  0.45439858  -0.28575570  0.86082068  1.0
  Nb  Nb5  1  1.28575570  0.54560142  0.86082068  1.0
  Nb  Nb6  1  0.71424430  -0.54560142  0.13917932  1.0
  Nb  Nb7  1  1.54560142  0.28575570  0.13917932  1.0
  Nb  Nb8  1  0.61957098  -0.61957098  0.87858577  1.0
  Nb  Nb9  1  0.38042902  -0.38042902  0.12141423  1.0
  Cl  Cl10  1  0.58617930  -0.38776766  0.69479994  1.0
  Cl  Cl11  1  1.38776766  0.41382070  0.69479994  1.0
  Cl  Cl12  1  0.61223234  -0.41382070  0.30520006  1.0
  Cl  Cl13  1  1.41382070  0.38776766  0.30520006  1.0
  Cl  Cl14  1  0.30748054  -0.10693909  0.97929953  1.0
  Cl  Cl15  1  1.10693909  0.69251946  0.97929953  1.0
  Cl  Cl16  1  0.89306091  -0.69251946  0.02070047  1.0
  Cl  Cl17  1  1.69251946  0.10693909  0.02070047  1.0
  Cl  Cl18  1  1.39445383  -0.01393278  0.68162666  1.0
  Cl  Cl19  1  1.01393278  -0.39445383  0.68162666  1.0
  Cl  Cl20  1  0.98606722  0.39445383  0.31837334  1.0
  Cl  Cl21  1  0.60554617  0.01393278  0.31837334  1.0
  Cl  Cl22  1  0.80774159  -0.80774159  0.32636283  1.0
  Cl  Cl23  1  0.19225841  -0.19225841  0.67363717  1.0
  Cl  Cl24  1  0.76897524  -0.76897524  0.72943897  1.0
  Cl  Cl25  1  0.23102476  -0.23102476  0.27056103  1.0
  Cl  Cl26  1  0.69905414  -0.30094586  -0.00000000  1.0
  Cl  Cl27  1  1.30094586  0.30094586  -0.00000000  1.0
