# generated using pymatgen
data_K2Mn(SeO3)2
_symmetry_space_group_name_H-M   'P 1'
_cell_length_a   7.12368971
_cell_length_b   7.12368971
_cell_length_c   7.12368971
_cell_angle_alpha   47.02756541
_cell_angle_beta   47.02756541
_cell_angle_gamma   47.02756541
_symmetry_Int_Tables_number   1
_chemical_formula_structural   K2Mn(SeO3)2
_chemical_formula_sum   'K2 Mn1 Se2 O6'
_cell_volume   176.92267142
_cell_formula_units_Z   1
loop_
 _symmetry_equiv_pos_site_id
 _symmetry_equiv_pos_as_xyz
  1  'x, y, z'
loop_
 _atom_site_type_symbol
 _atom_site_label
 _atom_site_symmetry_multiplicity
 _atom_site_fract_x
 _atom_site_fract_y
 _atom_site_fract_z
 _atom_site_occupancy
  K  K0  1  0.80440140  0.80440140  0.80440140  1.0
  K  K1  1  1.19559860  1.19559860  0.19559860  1.0
  Mn  Mn2  1  0.00000000  0.00000000  0.00000000  1.0
  Se  Se3  1  1.62853188  0.62853188  0.62853188  1.0
  Se  Se4  1  1.37146812  0.37146812  0.37146812  1.0
  O  O5  1  1.24923939  0.24923939  0.72846917  1.0
  O  O6  1  1.24923939  0.72846917  0.24923939  1.0
  O  O7  1  1.27153083  0.75076061  0.75076061  1.0
  O  O8  1  1.75076061  0.27153083  0.75076061  1.0
  O  O9  1  1.75076061  0.75076061  0.27153083  1.0
  O  O10  1  1.72846917  0.24923939  0.24923939  1.0
