# generated using pymatgen
data_C6INF4
_symmetry_space_group_name_H-M   'P 1'
_cell_length_a   13.08761374
_cell_length_b   13.08761374
_cell_length_c   12.09448017
_cell_angle_alpha   78.14084319
_cell_angle_beta   101.85915681
_cell_angle_gamma   154.45098048
_symmetry_Int_Tables_number   1
_chemical_formula_structural   C6INF4
_chemical_formula_sum   'C24 I4 N4 F16'
_cell_volume   873.38917909
_cell_formula_units_Z   4
loop_
 _symmetry_equiv_pos_site_id
 _symmetry_equiv_pos_as_xyz
  1  'x, y, z'
loop_
 _atom_site_type_symbol
 _atom_site_label
 _atom_site_symmetry_multiplicity
 _atom_site_fract_x
 _atom_site_fract_y
 _atom_site_fract_z
 _atom_site_occupancy
  C  C0  1  1.67920637  -0.21498464  0.82295213  1.0
  C  C1  1  1.21498464  -0.67920637  0.32295213  1.0
  C  C2  1  0.78501536  -0.32079363  0.67704787  1.0
  C  C3  1  1.32079363  0.21498464  0.17704787  1.0
  C  C4  1  1.51564369  -0.36939982  0.73357237  1.0
  C  C5  1  1.36939982  -0.51564369  0.23357237  1.0
  C  C6  1  0.63060018  -0.48435631  0.76642763  1.0
  C  C7  1  1.48435631  0.36939982  0.26642763  1.0
  C  C8  1  1.79966235  -0.01395133  0.82609554  1.0
  C  C9  1  1.01395133  -0.79966235  0.32609554  1.0
  C  C10  1  0.98604867  -0.20033765  0.67390446  1.0
  C  C11  1  1.20033765  0.01395133  0.17390446  1.0
  C  C12  1  1.48196960  -0.31047207  0.64700102  1.0
  C  C13  1  1.31047207  -0.48196960  0.14700102  1.0
  C  C14  1  0.68952793  -0.51803040  0.85299898  1.0
  C  C15  1  1.51803040  0.31047207  0.35299898  1.0
  C  C16  1  1.76483804  0.04246728  0.73932326  1.0
  C  C17  1  0.95753272  -0.76483804  0.23932326  1.0
  C  C18  1  1.04246728  -0.23516196  0.76067674  1.0
  C  C19  1  1.23516196  -0.04246728  0.26067674  1.0
  C  C20  1  1.60634057  -0.10703032  0.64886738  1.0
  C  C21  1  1.10703032  -0.60634057  0.14886738  1.0
  C  C22  1  0.89296968  -0.39365943  0.85113262  1.0
  C  C23  1  1.39365943  0.10703032  0.35113262  1.0
  I  I24  1  1.34236186  -0.05787062  0.75414861  1.0
  I  I25  1  1.05787062  -0.34236186  0.25414861  1.0
  I  I26  1  0.94212938  -0.65763814  0.74585139  1.0
  I  I27  1  1.65763814  0.05787062  0.24585139  1.0
  N  N28  1  1.39825543  0.34818930  0.76268095  1.0
  N  N29  1  0.65181070  -0.39825543  0.26268095  1.0
  N  N30  1  1.34818930  -0.60174457  0.73731905  1.0
  N  N31  1  1.60174457  -0.34818930  0.23731905  1.0
  F  F32  1  1.71177730  -0.26706734  0.91107768  1.0
  F  F33  1  1.26706734  -0.71177730  0.41107768  1.0
  F  F34  1  0.73293266  -0.28822270  0.58892232  1.0
  F  F35  1  1.28822270  0.26706734  0.08892232  1.0
  F  F36  1  1.87538976  0.05007209  0.41529238  1.0
  F  F37  1  0.94992791  -0.87538976  0.91529238  1.0
  F  F38  1  1.05007209  -0.12461024  0.08470762  1.0
  F  F39  1  1.12461024  -0.05007209  0.58470762  1.0
  F  F40  1  1.56796851  -0.05876065  0.56305162  1.0
  F  F41  1  1.05876065  -0.56796851  0.06305162  1.0
  F  F42  1  0.94123935  -0.43203149  0.93694838  1.0
  F  F43  1  1.43203149  0.05876065  0.43694838  1.0
  F  F44  1  1.54584491  0.32648416  0.94022463  1.0
  F  F45  1  0.67351584  -0.54584491  0.44022463  1.0
  F  F46  1  1.32648416  -0.45415509  0.55977537  1.0
  F  F47  1  1.45415509  -0.32648416  0.05977537  1.0
