# generated using pymatgen
data_Ba3CoRu2O9
_symmetry_space_group_name_H-M   'P 1'
_cell_length_a   5.78291501
_cell_length_b   5.78291501
_cell_length_c   14.22788250
_cell_angle_alpha   90.00000000
_cell_angle_beta   90.00000000
_cell_angle_gamma   120.00000000
_symmetry_Int_Tables_number   1
_chemical_formula_structural   Ba3CoRu2O9
_chemical_formula_sum   'Ba6 Co2 Ru4 O18'
_cell_volume   412.06385527
_cell_formula_units_Z   2
loop_
 _symmetry_equiv_pos_site_id
 _symmetry_equiv_pos_as_xyz
  1  'x, y, z'
loop_
 _atom_site_type_symbol
 _atom_site_label
 _atom_site_symmetry_multiplicity
 _atom_site_fract_x
 _atom_site_fract_y
 _atom_site_fract_z
 _atom_site_occupancy
  Ba  Ba0  1  0.33333333  0.66666667  0.41050992  1.0
  Ba  Ba1  1  0.33333333  0.66666667  0.08949008  1.0
  Ba  Ba2  1  0.66666667  0.33333333  0.91050992  1.0
  Ba  Ba3  1  0.66666667  0.33333333  0.58949008  1.0
  Ba  Ba4  1  0.00000000  0.00000000  0.25000000  1.0
  Ba  Ba5  1  0.00000000  0.00000000  0.75000000  1.0
  Co  Co6  1  0.00000000  0.00000000  0.50000000  1.0
  Co  Co7  1  0.00000000  0.00000000  0.00000000  1.0
  Ru  Ru8  1  0.33333333  0.66666667  0.84671763  1.0
  Ru  Ru9  1  0.33333333  0.66666667  0.65328237  1.0
  Ru  Ru10  1  0.66666667  0.33333333  0.34671763  1.0
  Ru  Ru11  1  0.66666667  0.33333333  0.15328237  1.0
  O  O12  1  0.16833348  0.83166652  0.91917675  1.0
  O  O13  1  0.16833348  0.83166652  0.58082325  1.0
  O  O14  1  0.16833348  0.33666696  0.91917675  1.0
  O  O15  1  0.16833348  0.33666696  0.58082325  1.0
  O  O16  1  0.83166652  0.16833348  0.41917675  1.0
  O  O17  1  0.83166652  0.16833348  0.08082325  1.0
  O  O18  1  0.83166652  0.66333304  0.41917675  1.0
  O  O19  1  0.83166652  0.66333304  0.08082325  1.0
  O  O20  1  0.66333304  0.83166652  0.91917675  1.0
  O  O21  1  0.66333304  0.83166652  0.58082325  1.0
  O  O22  1  0.33666696  0.16833348  0.41917675  1.0
  O  O23  1  0.33666696  0.16833348  0.08082325  1.0
  O  O24  1  0.51530927  0.48469073  0.25000000  1.0
  O  O25  1  0.51530927  0.03061853  0.25000000  1.0
  O  O26  1  0.48469073  0.51530927  0.75000000  1.0
  O  O27  1  0.48469073  0.96938147  0.75000000  1.0
  O  O28  1  0.96938147  0.48469073  0.25000000  1.0
  O  O29  1  0.03061853  0.51530927  0.75000000  1.0
