# generated using pymatgen
data_K3BiO3
_symmetry_space_group_name_H-M   'P 1'
_cell_length_a   9.39704675
_cell_length_b   9.39704675
_cell_length_c   9.39704675
_cell_angle_alpha   109.47122063
_cell_angle_beta   109.47122063
_cell_angle_gamma   109.47122063
_symmetry_Int_Tables_number   1
_chemical_formula_structural   K3BiO3
_chemical_formula_sum   'K12 Bi4 O12'
_cell_volume   638.78141433
_cell_formula_units_Z   4
loop_
 _symmetry_equiv_pos_site_id
 _symmetry_equiv_pos_as_xyz
  1  'x, y, z'
loop_
 _atom_site_type_symbol
 _atom_site_label
 _atom_site_symmetry_multiplicity
 _atom_site_fract_x
 _atom_site_fract_y
 _atom_site_fract_z
 _atom_site_occupancy
  K  K0  1  0.24494841  0.51507406  0.51507406  1.0
  K  K1  1  0.51507406  0.24494841  0.51507406  1.0
  K  K2  1  1.00000000  0.72987435  1.48492594  1.0
  K  K3  1  0.72987435  1.00000000  1.48492594  1.0
  K  K4  1  0.51507406  0.51507406  0.24494841  1.0
  K  K5  1  1.27012565  1.27012565  0.75505159  1.0
  K  K6  1  1.00000000  1.48492594  0.72987435  1.0
  K  K7  1  1.27012565  0.75505159  1.27012565  1.0
  K  K8  1  0.75505159  1.27012565  1.27012565  1.0
  K  K9  1  1.48492594  1.00000000  0.72987435  1.0
  K  K10  1  0.72987435  1.48492594  1.00000000  1.0
  K  K11  1  1.48492594  0.72987435  1.00000000  1.0
  Bi  Bi12  1  0.70339734  0.70339734  0.70339734  1.0
  Bi  Bi13  1  1.00000000  1.00000000  0.29660266  1.0
  Bi  Bi14  1  1.00000000  0.29660266  1.00000000  1.0
  Bi  Bi15  1  0.29660266  1.00000000  1.00000000  1.0
  O  O16  1  0.73739020  0.52807933  0.52807933  1.0
  O  O17  1  0.52807933  0.73739020  0.52807933  1.0
  O  O18  1  1.00000000  1.20931087  0.47192067  1.0
  O  O19  1  1.20931087  1.00000000  0.47192067  1.0
  O  O20  1  0.52807933  0.52807933  0.73739020  1.0
  O  O21  1  0.79068913  0.79068913  0.26260980  1.0
  O  O22  1  1.00000000  0.47192067  1.20931087  1.0
  O  O23  1  0.79068913  0.26260980  0.79068913  1.0
  O  O24  1  0.26260980  0.79068913  0.79068913  1.0
  O  O25  1  0.47192067  1.00000000  1.20931087  1.0
  O  O26  1  1.20931087  0.47192067  1.00000000  1.0
  O  O27  1  0.47192067  1.20931087  1.00000000  1.0
