# generated using pymatgen
data_CeGa3Cu
_symmetry_space_group_name_H-M   'P 1'
_cell_length_a   8.11917435
_cell_length_b   8.11917435
_cell_length_c   8.11917435
_cell_angle_alpha   153.97280375
_cell_angle_beta   153.97280375
_cell_angle_gamma   37.13913489
_symmetry_Int_Tables_number   1
_chemical_formula_structural   CeGa3Cu
_chemical_formula_sum   'Ce1 Ga3 Cu1'
_cell_volume   102.90675325
_cell_formula_units_Z   1
loop_
 _symmetry_equiv_pos_site_id
 _symmetry_equiv_pos_as_xyz
  1  'x, y, z'
loop_
 _atom_site_type_symbol
 _atom_site_label
 _atom_site_symmetry_multiplicity
 _atom_site_fract_x
 _atom_site_fract_y
 _atom_site_fract_z
 _atom_site_occupancy
  Ce  Ce0  1  0.18630625  0.18630625  -0.00000000  1.0
  Ga  Ga1  1  0.85317308  0.35317308  0.50000000  1.0
  Ga  Ga2  1  0.35317308  0.85317308  0.50000000  1.0
  Ga  Ga3  1  -0.00511537  -0.00511537  -0.00000000  1.0
  Cu  Cu4  1  0.57026296  0.57026296  1.00000000  1.0
