# generated using pymatgen
data_Sr2In4Pt3
_symmetry_space_group_name_H-M   'P 1'
_cell_length_a   14.89609710
_cell_length_b   14.89609710
_cell_length_c   4.55970073
_cell_angle_alpha   90.00000000
_cell_angle_beta   90.00000000
_cell_angle_gamma   120.00000000
_symmetry_Int_Tables_number   1
_chemical_formula_structural   Sr2In4Pt3
_chemical_formula_sum   'Sr8 In16 Pt12'
_cell_volume   876.21757510
_cell_formula_units_Z   4
loop_
 _symmetry_equiv_pos_site_id
 _symmetry_equiv_pos_as_xyz
  1  'x, y, z'
loop_
 _atom_site_type_symbol
 _atom_site_label
 _atom_site_symmetry_multiplicity
 _atom_site_fract_x
 _atom_site_fract_y
 _atom_site_fract_z
 _atom_site_occupancy
  Sr  Sr0  1  0.18626305  0.18626305  0.50000000  1.0
  Sr  Sr1  1  -0.00000000  0.81373695  0.50000000  1.0
  Sr  Sr2  1  0.81373695  0.00000000  0.50000000  1.0
  Sr  Sr3  1  0.55077138  0.55077138  0.00000000  1.0
  Sr  Sr4  1  -0.00000000  0.44922862  0.00000000  1.0
  Sr  Sr5  1  0.44922862  0.00000000  0.00000000  1.0
  Sr  Sr6  1  0.33333333  0.66666667  0.00000000  1.0
  Sr  Sr7  1  0.66666667  0.33333333  0.00000000  1.0
  In  In8  1  0.12503513  0.64582246  0.50000000  1.0
  In  In9  1  0.64582246  0.12503513  0.50000000  1.0
  In  In10  1  0.52078733  0.87496487  0.50000000  1.0
  In  In11  1  0.35417754  0.47921267  0.50000000  1.0
  In  In12  1  0.87496487  0.52078733  0.50000000  1.0
  In  In13  1  0.47921267  0.35417754  0.50000000  1.0
  In  In14  1  0.19567081  0.81710203  0.00000000  1.0
  In  In15  1  0.81710203  0.19567081  0.00000000  1.0
  In  In16  1  0.62143122  0.80432919  0.00000000  1.0
  In  In17  1  0.18289797  0.37856878  0.00000000  1.0
  In  In18  1  0.80432919  0.62143122  0.00000000  1.0
  In  In19  1  0.37856878  0.18289797  0.00000000  1.0
  In  In20  1  0.72190961  0.72190961  0.50000000  1.0
  In  In21  1  -0.00000000  0.27809039  0.50000000  1.0
  In  In22  1  0.27809039  0.00000000  0.50000000  1.0
  In  In23  1  0.00000000  0.00000000  0.00000000  1.0
  Pt  Pt24  1  0.31423882  0.83074882  0.50000000  1.0
  Pt  Pt25  1  0.83074882  0.31423882  0.50000000  1.0
  Pt  Pt26  1  0.51651000  0.68576118  0.50000000  1.0
  Pt  Pt27  1  0.16925118  0.48349000  0.50000000  1.0
  Pt  Pt28  1  0.68576118  0.51651000  0.50000000  1.0
  Pt  Pt29  1  0.48349000  0.16925118  0.50000000  1.0
  Pt  Pt30  1  0.81943527  0.81943527  0.00000000  1.0
  Pt  Pt31  1  0.00000000  0.18056473  0.00000000  1.0
  Pt  Pt32  1  0.18056473  0.00000000  0.00000000  1.0
  Pt  Pt33  1  0.35073670  0.35073670  0.00000000  1.0
  Pt  Pt34  1  0.00000000  0.64926330  0.00000000  1.0
  Pt  Pt35  1  0.64926330  0.00000000  0.00000000  1.0
