# generated using pymatgen
data_LiPH2O3
_symmetry_space_group_name_H-M   'P 1'
_cell_length_a   11.17837276
_cell_length_b   5.13473197
_cell_length_c   5.26854467
_cell_angle_alpha   90.00000000
_cell_angle_beta   90.00000000
_cell_angle_gamma   90.00000000
_symmetry_Int_Tables_number   1
_chemical_formula_structural   LiPH2O3
_chemical_formula_sum   'Li4 P4 H8 O12'
_cell_volume   302.40365304
_cell_formula_units_Z   4
loop_
 _symmetry_equiv_pos_site_id
 _symmetry_equiv_pos_as_xyz
  1  'x, y, z'
loop_
 _atom_site_type_symbol
 _atom_site_label
 _atom_site_symmetry_multiplicity
 _atom_site_fract_x
 _atom_site_fract_y
 _atom_site_fract_z
 _atom_site_occupancy
  Li  Li0  1  0.42023005  0.50690514  0.13702795  1.0
  Li  Li1  1  0.92023005  0.99309486  0.13702795  1.0
  Li  Li2  1  0.57976995  0.49309486  0.63702795  1.0
  Li  Li3  1  0.07976995  0.00690514  0.63702795  1.0
  P  P4  1  0.34341514  0.80691894  0.62015297  1.0
  P  P5  1  0.84341514  0.69308106  0.62015297  1.0
  P  P6  1  0.65658486  0.19308106  0.12015297  1.0
  P  P7  1  0.15658486  0.30691894  0.12015297  1.0
  H  H8  1  0.36676835  0.06154506  0.53328152  1.0
  H  H9  1  0.86676835  0.43845494  0.53328152  1.0
  H  H10  1  0.63323165  0.93845494  0.03328152  1.0
  H  H11  1  0.13323165  0.56154506  0.03328152  1.0
  H  H12  1  0.33948469  -0.00910860  0.99504912  1.0
  H  H13  1  0.83948469  0.50910860  0.99504912  1.0
  H  H14  1  0.66051531  1.00910860  0.49504912  1.0
  H  H15  1  0.16051531  0.49089140  0.49504912  1.0
  O  O16  1  0.42861239  0.61301093  0.49712481  1.0
  O  O17  1  0.92861239  0.88698907  0.49712481  1.0
  O  O18  1  0.57138761  0.38698907  -0.00287519  1.0
  O  O19  1  0.07138761  0.11301093  -0.00287519  1.0
  O  O20  1  0.37538043  0.82223416  0.91796035  1.0
  O  O21  1  0.87538043  0.67776584  0.91796035  1.0
  O  O22  1  0.62461957  0.17776584  0.41796035  1.0
  O  O23  1  0.12461957  0.32223416  0.41796035  1.0
  O  O24  1  0.20967524  0.75434854  0.58060328  1.0
  O  O25  1  0.70967524  0.74565146  0.58060328  1.0
  O  O26  1  0.79032476  0.24565146  0.08060328  1.0
  O  O27  1  0.29032476  0.25434854  0.08060328  1.0
