# generated using pymatgen
data_CaGe2
_symmetry_space_group_name_H-M   'P 1'
_cell_length_a   10.42732671
_cell_length_b   10.42732671
_cell_length_c   10.42732671
_cell_angle_alpha   22.36013524
_cell_angle_beta   22.36013524
_cell_angle_gamma   22.36013524
_symmetry_Int_Tables_number   1
_chemical_formula_structural   CaGe2
_chemical_formula_sum   'Ca2 Ge4'
_cell_volume   143.90211414
_cell_formula_units_Z   2
loop_
 _symmetry_equiv_pos_site_id
 _symmetry_equiv_pos_as_xyz
  1  'x, y, z'
loop_
 _atom_site_type_symbol
 _atom_site_label
 _atom_site_symmetry_multiplicity
 _atom_site_fract_x
 _atom_site_fract_y
 _atom_site_fract_z
 _atom_site_occupancy
  Ca  Ca0  1  0.91924769  0.91924769  0.91924769  1.0
  Ca  Ca1  1  1.08075231  1.08075231  0.08075231  1.0
  Ge  Ge2  1  0.81494311  0.81494311  0.81494311  1.0
  Ge  Ge3  1  1.18505689  1.18505689  0.18505689  1.0
  Ge  Ge4  1  1.64952519  0.64952519  0.64952519  1.0
  Ge  Ge5  1  1.35047481  0.35047481  0.35047481  1.0
