# generated using pymatgen
data_LaSO
_symmetry_space_group_name_H-M   'P 1'
_cell_length_a   5.95979914
_cell_length_b   5.95575192
_cell_length_c   13.35309862
_cell_angle_alpha   90.00000000
_cell_angle_beta   90.00000000
_cell_angle_gamma   90.00000000
_symmetry_Int_Tables_number   1
_chemical_formula_structural   LaSO
_chemical_formula_sum   'La8 S8 O8'
_cell_volume   473.96937328
_cell_formula_units_Z   8
loop_
 _symmetry_equiv_pos_site_id
 _symmetry_equiv_pos_as_xyz
  1  'x, y, z'
loop_
 _atom_site_type_symbol
 _atom_site_label
 _atom_site_symmetry_multiplicity
 _atom_site_fract_x
 _atom_site_fract_y
 _atom_site_fract_z
 _atom_site_occupancy
  La  La0  1  0.75000145  1.00004358  0.91105070  1.0
  La  La1  1  0.75000145  1.00004358  0.58894930  1.0
  La  La2  1  0.75000145  0.49995642  0.41105070  1.0
  La  La3  1  0.75000145  0.49995642  0.08894930  1.0
  La  La4  1  0.24999855  0.50004358  0.91105070  1.0
  La  La5  1  0.24999855  0.50004358  0.58894930  1.0
  La  La6  1  0.24999855  -0.00004358  0.41105070  1.0
  La  La7  1  0.24999855  -0.00004358  0.08894930  1.0
  S  S8  1  0.37560152  0.87427904  0.75000000  1.0
  S  S9  1  0.37560152  0.62572096  0.25000000  1.0
  S  S10  1  0.62439848  0.37427904  0.75000000  1.0
  S  S11  1  0.62439848  0.12572096  0.25000000  1.0
  S  S12  1  0.87559788  0.62603717  0.75000000  1.0
  S  S13  1  0.87559788  0.87396283  0.25000000  1.0
  S  S14  1  0.12440212  0.12603717  0.75000000  1.0
  S  S15  1  0.12440212  0.37396283  0.25000000  1.0
  O  O16  1  1.00530019  0.75000000  0.00000000  1.0
  O  O17  1  1.00530019  0.75000000  0.50000000  1.0
  O  O18  1  -0.00530019  0.25000000  0.00000000  1.0
  O  O19  1  -0.00530019  0.25000000  0.50000000  1.0
  O  O20  1  0.50532612  0.75000000  0.00000000  1.0
  O  O21  1  0.50532612  0.75000000  0.50000000  1.0
  O  O22  1  0.49467388  0.25000000  0.00000000  1.0
  O  O23  1  0.49467388  0.25000000  0.50000000  1.0
