# generated using pymatgen
data_Zr4Pt2N
_symmetry_space_group_name_H-M   'P 1'
_cell_length_a   8.86494015
_cell_length_b   8.86494015
_cell_length_c   8.86494015
_cell_angle_alpha   60.00000000
_cell_angle_beta   60.00000000
_cell_angle_gamma   60.00000000
_symmetry_Int_Tables_number   1
_chemical_formula_structural   Zr4Pt2N
_chemical_formula_sum   'Zr16 Pt8 N4'
_cell_volume   492.62043759
_cell_formula_units_Z   4
loop_
 _symmetry_equiv_pos_site_id
 _symmetry_equiv_pos_as_xyz
  1  'x, y, z'
loop_
 _atom_site_type_symbol
 _atom_site_label
 _atom_site_symmetry_multiplicity
 _atom_site_fract_x
 _atom_site_fract_y
 _atom_site_fract_z
 _atom_site_occupancy
  Zr  Zr0  1  1.12500000  0.62500000  0.62500000  1.0
  Zr  Zr1  1  0.62500000  1.12500000  -0.37500000  1.0
  Zr  Zr2  1  -0.37500000  0.62500000  1.12500000  1.0
  Zr  Zr3  1  -0.37500000  0.62500000  0.62500000  1.0
  Zr  Zr4  1  0.81814889  0.81814889  -0.81814889  1.0
  Zr  Zr5  1  0.18185111  1.18185111  -0.18185111  1.0
  Zr  Zr6  1  0.81814889  -0.81814889  0.81814889  1.0
  Zr  Zr7  1  0.18185111  -0.18185111  0.18185111  1.0
  Zr  Zr8  1  -0.81814889  0.81814889  0.81814889  1.0
  Zr  Zr9  1  -0.18185111  0.18185111  0.18185111  1.0
  Zr  Zr10  1  0.43185111  1.43185111  0.06814889  1.0
  Zr  Zr11  1  0.06814889  0.06814889  0.43185111  1.0
  Zr  Zr12  1  0.43185111  1.06814889  0.43185111  1.0
  Zr  Zr13  1  0.06814889  1.43185111  0.06814889  1.0
  Zr  Zr14  1  0.06814889  1.43185111  0.43185111  1.0
  Zr  Zr15  1  0.43185111  1.06814889  0.06814889  1.0
  Pt  Pt16  1  -0.21953602  0.40651201  0.40651201  1.0
  Pt  Pt17  1  0.40651201  -0.21953602  0.40651201  1.0
  Pt  Pt18  1  0.40651201  1.40651201  -0.21953602  1.0
  Pt  Pt19  1  0.40651201  1.40651201  0.40651201  1.0
  Pt  Pt20  1  0.46953602  0.84348799  -0.15651201  1.0
  Pt  Pt21  1  0.84348799  0.46953602  0.84348799  1.0
  Pt  Pt22  1  0.84348799  0.84348799  -0.53046398  1.0
  Pt  Pt23  1  0.84348799  0.84348799  0.84348799  1.0
  N  N24  1  0.62500000  1.12500000  0.12500000  1.0
  N  N25  1  0.12500000  1.62500000  0.12500000  1.0
  N  N26  1  0.12500000  0.12500000  1.62500000  1.0
  N  N27  1  0.12500000  0.12500000  0.12500000  1.0
