# generated using pymatgen
data_Na4CdP2
_symmetry_space_group_name_H-M   'P 1'
_cell_length_a   9.07163399
_cell_length_b   9.07163399
_cell_length_c   9.07163399
_cell_angle_alpha   32.21725895
_cell_angle_beta   32.21725895
_cell_angle_gamma   32.21725895
_symmetry_Int_Tables_number   1
_chemical_formula_structural   Na4CdP2
_chemical_formula_sum   'Na4 Cd1 P2'
_cell_volume   188.59409511
_cell_formula_units_Z   1
loop_
 _symmetry_equiv_pos_site_id
 _symmetry_equiv_pos_as_xyz
  1  'x, y, z'
loop_
 _atom_site_type_symbol
 _atom_site_label
 _atom_site_symmetry_multiplicity
 _atom_site_fract_x
 _atom_site_fract_y
 _atom_site_fract_z
 _atom_site_occupancy
  Na  Na0  1  0.79311479  -0.20688521  -0.20688521  1.0
  Na  Na1  1  0.20688521  0.20688521  0.20688521  1.0
  Na  Na2  1  0.59344998  0.59344998  -0.40655002  1.0
  Na  Na3  1  0.40655002  0.40655002  -0.59344998  1.0
  Cd  Cd4  1  0.00000000  0.00000000  0.00000000  1.0
  P  P5  1  0.90623649  -0.09376351  -0.09376351  1.0
  P  P6  1  0.09376351  0.09376351  0.09376351  1.0
