# generated using pymatgen
data_Si19Te8
_symmetry_space_group_name_H-M   'P 1'
_cell_length_a   10.55834030
_cell_length_b   10.55834030
_cell_length_c   10.55834030
_cell_angle_alpha   89.59749919
_cell_angle_beta   89.59749919
_cell_angle_gamma   89.59749919
_symmetry_Int_Tables_number   1
_chemical_formula_structural   Si19Te8
_chemical_formula_sum   'Si38 Te16'
_cell_volume   1176.94174190
_cell_formula_units_Z   2
loop_
 _symmetry_equiv_pos_site_id
 _symmetry_equiv_pos_as_xyz
  1  'x, y, z'
loop_
 _atom_site_type_symbol
 _atom_site_label
 _atom_site_symmetry_multiplicity
 _atom_site_fract_x
 _atom_site_fract_y
 _atom_site_fract_z
 _atom_site_occupancy
  Si  Si0  1  1.37050876  1.03179825  0.23627101  1.0
  Si  Si1  1  0.87050876  0.73627101  -0.46820175  1.0
  Si  Si2  1  0.53179825  0.87050876  -0.26372899  1.0
  Si  Si3  1  1.03179825  1.23627101  0.37050876  1.0
  Si  Si4  1  0.73627101  0.53179825  -0.12949124  1.0
  Si  Si5  1  1.23627101  1.37050876  0.03179825  1.0
  Si  Si6  1  0.31635625  0.68471380  -0.76652710  1.0
  Si  Si7  1  0.81635625  -0.26652710  0.18471380  1.0
  Si  Si8  1  1.18471380  -0.18364375  -0.26652710  1.0
  Si  Si9  1  0.68471380  0.23347290  -0.68364375  1.0
  Si  Si10  1  0.73347290  0.18471380  -0.18364375  1.0
  Si  Si11  1  0.23347290  0.31635625  -0.31528620  1.0
  Si  Si12  1  0.92421289  -0.06813217  0.20061830  1.0
  Si  Si13  1  0.42421289  0.70061830  -0.56813217  1.0
  Si  Si14  1  0.43186783  0.42421289  -0.29938170  1.0
  Si  Si15  1  0.93186783  0.20061830  -0.07578711  1.0
  Si  Si16  1  0.70061830  0.43186783  -0.57578711  1.0
  Si  Si17  1  1.20061830  -0.07578711  -0.06813217  1.0
  Si  Si18  1  1.34715024  1.03257666  0.46150442  1.0
  Si  Si19  1  0.84715024  0.96150442  -0.46742334  1.0
  Si  Si20  1  0.53257666  0.84715024  -0.03849558  1.0
  Si  Si21  1  1.03257666  1.46150442  0.34715024  1.0
  Si  Si22  1  0.96150442  0.53257666  -0.15284976  1.0
  Si  Si23  1  1.46150442  1.34715024  0.03257666  1.0
  Si  Si24  1  1.18477465  1.17494001  0.52075711  1.0
  Si  Si25  1  0.68477465  0.02075711  -0.32505999  1.0
  Si  Si26  1  0.67494001  -0.31522535  0.02075711  1.0
  Si  Si27  1  1.17494001  1.52075711  0.18477465  1.0
  Si  Si28  1  1.02075711  -0.32505999  -0.31522535  1.0
  Si  Si29  1  1.52075711  1.18477465  0.17494001  1.0
  Si  Si30  1  0.85928427  0.09205139  -0.65268050  1.0
  Si  Si31  1  0.35928427  0.84731950  -0.40794861  1.0
  Si  Si32  1  0.59205139  0.35928427  -0.15268050  1.0
  Si  Si33  1  1.09205139  -0.65268050  -0.14071573  1.0
  Si  Si34  1  0.84731950  0.59205139  -0.64071573  1.0
  Si  Si35  1  0.34731950  -0.14071573  0.09205139  1.0
  Si  Si36  1  -0.00595699  -0.00595699  -0.00595699  1.0
  Si  Si37  1  0.49404301  0.49404301  -0.50595699  1.0
  Te  Te38  1  0.54155085  0.16839996  -0.46784759  1.0
  Te  Te39  1  1.04155085  1.03215241  0.66839996  1.0
  Te  Te40  1  1.66839996  1.04155085  0.03215241  1.0
  Te  Te41  1  0.16839996  0.53215241  -0.45844915  1.0
  Te  Te42  1  1.03215241  1.66839996  0.04155085  1.0
  Te  Te43  1  0.53215241  0.54155085  -0.83160004  1.0
  Te  Te44  1  0.10465946  0.84091415  -0.65424258  1.0
  Te  Te45  1  0.60465946  0.84575742  -0.65908585  1.0
  Te  Te46  1  0.34091415  0.60465946  -0.15424258  1.0
  Te  Te47  1  0.84091415  0.34575742  -0.89534054  1.0
  Te  Te48  1  0.84575742  0.34091415  -0.39534054  1.0
  Te  Te49  1  0.34575742  0.10465946  -0.15908585  1.0
  Te  Te50  1  1.16263301  1.16263301  0.16263301  1.0
  Te  Te51  1  0.66263301  0.66263301  -0.33736699  1.0
  Te  Te52  1  0.35081148  0.35081148  -0.64918852  1.0
  Te  Te53  1  0.85081148  0.85081148  -0.14918852  1.0
