# generated using pymatgen
data_Na3Mg2(WO4)3
_symmetry_space_group_name_H-M   'P 1'
_cell_length_a   9.15959127
_cell_length_b   9.15959127
_cell_length_c   7.19588924
_cell_angle_alpha   75.54198451
_cell_angle_beta   104.45801549
_cell_angle_gamma   86.27523098
_symmetry_Int_Tables_number   1
_chemical_formula_structural   Na3Mg2(WO4)3
_chemical_formula_sum   'Na6 Mg4 W6 O24'
_cell_volume   560.84719598
_cell_formula_units_Z   2
loop_
 _symmetry_equiv_pos_site_id
 _symmetry_equiv_pos_as_xyz
  1  'x, y, z'
loop_
 _atom_site_type_symbol
 _atom_site_label
 _atom_site_symmetry_multiplicity
 _atom_site_fract_x
 _atom_site_fract_y
 _atom_site_fract_z
 _atom_site_occupancy
  Na  Na0  1  0.50582024  -0.49417976  0.75000000  1.0
  Na  Na1  1  1.49417976  0.49417976  0.25000000  1.0
  Na  Na2  1  1.23496859  0.23496859  0.75000000  1.0
  Na  Na3  1  0.76503141  -0.23496859  0.25000000  1.0
  Na  Na4  1  0.00000000  0.00000000  0.00000000  1.0
  Na  Na5  1  -0.00000000  0.00000000  0.50000000  1.0
  Mg  Mg6  1  1.55384338  0.13062748  0.61918797  1.0
  Mg  Mg7  1  0.86937252  -0.55384338  0.11918797  1.0
  Mg  Mg8  1  1.13062748  0.55384338  0.88081203  1.0
  Mg  Mg9  1  0.44615662  -0.13062748  0.38081203  1.0
  W  W10  1  0.37852890  -0.15538097  0.87909751  1.0
  W  W11  1  1.15538097  0.62147110  0.37909751  1.0
  W  W12  1  0.84461903  -0.62147110  0.62090249  1.0
  W  W13  1  1.62147110  0.15538097  0.12090249  1.0
  W  W14  1  0.78190622  -0.21809378  0.75000000  1.0
  W  W15  1  1.21809378  0.21809378  0.25000000  1.0
  O  O16  1  0.66368010  -0.25614283  0.52788065  1.0
  O  O17  1  1.25614283  0.33631990  0.02788065  1.0
  O  O18  1  0.74385717  -0.33631990  0.97211935  1.0
  O  O19  1  1.33631990  0.25614283  0.47211935  1.0
  O  O20  1  0.75491592  -0.02029903  0.74758894  1.0
  O  O21  1  1.02029903  0.24508408  0.24758894  1.0
  O  O22  1  0.97970097  -0.24508408  0.75241106  1.0
  O  O23  1  1.24508408  0.02029903  0.25241106  1.0
  O  O24  1  0.45951197  -0.09775194  0.66516140  1.0
  O  O25  1  1.09775194  0.54048803  0.16516140  1.0
  O  O26  1  0.90224806  -0.54048803  0.83483860  1.0
  O  O27  1  1.54048803  0.09775194  0.33483860  1.0
  O  O28  1  1.50625887  0.15236013  0.87606719  1.0
  O  O29  1  0.84763987  -0.50625887  0.37606719  1.0
  O  O30  1  1.15236013  0.50625887  0.62393281  1.0
  O  O31  1  0.49374113  -0.15236013  0.12393281  1.0
  O  O32  1  1.64728844  0.33996540  0.59193851  1.0
  O  O33  1  0.66003460  -0.64728844  0.09193851  1.0
  O  O34  1  1.33996540  0.64728844  0.90806149  1.0
  O  O35  1  0.35271156  -0.33996540  0.40806149  1.0
  O  O36  1  0.20530875  -0.03053202  0.81580034  1.0
  O  O37  1  1.03053202  0.79469125  0.31580034  1.0
  O  O38  1  0.96946798  -0.79469125  0.68419966  1.0
  O  O39  1  1.79469125  0.03053202  0.18419966  1.0
