# generated using pymatgen
data_TlTe
_symmetry_space_group_name_H-M   'P 1'
_cell_length_a   9.89938759
_cell_length_b   9.89938759
_cell_length_c   9.89938759
_cell_angle_alpha   95.62654207
_cell_angle_beta   95.62654207
_cell_angle_gamma   143.50532607
_symmetry_Int_Tables_number   1
_chemical_formula_structural   TlTe
_chemical_formula_sum   'Tl8 Te8'
_cell_volume   547.96234161
_cell_formula_units_Z   8
loop_
 _symmetry_equiv_pos_site_id
 _symmetry_equiv_pos_as_xyz
  1  'x, y, z'
loop_
 _atom_site_type_symbol
 _atom_site_label
 _atom_site_symmetry_multiplicity
 _atom_site_fract_x
 _atom_site_fract_y
 _atom_site_fract_z
 _atom_site_occupancy
  Tl  Tl0  1  0.27025146  0.42047959  0.69073106  1.0
  Tl  Tl1  1  1.22974854  0.92047959  1.15022813  1.0
  Tl  Tl2  1  0.92047959  0.77025146  1.69073106  1.0
  Tl  Tl3  1  0.57952041  1.27025146  0.84977187  1.0
  Tl  Tl4  1  0.77025146  1.07952041  0.84977187  1.0
  Tl  Tl5  1  0.72974854  0.57952041  1.30926894  1.0
  Tl  Tl6  1  1.42047959  0.72974854  1.15022813  1.0
  Tl  Tl7  1  0.07952041  0.22974854  0.30926894  1.0
  Te  Te8  1  0.25000000  0.25000000  0.00000000  1.0
  Te  Te9  1  0.75000000  0.75000000  0.00000000  1.0
  Te  Te10  1  0.83848115  0.33848115  1.17696230  1.0
  Te  Te11  1  0.66151885  0.83848115  0.50000000  1.0
  Te  Te12  1  1.33848115  1.16151885  1.50000000  1.0
  Te  Te13  1  0.16151885  0.66151885  0.82303770  1.0
  Te  Te14  1  0.00000000  0.50000000  0.50000000  1.0
  Te  Te15  1  0.50000000  1.00000000  0.50000000  1.0
