# generated using pymatgen
data_SnTe3O8
_symmetry_space_group_name_H-M   'P 1'
_cell_length_a   9.88067613
_cell_length_b   9.88067613
_cell_length_c   9.88067613
_cell_angle_alpha   109.47122063
_cell_angle_beta   109.47122063
_cell_angle_gamma   109.47122063
_symmetry_Int_Tables_number   1
_chemical_formula_structural   SnTe3O8
_chemical_formula_sum   'Sn4 Te12 O32'
_cell_volume   742.57119939
_cell_formula_units_Z   4
loop_
 _symmetry_equiv_pos_site_id
 _symmetry_equiv_pos_as_xyz
  1  'x, y, z'
loop_
 _atom_site_type_symbol
 _atom_site_label
 _atom_site_symmetry_multiplicity
 _atom_site_fract_x
 _atom_site_fract_y
 _atom_site_fract_z
 _atom_site_occupancy
  Sn  Sn0  1  1.00000000  0.50000000  1.00000000  1.0
  Sn  Sn1  1  0.50000000  0.50000000  0.50000000  1.0
  Sn  Sn2  1  1.00000000  1.00000000  1.50000000  1.0
  Sn  Sn3  1  1.50000000  1.00000000  1.00000000  1.0
  Te  Te4  1  0.79417482  0.54417482  0.25000000  1.0
  Te  Te5  1  1.29417482  1.04417482  1.25000000  1.0
  Te  Te6  1  0.75000000  0.70582518  0.95582518  1.0
  Te  Te7  1  1.25000000  1.29417482  1.04417482  1.0
  Te  Te8  1  0.25000000  0.79417482  0.54417482  1.0
  Te  Te9  1  0.75000000  1.20582518  0.45582518  1.0
  Te  Te10  1  0.54417482  1.25000000  0.79417482  1.0
  Te  Te11  1  1.04417482  1.25000000  1.29417482  1.0
  Te  Te12  1  0.95582518  0.75000000  0.70582518  1.0
  Te  Te13  1  1.45582518  0.75000000  1.20582518  1.0
  Te  Te14  1  1.20582518  0.45582518  0.75000000  1.0
  Te  Te15  1  0.70582518  0.95582518  0.75000000  1.0
  O  O16  1  0.56317786  0.52689910  0.73496644  1.0
  O  O17  1  1.06317786  1.32821141  1.03627875  1.0
  O  O18  1  0.29193266  0.82821141  0.76503356  1.0
  O  O19  1  0.79193266  1.02689910  0.46372125  1.0
  O  O20  1  0.53627875  1.20806734  0.97310090  1.0
  O  O21  1  1.03627875  1.06317786  1.32821141  1.0
  O  O22  1  0.73496644  0.56317786  0.52689910  1.0
  O  O23  1  1.23496644  0.70806734  1.17178859  1.0
  O  O24  1  0.82821141  0.76503356  0.29193266  1.0
  O  O25  1  1.32821141  1.03627875  1.06317786  1.0
  O  O26  1  0.97310090  1.53627875  1.20806734  1.0
  O  O27  1  1.47310090  1.26503356  1.43682214  1.0
  O  O28  1  1.70806734  1.17178859  1.23496644  1.0
  O  O29  1  1.20806734  0.97310090  1.53627875  1.0
  O  O30  1  1.43682214  1.47310090  1.26503356  1.0
  O  O31  1  0.93682214  0.67178859  0.96372125  1.0
  O  O32  1  1.26503356  1.43682214  1.47310090  1.0
  O  O33  1  0.76503356  1.29193266  0.82821141  1.0
  O  O34  1  1.46372125  0.79193266  1.02689910  1.0
  O  O35  1  0.96372125  0.93682214  0.67178859  1.0
  O  O36  1  1.02689910  0.46372125  0.79193266  1.0
  O  O37  1  0.52689910  0.73496644  0.56317786  1.0
  O  O38  1  1.17178859  1.23496644  1.70806734  1.0
  O  O39  1  0.67178859  0.96372125  0.93682214  1.0
  O  O40  1  0.66423163  1.50000000  1.00000000  1.0
  O  O41  1  1.16423163  1.16423163  1.16423163  1.0
  O  O42  1  1.00000000  0.66423163  1.50000000  1.0
  O  O43  1  1.50000000  1.00000000  1.33576837  1.0
  O  O44  1  1.00000000  1.33576837  1.50000000  1.0
  O  O45  1  0.50000000  1.00000000  0.66423163  1.0
  O  O46  1  1.33576837  0.50000000  1.00000000  1.0
  O  O47  1  0.83576837  0.83576837  0.83576837  1.0
