# generated using pymatgen
data_Si2N2O
_symmetry_space_group_name_H-M   'P 1'
_cell_length_a   4.70689581
_cell_length_b   4.70689581
_cell_length_c   12.79398039
_cell_angle_alpha   89.90482656
_cell_angle_beta   90.09517344
_cell_angle_gamma   120.45186250
_symmetry_Int_Tables_number   1
_chemical_formula_structural   Si2N2O
_chemical_formula_sum   'Si12 N12 O6'
_cell_volume   244.34821290
_cell_formula_units_Z   6
loop_
 _symmetry_equiv_pos_site_id
 _symmetry_equiv_pos_as_xyz
  1  'x, y, z'
loop_
 _atom_site_type_symbol
 _atom_site_label
 _atom_site_symmetry_multiplicity
 _atom_site_fract_x
 _atom_site_fract_y
 _atom_site_fract_z
 _atom_site_occupancy
  Si  Si0  1  1.00090383  0.00325798  0.85283475  1.0
  Si  Si1  1  0.00325798  0.00090383  0.64716525  1.0
  Si  Si2  1  0.99909617  0.99674202  0.14716525  1.0
  Si  Si3  1  0.99674202  -0.00090383  0.35283475  1.0
  Si  Si4  1  0.68611579  0.33116532  0.81364701  1.0
  Si  Si5  1  0.33116532  -0.31388421  0.68635299  1.0
  Si  Si6  1  1.31388421  0.66883468  0.18635299  1.0
  Si  Si7  1  0.66883468  0.31388421  0.31364701  1.0
  Si  Si8  1  0.68468790  0.32811017  0.51981304  1.0
  Si  Si9  1  0.32811017  -0.31531210  0.98018696  1.0
  Si  Si10  1  1.31531210  0.67188983  0.48018696  1.0
  Si  Si11  1  0.67188983  0.31531210  0.01981304  1.0
  N  N12  1  1.00562805  0.70833707  0.75211364  1.0
  N  N13  1  0.70833707  0.00562805  0.74788636  1.0
  N  N14  1  0.99437195  0.29166293  0.24788636  1.0
  N  N15  1  0.29166293  -0.00562805  0.25211364  1.0
  N  N16  1  0.98005279  0.34041243  0.91699902  1.0
  N  N17  1  0.34041243  -0.01994721  0.58300098  1.0
  N  N18  1  1.01994721  0.65958757  0.08300098  1.0
  N  N19  1  0.65958757  0.01994721  0.41699902  1.0
  N  N20  1  1.04675693  0.37106495  0.58523659  1.0
  N  N21  1  0.37106495  0.04675693  0.91476341  1.0
  N  N22  1  0.95324307  0.62893505  0.41476341  1.0
  N  N23  1  0.62893505  -0.04675693  0.08523659  1.0
  O  O24  1  0.66683781  0.65467536  0.91823142  1.0
  O  O25  1  0.65467536  -0.33316219  0.58176858  1.0
  O  O26  1  1.33316219  0.34532464  0.08176858  1.0
  O  O27  1  0.34532464  0.33316219  0.41823142  1.0
  O  O28  1  0.33162949  0.33162949  0.75000000  1.0
  O  O29  1  0.66837051  0.66837051  0.25000000  1.0
