# generated using pymatgen
data_LiBH7N
_symmetry_space_group_name_H-M   'P 1'
_cell_length_a   5.88860598
_cell_length_b   4.45306609
_cell_length_c   14.40023939
_cell_angle_alpha   90.00000000
_cell_angle_beta   90.00000000
_cell_angle_gamma   90.00000000
_symmetry_Int_Tables_number   1
_chemical_formula_structural   LiBH7N
_chemical_formula_sum   'Li4 B4 H28 N4'
_cell_volume   377.60813981
_cell_formula_units_Z   4
loop_
 _symmetry_equiv_pos_site_id
 _symmetry_equiv_pos_as_xyz
  1  'x, y, z'
loop_
 _atom_site_type_symbol
 _atom_site_label
 _atom_site_symmetry_multiplicity
 _atom_site_fract_x
 _atom_site_fract_y
 _atom_site_fract_z
 _atom_site_occupancy
  Li  Li0  1  0.87785585  0.75000000  0.07277579  1.0
  Li  Li1  1  0.37785585  0.75000000  0.42722421  1.0
  Li  Li2  1  0.12214415  0.25000000  0.92722421  1.0
  Li  Li3  1  0.62214415  0.25000000  0.57277579  1.0
  B  B4  1  0.42309058  0.75000000  0.59812264  1.0
  B  B5  1  0.92309058  0.75000000  0.90187736  1.0
  B  B6  1  0.57690942  0.25000000  0.40187736  1.0
  B  B7  1  0.07690942  0.25000000  0.09812264  1.0
  H  H8  1  0.56838850  0.47196715  0.35193209  1.0
  H  H9  1  0.56838850  0.02803285  0.35193209  1.0
  H  H10  1  0.06838850  0.47196715  0.14806791  1.0
  H  H11  1  0.06838850  0.02803285  0.14806791  1.0
  H  H12  1  0.43161150  0.97196715  0.64806791  1.0
  H  H13  1  0.43161150  0.52803285  0.64806791  1.0
  H  H14  1  0.93161150  0.97196715  0.85193209  1.0
  H  H15  1  0.93161150  0.52803285  0.85193209  1.0
  H  H16  1  0.47646673  0.93180179  0.12997608  1.0
  H  H17  1  0.47646673  0.56819821  0.12997608  1.0
  H  H18  1  -0.02353327  0.93180179  0.37002392  1.0
  H  H19  1  -0.02353327  0.56819821  0.37002392  1.0
  H  H20  1  0.52353327  0.43180179  0.87002392  1.0
  H  H21  1  0.52353327  0.06819821  0.87002392  1.0
  H  H22  1  1.02353327  0.43180179  0.62997608  1.0
  H  H23  1  1.02353327  0.06819821  0.62997608  1.0
  H  H24  1  0.60392589  0.75000000  0.21354377  1.0
  H  H25  1  0.10392589  0.75000000  0.28645623  1.0
  H  H26  1  0.39607411  0.25000000  0.78645623  1.0
  H  H27  1  0.89607411  0.25000000  0.71354377  1.0
  H  H28  1  0.58562787  0.75000000  0.54408586  1.0
  H  H29  1  0.08562787  0.75000000  0.95591414  1.0
  H  H30  1  0.41437213  0.25000000  0.45591414  1.0
  H  H31  1  0.91437213  0.25000000  0.04408586  1.0
  H  H32  1  0.24304281  0.75000000  0.55481894  1.0
  H  H33  1  0.74304281  0.75000000  0.94518106  1.0
  H  H34  1  0.75695719  0.25000000  0.44518106  1.0
  H  H35  1  0.25695719  0.25000000  0.05481894  1.0
  N  N36  1  0.57795903  0.75000000  0.14325591  1.0
  N  N37  1  0.07795903  0.75000000  0.35674409  1.0
  N  N38  1  0.42204097  0.25000000  0.85674409  1.0
  N  N39  1  0.92204097  0.25000000  0.64325591  1.0
