# generated using pymatgen
data_CsCoF3
_symmetry_space_group_name_H-M   'P 1'
_cell_length_a   8.32378461
_cell_length_b   8.32378461
_cell_length_c   8.32378461
_cell_angle_alpha   44.38726636
_cell_angle_beta   44.38726636
_cell_angle_gamma   44.38726636
_symmetry_Int_Tables_number   1
_chemical_formula_structural   CsCoF3
_chemical_formula_sum   'Cs3 Co3 F9'
_cell_volume   256.51353779
_cell_formula_units_Z   3
loop_
 _symmetry_equiv_pos_site_id
 _symmetry_equiv_pos_as_xyz
  1  'x, y, z'
loop_
 _atom_site_type_symbol
 _atom_site_label
 _atom_site_symmetry_multiplicity
 _atom_site_fract_x
 _atom_site_fract_y
 _atom_site_fract_z
 _atom_site_occupancy
  Cs  Cs0  1  0.78483396  0.78483396  0.78483396  1.0
  Cs  Cs1  1  1.21516604  1.21516604  0.21516604  1.0
  Cs  Cs2  1  0.00000000  0.00000000  0.00000000  1.0
  Co  Co3  1  1.61990118  0.61990118  0.61990118  1.0
  Co  Co4  1  1.38009882  0.38009882  0.38009882  1.0
  Co  Co5  1  1.50000000  0.50000000  0.50000000  1.0
  F  F6  1  1.29739498  0.29739498  0.72866602  1.0
  F  F7  1  1.29739498  0.72866602  0.29739498  1.0
  F  F8  1  1.27133398  0.70260502  0.70260502  1.0
  F  F9  1  1.70260502  0.27133398  0.70260502  1.0
  F  F10  1  1.70260502  0.70260502  0.27133398  1.0
  F  F11  1  1.72866602  0.29739498  0.29739498  1.0
  F  F12  1  0.50000000  -0.00000000  -0.50000000  1.0
  F  F13  1  0.50000000  -0.50000000  -0.00000000  1.0
  F  F14  1  -0.00000000  0.50000000  -0.50000000  1.0
