# generated using pymatgen
data_SrZrO3
_symmetry_space_group_name_H-M   'P 1'
_cell_length_a   8.34447097
_cell_length_b   8.34447097
_cell_length_c   8.34447097
_cell_angle_alpha   90.00000000
_cell_angle_beta   90.00000000
_cell_angle_gamma   90.00000000
_symmetry_Int_Tables_number   1
_chemical_formula_structural   SrZrO3
_chemical_formula_sum   'Sr8 Zr8 O24'
_cell_volume   581.02714713
_cell_formula_units_Z   8
loop_
 _symmetry_equiv_pos_site_id
 _symmetry_equiv_pos_as_xyz
  1  'x, y, z'
loop_
 _atom_site_type_symbol
 _atom_site_label
 _atom_site_symmetry_multiplicity
 _atom_site_fract_x
 _atom_site_fract_y
 _atom_site_fract_z
 _atom_site_occupancy
  Sr  Sr0  1  0.48994763  -0.01005237  0.51005237  1.0
  Sr  Sr1  1  -0.01005237  0.51005237  0.48994763  1.0
  Sr  Sr2  1  0.51005237  0.48994763  -0.01005237  1.0
  Sr  Sr3  1  0.01005237  0.01005237  0.01005237  1.0
  Sr  Sr4  1  -0.01021370  0.48978630  0.01021370  1.0
  Sr  Sr5  1  0.48978630  0.01021370  -0.01021370  1.0
  Sr  Sr6  1  0.01021370  -0.01021370  0.48978630  1.0
  Sr  Sr7  1  0.51021370  0.51021370  0.51021370  1.0
  Zr  Zr8  1  0.24866041  0.74866041  0.75133959  1.0
  Zr  Zr9  1  0.74866041  0.75133959  0.24866041  1.0
  Zr  Zr10  1  0.75133959  0.24866041  0.74866041  1.0
  Zr  Zr11  1  0.25133959  0.25133959  0.25133959  1.0
  Zr  Zr12  1  0.74857343  0.24857343  0.25142657  1.0
  Zr  Zr13  1  0.24857343  0.25142657  0.74857343  1.0
  Zr  Zr14  1  0.25142657  0.74857343  0.24857343  1.0
  Zr  Zr15  1  0.75142657  0.75142657  0.75142657  1.0
  O  O16  1  0.50005753  0.75008171  0.74137086  1.0
  O  O17  1  0.00005753  0.74991829  0.25862914  1.0
  O  O18  1  0.25008171  0.75862914  0.49994247  1.0
  O  O19  1  0.75008171  0.74137086  0.50005753  1.0
  O  O20  1  0.25862914  0.00005753  0.74991829  1.0
  O  O21  1  0.75862914  0.49994247  0.25008171  1.0
  O  O22  1  0.49994247  0.25008171  0.75862914  1.0
  O  O23  1  -0.00005753  0.24991829  0.24137086  1.0
  O  O24  1  0.74991829  0.25862914  0.00005753  1.0
  O  O25  1  0.24991829  0.24137086  -0.00005753  1.0
  O  O26  1  0.74137086  0.50005753  0.75008171  1.0
  O  O27  1  0.24137086  -0.00005753  0.24991829  1.0
  O  O28  1  0.25011815  0.75919458  -0.00005326  1.0
  O  O29  1  0.75011815  0.74080542  0.00005326  1.0
  O  O30  1  0.25919458  0.50005326  0.74988185  1.0
  O  O31  1  0.75919458  -0.00005326  0.25011815  1.0
  O  O32  1  0.00005326  0.75011815  0.74080542  1.0
  O  O33  1  0.50005326  0.74988185  0.25919458  1.0
  O  O34  1  0.74988185  0.25919458  0.50005326  1.0
  O  O35  1  0.24988185  0.24080542  0.49994674  1.0
  O  O36  1  0.74080542  0.00005326  0.75011815  1.0
  O  O37  1  0.24080542  0.49994674  0.24988185  1.0
  O  O38  1  -0.00005326  0.25011815  0.75919458  1.0
  O  O39  1  0.49994674  0.24988185  0.24080542  1.0
