# generated using pymatgen
data_Na5ReO6
_symmetry_space_group_name_H-M   'P 1'
_cell_length_a   5.70644641
_cell_length_b   5.70644641
_cell_length_c   5.67870076
_cell_angle_alpha   79.62579943
_cell_angle_beta   100.37420057
_cell_angle_gamma   60.59565648
_symmetry_Int_Tables_number   1
_chemical_formula_structural   Na5ReO6
_chemical_formula_sum   'Na5 Re1 O6'
_cell_volume   150.48461285
_cell_formula_units_Z   1
loop_
 _symmetry_equiv_pos_site_id
 _symmetry_equiv_pos_as_xyz
  1  'x, y, z'
loop_
 _atom_site_type_symbol
 _atom_site_label
 _atom_site_symmetry_multiplicity
 _atom_site_fract_x
 _atom_site_fract_y
 _atom_site_fract_z
 _atom_site_occupancy
  Na  Na0  1  0.67026916  -0.32973084  0.50000000  1.0
  Na  Na1  1  1.32973084  0.32973084  0.50000000  1.0
  Na  Na2  1  0.83346341  -0.16653659  0.00000000  1.0
  Na  Na3  1  1.16653659  0.16653659  0.00000000  1.0
  Na  Na4  1  0.00000000  -0.00000000  0.50000000  1.0
  Re  Re5  1  0.50000000  -0.50000000  0.00000000  1.0
  O  O6  1  0.43071603  -0.15608842  0.78720625  1.0
  O  O7  1  1.15608842  0.56928397  0.78720625  1.0
  O  O8  1  0.84391158  -0.56928397  0.21279375  1.0
  O  O9  1  1.56928397  0.15608842  0.21279375  1.0
  O  O10  1  0.70184218  -0.70184218  0.79949980  1.0
  O  O11  1  0.29815782  -0.29815782  0.20050020  1.0
