# generated using pymatgen
data_Y2InPt2
_symmetry_space_group_name_H-M   'P 1'
_cell_length_a   7.79496773
_cell_length_b   7.79496773
_cell_length_c   3.67095803
_cell_angle_alpha   90.00000000
_cell_angle_beta   90.00000000
_cell_angle_gamma   90.00000000
_symmetry_Int_Tables_number   1
_chemical_formula_structural   Y2InPt2
_chemical_formula_sum   'Y4 In2 Pt4'
_cell_volume   223.05299701
_cell_formula_units_Z   2
loop_
 _symmetry_equiv_pos_site_id
 _symmetry_equiv_pos_as_xyz
  1  'x, y, z'
loop_
 _atom_site_type_symbol
 _atom_site_label
 _atom_site_symmetry_multiplicity
 _atom_site_fract_x
 _atom_site_fract_y
 _atom_site_fract_z
 _atom_site_occupancy
  Y  Y0  1  0.32973393  0.17026607  0.50000000  1.0
  Y  Y1  1  0.82973393  0.32973393  0.50000000  1.0
  Y  Y2  1  0.67026607  0.82973393  0.50000000  1.0
  Y  Y3  1  0.17026607  0.67026607  0.50000000  1.0
  In  In4  1  0.50000000  0.50000000  0.00000000  1.0
  In  In5  1  0.00000000  0.00000000  0.00000000  1.0
  Pt  Pt6  1  0.87020399  0.62979601  0.00000000  1.0
  Pt  Pt7  1  0.37020399  0.87020399  0.00000000  1.0
  Pt  Pt8  1  0.12979601  0.37020399  0.00000000  1.0
  Pt  Pt9  1  0.62979601  0.12979601  0.00000000  1.0
