# generated using pymatgen
data_Ca2NbInO6
_symmetry_space_group_name_H-M   'P 1'
_cell_length_a   5.55891565
_cell_length_b   5.77159770
_cell_length_c   9.74998820
_cell_angle_alpha   90.00000000
_cell_angle_beta   124.90892044
_cell_angle_gamma   90.00000000
_symmetry_Int_Tables_number   1
_chemical_formula_structural   Ca2NbInO6
_chemical_formula_sum   'Ca4 Nb2 In2 O12'
_cell_volume   256.52950991
_cell_formula_units_Z   2
loop_
 _symmetry_equiv_pos_site_id
 _symmetry_equiv_pos_as_xyz
  1  'x, y, z'
loop_
 _atom_site_type_symbol
 _atom_site_label
 _atom_site_symmetry_multiplicity
 _atom_site_fract_x
 _atom_site_fract_y
 _atom_site_fract_z
 _atom_site_occupancy
  Ca  Ca0  1  0.23902820  0.44541331  0.25331274  1.0
  Ca  Ca1  1  0.23902820  0.05458669  0.75331274  1.0
  Ca  Ca2  1  0.76097180  -0.05458669  0.24668726  1.0
  Ca  Ca3  1  0.76097180  0.55458669  0.74668726  1.0
  Nb  Nb4  1  0.00000000  0.00000000  0.00000000  1.0
  Nb  Nb5  1  -0.00000000  0.50000000  0.50000000  1.0
  In  In6  1  0.50000000  0.00000000  0.50000000  1.0
  In  In7  1  0.50000000  0.50000000  0.00000000  1.0
  O  O8  1  0.34569968  0.04256629  0.23803500  1.0
  O  O9  1  0.34569968  0.45743371  0.73803500  1.0
  O  O10  1  0.65430032  0.54256629  0.26196500  1.0
  O  O11  1  0.65430032  -0.04256629  0.76196500  1.0
  O  O12  1  0.87720420  0.71285008  0.06143287  1.0
  O  O13  1  0.87720420  0.78714992  0.56143287  1.0
  O  O14  1  0.12279580  0.21285008  0.43856713  1.0
  O  O15  1  0.12279580  0.28714992  0.93856713  1.0
  O  O16  1  0.75971899  0.18843648  0.05167700  1.0
  O  O17  1  0.75971899  0.31156352  0.55167700  1.0
  O  O18  1  0.24028101  0.68843648  0.44832300  1.0
  O  O19  1  0.24028101  0.81156352  0.94832300  1.0
