# generated using pymatgen
data_BaCd(SeO3)2
_symmetry_space_group_name_H-M   'P 1'
_cell_length_a   16.80522599
_cell_length_b   5.54471477
_cell_length_c   7.29091407
_cell_angle_alpha   90.00000000
_cell_angle_beta   90.00000000
_cell_angle_gamma   90.00000000
_symmetry_Int_Tables_number   1
_chemical_formula_structural   BaCd(SeO3)2
_chemical_formula_sum   'Ba4 Cd4 Se8 O24'
_cell_volume   679.36871945
_cell_formula_units_Z   4
loop_
 _symmetry_equiv_pos_site_id
 _symmetry_equiv_pos_as_xyz
  1  'x, y, z'
loop_
 _atom_site_type_symbol
 _atom_site_label
 _atom_site_symmetry_multiplicity
 _atom_site_fract_x
 _atom_site_fract_y
 _atom_site_fract_z
 _atom_site_occupancy
  Ba  Ba0  1  0.28167616  0.75000000  0.37800802  1.0
  Ba  Ba1  1  0.21832384  0.25000000  0.87800802  1.0
  Ba  Ba2  1  0.78167616  0.75000000  0.12199198  1.0
  Ba  Ba3  1  0.71832384  0.25000000  0.62199198  1.0
  Cd  Cd4  1  0.44801113  0.25000000  0.61857977  1.0
  Cd  Cd5  1  0.05198887  0.75000000  0.11857977  1.0
  Cd  Cd6  1  0.94801113  0.25000000  0.88142023  1.0
  Cd  Cd7  1  0.55198887  0.75000000  0.38142023  1.0
  Se  Se8  1  0.36720058  0.75000000  0.86576819  1.0
  Se  Se9  1  0.13279942  0.25000000  0.36576819  1.0
  Se  Se10  1  0.86720058  0.75000000  0.63423181  1.0
  Se  Se11  1  0.63279942  0.25000000  0.13423181  1.0
  Se  Se12  1  0.42837713  0.25000000  0.18248477  1.0
  Se  Se13  1  0.07162287  0.75000000  0.68248477  1.0
  Se  Se14  1  0.92837713  0.25000000  0.31751523  1.0
  Se  Se15  1  0.57162287  0.75000000  0.81751523  1.0
  O  O16  1  0.35089542  0.50918996  0.71820486  1.0
  O  O17  1  0.14910458  0.49081004  0.21820486  1.0
  O  O18  1  0.85089542  0.99081004  0.78179514  1.0
  O  O19  1  0.64910458  0.00918996  0.28179514  1.0
  O  O20  1  0.64910458  0.49081004  0.28179514  1.0
  O  O21  1  0.85089542  0.50918996  0.78179514  1.0
  O  O22  1  0.14910458  0.00918996  0.21820486  1.0
  O  O23  1  0.35089542  0.99081004  0.71820486  1.0
  O  O24  1  0.44425495  0.01424086  0.33767028  1.0
  O  O25  1  0.05574505  0.98575914  0.83767028  1.0
  O  O26  1  0.94425495  0.48575914  0.16232972  1.0
  O  O27  1  0.55574505  0.51424086  0.66232972  1.0
  O  O28  1  0.55574505  0.98575914  0.66232972  1.0
  O  O29  1  0.94425495  0.01424086  0.16232972  1.0
  O  O30  1  0.05574505  0.51424086  0.83767028  1.0
  O  O31  1  0.44425495  0.48575914  0.33767028  1.0
  O  O32  1  0.32897338  0.25000000  0.16296286  1.0
  O  O33  1  0.17102662  0.75000000  0.66296286  1.0
  O  O34  1  0.82897338  0.25000000  0.33703714  1.0
  O  O35  1  0.67102662  0.75000000  0.83703714  1.0
  O  O36  1  0.28314700  0.75000000  0.99318889  1.0
  O  O37  1  0.21685300  0.25000000  0.49318889  1.0
  O  O38  1  0.78314700  0.75000000  0.50681111  1.0
  O  O39  1  0.71685300  0.25000000  0.00681111  1.0
