# generated using pymatgen
data_KNaNbOF5
_symmetry_space_group_name_H-M   'P 1'
_cell_length_a   12.15226553
_cell_length_b   5.99625753
_cell_length_c   8.32990317
_cell_angle_alpha   90.00000000
_cell_angle_beta   90.00000000
_cell_angle_gamma   90.00000000
_symmetry_Int_Tables_number   1
_chemical_formula_structural   KNaNbOF5
_chemical_formula_sum   'K4 Na4 Nb4 O4 F20'
_cell_volume   606.98433185
_cell_formula_units_Z   4
loop_
 _symmetry_equiv_pos_site_id
 _symmetry_equiv_pos_as_xyz
  1  'x, y, z'
loop_
 _atom_site_type_symbol
 _atom_site_label
 _atom_site_symmetry_multiplicity
 _atom_site_fract_x
 _atom_site_fract_y
 _atom_site_fract_z
 _atom_site_occupancy
  K  K0  1  0.45891074  0.53121992  0.80051323  1.0
  K  K1  1  0.95891074  0.96878008  0.80051323  1.0
  K  K2  1  0.54108926  0.46878008  0.30051323  1.0
  K  K3  1  0.04108926  0.03121992  0.30051323  1.0
  Na  Na4  1  0.13839094  0.54761852  0.54447863  1.0
  Na  Na5  1  0.63839094  0.95238148  0.54447863  1.0
  Na  Na6  1  0.86160906  0.45238148  0.04447863  1.0
  Na  Na7  1  0.36160906  0.04761852  0.04447863  1.0
  Nb  Nb8  1  0.34938088  0.03876530  0.53656211  1.0
  Nb  Nb9  1  0.84938088  0.46123470  0.53656211  1.0
  Nb  Nb10  1  0.65061912  0.96123470  0.03656211  1.0
  Nb  Nb11  1  0.15061912  0.53876530  0.03656211  1.0
  O  O12  1  0.22570272  0.89787213  0.49580443  1.0
  O  O13  1  0.72570272  0.60212787  0.49580443  1.0
  O  O14  1  0.77429728  0.10212787  -0.00419557  1.0
  O  O15  1  0.27429728  0.39787213  -0.00419557  1.0
  F  F16  1  0.49906607  0.78399313  0.07409262  1.0
  F  F17  1  0.99906607  0.71600687  0.07409262  1.0
  F  F18  1  0.50093393  0.21600687  0.57409262  1.0
  F  F19  1  0.00093393  0.28399313  0.57409262  1.0
  F  F20  1  0.45374969  0.78662252  0.50339585  1.0
  F  F21  1  0.95374969  0.71337748  0.50339585  1.0
  F  F22  1  0.54625031  0.21337748  0.00339585  1.0
  F  F23  1  0.04625031  0.28662252  0.00339585  1.0
  F  F24  1  0.36014141  0.96347432  0.76686551  1.0
  F  F25  1  0.86014141  0.53652568  0.76686551  1.0
  F  F26  1  0.63985859  0.03652568  0.26686551  1.0
  F  F27  1  0.13985859  0.46347432  0.26686551  1.0
  F  F28  1  0.21227709  0.82925708  0.09685788  1.0
  F  F29  1  0.71227709  0.67074292  0.09685788  1.0
  F  F30  1  0.78772291  0.17074292  0.59685788  1.0
  F  F31  1  0.28772291  0.32925708  0.59685788  1.0
  F  F32  1  0.12526842  0.64421893  0.81562975  1.0
  F  F33  1  0.62526842  0.85578107  0.81562975  1.0
  F  F34  1  0.87473158  0.35578107  0.31562975  1.0
  F  F35  1  0.37473158  0.14421893  0.31562975  1.0
