# generated using pymatgen
data_Rb2PdC4N4O
_symmetry_space_group_name_H-M   'P 1'
_cell_length_a   7.71318485
_cell_length_b   9.65525208
_cell_length_c   14.07319961
_cell_angle_alpha   90.00000000
_cell_angle_beta   90.00000000
_cell_angle_gamma   90.00000000
_symmetry_Int_Tables_number   1
_chemical_formula_structural   Rb2PdC4N4O
_chemical_formula_sum   'Rb8 Pd4 C16 N16 O4'
_cell_volume   1048.06979193
_cell_formula_units_Z   4
loop_
 _symmetry_equiv_pos_site_id
 _symmetry_equiv_pos_as_xyz
  1  'x, y, z'
loop_
 _atom_site_type_symbol
 _atom_site_label
 _atom_site_symmetry_multiplicity
 _atom_site_fract_x
 _atom_site_fract_y
 _atom_site_fract_z
 _atom_site_occupancy
  Rb  Rb0  1  0.19899613  0.75000000  0.75000000  1.0
  Rb  Rb1  1  0.69899613  0.75000000  0.25000000  1.0
  Rb  Rb2  1  0.80100387  0.25000000  0.25000000  1.0
  Rb  Rb3  1  0.30100387  0.25000000  0.75000000  1.0
  Rb  Rb4  1  0.25000000  0.00000000  0.10308439  1.0
  Rb  Rb5  1  0.25000000  0.50000000  0.39691561  1.0
  Rb  Rb6  1  0.75000000  0.00000000  0.89691561  1.0
  Rb  Rb7  1  0.75000000  0.50000000  0.60308439  1.0
  Pd  Pd8  1  0.50000000  0.00000000  0.50000000  1.0
  Pd  Pd9  1  0.50000000  0.50000000  0.00000000  1.0
  Pd  Pd10  1  0.00000000  0.00000000  0.50000000  1.0
  Pd  Pd11  1  0.00000000  0.50000000  0.00000000  1.0
  C  C12  1  0.50535632  0.96553611  0.63902533  1.0
  C  C13  1  0.50535632  0.53446389  0.86097467  1.0
  C  C14  1  1.00535632  0.96553611  0.36097467  1.0
  C  C15  1  1.00535632  0.53446389  0.13902533  1.0
  C  C16  1  0.49464368  0.46553611  0.13902533  1.0
  C  C17  1  0.49464368  0.03446389  0.36097467  1.0
  C  C18  1  -0.00535632  0.46553611  0.86097467  1.0
  C  C19  1  -0.00535632  0.03446389  0.63902533  1.0
  C  C20  1  0.03726414  0.79975210  0.52698632  1.0
  C  C21  1  0.03726414  0.70024790  0.97301368  1.0
  C  C22  1  0.53726414  0.79975210  0.47301368  1.0
  C  C23  1  0.53726414  0.70024790  0.02698632  1.0
  C  C24  1  0.96273586  0.29975210  0.02698632  1.0
  C  C25  1  0.96273586  0.20024790  0.47301368  1.0
  C  C26  1  0.46273586  0.29975210  0.97301368  1.0
  C  C27  1  0.46273586  0.20024790  0.52698632  1.0
  N  N28  1  0.49988856  0.95120038  0.72197567  1.0
  N  N29  1  0.49988856  0.54879962  0.77802433  1.0
  N  N30  1  0.99988856  0.95120038  0.27802433  1.0
  N  N31  1  0.99988856  0.54879962  0.22197567  1.0
  N  N32  1  0.50011144  0.45120038  0.22197567  1.0
  N  N33  1  0.50011144  0.04879962  0.27802433  1.0
  N  N34  1  0.00011144  0.45120038  0.77802433  1.0
  N  N35  1  0.00011144  0.04879962  0.72197567  1.0
  N  N36  1  0.06064212  0.68339512  0.54703396  1.0
  N  N37  1  0.06064212  0.81660488  0.95296604  1.0
  N  N38  1  0.56064212  0.68339512  0.45296604  1.0
  N  N39  1  0.56064212  0.81660488  0.04703396  1.0
  N  N40  1  0.93935788  0.18339512  0.04703396  1.0
  N  N41  1  0.93935788  0.31660488  0.45296604  1.0
  N  N42  1  0.43935788  0.18339512  0.95296604  1.0
  N  N43  1  0.43935788  0.31660488  0.54703396  1.0
  O  O44  1  0.70264241  0.75000000  0.75000000  1.0
  O  O45  1  0.20264241  0.75000000  0.25000000  1.0
  O  O46  1  0.29735759  0.25000000  0.25000000  1.0
  O  O47  1  0.79735759  0.25000000  0.75000000  1.0
