# generated using pymatgen
data_Ba3ZnIr2O9
_symmetry_space_group_name_H-M   'P 1'
_cell_length_a   5.83093926
_cell_length_b   5.83093926
_cell_length_c   14.50416690
_cell_angle_alpha   90.00000000
_cell_angle_beta   90.00000000
_cell_angle_gamma   120.00000000
_symmetry_Int_Tables_number   1
_chemical_formula_structural   Ba3ZnIr2O9
_chemical_formula_sum   'Ba6 Zn2 Ir4 O18'
_cell_volume   427.07136762
_cell_formula_units_Z   2
loop_
 _symmetry_equiv_pos_site_id
 _symmetry_equiv_pos_as_xyz
  1  'x, y, z'
loop_
 _atom_site_type_symbol
 _atom_site_label
 _atom_site_symmetry_multiplicity
 _atom_site_fract_x
 _atom_site_fract_y
 _atom_site_fract_z
 _atom_site_occupancy
  O  O0  1  0.51581187  0.48418813  0.25000000  1.0
  O  O1  1  0.51581187  0.03162374  0.25000000  1.0
  O  O2  1  0.48418813  0.51581187  0.75000000  1.0
  O  O3  1  0.48418813  0.96837626  0.75000000  1.0
  O  O4  1  0.96837626  0.48418813  0.25000000  1.0
  O  O5  1  0.03162374  0.51581187  0.75000000  1.0
  O  O6  1  0.17107108  0.82892892  0.91705189  1.0
  O  O7  1  0.17107108  0.82892892  0.58294811  1.0
  O  O8  1  0.17107108  0.34214216  0.91705189  1.0
  O  O9  1  0.17107108  0.34214216  0.58294811  1.0
  O  O10  1  0.82892892  0.17107108  0.41705189  1.0
  O  O11  1  0.82892892  0.17107108  0.08294811  1.0
  O  O12  1  0.82892892  0.65785784  0.41705189  1.0
  O  O13  1  0.82892892  0.65785784  0.08294811  1.0
  O  O14  1  0.65785784  0.82892892  0.91705189  1.0
  O  O15  1  0.65785784  0.82892892  0.58294811  1.0
  O  O16  1  0.34214216  0.17107108  0.41705189  1.0
  O  O17  1  0.34214216  0.17107108  0.08294811  1.0
  Ir  Ir18  1  0.33333333  0.66666667  0.84373114  1.0
  Ir  Ir19  1  0.33333333  0.66666667  0.65626886  1.0
  Ir  Ir20  1  0.66666667  0.33333333  0.34373114  1.0
  Ir  Ir21  1  0.66666667  0.33333333  0.15626886  1.0
  Ba  Ba22  1  0.33333333  0.66666667  0.41570634  1.0
  Ba  Ba23  1  0.33333333  0.66666667  0.08429366  1.0
  Ba  Ba24  1  0.66666667  0.33333333  0.91570634  1.0
  Ba  Ba25  1  0.66666667  0.33333333  0.58429366  1.0
  Ba  Ba26  1  0.00000000  0.00000000  0.25000000  1.0
  Ba  Ba27  1  0.00000000  0.00000000  0.75000000  1.0
  Zn  Zn28  1  0.00000000  0.00000000  0.50000000  1.0
  Zn  Zn29  1  0.00000000  0.00000000  0.00000000  1.0
