# generated using pymatgen
data_Na2MgB4(H5N)4
_symmetry_space_group_name_H-M   'P 1'
_cell_length_a   9.18444197
_cell_length_b   9.18444197
_cell_length_c   9.18444197
_cell_angle_alpha   117.15255006
_cell_angle_beta   117.15255006
_cell_angle_gamma   95.00700938
_symmetry_Int_Tables_number   1
_chemical_formula_structural   Na2MgB4(H5N)4
_chemical_formula_sum   'Na4 Mg2 B8 H40 N8'
_cell_volume   569.05353137
_cell_formula_units_Z   2
loop_
 _symmetry_equiv_pos_site_id
 _symmetry_equiv_pos_as_xyz
  1  'x, y, z'
loop_
 _atom_site_type_symbol
 _atom_site_label
 _atom_site_symmetry_multiplicity
 _atom_site_fract_x
 _atom_site_fract_y
 _atom_site_fract_z
 _atom_site_occupancy
  Na  Na0  1  0.37500000  0.62500000  0.25000000  1.0
  Na  Na1  1  0.37500000  1.12500000  0.75000000  1.0
  Na  Na2  1  1.37500000  0.62500000  0.75000000  1.0
  Na  Na3  1  0.87500000  0.62500000  1.25000000  1.0
  Mg  Mg4  1  0.75000000  0.25000000  0.50000000  1.0
  Mg  Mg5  1  1.00000000  1.00000000  1.00000000  1.0
  B  B6  1  0.64497300  1.35734152  0.79527010  1.0
  B  B7  1  0.56207142  0.84970290  1.20472990  1.0
  B  B8  1  1.10734152  0.81207142  1.21236852  1.0
  B  B9  1  0.59970290  0.89497300  0.78763148  1.0
  B  B10  1  1.10502700  0.89265848  1.70472990  1.0
  B  B11  1  1.18792858  1.40029710  1.29527010  1.0
  B  B12  1  0.64265848  0.43792858  0.28763148  1.0
  B  B13  1  1.15029710  1.35502700  1.71236852  1.0
  H  H14  1  1.68453974  1.51228012  1.84657175  1.0
  H  H15  1  0.66570837  0.83796800  0.15342825  1.0
  H  H16  1  1.26228012  0.91570837  1.32774037  1.0
  H  H17  1  0.58796800  0.93453974  0.67225963  1.0
  H  H18  1  0.06546026  0.73771988  0.65342825  1.0
  H  H19  1  1.08429163  0.41203200  1.34657175  1.0
  H  H20  1  0.48771988  1.33429163  1.17225963  1.0
  H  H21  1  1.16203200  0.31546026  0.82774037  1.0
  H  H22  1  1.49447910  1.27287634  1.64395713  1.0
  H  H23  1  0.62891921  0.85052197  0.35604287  1.0
  H  H24  1  1.02287634  0.87891921  1.27839724  1.0
  H  H25  1  1.60052197  1.74447910  1.72160276  1.0
  H  H26  1  0.25552090  0.97712366  0.85604287  1.0
  H  H27  1  1.12108079  0.39947803  1.14395713  1.0
  H  H28  1  0.72712366  1.37108079  1.22160276  1.0
  H  H29  1  1.14947803  1.50552090  0.77839724  1.0
  H  H30  1  0.64410091  1.35266776  0.92764358  1.0
  H  H31  1  0.42502418  0.71645734  1.07235642  1.0
  H  H32  1  1.10266776  0.67502418  1.20856684  1.0
  H  H33  1  0.46645734  0.89410091  0.79143316  1.0
  H  H34  1  1.10589909  0.89733224  1.57235642  1.0
  H  H35  1  1.32497582  1.53354266  1.42764358  1.0
  H  H36  1  0.64733224  0.57497582  0.29143316  1.0
  H  H37  1  1.28354266  1.35589909  1.70856684  1.0
  H  H38  1  0.90151644  0.34515924  0.87193237  1.0
  H  H39  1  0.47322687  1.02958407  1.12806763  1.0
  H  H40  1  1.09515924  1.72322687  0.94364280  1.0
  H  H41  1  0.77958407  1.15151644  1.05635720  1.0
  H  H42  1  0.84848356  0.90484076  0.62806763  1.0
  H  H43  1  1.27677313  1.22041593  1.37193237  1.0
  H  H44  1  1.65484076  1.52677313  1.55635720  1.0
  H  H45  1  0.97041593  1.09848356  1.44364280  1.0
  H  H46  1  0.74375408  1.15303613  0.72420293  1.0
  H  H47  1  0.42883320  1.01955116  1.27579707  1.0
  H  H48  1  0.90303613  0.67883320  0.90928205  1.0
  H  H49  1  1.76955116  0.99375408  1.09071795  1.0
  H  H50  1  1.00624592  1.09696387  1.77579707  1.0
  H  H51  1  1.32116680  1.23044884  1.22420293  1.0
  H  H52  1  0.84696387  0.57116680  0.59071795  1.0
  H  H53  1  0.98044884  1.25624592  0.40928205  1.0
  N  N54  1  0.77431881  1.27606713  0.74998374  1.0
  N  N55  1  0.52608339  1.02433506  1.25001626  1.0
  N  N56  1  1.02606713  0.77608339  1.00174832  1.0
  N  N57  1  1.77433506  1.02431881  0.99825168  1.0
  N  N58  1  0.97568119  0.97393287  1.75001626  1.0
  N  N59  1  1.22391661  1.22566494  1.24998374  1.0
  N  N60  1  0.72393287  0.47391661  0.49825168  1.0
  N  N61  1  0.97566494  1.22568119  0.50174832  1.0
