# generated using pymatgen
data_Rb3Y(PO4)2
_symmetry_space_group_name_H-M   'P 1'
_cell_length_a   5.74884999
_cell_length_b   5.74884999
_cell_length_c   8.27257092
_cell_angle_alpha   90.00000000
_cell_angle_beta   90.00000000
_cell_angle_gamma   120.00000000
_symmetry_Int_Tables_number   1
_chemical_formula_structural   Rb3Y(PO4)2
_chemical_formula_sum   'Rb3 Y1 P2 O8'
_cell_volume   236.77349396
_cell_formula_units_Z   1
loop_
 _symmetry_equiv_pos_site_id
 _symmetry_equiv_pos_as_xyz
  1  'x, y, z'
loop_
 _atom_site_type_symbol
 _atom_site_label
 _atom_site_symmetry_multiplicity
 _atom_site_fract_x
 _atom_site_fract_y
 _atom_site_fract_z
 _atom_site_occupancy
  Rb  Rb0  1  0.33333333  0.66666667  0.75699859  1.0
  Rb  Rb1  1  0.66666667  0.33333333  0.24300141  1.0
  Rb  Rb2  1  0.00000000  0.00000000  0.00000000  1.0
  Y  Y3  1  0.00000000  0.00000000  0.50000000  1.0
  P  P4  1  0.33333333  0.66666667  0.27670669  1.0
  P  P5  1  0.66666667  0.33333333  0.72329331  1.0
  O  O6  1  0.63008703  0.81504352  0.34186295  1.0
  O  O7  1  0.81504352  0.63008703  0.65813705  1.0
  O  O8  1  0.81504352  0.18495648  0.65813705  1.0
  O  O9  1  0.18495648  0.81504352  0.34186295  1.0
  O  O10  1  0.18495648  0.36991297  0.34186295  1.0
  O  O11  1  0.36991297  0.18495648  0.65813705  1.0
  O  O12  1  0.33333333  0.66666667  0.09121361  1.0
  O  O13  1  0.66666667  0.33333333  0.90878639  1.0
