# generated using pymatgen
data_MgH8C2S2(NO2)2
_symmetry_space_group_name_H-M   'P 1'
_cell_length_a   8.10272900
_cell_length_b   9.09313908
_cell_length_c   7.73109615
_cell_angle_alpha   90.00000000
_cell_angle_beta   117.21527032
_cell_angle_gamma   90.00000000
_symmetry_Int_Tables_number   1
_chemical_formula_structural   MgH8C2S2(NO2)2
_chemical_formula_sum   'Mg2 H16 C4 S4 N4 O8'
_cell_volume   506.56110093
_cell_formula_units_Z   2
loop_
 _symmetry_equiv_pos_site_id
 _symmetry_equiv_pos_as_xyz
  1  'x, y, z'
loop_
 _atom_site_type_symbol
 _atom_site_label
 _atom_site_symmetry_multiplicity
 _atom_site_fract_x
 _atom_site_fract_y
 _atom_site_fract_z
 _atom_site_occupancy
  Mg  Mg0  1  0.00000000  0.00000000  0.00000000  1.0
  Mg  Mg1  1  0.00000000  0.50000000  0.50000000  1.0
  H  H2  1  0.86619731  0.19808683  0.68332483  1.0
  H  H3  1  0.86619731  0.30191317  0.18332483  1.0
  H  H4  1  0.13380269  0.69808683  0.81667517  1.0
  H  H5  1  0.13380269  0.80191317  0.31667517  1.0
  H  H6  1  0.76087710  0.44645664  0.65610314  1.0
  H  H7  1  0.76087710  0.05354336  0.15610314  1.0
  H  H8  1  0.23912290  0.94645664  0.84389686  1.0
  H  H9  1  0.23912290  0.55354336  0.34389686  1.0
  H  H10  1  0.67815726  0.38399470  0.44707031  1.0
  H  H11  1  0.67815726  0.11600530  0.94707031  1.0
  H  H12  1  0.32184274  0.88399470  0.05292969  1.0
  H  H13  1  0.32184274  0.61600530  0.55292969  1.0
  H  H14  1  0.21654185  0.54130572  0.89198233  1.0
  H  H15  1  0.21654185  0.95869428  0.39198233  1.0
  H  H16  1  0.78345815  0.04130572  0.60801767  1.0
  H  H17  1  0.78345815  0.45869428  0.10801767  1.0
  C  C18  1  0.73422436  0.70801690  0.85593840  1.0
  C  C19  1  0.73422436  0.79198310  0.35593840  1.0
  C  C20  1  0.26577564  0.20801690  0.64406160  1.0
  C  C21  1  0.26577564  0.29198310  0.14406160  1.0
  S  S22  1  0.60912406  0.55723538  0.80536776  1.0
  S  S23  1  0.60912406  0.94276462  0.30536776  1.0
  S  S24  1  0.39087594  0.05723538  0.69463224  1.0
  S  S25  1  0.39087594  0.44276462  0.19463224  1.0
  N  N26  1  0.82455292  0.81575802  0.89437473  1.0
  N  N27  1  0.82455292  0.68424198  0.39437473  1.0
  N  N28  1  0.17544708  0.31575802  0.60562527  1.0
  N  N29  1  0.17544708  0.18424198  0.10562527  1.0
  O  O30  1  0.87214403  0.09486823  0.72432600  1.0
  O  O31  1  0.87214403  0.40513177  0.22432600  1.0
  O  O32  1  0.12785597  0.59486823  0.77567400  1.0
  O  O33  1  0.12785597  0.90513177  0.27567400  1.0
  O  O34  1  0.79671839  0.39011343  0.56833011  1.0
  O  O35  1  0.79671839  0.10988657  0.06833011  1.0
  O  O36  1  0.20328161  0.89011343  0.93166989  1.0
  O  O37  1  0.20328161  0.60988657  0.43166989  1.0
