# generated using pymatgen
data_TlSbTe2
_symmetry_space_group_name_H-M   'P 1'
_cell_length_a   8.34544407
_cell_length_b   8.34544407
_cell_length_c   8.34544407
_cell_angle_alpha   31.25075888
_cell_angle_beta   31.25075888
_cell_angle_gamma   31.25075888
_symmetry_Int_Tables_number   1
_chemical_formula_structural   TlSbTe2
_chemical_formula_sum   'Tl1 Sb1 Te2'
_cell_volume   138.82581198
_cell_formula_units_Z   1
loop_
 _symmetry_equiv_pos_site_id
 _symmetry_equiv_pos_as_xyz
  1  'x, y, z'
loop_
 _atom_site_type_symbol
 _atom_site_label
 _atom_site_symmetry_multiplicity
 _atom_site_fract_x
 _atom_site_fract_y
 _atom_site_fract_z
 _atom_site_occupancy
  Tl  Tl0  1  0.00000000  0.00000000  0.00000000  1.0
  Sb  Sb1  1  1.50000000  0.50000000  0.50000000  1.0
  Te  Te2  1  0.76094018  0.76094018  0.76094018  1.0
  Te  Te3  1  1.23905982  1.23905982  0.23905982  1.0
