# generated using pymatgen
data_NiMoP2
_symmetry_space_group_name_H-M   'P 1'
_cell_length_a   3.35440248
_cell_length_b   3.35440248
_cell_length_c   11.18022549
_cell_angle_alpha   90.00000000
_cell_angle_beta   90.00000000
_cell_angle_gamma   120.00000000
_symmetry_Int_Tables_number   1
_chemical_formula_structural   NiMoP2
_chemical_formula_sum   'Ni2 Mo2 P4'
_cell_volume   108.94606177
_cell_formula_units_Z   2
loop_
 _symmetry_equiv_pos_site_id
 _symmetry_equiv_pos_as_xyz
  1  'x, y, z'
loop_
 _atom_site_type_symbol
 _atom_site_label
 _atom_site_symmetry_multiplicity
 _atom_site_fract_x
 _atom_site_fract_y
 _atom_site_fract_z
 _atom_site_occupancy
  Ni  Ni0  1  0.00000000  0.00000000  0.25000000  1.0
  Ni  Ni1  1  0.00000000  0.00000000  0.75000000  1.0
  Mo  Mo2  1  0.00000000  0.00000000  0.50000000  1.0
  Mo  Mo3  1  0.00000000  0.00000000  0.00000000  1.0
  P  P4  1  0.33333333  0.66666667  0.36060245  1.0
  P  P5  1  0.33333333  0.66666667  0.13939755  1.0
  P  P6  1  0.66666667  0.33333333  0.86060245  1.0
  P  P7  1  0.66666667  0.33333333  0.63939755  1.0
