# generated using pymatgen
data_K2Sn2S5
_symmetry_space_group_name_H-M   'P 1'
_cell_length_a   6.92108114
_cell_length_b   6.92108114
_cell_length_c   11.67781512
_cell_angle_alpha   75.41012618
_cell_angle_beta   104.58987382
_cell_angle_gamma   109.19246668
_symmetry_Int_Tables_number   1
_chemical_formula_structural   K2Sn2S5
_chemical_formula_sum   'K4 Sn4 S10'
_cell_volume   502.43147075
_cell_formula_units_Z   2
loop_
 _symmetry_equiv_pos_site_id
 _symmetry_equiv_pos_as_xyz
  1  'x, y, z'
loop_
 _atom_site_type_symbol
 _atom_site_label
 _atom_site_symmetry_multiplicity
 _atom_site_fract_x
 _atom_site_fract_y
 _atom_site_fract_z
 _atom_site_occupancy
  K  K0  1  0.61312666  0.05048273  0.68335346  1.0
  K  K1  1  0.94951727  0.38687334  0.18335346  1.0
  K  K2  1  1.05048273  -0.38687334  0.81664654  1.0
  K  K3  1  1.38687334  -0.05048273  0.31664654  1.0
  Sn  Sn4  1  0.43855808  0.24900110  0.94295282  1.0
  Sn  Sn5  1  0.75099890  0.56144192  0.44295282  1.0
  Sn  Sn6  1  1.24900110  -0.56144192  0.55704718  1.0
  Sn  Sn7  1  1.56144192  -0.24900110  0.05704718  1.0
  S  S8  1  1.61454493  -0.35403798  0.88253555  1.0
  S  S9  1  1.35403798  -0.61454493  0.38253555  1.0
  S  S10  1  0.64596202  0.61454493  0.61746445  1.0
  S  S11  1  0.38545507  0.35403798  0.11746445  1.0
  S  S12  1  0.74999398  0.14261397  0.96298911  1.0
  S  S13  1  0.85738603  0.25000602  0.46298911  1.0
  S  S14  1  1.14261397  -0.25000602  0.53701089  1.0
  S  S15  1  1.25000602  -0.14261397  0.03701089  1.0
  S  S16  1  0.18592912  0.18592912  0.75000000  1.0
  S  S17  1  0.81407088  0.81407088  0.25000000  1.0
