# generated using pymatgen
data_NbPt3
_symmetry_space_group_name_H-M   'P 1'
_cell_length_a   4.88983171
_cell_length_b   5.55666966
_cell_length_c   29.49783004
_cell_angle_alpha   90.00000000
_cell_angle_beta   87.88054472
_cell_angle_gamma   90.00000000
_symmetry_Int_Tables_number   1
_chemical_formula_structural   NbPt3
_chemical_formula_sum   'Nb12 Pt36'
_cell_volume   800.94252967
_cell_formula_units_Z   12
loop_
 _symmetry_equiv_pos_site_id
 _symmetry_equiv_pos_as_xyz
  1  'x, y, z'
loop_
 _atom_site_type_symbol
 _atom_site_label
 _atom_site_symmetry_multiplicity
 _atom_site_fract_x
 _atom_site_fract_y
 _atom_site_fract_z
 _atom_site_occupancy
  Nb  Nb0  1  0.59266054  0.75000000  0.15083636  1.0
  Nb  Nb1  1  0.40733946  0.25000000  0.84916364  1.0
  Nb  Nb2  1  0.20710004  0.75000000  0.30337892  1.0
  Nb  Nb3  1  0.79289996  0.25000000  0.69662108  1.0
  Nb  Nb4  1  0.16453892  0.75000000  0.46089957  1.0
  Nb  Nb5  1  0.83546108  0.25000000  0.53910043  1.0
  Nb  Nb6  1  0.08994492  0.75000000  0.77162743  1.0
  Nb  Nb7  1  -0.08994492  0.25000000  0.22837257  1.0
  Nb  Nb8  1  0.13528921  0.75000000  0.61758817  1.0
  Nb  Nb9  1  -0.13528921  0.25000000  0.38241183  1.0
  Nb  Nb10  1  0.71556827  0.75000000  0.92572581  1.0
  Nb  Nb11  1  0.28443173  0.25000000  0.07427419  1.0
  Pt  Pt12  1  0.58771970  0.00633055  0.77256180  1.0
  Pt  Pt13  1  0.41228030  0.50633055  0.22743820  1.0
  Pt  Pt14  1  0.41228030  -0.00633055  0.22743820  1.0
  Pt  Pt15  1  0.58771970  0.49366945  0.77256180  1.0
  Pt  Pt16  1  0.79343374  0.75000000  0.69501253  1.0
  Pt  Pt17  1  0.20656626  0.25000000  0.30498747  1.0
  Pt  Pt18  1  0.63913745  0.00119950  0.61824416  1.0
  Pt  Pt19  1  0.36086255  0.50119950  0.38175584  1.0
  Pt  Pt20  1  0.36086255  -0.00119950  0.38175584  1.0
  Pt  Pt21  1  0.63913745  0.49880050  0.61824416  1.0
  Pt  Pt22  1  0.22703792  0.00083431  0.92761363  1.0
  Pt  Pt23  1  0.77296208  0.50083431  0.07238637  1.0
  Pt  Pt24  1  0.77296208  -0.00083431  0.07238637  1.0
  Pt  Pt25  1  0.22703792  0.49916569  0.92761363  1.0
  Pt  Pt26  1  0.29338635  0.75000000  0.07488094  1.0
  Pt  Pt27  1  0.70661365  0.25000000  0.92511906  1.0
  Pt  Pt28  1  0.39859631  0.75000000  0.85032932  1.0
  Pt  Pt29  1  0.60140369  0.25000000  0.14967068  1.0
  Pt  Pt30  1  0.72175370  -0.00519881  0.30255266  1.0
  Pt  Pt31  1  0.27824630  0.49480119  0.69744734  1.0
  Pt  Pt32  1  0.27824630  0.00519881  0.69744734  1.0
  Pt  Pt33  1  0.72175370  0.50519881  0.30255266  1.0
  Pt  Pt34  1  0.67187555  0.00009598  0.46063216  1.0
  Pt  Pt35  1  0.32812445  0.50009598  0.53936784  1.0
  Pt  Pt36  1  0.32812445  -0.00009598  0.53936784  1.0
  Pt  Pt37  1  0.67187555  0.49990402  0.46063216  1.0
  Pt  Pt38  1  -0.04362270  0.75000000  -0.00101402  1.0
  Pt  Pt39  1  0.04362270  0.25000000  1.00101402  1.0
  Pt  Pt40  1  0.09053966  -0.00377618  0.15345312  1.0
  Pt  Pt41  1  0.90946034  0.49622382  0.84654688  1.0
  Pt  Pt42  1  0.90946034  0.00377618  0.84654688  1.0
  Pt  Pt43  1  0.09053966  0.50377618  0.15345312  1.0
  Pt  Pt44  1  -0.13937306  0.75000000  0.38198907  1.0
  Pt  Pt45  1  0.13937306  0.25000000  0.61801093  1.0
  Pt  Pt46  1  0.83544116  0.75000000  0.53982854  1.0
  Pt  Pt47  1  0.16455884  0.25000000  0.46017146  1.0
