# generated using pymatgen
data_ZnFe2(SeO3)4
_symmetry_space_group_name_H-M   'P 1'
_cell_length_a   8.35942638
_cell_length_b   8.18863288
_cell_length_c   8.21693344
_cell_angle_alpha   90.00000000
_cell_angle_beta   92.16062121
_cell_angle_gamma   90.00000000
_symmetry_Int_Tables_number   1
_chemical_formula_structural   ZnFe2(SeO3)4
_chemical_formula_sum   'Zn2 Fe4 Se8 O24'
_cell_volume   562.06789878
_cell_formula_units_Z   2
loop_
 _symmetry_equiv_pos_site_id
 _symmetry_equiv_pos_as_xyz
  1  'x, y, z'
loop_
 _atom_site_type_symbol
 _atom_site_label
 _atom_site_symmetry_multiplicity
 _atom_site_fract_x
 _atom_site_fract_y
 _atom_site_fract_z
 _atom_site_occupancy
  Fe  Fe0  1  0.06150823  0.73670262  0.54436056  1.0
  Fe  Fe1  1  0.06150823  0.26329738  0.04436056  1.0
  Fe  Fe2  1  0.57389039  0.76087986  0.05292601  1.0
  Fe  Fe3  1  0.57389039  0.23912014  0.55292601  1.0
  O  O4  1  0.00050692  0.98277651  0.50111805  1.0
  O  O5  1  0.00050692  0.01722349  0.00111805  1.0
  O  O6  1  0.28969942  0.87596090  0.53619745  1.0
  O  O7  1  0.28969942  0.12403910  0.03619745  1.0
  O  O8  1  0.33095016  0.74681134  0.11732017  1.0
  O  O9  1  0.33095016  0.25318866  0.61732017  1.0
  O  O10  1  0.42635393  0.83261393  0.83481419  1.0
  O  O11  1  0.42635393  0.16738607  0.33481419  1.0
  O  O12  1  0.58344909  1.00043515  0.60548916  1.0
  O  O13  1  0.58344909  -0.00043515  0.10548916  1.0
  O  O14  1  0.83947555  0.66161195  0.53607775  1.0
  O  O15  1  0.83947555  0.33838805  0.03607775  1.0
  O  O16  1  0.64181609  0.28359188  0.78205631  1.0
  O  O17  1  0.64181609  0.71640812  0.28205631  1.0
  O  O18  1  0.58627333  0.52895527  0.98139418  1.0
  O  O19  1  0.58627333  0.47104473  0.48139418  1.0
  O  O20  1  0.08330578  0.30796451  0.80427481  1.0
  O  O21  1  0.08330578  0.69203549  0.30427481  1.0
  O  O22  1  0.18168455  0.53870815  0.59893756  1.0
  O  O23  1  0.18168455  0.46129185  0.09893756  1.0
  O  O24  1  0.78064104  0.78374819  0.94131837  1.0
  O  O25  1  0.78064104  0.21625181  0.44131837  1.0
  O  O26  1  0.05009270  0.81053257  0.78542403  1.0
  O  O27  1  0.05009270  0.18946743  0.28542403  1.0
  Zn  Zn28  1  0.22513844  0.89770265  0.95084831  1.0
  Zn  Zn29  1  0.22513844  0.10229735  0.45084831  1.0
  Se  Se30  1  0.25408238  0.40384443  0.74472523  1.0
  Se  Se31  1  0.25408238  0.59615557  0.24472523  1.0
  Se  Se32  1  0.47478061  0.82719385  0.62951721  1.0
  Se  Se33  1  0.47478061  0.17280615  0.12951721  1.0
  Se  Se34  1  0.74270973  0.44430983  0.87639212  1.0
  Se  Se35  1  0.74270973  0.55569017  0.37639212  1.0
  Se  Se36  1  0.88514167  0.93022396  0.84300853  1.0
  Se  Se37  1  0.88514167  0.06977604  0.34300853  1.0
