# generated using pymatgen
data_ScH11(BrO3)2
_symmetry_space_group_name_H-M   'P 1'
_cell_length_a   7.60181241
_cell_length_b   8.42439005
_cell_length_c   8.76682953
_cell_angle_alpha   74.15767627
_cell_angle_beta   63.56966537
_cell_angle_gamma   77.89176558
_symmetry_Int_Tables_number   1
_chemical_formula_structural   ScH11(BrO3)2
_chemical_formula_sum   'Sc2 H22 Br4 O12'
_cell_volume   481.10960869
_cell_formula_units_Z   2
loop_
 _symmetry_equiv_pos_site_id
 _symmetry_equiv_pos_as_xyz
  1  'x, y, z'
loop_
 _atom_site_type_symbol
 _atom_site_label
 _atom_site_symmetry_multiplicity
 _atom_site_fract_x
 _atom_site_fract_y
 _atom_site_fract_z
 _atom_site_occupancy
  Sc  Sc0  1  0.05194560  0.66112678  -0.67507048  1.0
  Sc  Sc1  1  -0.05194560  0.33887322  -0.32492952  1.0
  H  H2  1  -0.13070801  0.48342852  -0.79047449  1.0
  H  H3  1  0.13070801  0.51657148  -0.20952551  1.0
  H  H4  1  -0.23849627  0.95903594  -0.65628200  1.0
  H  H5  1  0.23849627  0.04096406  -0.34371800  1.0
  H  H6  1  -0.35258924  0.80887839  -0.52008799  1.0
  H  H7  1  0.35258924  0.19112161  -0.47991201  1.0
  H  H8  1  -0.79982590  0.81852441  -0.03754269  1.0
  H  H9  1  0.79982590  0.18147559  -0.96245731  1.0
  H  H10  1  0.18845087  0.95773543  -0.94129447  1.0
  H  H11  1  -0.18845087  0.04226457  -0.05870553  1.0
  H  H12  1  0.12174479  0.32726051  -0.67535100  1.0
  H  H13  1  -0.12174479  0.67273949  -0.32464900  1.0
  H  H14  1  0.22469334  0.95070805  -0.69792295  1.0
  H  H15  1  -0.22469334  0.04929195  -0.30207705  1.0
  H  H16  1  0.46896546  0.66012494  -0.89203957  1.0
  H  H17  1  -0.46896546  0.33987506  -0.10796043  1.0
  H  H18  1  0.43888906  0.47847630  -0.77501648  1.0
  H  H19  1  -0.43888906  0.52152370  -0.22498352  1.0
  H  H20  1  0.21732846  0.82016675  -0.52459183  1.0
  H  H21  1  -0.21732846  0.17983325  -0.47540817  1.0
  H  H22  1  0.86498540  0.66653089  -0.90186310  1.0
  H  H23  1  -0.86498540  0.33346911  -0.09813690  1.0
  Br  Br24  1  -0.66147709  0.74582369  -0.30859639  1.0
  Br  Br25  1  0.66147709  0.25417631  -0.69140361  1.0
  Br  Br26  1  0.27952257  0.18739462  -0.91516882  1.0
  Br  Br27  1  -0.27952257  0.81260538  -0.08483118  1.0
  O  O28  1  -0.07356790  0.58908523  -0.82712721  1.0
  O  O29  1  0.07356790  0.41091477  -0.17287279  1.0
  O  O30  1  -0.22568364  0.83767617  -0.61841559  1.0
  O  O31  1  0.22568364  0.16232383  -0.38158441  1.0
  O  O32  1  0.13769429  0.85200335  -0.92371766  1.0
  O  O33  1  -0.13769429  0.14799665  -0.07628234  1.0
  O  O34  1  0.06271304  0.40304340  -0.59364800  1.0
  O  O35  1  -0.06271304  0.59695660  -0.40635200  1.0
  O  O36  1  0.36822543  0.58306794  -0.81122269  1.0
  O  O37  1  -0.36822543  0.41693206  -0.18877731  1.0
  O  O38  1  0.16885261  0.84860991  -0.61702219  1.0
  O  O39  1  -0.16885261  0.15139009  -0.38297781  1.0
