# generated using pymatgen
data_RbSc(SeO3)2
_symmetry_space_group_name_H-M   'P 1'
_cell_length_a   5.67678097
_cell_length_b   5.67678097
_cell_length_c   12.78473016
_cell_angle_alpha   90.00000000
_cell_angle_beta   90.00000000
_cell_angle_gamma   120.00000000
_symmetry_Int_Tables_number   1
_chemical_formula_structural   RbSc(SeO3)2
_chemical_formula_sum   'Rb2 Sc2 Se4 O12'
_cell_volume   356.80133718
_cell_formula_units_Z   2
loop_
 _symmetry_equiv_pos_site_id
 _symmetry_equiv_pos_as_xyz
  1  'x, y, z'
loop_
 _atom_site_type_symbol
 _atom_site_label
 _atom_site_symmetry_multiplicity
 _atom_site_fract_x
 _atom_site_fract_y
 _atom_site_fract_z
 _atom_site_occupancy
  Rb  Rb0  1  0.33333333  0.66666667  0.34242684  1.0
  Rb  Rb1  1  0.66666667  0.33333333  0.84242684  1.0
  Sc  Sc2  1  0.33333333  0.66666667  0.03603920  1.0
  Sc  Sc3  1  0.66666667  0.33333333  0.53603920  1.0
  Se  Se4  1  0.33333333  0.66666667  0.68773729  1.0
  Se  Se5  1  0.66666667  0.33333333  0.18773729  1.0
  Se  Se6  1  -0.00000000  0.00000000  0.00131216  1.0
  Se  Se7  1  -0.00000000  -0.00000000  0.50131216  1.0
  O  O8  1  0.98378426  0.49189213  0.13189866  1.0
  O  O9  1  0.49189213  0.98378426  0.63189866  1.0
  O  O10  1  0.49189213  0.50810787  0.63189866  1.0
  O  O11  1  0.50810787  0.49189213  0.13189866  1.0
  O  O12  1  0.50810787  0.01621574  0.13189866  1.0
  O  O13  1  0.01621574  0.50810787  0.63189866  1.0
  O  O14  1  0.31346696  0.15673348  0.43929618  1.0
  O  O15  1  0.15673348  0.31346696  0.93929618  1.0
  O  O16  1  0.15673348  0.84326652  0.93929618  1.0
  O  O17  1  0.84326652  0.15673348  0.43929618  1.0
  O  O18  1  0.84326652  0.68653304  0.43929618  1.0
  O  O19  1  0.68653304  0.84326652  0.93929618  1.0
