# generated using pymatgen
data_PbS
_symmetry_space_group_name_H-M   'P 1'
_cell_length_a   12.00381087
_cell_length_b   4.24273560
_cell_length_c   4.24541322
_cell_angle_alpha   90.00000000
_cell_angle_beta   90.00000000
_cell_angle_gamma   90.00000000
_symmetry_Int_Tables_number   1
_chemical_formula_structural   PbS
_chemical_formula_sum   'Pb4 S4'
_cell_volume   216.21463163
_cell_formula_units_Z   4
loop_
 _symmetry_equiv_pos_site_id
 _symmetry_equiv_pos_as_xyz
  1  'x, y, z'
loop_
 _atom_site_type_symbol
 _atom_site_label
 _atom_site_symmetry_multiplicity
 _atom_site_fract_x
 _atom_site_fract_y
 _atom_site_fract_z
 _atom_site_occupancy
  Pb  Pb0  1  0.37496517  0.75000000  0.74996965  1.0
  Pb  Pb1  1  0.87496517  0.75000000  0.75003035  1.0
  Pb  Pb2  1  0.62503483  0.25000000  0.25003035  1.0
  Pb  Pb3  1  0.12503483  0.25000000  0.24996965  1.0
  S  S4  1  0.12506694  0.75000000  -0.25009949  1.0
  S  S5  1  0.62506694  0.75000000  0.75009949  1.0
  S  S6  1  0.87493306  0.25000000  1.25009949  1.0
  S  S7  1  0.37493306  0.25000000  0.24990051  1.0
