# generated using pymatgen
data_V6Ga5
_symmetry_space_group_name_H-M   'P 1'
_cell_length_a   8.47231016
_cell_length_b   8.47231016
_cell_length_c   5.12442839
_cell_angle_alpha   90.00000000
_cell_angle_beta   90.00000000
_cell_angle_gamma   120.00000000
_symmetry_Int_Tables_number   1
_chemical_formula_structural   V6Ga5
_chemical_formula_sum   'V12 Ga10'
_cell_volume   318.55157224
_cell_formula_units_Z   2
loop_
 _symmetry_equiv_pos_site_id
 _symmetry_equiv_pos_as_xyz
  1  'x, y, z'
loop_
 _atom_site_type_symbol
 _atom_site_label
 _atom_site_symmetry_multiplicity
 _atom_site_fract_x
 _atom_site_fract_y
 _atom_site_fract_z
 _atom_site_occupancy
  V  V0  1  0.15640779  0.84359221  0.25000000  1.0
  V  V1  1  0.15640779  0.31281557  0.25000000  1.0
  V  V2  1  0.84359221  0.15640779  0.75000000  1.0
  V  V3  1  0.84359221  0.68718443  0.75000000  1.0
  V  V4  1  0.68718443  0.84359221  0.25000000  1.0
  V  V5  1  0.31281557  0.15640779  0.75000000  1.0
  V  V6  1  0.50000000  0.50000000  0.50000000  1.0
  V  V7  1  0.50000000  0.50000000  0.00000000  1.0
  V  V8  1  0.50000000  0.00000000  0.50000000  1.0
  V  V9  1  0.50000000  0.00000000  0.00000000  1.0
  V  V10  1  0.00000000  0.50000000  0.50000000  1.0
  V  V11  1  0.00000000  0.50000000  0.00000000  1.0
  Ga  Ga12  1  0.79637314  0.20362686  0.25000000  1.0
  Ga  Ga13  1  0.79637314  0.59274628  0.25000000  1.0
  Ga  Ga14  1  0.20362686  0.79637314  0.75000000  1.0
  Ga  Ga15  1  0.20362686  0.40725372  0.75000000  1.0
  Ga  Ga16  1  0.40725372  0.20362686  0.25000000  1.0
  Ga  Ga17  1  0.59274628  0.79637314  0.75000000  1.0
  Ga  Ga18  1  0.33333333  0.66666667  0.25000000  1.0
  Ga  Ga19  1  0.66666667  0.33333333  0.75000000  1.0
  Ga  Ga20  1  0.00000000  0.00000000  0.50000000  1.0
  Ga  Ga21  1  0.00000000  0.00000000  0.00000000  1.0
