# generated using pymatgen
data_K2OsN3Cl3O5
_symmetry_space_group_name_H-M   'P 1'
_cell_length_a   10.69916022
_cell_length_b   7.67683404
_cell_length_c   7.02411922
_cell_angle_alpha   90.01015455
_cell_angle_beta   100.28615288
_cell_angle_gamma   90.01168749
_symmetry_Int_Tables_number   1
_chemical_formula_structural   K2OsN3Cl3O5
_chemical_formula_sum   'K4 Os2 N6 Cl6 O10'
_cell_volume   567.65846165
_cell_formula_units_Z   2
loop_
 _symmetry_equiv_pos_site_id
 _symmetry_equiv_pos_as_xyz
  1  'x, y, z'
loop_
 _atom_site_type_symbol
 _atom_site_label
 _atom_site_symmetry_multiplicity
 _atom_site_fract_x
 _atom_site_fract_y
 _atom_site_fract_z
 _atom_site_occupancy
  K  K0  1  -0.37133068  -0.74997572  -0.88357101  1.0
  K  K1  1  -0.62866932  -0.25002428  -0.11642899  1.0
  K  K2  1  -0.96664898  -0.24987433  -0.72387328  1.0
  K  K3  1  -0.03335102  -0.75012567  -0.27612672  1.0
  Os  Os4  1  -0.74004811  -0.75003063  -0.62432884  1.0
  Os  Os5  1  -0.25995189  -0.24996937  -0.37567116  1.0
  N  N6  1  -0.70111404  -0.55736760  -0.81393556  1.0
  N  N7  1  -0.29888596  -0.44263240  -0.18606444  1.0
  N  N8  1  -0.70042562  -0.94337020  -0.81262584  1.0
  N  N9  1  -0.29957438  -0.05662980  -0.18737416  1.0
  N  N10  1  -0.58017624  -0.74919044  -0.51287166  1.0
  N  N11  1  -0.41982376  -0.25080956  -0.48712834  1.0
  Cl  Cl12  1  -0.95104698  -0.75092060  -0.78946236  1.0
  Cl  Cl13  1  -0.04895302  -0.24907940  -0.21053764  1.0
  Cl  Cl14  1  -0.80151459  -0.52784814  -0.41254300  1.0
  Cl  Cl15  1  -0.19848541  -0.47215186  -0.58745700  1.0
  Cl  Cl16  1  -0.80088806  -0.97153684  -0.41128780  1.0
  Cl  Cl17  1  -0.19911194  -0.02846316  -0.58871220  1.0
  O  O18  1  -0.78275688  -0.44851297  -0.88204368  1.0
  O  O19  1  -0.21724312  -0.55148703  -0.11795632  1.0
  O  O20  1  -0.78188131  -0.05257245  -0.88070204  1.0
  O  O21  1  -0.21811869  -0.94742755  -0.11929796  1.0
  O  O22  1  -0.59244963  -0.54986582  -0.85656997  1.0
  O  O23  1  -0.40755037  -0.45013418  -0.14343003  1.0
  O  O24  1  -0.59157324  -0.95098511  -0.85454153  1.0
  O  O25  1  -0.40842676  -0.04901489  -0.14545847  1.0
  O  O26  1  -0.47169557  -0.74847040  -0.44985477  1.0
  O  O27  1  -0.52830443  -0.25152960  -0.55014523  1.0
