# generated using pymatgen
data_LiH2CN4O
_symmetry_space_group_name_H-M   'P 1'
_cell_length_a   3.49320400
_cell_length_b   7.59031064
_cell_length_c   7.38982137
_cell_angle_alpha   82.46901823
_cell_angle_beta   79.46676487
_cell_angle_gamma   83.40668459
_symmetry_Int_Tables_number   1
_chemical_formula_structural   LiH2CN4O
_chemical_formula_sum   'Li2 H4 C2 N8 O2'
_cell_volume   190.14240196
_cell_formula_units_Z   2
loop_
 _symmetry_equiv_pos_site_id
 _symmetry_equiv_pos_as_xyz
  1  'x, y, z'
loop_
 _atom_site_type_symbol
 _atom_site_label
 _atom_site_symmetry_multiplicity
 _atom_site_fract_x
 _atom_site_fract_y
 _atom_site_fract_z
 _atom_site_occupancy
  Li  Li0  1  -0.92874057  -0.71796264  -0.36716098  1.0
  Li  Li1  1  -0.07125943  -0.28203736  -0.63283902  1.0
  H  H2  1  -0.54962443  -0.81350679  -0.14320989  1.0
  H  H3  1  -0.45037557  -0.18649321  -0.85679011  1.0
  H  H4  1  -0.38000877  -0.96855921  -0.27007217  1.0
  H  H5  1  -0.61999123  -0.03144079  -0.72992783  1.0
  C  C6  1  -0.95068761  -0.56219073  -0.92245441  1.0
  C  C7  1  -0.04931239  -0.43780927  -0.07754559  1.0
  N  N8  1  -1.00487114  -0.47626913  -0.25343022  1.0
  N  N9  1  0.00487114  -0.52373087  -0.74656978  1.0
  N  N10  1  -0.87556165  -0.67593845  -0.65087448  1.0
  N  N11  1  -0.12443835  -0.32406155  -0.34912552  1.0
  N  N12  1  -0.80296044  -0.73252278  -0.93567620  1.0
  N  N13  1  -0.19703956  -0.26747722  -0.06432380  1.0
  N  N14  1  -0.76090567  -0.79965945  -0.76373599  1.0
  N  N15  1  -0.23909433  -0.20034055  -0.23626401  1.0
  O  O16  1  -0.43786134  -0.83560589  -0.27434794  1.0
  O  O17  1  -0.56213866  -0.16439411  -0.72565206  1.0
