# generated using pymatgen
data_BaTl3
_symmetry_space_group_name_H-M   'P 1'
_cell_length_a   7.97048584
_cell_length_b   7.97048584
_cell_length_c   5.34526393
_cell_angle_alpha   90.00000000
_cell_angle_beta   90.00000000
_cell_angle_gamma   126.48728609
_symmetry_Int_Tables_number   1
_chemical_formula_structural   BaTl3
_chemical_formula_sum   'Ba2 Tl6'
_cell_volume   273.01641445
_cell_formula_units_Z   2
loop_
 _symmetry_equiv_pos_site_id
 _symmetry_equiv_pos_as_xyz
  1  'x, y, z'
loop_
 _atom_site_type_symbol
 _atom_site_label
 _atom_site_symmetry_multiplicity
 _atom_site_fract_x
 _atom_site_fract_y
 _atom_site_fract_z
 _atom_site_occupancy
  Ba  Ba0  1  -0.31009695  0.31009695  0.75000000  1.0
  Ba  Ba1  1  0.31009695  0.68990305  0.25000000  1.0
  Tl  Tl2  1  0.19394149  0.32838167  0.75000000  1.0
  Tl  Tl3  1  0.32838167  1.19394149  0.25000000  1.0
  Tl  Tl4  1  0.67161833  0.80605851  0.75000000  1.0
  Tl  Tl5  1  -0.19394149  0.67161833  0.25000000  1.0
  Tl  Tl6  1  0.13021908  0.86978092  0.75000000  1.0
  Tl  Tl7  1  -0.13021908  0.13021908  0.25000000  1.0
