# generated using pymatgen
data_Na2Y3Te4(ClO4)3
_symmetry_space_group_name_H-M   'P 1'
_cell_length_a   12.36291392
_cell_length_b   12.36291392
_cell_length_c   16.82683641
_cell_angle_alpha   47.98676890
_cell_angle_beta   132.01323110
_cell_angle_gamma   153.74142193
_symmetry_Int_Tables_number   1
_chemical_formula_structural   Na2Y3Te4(ClO4)3
_chemical_formula_sum   'Na4 Y6 Te8 Cl6 O24'
_cell_volume   826.53331901
_cell_formula_units_Z   2
loop_
 _symmetry_equiv_pos_site_id
 _symmetry_equiv_pos_as_xyz
  1  'x, y, z'
loop_
 _atom_site_type_symbol
 _atom_site_label
 _atom_site_symmetry_multiplicity
 _atom_site_fract_x
 _atom_site_fract_y
 _atom_site_fract_z
 _atom_site_occupancy
  Na  Na0  1  0.63041649  -0.04443710  0.93693497  1.0
  Na  Na1  1  1.04443710  -0.63041649  0.43693497  1.0
  Na  Na2  1  0.95556290  0.63041649  0.56306503  1.0
  Na  Na3  1  1.36958351  0.04443710  0.06306503  1.0
  Y  Y4  1  1.74583073  -0.25088890  0.91426957  1.0
  Y  Y5  1  1.25088890  -0.74583073  0.41426957  1.0
  Y  Y6  1  0.74911110  0.74583073  0.58573043  1.0
  Y  Y7  1  0.25416927  0.25088890  0.08573043  1.0
  Y  Y8  1  0.24258267  0.24258267  0.75000000  1.0
  Y  Y9  1  0.75741733  0.75741733  0.25000000  1.0
  Te  Te10  1  1.55442766  -0.17487246  0.59763663  1.0
  Te  Te11  1  1.17487246  -0.55442766  0.09763663  1.0
  Te  Te12  1  0.82512754  0.55442766  0.90236337  1.0
  Te  Te13  1  0.44557234  0.17487246  0.40236337  1.0
  Te  Te14  1  0.33561114  0.07004707  0.69641918  1.0
  Te  Te15  1  0.92995293  -0.33561114  0.19641918  1.0
  Te  Te16  1  1.07004707  0.33561114  0.80358082  1.0
  Te  Te17  1  1.66438886  -0.07004707  0.30358082  1.0
  Cl  Cl18  1  0.50380810  0.01737037  0.66084330  1.0
  Cl  Cl19  1  0.98262963  -0.50380810  0.16084330  1.0
  Cl  Cl20  1  1.01737037  0.50380810  0.83915670  1.0
  Cl  Cl21  1  1.49619190  -0.01737037  0.33915670  1.0
  Cl  Cl22  1  0.50000000  0.00000000  0.00000000  1.0
  Cl  Cl23  1  1.00000000  -0.50000000  0.50000000  1.0
  O  O24  1  1.38049314  0.51586155  0.91318136  1.0
  O  O25  1  1.48413845  -0.38049314  0.41318136  1.0
  O  O26  1  0.51586155  0.38049314  0.58681864  1.0
  O  O27  1  0.61950686  -0.51586155  0.08681864  1.0
  O  O28  1  1.48516836  -0.36993740  0.74548356  1.0
  O  O29  1  1.36993740  -0.48516836  0.24548356  1.0
  O  O30  1  0.63006260  0.48516836  0.75451644  1.0
  O  O31  1  0.51483164  0.36993740  0.25451644  1.0
  O  O32  1  1.87279159  0.01854407  0.61348293  1.0
  O  O33  1  0.98145593  -0.87279159  0.11348293  1.0
  O  O34  1  1.01854407  0.87279159  0.88651707  1.0
  O  O35  1  0.12720841  -0.01854407  0.38651707  1.0
  O  O36  1  0.89467151  0.06052014  0.92589154  1.0
  O  O37  1  0.93947986  -0.89467151  0.42589154  1.0
  O  O38  1  1.06052014  0.89467151  0.57410846  1.0
  O  O39  1  1.10532849  -0.06052014  0.07410846  1.0
  O  O40  1  0.55288792  0.38746388  0.92318586  1.0
  O  O41  1  0.61253612  0.44711208  0.42318586  1.0
  O  O42  1  1.38746388  -0.44711208  0.57681414  1.0
  O  O43  1  1.44711208  -0.38746388  0.07681414  1.0
  O  O44  1  0.13109484  -0.00444743  0.71497581  1.0
  O  O45  1  1.00444743  0.86890516  0.21497581  1.0
  O  O46  1  0.99555257  -0.86890516  0.78502419  1.0
  O  O47  1  1.86890516  0.00444743  0.28502419  1.0
