# generated using pymatgen
data_CuAgO2
_symmetry_space_group_name_H-M   'P 1'
_cell_length_a   3.59645202
_cell_length_b   3.59645202
_cell_length_c   6.00719108
_cell_angle_alpha   70.65063738
_cell_angle_beta   109.34936262
_cell_angle_gamma   133.84915062
_symmetry_Int_Tables_number   1
_chemical_formula_structural   CuAgO2
_chemical_formula_sum   'Cu1 Ag1 O2'
_cell_volume   52.27441706
_cell_formula_units_Z   1
loop_
 _symmetry_equiv_pos_site_id
 _symmetry_equiv_pos_as_xyz
  1  'x, y, z'
loop_
 _atom_site_type_symbol
 _atom_site_label
 _atom_site_symmetry_multiplicity
 _atom_site_fract_x
 _atom_site_fract_y
 _atom_site_fract_z
 _atom_site_occupancy
  Cu  Cu0  1  0.50000000  0.50000000  -0.00000000  1.0
  Ag  Ag1  1  -0.00000000  0.00000000  0.50000000  1.0
  O  O2  1  0.88147043  0.11852957  0.78792971  1.0
  O  O3  1  0.11852957  -0.11852957  0.21207029  1.0
