# generated using pymatgen
data_GaAgO2
_symmetry_space_group_name_H-M   'P 1'
_cell_length_a   5.61993581
_cell_length_b   7.21462027
_cell_length_c   5.58528356
_cell_angle_alpha   90.00000000
_cell_angle_beta   90.00000000
_cell_angle_gamma   90.00000000
_symmetry_Int_Tables_number   1
_chemical_formula_structural   GaAgO2
_chemical_formula_sum   'Ga4 Ag4 O8'
_cell_volume   226.45924759
_cell_formula_units_Z   4
loop_
 _symmetry_equiv_pos_site_id
 _symmetry_equiv_pos_as_xyz
  1  'x, y, z'
loop_
 _atom_site_type_symbol
 _atom_site_label
 _atom_site_symmetry_multiplicity
 _atom_site_fract_x
 _atom_site_fract_y
 _atom_site_fract_z
 _atom_site_occupancy
  Ga  Ga0  1  0.43716780  0.62452626  0.57340032  1.0
  Ga  Ga1  1  0.93716780  0.87547374  0.57340032  1.0
  Ga  Ga2  1  0.56283220  0.37547374  0.07340032  1.0
  Ga  Ga3  1  0.06283220  0.12452626  0.07340032  1.0
  Ag  Ag4  1  0.44938959  0.13051443  0.57129076  1.0
  Ag  Ag5  1  0.94938959  0.36948557  0.57129076  1.0
  Ag  Ag6  1  0.55061041  0.86948557  0.07129076  1.0
  Ag  Ag7  1  0.05061041  0.63051443  0.07129076  1.0
  O  O8  1  0.45862215  0.58215129  0.90308237  1.0
  O  O9  1  0.95862215  0.91784871  0.90308237  1.0
  O  O10  1  0.54137785  0.41784871  0.40308237  1.0
  O  O11  1  0.04137785  0.08215129  0.40308237  1.0
  O  O12  1  0.11676190  0.66523824  0.49632654  1.0
  O  O13  1  0.61676190  0.83476176  0.49632654  1.0
  O  O14  1  0.88323810  0.33476176  -0.00367346  1.0
  O  O15  1  0.38323810  0.16523824  -0.00367346  1.0
