# generated using pymatgen
data_La2AlNi9
_symmetry_space_group_name_H-M   'P 1'
_cell_length_a   5.00444692
_cell_length_b   5.00444692
_cell_length_c   8.05471488
_cell_angle_alpha   90.00000000
_cell_angle_beta   90.00000000
_cell_angle_gamma   119.21650056
_symmetry_Int_Tables_number   1
_chemical_formula_structural   La2AlNi9
_chemical_formula_sum   'La2 Al1 Ni9'
_cell_volume   176.06292013
_cell_formula_units_Z   1
loop_
 _symmetry_equiv_pos_site_id
 _symmetry_equiv_pos_as_xyz
  1  'x, y, z'
loop_
 _atom_site_type_symbol
 _atom_site_label
 _atom_site_symmetry_multiplicity
 _atom_site_fract_x
 _atom_site_fract_y
 _atom_site_fract_z
 _atom_site_occupancy
  La  La0  1  0.00000000  0.00000000  0.26501990  1.0
  La  La1  1  0.00000000  0.00000000  0.73498010  1.0
  Al  Al2  1  0.50000000  0.50000000  0.00000000  1.0
  Ni  Ni3  1  -0.33108456  1.33108456  0.24933178  1.0
  Ni  Ni4  1  0.33108456  0.66891544  0.24933178  1.0
  Ni  Ni5  1  -0.33108456  1.33108456  0.75066822  1.0
  Ni  Ni6  1  0.33108456  0.66891544  0.75066822  1.0
  Ni  Ni7  1  -0.50000000  1.00000000  0.50000000  1.0
  Ni  Ni8  1  -0.00000000  0.50000000  0.50000000  1.0
  Ni  Ni9  1  0.50000000  0.50000000  0.50000000  1.0
  Ni  Ni10  1  -0.50000000  1.00000000  0.00000000  1.0
  Ni  Ni11  1  -0.00000000  0.50000000  0.00000000  1.0
