# generated using pymatgen
data_NdGa4Ni
_symmetry_space_group_name_H-M   'P 1'
_cell_length_a   8.14697302
_cell_length_b   8.14697302
_cell_length_c   6.55353229
_cell_angle_alpha   90.00000000
_cell_angle_beta   90.00000000
_cell_angle_gamma   150.32828906
_symmetry_Int_Tables_number   1
_chemical_formula_structural   NdGa4Ni
_chemical_formula_sum   'Nd2 Ga8 Ni2'
_cell_volume   215.32739357
_cell_formula_units_Z   2
loop_
 _symmetry_equiv_pos_site_id
 _symmetry_equiv_pos_as_xyz
  1  'x, y, z'
loop_
 _atom_site_type_symbol
 _atom_site_label
 _atom_site_symmetry_multiplicity
 _atom_site_fract_x
 _atom_site_fract_y
 _atom_site_fract_z
 _atom_site_occupancy
  Nd  Nd0  1  -0.61534154  0.61534154  0.25000000  1.0
  Nd  Nd1  1  -0.38465846  1.38465846  0.75000000  1.0
  Ga  Ga2  1  -0.81180163  0.81180163  0.44962159  1.0
  Ga  Ga3  1  -0.81180163  0.81180163  0.05037841  1.0
  Ga  Ga4  1  -0.18819837  1.18819837  0.94962159  1.0
  Ga  Ga5  1  -0.18819837  1.18819837  0.55037841  1.0
  Ga  Ga6  1  -0.42620566  1.42620566  0.25000000  1.0
  Ga  Ga7  1  -0.57379434  0.57379434  0.75000000  1.0
  Ga  Ga8  1  0.00000000  0.00000000  0.50000000  1.0
  Ga  Ga9  1  0.00000000  0.00000000  0.00000000  1.0
  Ni  Ni10  1  -0.27769967  1.27769967  0.25000000  1.0
  Ni  Ni11  1  -0.72230033  0.72230033  0.75000000  1.0
