# generated using pymatgen
data_AgF2
_symmetry_space_group_name_H-M   'P 1'
_cell_length_a   5.91975967
_cell_length_b   10.80689970
_cell_length_c   5.84612217
_cell_angle_alpha   90.00000000
_cell_angle_beta   90.00000000
_cell_angle_gamma   90.00000000
_symmetry_Int_Tables_number   1
_chemical_formula_structural   AgF2
_chemical_formula_sum   'Ag8 F16'
_cell_volume   374.00127527
_cell_formula_units_Z   8
loop_
 _symmetry_equiv_pos_site_id
 _symmetry_equiv_pos_as_xyz
  1  'x, y, z'
loop_
 _atom_site_type_symbol
 _atom_site_label
 _atom_site_symmetry_multiplicity
 _atom_site_fract_x
 _atom_site_fract_y
 _atom_site_fract_z
 _atom_site_occupancy
  Ag  Ag0  1  0.16758087  0.62965725  0.99614716  1.0
  Ag  Ag1  1  0.33241913  0.87034275  0.49614716  1.0
  Ag  Ag2  1  0.83241913  0.62965725  0.50385284  1.0
  Ag  Ag3  1  0.66758087  0.87034275  0.00385284  1.0
  Ag  Ag4  1  0.83241913  0.37034275  0.00385284  1.0
  Ag  Ag5  1  0.66758087  0.12965725  0.50385284  1.0
  Ag  Ag6  1  0.16758087  0.37034275  0.49614716  1.0
  Ag  Ag7  1  0.33241913  0.12965725  0.99614716  1.0
  F  F8  1  0.24899998  0.50330557  0.74043791  1.0
  F  F9  1  0.25100002  0.99669443  0.24043791  1.0
  F  F10  1  0.75100002  0.50330557  0.75956209  1.0
  F  F11  1  0.74899998  0.99669443  0.25956209  1.0
  F  F12  1  0.75100002  0.49669443  0.25956209  1.0
  F  F13  1  0.74899998  0.00330557  0.75956209  1.0
  F  F14  1  0.24899998  0.49669443  0.24043791  1.0
  F  F15  1  0.25100002  0.00330557  0.74043791  1.0
  F  F16  1  0.00000000  0.74055646  0.25000000  1.0
  F  F17  1  0.50000000  0.75944354  0.75000000  1.0
  F  F18  1  0.00000000  0.25944354  0.75000000  1.0
  F  F19  1  0.50000000  0.24055646  0.25000000  1.0
  F  F20  1  0.00000000  0.25401062  0.25000000  1.0
  F  F21  1  0.50000000  0.24598938  0.75000000  1.0
  F  F22  1  0.00000000  0.74598938  0.75000000  1.0
  F  F23  1  0.50000000  0.75401062  0.25000000  1.0
