# generated using pymatgen
data_CuSnAu
_symmetry_space_group_name_H-M   'P 1'
_cell_length_a   7.12549592
_cell_length_b   7.12549592
_cell_length_c   7.12549592
_cell_angle_alpha   146.03275587
_cell_angle_beta   146.03275587
_cell_angle_gamma   48.79811203
_symmetry_Int_Tables_number   1
_chemical_formula_structural   CuSnAu
_chemical_formula_sum   'Cu2 Sn2 Au2'
_cell_volume   112.44346740
_cell_formula_units_Z   2
loop_
 _symmetry_equiv_pos_site_id
 _symmetry_equiv_pos_as_xyz
  1  'x, y, z'
loop_
 _atom_site_type_symbol
 _atom_site_label
 _atom_site_symmetry_multiplicity
 _atom_site_fract_x
 _atom_site_fract_y
 _atom_site_fract_z
 _atom_site_occupancy
  Cu  Cu0  1  0.00000000  0.50000000  0.50000000  1.0
  Cu  Cu1  1  0.50000000  0.00000000  0.50000000  1.0
  Sn  Sn2  1  0.65543268  0.65543268  1.00000000  1.0
  Sn  Sn3  1  0.34456732  0.34456732  -0.00000000  1.0
  Au  Au4  1  0.86967625  0.86967625  1.00000000  1.0
  Au  Au5  1  0.13032375  0.13032375  0.00000000  1.0
