# generated using pymatgen
data_NaAgO
_symmetry_space_group_name_H-M   'P 1'
_cell_length_a   7.16220506
_cell_length_b   7.16220506
_cell_length_c   7.16220506
_cell_angle_alpha   96.16368639
_cell_angle_beta   96.16368639
_cell_angle_gamma   141.74487047
_symmetry_Int_Tables_number   1
_chemical_formula_structural   NaAgO
_chemical_formula_sum   'Na4 Ag4 O4'
_cell_volume   214.92258248
_cell_formula_units_Z   4
loop_
 _symmetry_equiv_pos_site_id
 _symmetry_equiv_pos_as_xyz
  1  'x, y, z'
loop_
 _atom_site_type_symbol
 _atom_site_label
 _atom_site_symmetry_multiplicity
 _atom_site_fract_x
 _atom_site_fract_y
 _atom_site_fract_z
 _atom_site_occupancy
  Na  Na0  1  0.50000000  0.83888449  0.33888449  1.0
  Na  Na1  1  0.83888449  0.50000000  1.33888449  1.0
  Na  Na2  1  0.16111551  0.50000000  0.66111551  1.0
  Na  Na3  1  0.50000000  1.16111551  0.66111551  1.0
  Ag  Ag4  1  0.84280313  0.84280313  0.68560625  1.0
  Ag  Ag5  1  1.15719687  0.84280313  1.00000000  1.0
  Ag  Ag6  1  0.84280313  0.15719687  1.00000000  1.0
  Ag  Ag7  1  0.15719687  0.15719687  0.31439375  1.0
  O  O8  1  -0.00000000  0.69186640  0.69186640  1.0
  O  O9  1  0.69186640  1.00000000  0.69186640  1.0
  O  O10  1  1.30813360  1.00000000  1.30813360  1.0
  O  O11  1  -0.00000000  0.30813360  0.30813360  1.0
