# generated using pymatgen
data_C6SNCl3F4
_symmetry_space_group_name_H-M   'P 1'
_cell_length_a   6.53206272
_cell_length_b   11.08162151
_cell_length_c   8.96108108
_cell_angle_alpha   90.91962004
_cell_angle_beta   107.98752710
_cell_angle_gamma   92.08744712
_symmetry_Int_Tables_number   1
_chemical_formula_structural   C6SNCl3F4
_chemical_formula_sum   'C12 S2 N2 Cl6 F8'
_cell_volume   616.28787117
_cell_formula_units_Z   2
loop_
 _symmetry_equiv_pos_site_id
 _symmetry_equiv_pos_as_xyz
  1  'x, y, z'
loop_
 _atom_site_type_symbol
 _atom_site_label
 _atom_site_symmetry_multiplicity
 _atom_site_fract_x
 _atom_site_fract_y
 _atom_site_fract_z
 _atom_site_occupancy
  C  C0  1  0.71730035  0.87391767  -0.83386595  1.0
  C  C1  1  0.28269965  0.12608233  -0.16613405  1.0
  C  C2  1  0.61745914  0.84725185  -0.72002200  1.0
  C  C3  1  0.38254086  0.15274815  -0.27997800  1.0
  C  C4  1  0.58317375  0.22275603  -0.96031895  1.0
  C  C5  1  0.41682625  0.77724397  -0.03968105  1.0
  C  C6  1  0.41515243  0.78654050  -0.76810173  1.0
  C  C7  1  0.58484757  0.21345950  -0.23189827  1.0
  C  C8  1  0.38131158  0.16007452  -1.00940863  1.0
  C  C9  1  0.61868842  0.83992548  0.00940863  1.0
  C  C10  1  0.31628643  0.75262841  -0.92484341  1.0
  C  C11  1  0.68371357  0.24737159  -0.07515659  1.0
  S  S12  1  0.69713120  0.35432264  -0.68908688  1.0
  S  S13  1  0.30286880  0.64567736  -0.31091312  1.0
  N  N14  1  0.68421776  0.25080603  -0.80317616  1.0
  N  N15  1  0.31578224  0.74919397  -0.19682384  1.0
  Cl  Cl16  1  0.83276432  0.51943941  -0.75567461  1.0
  Cl  Cl17  1  0.16723568  0.48056059  -0.24432539  1.0
  Cl  Cl18  1  0.74025184  0.88747456  -0.52693966  1.0
  Cl  Cl19  1  0.25974816  0.11252544  -0.47306034  1.0
  Cl  Cl20  1  0.38406905  0.42180175  -0.71645130  1.0
  Cl  Cl21  1  0.61593095  0.57819825  -0.28354870  1.0
  F  F22  1  0.91119020  0.93331466  -0.79265232  1.0
  F  F23  1  0.08880980  0.06668534  -0.20734768  1.0
  F  F24  1  0.71800497  0.86897264  -0.09721089  1.0
  F  F25  1  0.28199503  0.13102736  -0.90278911  1.0
  F  F26  1  0.31351280  0.75989288  -0.66214779  1.0
  F  F27  1  0.68648720  0.24010712  -0.33785221  1.0
  F  F28  1  0.12107037  0.69527752  -0.96673647  1.0
  F  F29  1  0.87892963  0.30472248  -0.03326353  1.0
