# generated using pymatgen
data_Co21(GeB3)2
_symmetry_space_group_name_H-M   'P 1'
_cell_length_a   7.37893437
_cell_length_b   7.37893437
_cell_length_c   7.37893437
_cell_angle_alpha   60.00000000
_cell_angle_beta   60.00000000
_cell_angle_gamma   60.00000000
_symmetry_Int_Tables_number   1
_chemical_formula_structural   Co21(GeB3)2
_chemical_formula_sum   'Co21 Ge2 B6'
_cell_volume   284.09654040
_cell_formula_units_Z   1
loop_
 _symmetry_equiv_pos_site_id
 _symmetry_equiv_pos_as_xyz
  1  'x, y, z'
loop_
 _atom_site_type_symbol
 _atom_site_label
 _atom_site_symmetry_multiplicity
 _atom_site_fract_x
 _atom_site_fract_y
 _atom_site_fract_z
 _atom_site_occupancy
  Co  Co0  1  1.66499674  -0.00000000  0.00000000  1.0
  Co  Co1  1  1.00000000  0.33500326  -0.33500326  1.0
  Co  Co2  1  1.00000000  0.66499674  -0.66499674  1.0
  Co  Co3  1  1.33500326  0.00000000  -0.00000000  1.0
  Co  Co4  1  -0.00000000  1.66499674  0.00000000  1.0
  Co  Co5  1  0.33500326  1.00000000  -0.33500326  1.0
  Co  Co6  1  0.00000000  0.00000000  0.66499674  1.0
  Co  Co7  1  0.33500326  -0.33500326  1.00000000  1.0
  Co  Co8  1  0.66499674  1.00000000  -0.66499674  1.0
  Co  Co9  1  0.00000000  1.33500326  -0.00000000  1.0
  Co  Co10  1  0.66499674  -0.66499674  1.00000000  1.0
  Co  Co11  1  0.00000000  -0.00000000  0.33500326  1.0
  Co  Co12  1  0.61962765  0.61962765  -0.38037235  1.0
  Co  Co13  1  0.38037235  1.38037235  -0.14111705  1.0
  Co  Co14  1  1.38037235  -0.14111705  0.38037235  1.0
  Co  Co15  1  1.14111705  0.61962765  0.61962765  1.0
  Co  Co16  1  -0.14111705  1.38037235  0.38037235  1.0
  Co  Co17  1  0.61962765  1.14111705  -0.38037235  1.0
  Co  Co18  1  0.61962765  0.61962765  1.14111705  1.0
  Co  Co19  1  1.38037235  0.38037235  0.38037235  1.0
  Co  Co20  1  -0.00000000  0.00000000  -0.00000000  1.0
  Ge  Ge21  1  0.75000000  0.75000000  -0.25000000  1.0
  Ge  Ge22  1  1.25000000  0.25000000  0.25000000  1.0
  B  B23  1  -0.72124667  0.72124667  0.72124667  1.0
  B  B24  1  -0.27875333  0.27875333  0.72124667  1.0
  B  B25  1  0.72124667  0.72124667  -0.72124667  1.0
  B  B26  1  0.27875333  1.27875333  -0.27875333  1.0
  B  B27  1  0.27875333  -0.27875333  1.27875333  1.0
  B  B28  1  -0.27875333  0.27875333  0.27875333  1.0
