# generated using pymatgen
data_Rb2CoH8(CO5)2
_symmetry_space_group_name_H-M   'P 1'
_cell_length_a   7.21769625
_cell_length_b   6.44621947
_cell_length_c   12.46447535
_cell_angle_alpha   90.00000000
_cell_angle_beta   115.93171842
_cell_angle_gamma   90.00000000
_symmetry_Int_Tables_number   1
_chemical_formula_structural   Rb2CoH8(CO5)2
_chemical_formula_sum   'Rb4 Co2 H16 C4 O20'
_cell_volume   521.54277193
_cell_formula_units_Z   2
loop_
 _symmetry_equiv_pos_site_id
 _symmetry_equiv_pos_as_xyz
  1  'x, y, z'
loop_
 _atom_site_type_symbol
 _atom_site_label
 _atom_site_symmetry_multiplicity
 _atom_site_fract_x
 _atom_site_fract_y
 _atom_site_fract_z
 _atom_site_occupancy
  Rb  Rb0  1  0.75510230  0.84382262  0.17568318  1.0
  Rb  Rb1  1  0.75510230  0.65617738  0.67568318  1.0
  Rb  Rb2  1  0.24489770  0.34382262  0.32431682  1.0
  Rb  Rb3  1  0.24489770  0.15617738  0.82431682  1.0
  Co  Co4  1  0.00000000  0.50000000  0.00000000  1.0
  Co  Co5  1  -0.00000000  0.00000000  0.50000000  1.0
  H  H6  1  0.79947719  0.33585186  0.12722490  1.0
  H  H7  1  0.79947719  0.16414814  0.62722490  1.0
  H  H8  1  0.20052281  0.83585186  0.37277510  1.0
  H  H9  1  0.20052281  0.66414814  0.87277510  1.0
  H  H10  1  0.79908958  0.20152739  0.01406091  1.0
  H  H11  1  0.79908958  0.29847261  0.51406091  1.0
  H  H12  1  0.20091042  0.70152739  0.48593909  1.0
  H  H13  1  0.20091042  0.79847261  0.98593909  1.0
  H  H14  1  0.71268573  0.67355573  0.41393662  1.0
  H  H15  1  0.71268573  0.82644427  0.91393662  1.0
  H  H16  1  0.28731427  0.17355573  0.08606338  1.0
  H  H17  1  0.28731427  0.32644427  0.58606338  1.0
  H  H18  1  0.57763686  0.87926293  0.38168846  1.0
  H  H19  1  0.57763686  0.62073707  0.88168846  1.0
  H  H20  1  0.42236314  0.37926293  0.11831154  1.0
  H  H21  1  0.42236314  0.12073707  0.61831154  1.0
  C  C22  1  0.74877844  0.33891297  0.31715434  1.0
  C  C23  1  0.74877844  0.16108703  0.81715434  1.0
  C  C24  1  0.25122156  0.83891297  0.18284566  1.0
  C  C25  1  0.25122156  0.66108703  0.68284566  1.0
  O  O26  1  0.88740954  0.28587194  0.08819392  1.0
  O  O27  1  0.88740954  0.21412806  0.58819392  1.0
  O  O28  1  0.11259046  0.78587194  0.41180608  1.0
  O  O29  1  0.11259046  0.71412806  0.91180608  1.0
  O  O30  1  0.88011831  0.18725652  0.34806220  1.0
  O  O31  1  0.88011831  0.31274348  0.84806220  1.0
  O  O32  1  0.11988169  0.68725652  0.15193780  1.0
  O  O33  1  0.11988169  0.81274348  0.65193780  1.0
  O  O34  1  0.71749602  0.82447538  0.43499937  1.0
  O  O35  1  0.71749602  0.67552462  0.93499937  1.0
  O  O36  1  0.28250398  0.32447538  0.06500063  1.0
  O  O37  1  0.28250398  0.17552462  0.56500063  1.0
  O  O38  1  0.67986450  0.41465138  0.21008287  1.0
  O  O39  1  0.67986450  0.08534862  0.71008287  1.0
  O  O40  1  0.32013550  0.91465138  0.28991713  1.0
  O  O41  1  0.32013550  0.58534862  0.78991713  1.0
  O  O42  1  0.68607340  0.41635111  0.39223443  1.0
  O  O43  1  0.68607340  0.08364889  0.89223443  1.0
  O  O44  1  0.31392660  0.91635111  0.10776557  1.0
  O  O45  1  0.31392660  0.58364889  0.60776557  1.0
