# generated using pymatgen
data_Na2Si2O5
_symmetry_space_group_name_H-M   'P 1'
_cell_length_a   4.91502304
_cell_length_b   12.23615137
_cell_length_c   9.77674314
_cell_angle_alpha   90.00000000
_cell_angle_beta   119.61855815
_cell_angle_gamma   90.00000000
_symmetry_Int_Tables_number   1
_chemical_formula_structural   Na2Si2O5
_chemical_formula_sum   'Na8 Si8 O20'
_cell_volume   511.15394485
_cell_formula_units_Z   4
loop_
 _symmetry_equiv_pos_site_id
 _symmetry_equiv_pos_as_xyz
  1  'x, y, z'
loop_
 _atom_site_type_symbol
 _atom_site_label
 _atom_site_symmetry_multiplicity
 _atom_site_fract_x
 _atom_site_fract_y
 _atom_site_fract_z
 _atom_site_occupancy
  Na  Na0  1  0.61187747  0.49513253  0.37032387  1.0
  Na  Na1  1  0.61187747  0.00486747  0.87032387  1.0
  Na  Na2  1  0.38812253  0.99513253  0.12967613  1.0
  Na  Na3  1  0.38812253  0.50486747  0.62967613  1.0
  Na  Na4  1  0.11230020  0.03676713  0.38003224  1.0
  Na  Na5  1  0.11230020  0.46323287  0.88003224  1.0
  Na  Na6  1  0.88769980  0.53676713  0.11996776  1.0
  Na  Na7  1  0.88769980  0.96323287  0.61996776  1.0
  Si  Si8  1  0.98087950  0.82018672  0.17714425  1.0
  Si  Si9  1  0.98087950  0.67981328  0.67714425  1.0
  Si  Si10  1  0.01912050  0.32018672  0.32285575  1.0
  Si  Si11  1  0.01912050  0.17981328  0.82285575  1.0
  Si  Si12  1  0.64213570  0.19629422  0.44776725  1.0
  Si  Si13  1  0.64213570  0.30370578  0.94776725  1.0
  Si  Si14  1  0.35786430  0.69629422  0.05223275  1.0
  Si  Si15  1  0.35786430  0.80370578  0.55223275  1.0
  O  O16  1  0.89032630  0.29153149  0.13676735  1.0
  O  O17  1  0.89032630  0.20846851  0.63676735  1.0
  O  O18  1  0.10967370  0.79153149  0.36323265  1.0
  O  O19  1  0.10967370  0.70846851  0.86323265  1.0
  O  O20  1  0.87350165  0.94493100  0.13480896  1.0
  O  O21  1  0.87350165  0.55506900  0.63480896  1.0
  O  O22  1  0.12649835  0.44493100  0.36519104  1.0
  O  O23  1  0.12649835  0.05506900  0.86519104  1.0
  O  O24  1  0.73033361  0.29524943  0.36079795  1.0
  O  O25  1  0.73033361  0.20475057  0.86079795  1.0
  O  O26  1  0.26966639  0.79524943  0.13920205  1.0
  O  O27  1  0.26966639  0.70475057  0.63920205  1.0
  O  O28  1  0.63937733  0.07471435  0.38589165  1.0
  O  O29  1  0.63937733  0.42528565  0.88589165  1.0
  O  O30  1  0.36062267  0.57471435  0.11410835  1.0
  O  O31  1  0.36062267  0.92528565  0.61410835  1.0
  O  O32  1  0.29036308  0.22691014  0.42228041  1.0
  O  O33  1  0.29036308  0.27308986  0.92228041  1.0
  O  O34  1  0.70963692  0.72691014  0.07771959  1.0
  O  O35  1  0.70963692  0.77308986  0.57771959  1.0
