# generated using pymatgen
data_LuGe2
_symmetry_space_group_name_H-M   'P 1'
_cell_length_a   8.02720492
_cell_length_b   8.02720492
_cell_length_c   3.88228733
_cell_angle_alpha   90.00000000
_cell_angle_beta   90.00000000
_cell_angle_gamma   150.99888483
_symmetry_Int_Tables_number   1
_chemical_formula_structural   LuGe2
_chemical_formula_sum   'Lu2 Ge4'
_cell_volume   121.28381583
_cell_formula_units_Z   2
loop_
 _symmetry_equiv_pos_site_id
 _symmetry_equiv_pos_as_xyz
  1  'x, y, z'
loop_
 _atom_site_type_symbol
 _atom_site_label
 _atom_site_symmetry_multiplicity
 _atom_site_fract_x
 _atom_site_fract_y
 _atom_site_fract_z
 _atom_site_occupancy
  Lu  Lu0  1  0.39739818  0.60260182  0.75000000  1.0
  Lu  Lu1  1  -0.39739818  0.39739818  0.25000000  1.0
  Ge  Ge2  1  0.05561822  0.94438178  0.75000000  1.0
  Ge  Ge3  1  -0.05561822  0.05561822  0.25000000  1.0
  Ge  Ge4  1  -0.24804807  0.24804807  0.75000000  1.0
  Ge  Ge5  1  0.24804807  0.75195193  0.25000000  1.0
