# generated using pymatgen
data_BaMg(CO2)2
_symmetry_space_group_name_H-M   'P 1'
_cell_length_a   4.44760551
_cell_length_b   4.44760551
_cell_length_c   12.25547524
_cell_angle_alpha   80.61151292
_cell_angle_beta   99.38848708
_cell_angle_gamma   107.20736272
_symmetry_Int_Tables_number   1
_chemical_formula_structural   BaMg(CO2)2
_chemical_formula_sum   'Ba2 Mg2 C4 O8'
_cell_volume   226.77152569
_cell_formula_units_Z   2
loop_
 _symmetry_equiv_pos_site_id
 _symmetry_equiv_pos_as_xyz
  1  'x, y, z'
loop_
 _atom_site_type_symbol
 _atom_site_label
 _atom_site_symmetry_multiplicity
 _atom_site_fract_x
 _atom_site_fract_y
 _atom_site_fract_z
 _atom_site_occupancy
  Ba  Ba0  1  0.75000802  -0.24999198  0.25000000  1.0
  Ba  Ba1  1  1.24999198  0.24999198  0.75000000  1.0
  Mg  Mg2  1  1.00000000  -0.50000000  0.00000000  1.0
  Mg  Mg3  1  1.50000000  -0.00000000  0.50000000  1.0
  C  C4  1  1.17843398  0.32152694  0.41006571  1.0
  C  C5  1  1.32152694  0.17843398  0.08993429  1.0
  C  C6  1  0.82156602  -0.32152694  0.58993429  1.0
  C  C7  1  0.67847306  -0.17843398  0.91006571  1.0
  O  O8  1  1.13163776  0.78587550  0.61060608  1.0
  O  O9  1  1.78587550  0.13163776  0.88939392  1.0
  O  O10  1  0.86836224  -0.78587550  0.38939392  1.0
  O  O11  1  0.21412450  -0.13163776  0.11060608  1.0
  O  O12  1  1.28588393  0.63158924  0.38938221  1.0
  O  O13  1  1.63158924  0.28588393  0.11061779  1.0
  O  O14  1  0.71411607  -0.63158924  0.61061779  1.0
  O  O15  1  0.36841076  -0.28588393  0.88938221  1.0
