# generated using pymatgen
data_Zr2Al3C4
_symmetry_space_group_name_H-M   'P 1'
_cell_length_a   3.35803091
_cell_length_b   3.35803091
_cell_length_c   22.29566573
_cell_angle_alpha   90.00000000
_cell_angle_beta   90.00000000
_cell_angle_gamma   120.00000000
_symmetry_Int_Tables_number   1
_chemical_formula_structural   Zr2Al3C4
_chemical_formula_sum   'Zr4 Al6 C8'
_cell_volume   217.73109462
_cell_formula_units_Z   2
loop_
 _symmetry_equiv_pos_site_id
 _symmetry_equiv_pos_as_xyz
  1  'x, y, z'
loop_
 _atom_site_type_symbol
 _atom_site_label
 _atom_site_symmetry_multiplicity
 _atom_site_fract_x
 _atom_site_fract_y
 _atom_site_fract_z
 _atom_site_occupancy
  Zr  Zr0  1  0.33333333  0.66666667  0.30905340  1.0
  Zr  Zr1  1  0.66666667  0.33333333  0.80905340  1.0
  Zr  Zr2  1  0.33333333  0.66666667  0.69219167  1.0
  Zr  Zr3  1  0.66666667  0.33333333  0.19219167  1.0
  Al  Al4  1  0.00000000  0.00000000  0.40980726  1.0
  Al  Al5  1  0.00000000  0.00000000  0.90980726  1.0
  Al  Al6  1  0.33333333  0.66666667  0.00062481  1.0
  Al  Al7  1  0.66666667  0.33333333  0.50062481  1.0
  Al  Al8  1  0.00000000  0.00000000  0.09143852  1.0
  Al  Al9  1  0.00000000  0.00000000  0.59143852  1.0
  C  C10  1  0.33333333  0.66666667  0.12247094  1.0
  C  C11  1  0.66666667  0.33333333  0.62247094  1.0
  C  C12  1  0.33333333  0.66666667  0.87877056  1.0
  C  C13  1  0.66666667  0.33333333  0.37877056  1.0
  C  C14  1  0.00000000  0.00000000  0.00062248  1.0
  C  C15  1  0.00000000  0.00000000  0.50062248  1.0
  C  C16  1  0.00000000  0.00000000  0.25062036  1.0
  C  C17  1  0.00000000  0.00000000  0.75062036  1.0
