# generated using pymatgen
data_CaSiO4
_symmetry_space_group_name_H-M   'P 1'
_cell_length_a   10.37896824
_cell_length_b   6.98306518
_cell_length_c   11.78057285
_cell_angle_alpha   60.97735624
_cell_angle_beta   36.03810865
_cell_angle_gamma   82.98453511
_symmetry_Int_Tables_number   1
_chemical_formula_structural   CaSiO4
_chemical_formula_sum   'Ca4 Si4 O16'
_cell_volume   373.79622661
_cell_formula_units_Z   4
loop_
 _symmetry_equiv_pos_site_id
 _symmetry_equiv_pos_as_xyz
  1  'x, y, z'
loop_
 _atom_site_type_symbol
 _atom_site_label
 _atom_site_symmetry_multiplicity
 _atom_site_fract_x
 _atom_site_fract_y
 _atom_site_fract_z
 _atom_site_occupancy
  Ca  Ca0  1  0.42979935  0.57766111  0.27061298  1.0
  Ca  Ca1  1  0.97938702  0.52807344  -0.17979935  1.0
  Ca  Ca2  1  0.57766111  0.42979935  -0.27807344  1.0
  Ca  Ca3  1  0.52807344  0.97938702  -0.32766111  1.0
  Si  Si4  1  0.02644645  -0.02757756  0.86658445  1.0
  Si  Si5  1  0.38341555  0.11545334  0.22355355  1.0
  Si  Si6  1  -0.02757756  0.02644645  0.13454666  1.0
  Si  Si7  1  0.11545334  0.38341555  0.27757756  1.0
  O  O8  1  0.87073780  -0.12926220  0.12926220  1.0
  O  O9  1  0.12073780  0.12073780  0.37926220  1.0
  O  O10  1  0.37347617  -0.62652383  0.62652383  1.0
  O  O11  1  0.62347617  0.62347617  -0.12347617  1.0
  O  O12  1  0.31789459  0.01984452  0.65818060  1.0
  O  O13  1  0.01984452  0.31789459  0.00408029  1.0
  O  O14  1  0.59181940  0.24591971  -0.06789459  1.0
  O  O15  1  0.24591971  0.59181940  0.23015548  1.0
  O  O16  1  0.07643694  0.26101073  0.71858198  1.0
  O  O17  1  0.53141802  0.30602965  0.17356306  1.0
  O  O18  1  0.30602965  0.53141802  -0.01101073  1.0
  O  O19  1  0.26101073  0.07643694  -0.05602965  1.0
  O  O20  1  -0.17504407  0.30931397  0.48026154  1.0
  O  O21  1  0.30931397  -0.17504407  0.38546855  1.0
  O  O22  1  0.76973846  0.86453145  -0.57495593  1.0
  O  O23  1  0.86453145  0.76973846  -0.05931397  1.0
