# generated using pymatgen
data_NbAlO4
_symmetry_space_group_name_H-M   'P 1'
_cell_length_a   6.41678858
_cell_length_b   6.41678858
_cell_length_c   6.54064776
_cell_angle_alpha   73.03802648
_cell_angle_beta   106.96197352
_cell_angle_gamma   145.60542166
_symmetry_Int_Tables_number   1
_chemical_formula_structural   NbAlO4
_chemical_formula_sum   'Nb2 Al2 O8'
_cell_volume   144.86381022
_cell_formula_units_Z   2
loop_
 _symmetry_equiv_pos_site_id
 _symmetry_equiv_pos_as_xyz
  1  'x, y, z'
loop_
 _atom_site_type_symbol
 _atom_site_label
 _atom_site_symmetry_multiplicity
 _atom_site_fract_x
 _atom_site_fract_y
 _atom_site_fract_z
 _atom_site_occupancy
  Nb  Nb0  1  0.89556527  0.10443473  0.26321733  1.0
  Nb  Nb1  1  0.10443473  -0.10443473  0.73678267  1.0
  Al  Al2  1  0.79808235  0.20191765  0.67693972  1.0
  Al  Al3  1  0.20191765  -0.20191765  0.32306028  1.0
  O  O4  1  0.94337692  0.05662308  0.63881976  1.0
  O  O5  1  0.05662308  -0.05662308  0.36118024  1.0
  O  O6  1  0.64251727  0.35748273  0.70467789  1.0
  O  O7  1  0.35748273  -0.35748273  0.29532211  1.0
  O  O8  1  0.73730183  0.26269817  0.35830737  1.0
  O  O9  1  0.26269817  -0.26269817  0.64169263  1.0
  O  O10  1  0.85972481  0.14027519  0.97462720  1.0
  O  O11  1  0.14027519  -0.14027519  0.02537280  1.0
