# generated using pymatgen
data_V2CrTe4
_symmetry_space_group_name_H-M   'P 1'
_cell_length_a   7.09338124
_cell_length_b   7.09338124
_cell_length_c   6.84519532
_cell_angle_alpha   62.27042794
_cell_angle_beta   117.72957206
_cell_angle_gamma   148.36285100
_symmetry_Int_Tables_number   1
_chemical_formula_structural   V2CrTe4
_chemical_formula_sum   'V2 Cr1 Te4'
_cell_volume   158.13108186
_cell_formula_units_Z   1
loop_
 _symmetry_equiv_pos_site_id
 _symmetry_equiv_pos_as_xyz
  1  'x, y, z'
loop_
 _atom_site_type_symbol
 _atom_site_label
 _atom_site_symmetry_multiplicity
 _atom_site_fract_x
 _atom_site_fract_y
 _atom_site_fract_z
 _atom_site_occupancy
  V  V0  1  0.74694880  -0.74694880  0.70882272  1.0
  V  V1  1  1.25305120  -0.25305120  0.29117728  1.0
  Cr  Cr2  1  0.00000000  0.00000000  0.00000000  1.0
  Te  Te3  1  0.63241657  -0.63241657  0.96711056  1.0
  Te  Te4  1  1.36758343  -0.36758343  0.03288944  1.0
  Te  Te5  1  0.89417778  -0.89417778  0.55694204  1.0
  Te  Te6  1  1.10582222  -0.10582222  0.44305796  1.0
