# generated using pymatgen
data_CuH4C2(N4O)2
_symmetry_space_group_name_H-M   'P 1'
_cell_length_a   7.55035477
_cell_length_b   7.57201774
_cell_length_c   8.11579413
_cell_angle_alpha   56.97628774
_cell_angle_beta   66.14621285
_cell_angle_gamma   70.64279953
_symmetry_Int_Tables_number   1
_chemical_formula_structural   CuH4C2(N4O)2
_chemical_formula_sum   'Cu2 H8 C4 N16 O4'
_cell_volume   352.04894835
_cell_formula_units_Z   2
loop_
 _symmetry_equiv_pos_site_id
 _symmetry_equiv_pos_as_xyz
  1  'x, y, z'
loop_
 _atom_site_type_symbol
 _atom_site_label
 _atom_site_symmetry_multiplicity
 _atom_site_fract_x
 _atom_site_fract_y
 _atom_site_fract_z
 _atom_site_occupancy
  N  N0  1  -0.95566662  0.24163196  0.30035611  1.0
  N  N1  1  -0.04433338  -0.24163196  0.69964389  1.0
  N  N2  1  -0.89096234  -0.80871167  0.88311707  1.0
  N  N3  1  -0.10903766  0.80871167  0.11688293  1.0
  N  N4  1  -0.74498762  0.42271313  0.56857054  1.0
  N  N5  1  -0.25501238  -0.42271313  0.43142946  1.0
  N  N6  1  -0.64313368  0.22975572  0.61092410  1.0
  N  N7  1  -0.35686632  -0.22975572  0.38907590  1.0
  N  N8  1  -0.34660633  -0.29625303  0.85705001  1.0
  N  N9  1  -0.65339367  0.29625303  0.14294999  1.0
  N  N10  1  -0.22762735  -0.15408054  0.75945848  1.0
  N  N11  1  -0.77237265  0.15408054  0.24054152  1.0
  N  N12  1  -0.73158890  0.09351858  0.79902889  1.0
  N  N13  1  -0.26841110  -0.09351858  0.20097111  1.0
  N  N14  1  -0.24383640  -0.48018693  0.86367424  1.0
  N  N15  1  -0.75616360  0.48018693  0.13632576  1.0
  Cu  Cu16  1  -0.67344388  -0.22388186  0.95070782  1.0
  Cu  Cu17  1  -0.32655612  0.22388186  0.04929218  1.0
  O  O18  1  -0.66828387  0.78324623  0.19242327  1.0
  O  O19  1  -0.33171613  -0.78324623  0.80757673  1.0
  O  O20  1  -0.68270123  -0.24719271  0.71657810  1.0
  O  O21  1  -0.31729877  0.24719271  0.28342190  1.0
  C  C22  1  -0.94304056  0.44305560  0.23546354  1.0
  C  C23  1  -0.05695944  -0.44305560  0.76453646  1.0
  C  C24  1  -0.89684772  -0.60474412  0.73780701  1.0
  C  C25  1  -0.10315228  0.60474412  0.26219299  1.0
  H  H26  1  -0.81006445  -0.20554804  0.68590937  1.0
  H  H27  1  -0.18993555  0.20554804  0.31409063  1.0
  H  H28  1  -0.69742577  0.65373823  0.33030909  1.0
  H  H29  1  -0.30257423  -0.65373823  0.66969091  1.0
  H  H30  1  -0.57280949  -0.21348496  0.58718833  1.0
  H  H31  1  -0.42719051  0.21348496  0.41281167  1.0
  H  H32  1  -0.28379265  0.08704902  0.79000615  1.0
  H  H33  1  -0.71620735  -0.08704902  0.20999385  1.0
