# generated using pymatgen
data_Sc2S3
_symmetry_space_group_name_H-M   'P 1'
_cell_length_a   12.24669848
_cell_length_b   11.68476862
_cell_length_c   6.41078688
_cell_angle_alpha   79.36446723
_cell_angle_beta   69.67296508
_cell_angle_gamma   30.96256769
_symmetry_Int_Tables_number   1
_chemical_formula_structural   Sc2S3
_chemical_formula_sum   'Sc8 S12'
_cell_volume   430.19915252
_cell_formula_units_Z   4
loop_
 _symmetry_equiv_pos_site_id
 _symmetry_equiv_pos_as_xyz
  1  'x, y, z'
loop_
 _atom_site_type_symbol
 _atom_site_label
 _atom_site_symmetry_multiplicity
 _atom_site_fract_x
 _atom_site_fract_y
 _atom_site_fract_z
 _atom_site_occupancy
  Sc  Sc0  1  0.58349936  -0.41650064  0.41650064  1.0
  Sc  Sc1  1  1.41650064  0.41650064  -0.41650064  1.0
  Sc  Sc2  1  -0.33349936  0.66650064  0.83349936  1.0
  Sc  Sc3  1  0.83349936  0.83349936  -0.33349936  1.0
  Sc  Sc4  1  0.24763668  0.24763668  -0.24763668  1.0
  Sc  Sc5  1  0.75236332  0.75236332  -0.75236332  1.0
  Sc  Sc6  1  0.00236332  0.00236332  0.49763668  1.0
  Sc  Sc7  1  0.49763668  1.49763668  0.00236332  1.0
  S  S8  1  0.25937692  -0.25937692  0.74062308  1.0
  S  S9  1  -0.00937692  0.50937692  0.50937692  1.0
  S  S10  1  -0.25937692  0.25937692  1.25937692  1.0
  S  S11  1  -0.49062308  0.99062308  0.99062308  1.0
  S  S12  1  1.16570016  0.67303730  -0.65629012  1.0
  S  S13  1  -0.18244733  0.34370988  0.67303730  1.0
  S  S14  1  1.08429984  0.57696270  0.90629012  1.0
  S  S15  1  0.43244733  -0.09370988  0.57696270  1.0
  S  S16  1  -0.65629012  0.81755267  1.16570016  1.0
  S  S17  1  0.67303730  1.16570016  -0.18244733  1.0
  S  S18  1  0.90629012  -0.56755267  1.08429984  1.0
  S  S19  1  0.57696270  1.08429984  0.43244733  1.0
