# generated using pymatgen
data_B
_symmetry_space_group_name_H-M   'P 1'
_cell_length_a   10.50435698
_cell_length_b   2.98773937
_cell_length_c   14.38296598
_cell_angle_alpha   90.00000000
_cell_angle_beta   134.66722224
_cell_angle_gamma   90.00000000
_symmetry_Int_Tables_number   1
_chemical_formula_structural   B
_chemical_formula_sum   B40
_cell_volume   321.03579241
_cell_formula_units_Z   40
loop_
 _symmetry_equiv_pos_site_id
 _symmetry_equiv_pos_as_xyz
  1  'x, y, z'
loop_
 _atom_site_type_symbol
 _atom_site_label
 _atom_site_symmetry_multiplicity
 _atom_site_fract_x
 _atom_site_fract_y
 _atom_site_fract_z
 _atom_site_occupancy
  B  B0  1  0.43939431  0.09534210  0.33036783  1.0
  B  B1  1  0.56060569  0.90465790  0.66963217  1.0
  B  B2  1  0.43939431  0.90465790  0.83036783  1.0
  B  B3  1  0.56060569  0.09534209  0.16963217  1.0
  B  B4  1  0.53373411  0.57187582  0.33010724  1.0
  B  B5  1  0.46626589  0.42812416  0.66989276  1.0
  B  B6  1  0.53373411  0.42812417  0.83010724  1.0
  B  B7  1  0.46626589  0.57187582  0.16989276  1.0
  B  B8  1  0.31344104  0.44160329  0.17791791  1.0
  B  B9  1  0.68655895  0.55839670  0.82208209  1.0
  B  B10  1  0.31344105  0.55839672  0.67791791  1.0
  B  B11  1  0.68655895  0.44160329  0.32208209  1.0
  B  B12  1  0.18656936  0.55862513  0.32209907  1.0
  B  B13  1  0.81343064  0.44137486  0.67790093  1.0
  B  B14  1  0.18656936  0.44137487  0.82209907  1.0
  B  B15  1  0.81343064  0.55862512  0.17790093  1.0
  B  B16  1  0.83766359  0.90888437  0.08252154  1.0
  B  B17  1  0.16233642  0.09111563  0.91747847  1.0
  B  B18  1  0.83766358  0.09111563  0.58252153  1.0
  B  B19  1  0.16233642  0.90888437  0.41747847  1.0
  B  B20  1  -0.03371788  0.42828645  0.16989940  1.0
  B  B21  1  1.03371788  0.57171356  0.83010059  1.0
  B  B22  1  -0.03371788  0.57171354  0.66989940  1.0
  B  B23  1  1.03371788  0.42828647  0.33010059  1.0
  B  B24  1  0.22424367  -0.06521084  0.17159471  1.0
  B  B25  1  0.77575634  0.06521084  0.82840529  1.0
  B  B26  1  0.22424367  0.06521085  0.67159471  1.0
  B  B27  1  0.77575633  -0.06521084  0.32840529  1.0
  B  B28  1  0.27578398  1.06545513  0.32842793  1.0
  B  B29  1  0.72421602  -0.06545512  0.67157207  1.0
  B  B30  1  0.27578398  -0.06545513  0.82842793  1.0
  B  B31  1  0.72421602  1.06545512  0.17157208  1.0
  B  B32  1  0.06064426  0.90484499  0.16966059  1.0
  B  B33  1  0.93935574  0.09515501  0.83033941  1.0
  B  B34  1  0.06064426  0.09515502  0.66966059  1.0
  B  B35  1  0.93935574  0.90484498  0.33033941  1.0
  B  B36  1  0.66236990  0.09121689  0.41746891  1.0
  B  B37  1  0.33763010  -0.09121688  0.58253109  1.0
  B  B38  1  0.66236991  -0.09121689  0.91746891  1.0
  B  B39  1  0.33763009  0.09121689  0.08253109  1.0
