# generated using pymatgen
data_La3CoSiS7
_symmetry_space_group_name_H-M   'P 1'
_cell_length_a   10.34622229
_cell_length_b   10.34622229
_cell_length_c   5.76127085
_cell_angle_alpha   90.00000000
_cell_angle_beta   90.00000000
_cell_angle_gamma   120.00000000
_symmetry_Int_Tables_number   1
_chemical_formula_structural   La3CoSiS7
_chemical_formula_sum   'La6 Co2 Si2 S14'
_cell_volume   534.08764939
_cell_formula_units_Z   2
loop_
 _symmetry_equiv_pos_site_id
 _symmetry_equiv_pos_as_xyz
  1  'x, y, z'
loop_
 _atom_site_type_symbol
 _atom_site_label
 _atom_site_symmetry_multiplicity
 _atom_site_fract_x
 _atom_site_fract_y
 _atom_site_fract_z
 _atom_site_occupancy
  La  La0  1  0.76874377  0.64474832  0.23307216  1.0
  La  La1  1  0.64474832  0.87600454  0.73307216  1.0
  La  La2  1  0.87600454  0.23125623  0.23307216  1.0
  La  La3  1  0.35525168  0.12399546  0.23307216  1.0
  La  La4  1  0.23125623  0.35525168  0.73307216  1.0
  La  La5  1  0.12399546  0.76874377  0.73307216  1.0
  Co  Co6  1  0.00000000  0.00000000  -0.01743970  1.0
  Co  Co7  1  0.00000000  0.00000000  0.48256030  1.0
  Si  Si8  1  0.33333333  0.66666667  0.15028554  1.0
  Si  Si9  1  0.66666667  0.33333333  0.65028554  1.0
  S  S10  1  0.41028670  0.88576364  0.01128717  1.0
  S  S11  1  0.88576364  0.47547695  0.51128717  1.0
  S  S12  1  0.47547695  0.58971330  0.01128717  1.0
  S  S13  1  0.11423636  0.52452305  0.01128717  1.0
  S  S14  1  0.58971330  0.11423636  0.51128717  1.0
  S  S15  1  0.52452305  0.41028670  0.51128717  1.0
  S  S16  1  0.08117000  0.84746524  0.24971406  1.0
  S  S17  1  0.84746524  0.76629523  0.74971406  1.0
  S  S18  1  0.76629523  0.91883000  0.24971406  1.0
  S  S19  1  0.15253476  0.23370477  0.24971406  1.0
  S  S20  1  0.91883000  0.15253476  0.74971406  1.0
  S  S21  1  0.23370477  0.08117000  0.74971406  1.0
  S  S22  1  0.33333333  0.66666667  0.51593397  1.0
  S  S23  1  0.66666667  0.33333333  0.01593397  1.0
