# generated using pymatgen
data_Ba3Ir(CN)3
_symmetry_space_group_name_H-M   'P 1'
_cell_length_a   9.30660238
_cell_length_b   9.30660238
_cell_length_c   5.82301719
_cell_angle_alpha   90.00000000
_cell_angle_beta   90.00000000
_cell_angle_gamma   120.00000000
_symmetry_Int_Tables_number   1
_chemical_formula_structural   Ba3Ir(CN)3
_chemical_formula_sum   'Ba6 Ir2 C6 N6'
_cell_volume   436.77826861
_cell_formula_units_Z   2
loop_
 _symmetry_equiv_pos_site_id
 _symmetry_equiv_pos_as_xyz
  1  'x, y, z'
loop_
 _atom_site_type_symbol
 _atom_site_label
 _atom_site_symmetry_multiplicity
 _atom_site_fract_x
 _atom_site_fract_y
 _atom_site_fract_z
 _atom_site_occupancy
  Ba  Ba0  1  0.92802165  0.62360316  0.25000000  1.0
  Ba  Ba1  1  0.62360316  0.69558151  0.75000000  1.0
  Ba  Ba2  1  0.69558151  0.07197835  0.25000000  1.0
  Ba  Ba3  1  0.37639684  0.30441849  0.25000000  1.0
  Ba  Ba4  1  0.07197835  0.37639684  0.75000000  1.0
  Ba  Ba5  1  0.30441849  0.92802165  0.75000000  1.0
  Ir  Ir6  1  0.33333333  0.66666667  0.25000000  1.0
  Ir  Ir7  1  0.66666667  0.33333333  0.75000000  1.0
  C  C8  1  0.29994656  0.85260596  0.25000000  1.0
  C  C9  1  0.85260596  0.55265940  0.75000000  1.0
  C  C10  1  0.55265940  0.70005344  0.25000000  1.0
  C  C11  1  0.14739404  0.44734060  0.25000000  1.0
  C  C12  1  0.70005344  0.14739404  0.75000000  1.0
  C  C13  1  0.44734060  0.29994656  0.75000000  1.0
  N  N14  1  0.27300243  0.97011892  0.25000000  1.0
  N  N15  1  0.97011892  0.69711649  0.75000000  1.0
  N  N16  1  0.69711649  0.72699757  0.25000000  1.0
  N  N17  1  0.02988108  0.30288351  0.25000000  1.0
  N  N18  1  0.72699757  0.02988108  0.75000000  1.0
  N  N19  1  0.30288351  0.27300243  0.75000000  1.0
