# generated using pymatgen
data_CdPtC6(N3O)2
_symmetry_space_group_name_H-M   'P 1'
_cell_length_a   7.80851335
_cell_length_b   7.80851335
_cell_length_c   7.80851335
_cell_angle_alpha   60.00000000
_cell_angle_beta   60.00000000
_cell_angle_gamma   60.00000000
_symmetry_Int_Tables_number   1
_chemical_formula_structural   CdPtC6(N3O)2
_chemical_formula_sum   'Cd1 Pt1 C6 N6 O2'
_cell_volume   336.65887974
_cell_formula_units_Z   1
loop_
 _symmetry_equiv_pos_site_id
 _symmetry_equiv_pos_as_xyz
  1  'x, y, z'
loop_
 _atom_site_type_symbol
 _atom_site_label
 _atom_site_symmetry_multiplicity
 _atom_site_fract_x
 _atom_site_fract_y
 _atom_site_fract_z
 _atom_site_occupancy
  Cd  Cd0  1  0.50000000  -0.50000000  0.50000000  1.0
  Pt  Pt1  1  0.00000000  0.00000000  0.00000000  1.0
  C  C2  1  0.18257222  0.18257222  -0.18257222  1.0
  C  C3  1  0.81742778  -0.18257222  0.18257222  1.0
  C  C4  1  -0.18257222  0.18257222  1.18257222  1.0
  C  C5  1  0.18257222  -0.18257222  0.81742778  1.0
  C  C6  1  0.18257222  -0.18257222  0.18257222  1.0
  C  C7  1  0.81742778  -0.81742778  0.81742778  1.0
  N  N8  1  0.28767354  0.28767354  -0.28767354  1.0
  N  N9  1  0.71232646  -0.28767354  0.28767354  1.0
  N  N10  1  -0.28767354  0.28767354  1.28767354  1.0
  N  N11  1  0.28767354  -0.28767354  0.71232646  1.0
  N  N12  1  0.28767354  -0.28767354  0.28767354  1.0
  N  N13  1  0.71232646  -0.71232646  0.71232646  1.0
  O  O14  1  0.25000000  0.25000000  1.25000000  1.0
  O  O15  1  0.75000000  -0.25000000  0.75000000  1.0
