# generated using pymatgen
data_HfO2
_symmetry_space_group_name_H-M   'P 1'
_cell_length_a   5.09228114
_cell_length_b   10.06735063
_cell_length_c   5.25508426
_cell_angle_alpha   90.00000000
_cell_angle_beta   90.00000000
_cell_angle_gamma   90.00000000
_symmetry_Int_Tables_number   1
_chemical_formula_structural   HfO2
_chemical_formula_sum   'Hf8 O16'
_cell_volume   269.40599202
_cell_formula_units_Z   8
loop_
 _symmetry_equiv_pos_site_id
 _symmetry_equiv_pos_as_xyz
  1  'x, y, z'
loop_
 _atom_site_type_symbol
 _atom_site_label
 _atom_site_symmetry_multiplicity
 _atom_site_fract_x
 _atom_site_fract_y
 _atom_site_fract_z
 _atom_site_occupancy
  Hf  Hf0  1  0.25389609  0.11569892  0.03548136  1.0
  Hf  Hf1  1  0.25389609  0.38430108  0.53548136  1.0
  Hf  Hf2  1  0.75389609  0.11569892  0.46451864  1.0
  Hf  Hf3  1  0.75389609  0.38430108  0.96451864  1.0
  Hf  Hf4  1  0.74610391  0.61569892  0.46451864  1.0
  Hf  Hf5  1  0.74610391  0.88430108  0.96451864  1.0
  Hf  Hf6  1  0.24610391  0.61569892  0.03548136  1.0
  Hf  Hf7  1  0.24610391  0.88430108  0.53548136  1.0
  O  O8  1  0.49754288  0.47739415  0.23848317  1.0
  O  O9  1  0.49754288  0.02260585  0.73848317  1.0
  O  O10  1  0.99754288  0.47739415  0.26151683  1.0
  O  O11  1  0.99754288  0.02260585  0.76151683  1.0
  O  O12  1  0.50245712  0.97739415  0.26151683  1.0
  O  O13  1  0.50245712  0.52260585  0.76151683  1.0
  O  O14  1  0.00245712  0.97739415  0.23848317  1.0
  O  O15  1  0.00245712  0.52260585  0.73848317  1.0
  O  O16  1  0.12486251  0.21088600  0.37286792  1.0
  O  O17  1  0.12486251  0.28911400  0.87286792  1.0
  O  O18  1  0.62486251  0.21088600  0.12713208  1.0
  O  O19  1  0.62486251  0.28911400  0.62713208  1.0
  O  O20  1  0.87513749  0.71088600  0.12713208  1.0
  O  O21  1  0.87513749  0.78911400  0.62713208  1.0
  O  O22  1  0.37513749  0.71088600  0.37286792  1.0
  O  O23  1  0.37513749  0.78911400  0.87286792  1.0
