# generated using pymatgen
data_RbGa(SeO4)2
_symmetry_space_group_name_H-M   'P 1'
_cell_length_a   5.09556163
_cell_length_b   5.09556163
_cell_length_c   8.88597362
_cell_angle_alpha   90.00000000
_cell_angle_beta   90.00000000
_cell_angle_gamma   120.00000000
_symmetry_Int_Tables_number   1
_chemical_formula_structural   RbGa(SeO4)2
_chemical_formula_sum   'Rb1 Ga1 Se2 O8'
_cell_volume   199.81117297
_cell_formula_units_Z   1
loop_
 _symmetry_equiv_pos_site_id
 _symmetry_equiv_pos_as_xyz
  1  'x, y, z'
loop_
 _atom_site_type_symbol
 _atom_site_label
 _atom_site_symmetry_multiplicity
 _atom_site_fract_x
 _atom_site_fract_y
 _atom_site_fract_z
 _atom_site_occupancy
  Rb  Rb0  1  -0.00000000  0.00000000  0.50000000  1.0
  Ga  Ga1  1  0.00000000  0.00000000  0.00000000  1.0
  Se  Se2  1  0.33333333  0.66666667  0.20573847  1.0
  Se  Se3  1  0.66666667  0.33333333  0.79426153  1.0
  O  O4  1  0.26692414  0.94117148  0.14681055  1.0
  O  O5  1  0.94117148  0.26692414  0.85318945  1.0
  O  O6  1  0.67424734  0.73307586  0.14681055  1.0
  O  O7  1  0.05882852  0.32575266  0.14681055  1.0
  O  O8  1  0.73307586  0.67424734  0.85318945  1.0
  O  O9  1  0.32575266  0.05882852  0.85318945  1.0
  O  O10  1  0.33333333  0.66666667  0.39014644  1.0
  O  O11  1  0.66666667  0.33333333  0.60985356  1.0
