# generated using pymatgen
data_LiYSi
_symmetry_space_group_name_H-M   'P 1'
_cell_length_a   7.01433343
_cell_length_b   7.01433343
_cell_length_c   4.22940599
_cell_angle_alpha   90.00000000
_cell_angle_beta   90.00000000
_cell_angle_gamma   120.00000000
_symmetry_Int_Tables_number   1
_chemical_formula_structural   LiYSi
_chemical_formula_sum   'Li3 Y3 Si3'
_cell_volume   180.21163231
_cell_formula_units_Z   3
loop_
 _symmetry_equiv_pos_site_id
 _symmetry_equiv_pos_as_xyz
  1  'x, y, z'
loop_
 _atom_site_type_symbol
 _atom_site_label
 _atom_site_symmetry_multiplicity
 _atom_site_fract_x
 _atom_site_fract_y
 _atom_site_fract_z
 _atom_site_occupancy
  Li  Li0  1  0.76827245  0.76827245  0.50000000  1.0
  Li  Li1  1  0.00000000  0.23172755  0.50000000  1.0
  Li  Li2  1  0.23172755  0.00000000  0.50000000  1.0
  Y  Y3  1  0.42612746  0.42612746  0.00000000  1.0
  Y  Y4  1  -0.00000000  0.57387254  0.00000000  1.0
  Y  Y5  1  0.57387254  0.00000000  0.00000000  1.0
  Si  Si6  1  0.33333333  0.66666667  0.50000000  1.0
  Si  Si7  1  0.66666667  0.33333333  0.50000000  1.0
  Si  Si8  1  0.00000000  0.00000000  0.00000000  1.0
