# generated using pymatgen
data_TiO2
_symmetry_space_group_name_H-M   'P 1'
_cell_length_a   7.43013238
_cell_length_b   7.43013238
_cell_length_c   7.43013238
_cell_angle_alpha   92.29786430
_cell_angle_beta   92.29786430
_cell_angle_gamma   156.89845316
_symmetry_Int_Tables_number   1
_chemical_formula_structural   TiO2
_chemical_formula_sum   'Ti4 O8'
_cell_volume   157.68514003
_cell_formula_units_Z   4
loop_
 _symmetry_equiv_pos_site_id
 _symmetry_equiv_pos_as_xyz
  1  'x, y, z'
loop_
 _atom_site_type_symbol
 _atom_site_label
 _atom_site_symmetry_multiplicity
 _atom_site_fract_x
 _atom_site_fract_y
 _atom_site_fract_z
 _atom_site_occupancy
  Ti  Ti0  1  0.63893130  0.82348588  1.46241719  1.0
  Ti  Ti1  1  0.82348588  1.36106870  1.18455458  1.0
  Ti  Ti2  1  0.36106870  0.17651412  0.53758281  1.0
  Ti  Ti3  1  1.17651412  0.63893130  0.81544542  1.0
  O  O4  1  0.84456336  0.79051176  0.63507513  1.0
  O  O5  1  0.79051176  0.15543664  0.94594840  1.0
  O  O6  1  1.15543664  1.20948824  1.36492487  1.0
  O  O7  1  0.20948824  0.84456336  1.05405160  1.0
  O  O8  1  0.83675147  0.54208612  0.37883759  1.0
  O  O9  1  0.54208612  0.16324853  0.70533465  1.0
  O  O10  1  1.16324853  1.45791388  1.62116241  1.0
  O  O11  1  0.45791388  0.83675147  1.29466535  1.0
