# generated using pymatgen
data_Pb(NO3)2
_symmetry_space_group_name_H-M   'P 1'
_cell_length_a   7.98089673
_cell_length_b   7.98089673
_cell_length_c   7.98089673
_cell_angle_alpha   90.00000000
_cell_angle_beta   90.00000000
_cell_angle_gamma   90.00000000
_symmetry_Int_Tables_number   1
_chemical_formula_structural   Pb(NO3)2
_chemical_formula_sum   'Pb4 N8 O24'
_cell_volume   508.34092324
_cell_formula_units_Z   4
loop_
 _symmetry_equiv_pos_site_id
 _symmetry_equiv_pos_as_xyz
  1  'x, y, z'
loop_
 _atom_site_type_symbol
 _atom_site_label
 _atom_site_symmetry_multiplicity
 _atom_site_fract_x
 _atom_site_fract_y
 _atom_site_fract_z
 _atom_site_occupancy
  Pb  Pb0  1  0.75004261  0.25004261  0.24995739  1.0
  Pb  Pb1  1  0.25004261  0.24995739  0.75004261  1.0
  Pb  Pb2  1  0.24995739  0.75004261  0.25004261  1.0
  Pb  Pb3  1  0.74995739  0.74995739  0.74995739  1.0
  N  N4  1  0.40613469  0.90613469  0.59386531  1.0
  N  N5  1  0.90613469  0.59386531  0.40613469  1.0
  N  N6  1  0.59386531  0.40613469  0.90613469  1.0
  N  N7  1  0.09386531  0.09386531  0.09386531  1.0
  N  N8  1  0.09387091  0.59387091  0.90612909  1.0
  N  N9  1  0.59387091  0.90612909  0.09387091  1.0
  N  N10  1  0.90612909  0.09387091  0.59387091  1.0
  N  N11  1  0.40612909  0.40612909  0.40612909  1.0
  O  O12  1  0.47675449  0.77714453  0.53532291  1.0
  O  O13  1  0.97675449  0.72285547  0.46467709  1.0
  O  O14  1  0.27714453  0.96467709  0.52324551  1.0
  O  O15  1  0.77714453  0.53532291  0.47675449  1.0
  O  O16  1  0.46467709  0.97675449  0.72285547  1.0
  O  O17  1  0.96467709  0.52324551  0.27714453  1.0
  O  O18  1  0.52324551  0.27714453  0.96467709  1.0
  O  O19  1  0.02324551  0.22285547  0.03532291  1.0
  O  O20  1  0.72285547  0.46467709  0.97675449  1.0
  O  O21  1  0.22285547  0.03532291  0.02324551  1.0
  O  O22  1  0.53532291  0.47675449  0.77714453  1.0
  O  O23  1  0.03532291  0.02324551  0.22285547  1.0
  O  O24  1  0.22285523  0.53539201  0.97680715  1.0
  O  O25  1  0.72285523  0.96460799  0.02319285  1.0
  O  O26  1  0.03539201  0.52319285  0.77714477  1.0
  O  O27  1  0.53539201  0.97680715  0.22285523  1.0
  O  O28  1  0.02319285  0.72285523  0.96460799  1.0
  O  O29  1  0.52319285  0.77714477  0.03539201  1.0
  O  O30  1  0.77714477  0.03539201  0.52319285  1.0
  O  O31  1  0.27714477  0.46460799  0.47680715  1.0
  O  O32  1  0.96460799  0.02319285  0.72285523  1.0
  O  O33  1  0.46460799  0.47680715  0.27714477  1.0
  O  O34  1  0.97680715  0.22285523  0.53539201  1.0
  O  O35  1  0.47680715  0.27714477  0.46460799  1.0
