# generated using pymatgen
data_ScGa2
_symmetry_space_group_name_H-M   'P 1'
_cell_length_a   6.67734647
_cell_length_b   6.67734647
_cell_length_c   4.15440687
_cell_angle_alpha   90.00000000
_cell_angle_beta   90.00000000
_cell_angle_gamma   144.14291239
_symmetry_Int_Tables_number   1
_chemical_formula_structural   ScGa2
_chemical_formula_sum   'Sc2 Ga4'
_cell_volume   108.50272370
_cell_formula_units_Z   2
loop_
 _symmetry_equiv_pos_site_id
 _symmetry_equiv_pos_as_xyz
  1  'x, y, z'
loop_
 _atom_site_type_symbol
 _atom_site_label
 _atom_site_symmetry_multiplicity
 _atom_site_fract_x
 _atom_site_fract_y
 _atom_site_fract_z
 _atom_site_occupancy
  Sc  Sc0  1  -0.84699944  0.84699944  0.50000000  1.0
  Sc  Sc1  1  -0.15300056  1.15300056  0.50000000  1.0
  Ga  Ga2  1  -0.67700023  0.67700023  0.00000000  1.0
  Ga  Ga3  1  -0.32299977  1.32299977  0.00000000  1.0
  Ga  Ga4  1  0.50000000  0.50000000  0.50000000  1.0
  Ga  Ga5  1  0.00000000  0.00000000  0.00000000  1.0
