# generated using pymatgen
data_Rb2ZnH4
_symmetry_space_group_name_H-M   'P 1'
_cell_length_a   8.24191811
_cell_length_b   6.07341832
_cell_length_c   10.72428959
_cell_angle_alpha   90.00000000
_cell_angle_beta   90.00000000
_cell_angle_gamma   90.00000000
_symmetry_Int_Tables_number   1
_chemical_formula_structural   Rb2ZnH4
_chemical_formula_sum   'Rb8 Zn4 H16'
_cell_volume   536.82165017
_cell_formula_units_Z   4
loop_
 _symmetry_equiv_pos_site_id
 _symmetry_equiv_pos_as_xyz
  1  'x, y, z'
loop_
 _atom_site_type_symbol
 _atom_site_label
 _atom_site_symmetry_multiplicity
 _atom_site_fract_x
 _atom_site_fract_y
 _atom_site_fract_z
 _atom_site_occupancy
  Rb  Rb0  1  0.84150727  0.75000000  0.40712001  1.0
  Rb  Rb1  1  0.34150727  0.75000000  0.09287999  1.0
  Rb  Rb2  1  0.15849273  0.25000000  0.59287999  1.0
  Rb  Rb3  1  0.65849273  0.25000000  0.90712001  1.0
  Rb  Rb4  1  0.51357881  0.75000000  0.68472657  1.0
  Rb  Rb5  1  0.01357881  0.75000000  0.81527343  1.0
  Rb  Rb6  1  0.48642119  0.25000000  0.31527343  1.0
  Rb  Rb7  1  0.98642119  0.25000000  0.18472657  1.0
  Zn  Zn8  1  0.75970777  0.75000000  0.08298616  1.0
  Zn  Zn9  1  0.25970777  0.75000000  0.41701384  1.0
  Zn  Zn10  1  0.24029223  0.25000000  0.91701384  1.0
  Zn  Zn11  1  0.74029223  0.25000000  0.58298616  1.0
  H  H12  1  0.68629880  0.97405000  0.15236468  1.0
  H  H13  1  0.68629880  0.52595000  0.15236468  1.0
  H  H14  1  0.18629880  0.97405000  0.34763532  1.0
  H  H15  1  0.18629880  0.52595000  0.34763532  1.0
  H  H16  1  0.31370120  0.47405000  0.84763532  1.0
  H  H17  1  0.31370120  0.02595000  0.84763532  1.0
  H  H18  1  0.81370120  0.47405000  0.65236468  1.0
  H  H19  1  0.81370120  0.02595000  0.65236468  1.0
  H  H20  1  0.96058289  0.75000000  0.09110204  1.0
  H  H21  1  0.46058289  0.75000000  0.40889796  1.0
  H  H22  1  0.03941711  0.25000000  0.90889796  1.0
  H  H23  1  0.53941711  0.25000000  0.59110204  1.0
  H  H24  1  0.19448646  0.75000000  0.56481587  1.0
  H  H25  1  0.69448646  0.75000000  0.93518413  1.0
  H  H26  1  0.80551354  0.25000000  0.43518413  1.0
  H  H27  1  0.30551354  0.25000000  0.06481587  1.0
