# generated using pymatgen
data_TaPS
_symmetry_space_group_name_H-M   'P 1'
_cell_length_a   6.64496757
_cell_length_b   6.64496757
_cell_length_c   6.64496757
_cell_angle_alpha   149.94375626
_cell_angle_beta   138.11551562
_cell_angle_gamma   52.40857839
_symmetry_Int_Tables_number   1
_chemical_formula_structural   TaPS
_chemical_formula_sum   'Ta2 P2 S2'
_cell_volume   97.59285509
_cell_formula_units_Z   2
loop_
 _symmetry_equiv_pos_site_id
 _symmetry_equiv_pos_as_xyz
  1  'x, y, z'
loop_
 _atom_site_type_symbol
 _atom_site_label
 _atom_site_symmetry_multiplicity
 _atom_site_fract_x
 _atom_site_fract_y
 _atom_site_fract_z
 _atom_site_occupancy
  Ta  Ta0  1  0.87732949  0.37732949  0.50000000  1.0
  Ta  Ta1  1  0.12267051  0.62267051  0.50000000  1.0
  P  P2  1  0.73664471  0.00000000  0.73664471  1.0
  P  P3  1  0.26335529  -0.00000000  0.26335529  1.0
  S  S4  1  0.71326089  0.71326089  1.00000000  1.0
  S  S5  1  0.28673911  0.28673911  0.00000000  1.0
