# generated using pymatgen
data_Ge3Rh2Se3
_symmetry_space_group_name_H-M   'P 1'
_cell_length_a   8.64947743
_cell_length_b   8.64947743
_cell_length_c   8.64947743
_cell_angle_alpha   89.84350429
_cell_angle_beta   89.84350429
_cell_angle_gamma   89.84350429
_symmetry_Int_Tables_number   1
_chemical_formula_structural   Ge3Rh2Se3
_chemical_formula_sum   'Ge12 Rh8 Se12'
_cell_volume   647.09010422
_cell_formula_units_Z   4
loop_
 _symmetry_equiv_pos_site_id
 _symmetry_equiv_pos_as_xyz
  1  'x, y, z'
loop_
 _atom_site_type_symbol
 _atom_site_label
 _atom_site_symmetry_multiplicity
 _atom_site_fract_x
 _atom_site_fract_y
 _atom_site_fract_z
 _atom_site_occupancy
  Ge  Ge0  1  0.65210312  0.50203624  -0.83506196  1.0
  Ge  Ge1  1  0.49796376  0.83506196  -0.65210312  1.0
  Ge  Ge2  1  0.83506196  0.34789688  -0.50203624  1.0
  Ge  Ge3  1  0.34789688  0.49796376  -0.16493804  1.0
  Ge  Ge4  1  0.50203624  0.16493804  -0.34789688  1.0
  Ge  Ge5  1  0.16493804  0.65210312  -0.49796376  1.0
  Ge  Ge6  1  0.66544755  -0.15155410  0.00217216  1.0
  Ge  Ge7  1  1.15155410  -0.00217216  -0.66544755  1.0
  Ge  Ge8  1  0.99782784  -0.66544755  0.15155410  1.0
  Ge  Ge9  1  0.33455245  0.15155410  -0.00217216  1.0
  Ge  Ge10  1  0.84844590  0.00217216  -0.33455245  1.0
  Ge  Ge11  1  1.00217216  -0.33455245  -0.15155410  1.0
  Rh  Rh12  1  0.74672124  0.75187891  -0.74935960  1.0
  Rh  Rh13  1  0.24812109  0.74935960  -0.74672124  1.0
  Rh  Rh14  1  0.74935960  0.25327876  -0.75187891  1.0
  Rh  Rh15  1  0.25327876  0.24812109  -0.25064040  1.0
  Rh  Rh16  1  0.75187891  0.25064040  -0.25327876  1.0
  Rh  Rh17  1  0.25064040  0.74672124  -0.24812109  1.0
  Rh  Rh18  1  0.75214633  0.75214633  -0.24785367  1.0
  Rh  Rh19  1  1.24785367  1.24785367  0.24785367  1.0
  Se  Se20  1  0.64295054  0.50332034  -0.14730627  1.0
  Se  Se21  1  0.49667966  0.14730627  -0.64295054  1.0
  Se  Se22  1  0.14730627  0.35704946  -0.50332034  1.0
  Se  Se23  1  0.35704946  0.49667966  -0.85269373  1.0
  Se  Se24  1  0.50332034  0.85269373  -0.35704946  1.0
  Se  Se25  1  0.85269373  0.64295054  -0.49667966  1.0
  Se  Se26  1  0.64756151  0.14347858  -0.00049211  1.0
  Se  Se27  1  0.85652142  0.00049211  -0.64756151  1.0
  Se  Se28  1  1.00049211  -0.64756151  -0.14347858  1.0
  Se  Se29  1  0.35243849  -0.14347858  0.00049211  1.0
  Se  Se30  1  1.14347858  -0.00049211  -0.35243849  1.0
  Se  Se31  1  0.99950789  -0.35243849  0.14347858  1.0
