# generated using pymatgen
data_Zr4Fe4Ge7
_symmetry_space_group_name_H-M   'P 1'
_cell_length_a   9.84077603
_cell_length_b   9.84077603
_cell_length_c   9.84077603
_cell_angle_alpha   93.96352545
_cell_angle_beta   93.96352545
_cell_angle_gamma   149.51445530
_symmetry_Int_Tables_number   1
_chemical_formula_structural   Zr4Fe4Ge7
_chemical_formula_sum   'Zr8 Fe8 Ge14'
_cell_volume   466.46318533
_cell_formula_units_Z   2
loop_
 _symmetry_equiv_pos_site_id
 _symmetry_equiv_pos_as_xyz
  1  'x, y, z'
loop_
 _atom_site_type_symbol
 _atom_site_label
 _atom_site_symmetry_multiplicity
 _atom_site_fract_x
 _atom_site_fract_y
 _atom_site_fract_z
 _atom_site_occupancy
  Zr  Zr0  1  0.00000000  0.80505711  0.80505711  1.0
  Zr  Zr1  1  0.80505711  1.00000000  0.80505711  1.0
  Zr  Zr2  1  1.19494289  1.00000000  1.19494289  1.0
  Zr  Zr3  1  -0.00000000  0.19494289  0.19494289  1.0
  Zr  Zr4  1  0.63896637  0.63896637  0.27793273  1.0
  Zr  Zr5  1  1.36103363  0.63896637  1.00000000  1.0
  Zr  Zr6  1  0.63896637  0.36103363  1.00000000  1.0
  Zr  Zr7  1  0.36103363  0.36103363  0.72206727  1.0
  Fe  Fe8  1  1.10148782  0.60148782  1.20297564  1.0
  Fe  Fe9  1  1.60148782  1.10148782  1.20297564  1.0
  Fe  Fe10  1  0.39851218  0.60148782  0.50000000  1.0
  Fe  Fe11  1  0.89851218  1.10148782  0.50000000  1.0
  Fe  Fe12  1  1.10148782  0.89851218  1.50000000  1.0
  Fe  Fe13  1  1.60148782  1.39851218  1.50000000  1.0
  Fe  Fe14  1  0.39851218  0.89851218  0.79702436  1.0
  Fe  Fe15  1  0.89851218  1.39851218  0.79702436  1.0
  Ge  Ge16  1  0.50000000  0.79009459  0.29009459  1.0
  Ge  Ge17  1  0.79009459  0.50000000  1.29009459  1.0
  Ge  Ge18  1  0.20990541  0.50000000  0.70990541  1.0
  Ge  Ge19  1  0.50000000  1.20990541  0.70990541  1.0
  Ge  Ge20  1  -0.00000000  0.59359894  0.59359894  1.0
  Ge  Ge21  1  0.59359894  1.00000000  0.59359894  1.0
  Ge  Ge22  1  1.40640106  1.00000000  1.40640106  1.0
  Ge  Ge23  1  -0.00000000  0.40640106  0.40640106  1.0
  Ge  Ge24  1  0.79348397  0.79348397  0.58696794  1.0
  Ge  Ge25  1  1.20651603  0.79348397  1.00000000  1.0
  Ge  Ge26  1  0.79348397  0.20651603  1.00000000  1.0
  Ge  Ge27  1  0.20651603  0.20651603  0.41303206  1.0
  Ge  Ge28  1  0.74879036  0.74879036  0.00000000  1.0
  Ge  Ge29  1  0.25120964  0.25120964  0.00000000  1.0
