# generated using pymatgen
data_Mg3As2
_symmetry_space_group_name_H-M   'P 1'
_cell_length_a   10.78593567
_cell_length_b   10.78593567
_cell_length_c   10.78593567
_cell_angle_alpha   109.47122063
_cell_angle_beta   109.47122063
_cell_angle_gamma   109.47122063
_symmetry_Int_Tables_number   1
_chemical_formula_structural   Mg3As2
_chemical_formula_sum   'Mg24 As16'
_cell_volume   965.94319271
_cell_formula_units_Z   8
loop_
 _symmetry_equiv_pos_site_id
 _symmetry_equiv_pos_as_xyz
  1  'x, y, z'
loop_
 _atom_site_type_symbol
 _atom_site_label
 _atom_site_symmetry_multiplicity
 _atom_site_fract_x
 _atom_site_fract_y
 _atom_site_fract_z
 _atom_site_occupancy
  Mg  Mg0  1  0.53067861  0.52397939  0.76503496  1.0
  Mg  Mg1  1  1.03067861  0.26564365  1.00669921  1.0
  Mg  Mg2  1  0.25894443  0.76564365  0.73496504  1.0
  Mg  Mg3  1  0.75894443  1.02397939  0.49330079  1.0
  Mg  Mg4  1  0.50669921  1.24105557  0.97602061  1.0
  Mg  Mg5  1  1.00669921  1.03067861  0.26564365  1.0
  Mg  Mg6  1  0.76503496  0.53067861  0.52397939  1.0
  Mg  Mg7  1  1.26503496  0.74105557  1.23435635  1.0
  Mg  Mg8  1  0.76564365  0.73496504  0.25894443  1.0
  Mg  Mg9  1  1.26564365  1.00669921  1.03067861  1.0
  Mg  Mg10  1  0.97602061  0.50669921  1.24105557  1.0
  Mg  Mg11  1  1.47602061  1.23496504  1.46932139  1.0
  Mg  Mg12  1  1.74105557  1.23435635  1.26503496  1.0
  Mg  Mg13  1  1.24105557  0.97602061  1.50669921  1.0
  Mg  Mg14  1  1.46932139  1.47602061  1.23496504  1.0
  Mg  Mg15  1  0.96932139  1.73435635  0.99330079  1.0
  Mg  Mg16  1  1.23496504  1.46932139  1.47602061  1.0
  Mg  Mg17  1  0.73496504  1.25894443  0.76564365  1.0
  Mg  Mg18  1  1.49330079  0.75894443  1.02397939  1.0
  Mg  Mg19  1  0.99330079  0.96932139  1.73435635  1.0
  Mg  Mg20  1  1.02397939  1.49330079  0.75894443  1.0
  Mg  Mg21  1  0.52397939  0.76503496  0.53067861  1.0
  Mg  Mg22  1  1.23435635  1.26503496  1.74105557  1.0
  Mg  Mg23  1  0.73435635  0.99330079  0.96932139  1.0
  As  As24  1  1.72802787  1.47802787  1.25000000  1.0
  As  As25  1  1.22802787  0.97802787  1.25000000  1.0
  As  As26  1  0.75000000  0.77197213  0.02197213  1.0
  As  As27  1  0.25000000  1.22802787  0.97802787  1.0
  As  As28  1  0.25000000  0.72802787  0.47802787  1.0
  As  As29  1  0.75000000  1.27197213  0.52197213  1.0
  As  As30  1  1.47802787  1.25000000  1.72802787  1.0
  As  As31  1  0.97802787  0.25000000  1.22802787  1.0
  As  As32  1  0.02197213  0.75000000  0.77197213  1.0
  As  As33  1  0.52197213  0.75000000  0.27197213  1.0
  As  As34  1  0.27197213  0.52197213  0.75000000  1.0
  As  As35  1  0.77197213  1.02197213  0.75000000  1.0
  As  As36  1  1.00000000  0.50000000  1.00000000  1.0
  As  As37  1  0.50000000  0.50000000  0.50000000  1.0
  As  As38  1  1.00000000  1.00000000  1.50000000  1.0
  As  As39  1  1.50000000  1.00000000  1.00000000  1.0
