# generated using pymatgen
data_GeS2
_symmetry_space_group_name_H-M   'P 1'
_cell_length_a   12.63086001
_cell_length_b   12.63086001
_cell_length_c   12.63086001
_cell_angle_alpha   124.22339835
_cell_angle_beta   124.22339835
_cell_angle_gamma   82.82835773
_symmetry_Int_Tables_number   1
_chemical_formula_structural   GeS2
_chemical_formula_sum   'Ge16 S32'
_cell_volume   1322.56169740
_cell_formula_units_Z   16
loop_
 _symmetry_equiv_pos_site_id
 _symmetry_equiv_pos_as_xyz
  1  'x, y, z'
loop_
 _atom_site_type_symbol
 _atom_site_label
 _atom_site_symmetry_multiplicity
 _atom_site_fract_x
 _atom_site_fract_y
 _atom_site_fract_z
 _atom_site_occupancy
  Ge  Ge0  1  1.18858509  0.89251635  0.45231071  1.0
  Ge  Ge1  1  1.68858509  1.23627438  1.29606874  1.0
  Ge  Ge2  1  0.14251635  0.93858509  0.95231071  1.0
  Ge  Ge3  1  0.64251635  0.69020564  1.20393126  1.0
  Ge  Ge4  1  1.56141491  1.35748365  1.04768929  1.0
  Ge  Ge5  1  1.06141491  1.01372562  0.20393126  1.0
  Ge  Ge6  1  1.60748365  1.31141491  1.54768929  1.0
  Ge  Ge7  1  1.10748365  1.55979436  1.29606874  1.0
  Ge  Ge8  1  0.94020564  1.39251635  0.70393126  1.0
  Ge  Ge9  1  1.44020564  1.73627438  1.54768929  1.0
  Ge  Ge10  1  0.48627438  0.43858509  0.79606874  1.0
  Ge  Ge11  1  0.98627438  0.19020564  1.04768929  1.0
  Ge  Ge12  1  1.80979436  1.85748365  1.79606874  1.0
  Ge  Ge13  1  1.30979436  1.51372562  0.95231071  1.0
  Ge  Ge14  1  1.26372562  0.81141491  0.70393126  1.0
  Ge  Ge15  1  0.76372562  1.05979436  0.45231071  1.0
  S  S16  1  0.86055213  0.86055213  -0.00000000  1.0
  S  S17  1  1.36055213  1.36055213  1.00000000  1.0
  S  S18  1  0.11055213  0.61055213  0.50000000  1.0
  S  S19  1  0.61055213  0.11055213  0.50000000  1.0
  S  S20  1  0.88944787  1.38944787  0.50000000  1.0
  S  S21  1  1.38944787  0.88944787  0.50000000  1.0
  S  S22  1  0.63944787  0.63944787  -0.00000000  1.0
  S  S23  1  1.13944787  1.13944787  1.00000000  1.0
  S  S24  1  0.94082172  1.37500000  1.06582172  1.0
  S  S25  1  1.44082172  1.37500000  1.56582172  1.0
  S  S26  1  1.62500000  1.69082172  1.56582172  1.0
  S  S27  1  1.12500000  1.55917828  0.93417828  1.0
  S  S28  1  0.80917828  0.87500000  0.43417828  1.0
  S  S29  1  1.30917828  0.87500000  0.93417828  1.0
  S  S30  1  1.62500000  1.19082172  1.06582172  1.0
  S  S31  1  1.12500000  1.05917828  0.43417828  1.0
  S  S32  1  1.54747157  1.27889231  0.82822868  1.0
  S  S33  1  1.04747157  1.21924289  0.26857926  1.0
  S  S34  1  1.52889231  1.29747157  1.32822868  1.0
  S  S35  1  1.02889231  1.70066363  1.23142074  1.0
  S  S36  1  1.20252843  0.97110769  0.67177132  1.0
  S  S37  1  1.70252843  1.03075711  1.23142074  1.0
  S  S38  1  0.22110769  0.95252843  1.17177132  1.0
  S  S39  1  0.72110769  0.54933637  1.26857926  1.0
  S  S40  1  1.95066363  1.77889231  1.73142074  1.0
  S  S41  1  1.45066363  1.71924289  1.17177132  1.0
  S  S42  1  1.46924289  0.79747157  0.76857926  1.0
  S  S43  1  0.96924289  1.20066363  0.67177132  1.0
  S  S44  1  0.79933637  1.47110769  0.76857926  1.0
  S  S45  1  1.29933637  1.53075711  1.32822868  1.0
  S  S46  1  0.28075711  0.45252843  0.73142074  1.0
  S  S47  1  0.78075711  0.04933637  0.82822868  1.0
