# generated using pymatgen
data_SrAl
_symmetry_space_group_name_H-M   'P 1'
_cell_length_a   12.76317736
_cell_length_b   12.76317736
_cell_length_c   12.76317736
_cell_angle_alpha   90.00000000
_cell_angle_beta   90.00000000
_cell_angle_gamma   90.00000000
_symmetry_Int_Tables_number   1
_chemical_formula_structural   SrAl
_chemical_formula_sum   'Sr32 Al32'
_cell_volume   2079.10495235
_cell_formula_units_Z   32
loop_
 _symmetry_equiv_pos_site_id
 _symmetry_equiv_pos_as_xyz
  1  'x, y, z'
loop_
 _atom_site_type_symbol
 _atom_site_label
 _atom_site_symmetry_multiplicity
 _atom_site_fract_x
 _atom_site_fract_y
 _atom_site_fract_z
 _atom_site_occupancy
  Sr  Sr0  1  0.45190433  0.73107343  0.81387129  1.0
  Sr  Sr1  1  0.95190433  0.76892657  0.18612871  1.0
  Sr  Sr2  1  0.23107343  0.68612871  0.54809567  1.0
  Sr  Sr3  1  0.73107343  0.81387129  0.45190433  1.0
  Sr  Sr4  1  0.18612871  0.95190433  0.76892657  1.0
  Sr  Sr5  1  0.68612871  0.54809567  0.23107343  1.0
  Sr  Sr6  1  0.54809567  0.23107343  0.68612871  1.0
  Sr  Sr7  1  0.04809567  0.26892657  0.31387129  1.0
  Sr  Sr8  1  0.76892657  0.18612871  0.95190433  1.0
  Sr  Sr9  1  0.26892657  0.31387129  0.04809567  1.0
  Sr  Sr10  1  0.81387129  0.45190433  0.73107343  1.0
  Sr  Sr11  1  0.31387129  0.04809567  0.26892657  1.0
  Sr  Sr12  1  0.31246860  0.44757845  0.74812346  1.0
  Sr  Sr13  1  0.81246860  0.05242155  0.25187654  1.0
  Sr  Sr14  1  0.94757845  0.75187654  0.68753140  1.0
  Sr  Sr15  1  0.44757845  0.74812346  0.31246860  1.0
  Sr  Sr16  1  0.25187654  0.81246860  0.05242155  1.0
  Sr  Sr17  1  0.75187654  0.68753140  0.94757845  1.0
  Sr  Sr18  1  0.68753140  0.94757845  0.75187654  1.0
  Sr  Sr19  1  0.18753140  0.55242155  0.24812346  1.0
  Sr  Sr20  1  0.05242155  0.25187654  0.81246860  1.0
  Sr  Sr21  1  0.55242155  0.24812346  0.18753140  1.0
  Sr  Sr22  1  0.74812346  0.31246860  0.44757845  1.0
  Sr  Sr23  1  0.24812346  0.18753140  0.55242155  1.0
  Sr  Sr24  1  0.44205161  0.94205161  0.55794839  1.0
  Sr  Sr25  1  0.94205161  0.55794839  0.44205161  1.0
  Sr  Sr26  1  0.55794839  0.44205161  0.94205161  1.0
  Sr  Sr27  1  0.05794839  0.05794839  0.05794839  1.0
  Sr  Sr28  1  0.04495958  0.54495958  0.95504042  1.0
  Sr  Sr29  1  0.54495958  0.95504042  0.04495958  1.0
  Sr  Sr30  1  0.95504042  0.04495958  0.54495958  1.0
  Sr  Sr31  1  0.45504042  0.45504042  0.45504042  1.0
  Al  Al32  1  0.51350327  0.68348770  0.56329109  1.0
  Al  Al33  1  0.01350327  0.81651230  0.43670891  1.0
  Al  Al34  1  0.18348770  0.93670891  0.48649673  1.0
  Al  Al35  1  0.68348770  0.56329109  0.51350327  1.0
  Al  Al36  1  0.43670891  0.01350327  0.81651230  1.0
  Al  Al37  1  0.93670891  0.48649673  0.18348770  1.0
  Al  Al38  1  0.48649673  0.18348770  0.93670891  1.0
  Al  Al39  1  0.98649673  0.31651230  0.06329109  1.0
  Al  Al40  1  0.81651230  0.43670891  0.01350327  1.0
  Al  Al41  1  0.31651230  0.06329109  0.98649673  1.0
  Al  Al42  1  0.56329109  0.51350327  0.68348770  1.0
  Al  Al43  1  0.06329109  0.98649673  0.31651230  1.0
  Al  Al44  1  0.32666949  0.57170289  -0.00893090  1.0
  Al  Al45  1  0.82666949  0.92829711  1.00893090  1.0
  Al  Al46  1  0.07170289  0.50893090  0.67333051  1.0
  Al  Al47  1  0.57170289  -0.00893090  0.32666949  1.0
  Al  Al48  1  1.00893090  0.82666949  0.92829711  1.0
  Al  Al49  1  0.50893090  0.67333051  0.07170289  1.0
  Al  Al50  1  0.67333051  0.07170289  0.50893090  1.0
  Al  Al51  1  0.17333051  0.42829711  0.49106910  1.0
  Al  Al52  1  0.92829711  1.00893090  0.82666949  1.0
  Al  Al53  1  0.42829711  0.49106910  0.17333051  1.0
  Al  Al54  1  -0.00893090  0.32666949  0.57170289  1.0
  Al  Al55  1  0.49106910  0.17333051  0.42829711  1.0
  Al  Al56  1  0.18554844  0.68554844  0.81445156  1.0
  Al  Al57  1  0.68554844  0.81445156  0.18554844  1.0
  Al  Al58  1  0.81445156  0.18554844  0.68554844  1.0
  Al  Al59  1  0.31445156  0.31445156  0.31445156  1.0
  Al  Al60  1  0.81327584  0.31327584  0.18672416  1.0
  Al  Al61  1  0.31327584  0.18672416  0.81327584  1.0
  Al  Al62  1  0.18672416  0.81327584  0.31327584  1.0
  Al  Al63  1  0.68672416  0.68672416  0.68672416  1.0
