# generated using pymatgen
data_LiBeB
_symmetry_space_group_name_H-M   'P 1'
_cell_length_a   3.70881312
_cell_length_b   2.99103793
_cell_length_c   5.68678258
_cell_angle_alpha   90.00000000
_cell_angle_beta   98.82344934
_cell_angle_gamma   90.00000000
_symmetry_Int_Tables_number   1
_chemical_formula_structural   LiBeB
_chemical_formula_sum   'Li2 Be2 B2'
_cell_volume   62.33805753
_cell_formula_units_Z   2
loop_
 _symmetry_equiv_pos_site_id
 _symmetry_equiv_pos_as_xyz
  1  'x, y, z'
loop_
 _atom_site_type_symbol
 _atom_site_label
 _atom_site_symmetry_multiplicity
 _atom_site_fract_x
 _atom_site_fract_y
 _atom_site_fract_z
 _atom_site_occupancy
  Li  Li0  1  0.22511658  0.75000000  0.34009066  1.0
  Li  Li1  1  0.77488342  0.25000000  0.65990934  1.0
  Be  Be2  1  0.35118318  0.75000000  0.88617072  1.0
  Be  Be3  1  0.64881682  0.25000000  0.11382928  1.0
  B  B4  1  0.88286465  0.75000000  0.97349031  1.0
  B  B5  1  0.11713535  0.25000000  0.02650969  1.0
