# generated using pymatgen
data_BaNi2Ge
_symmetry_space_group_name_H-M   'P 1'
_cell_length_a   4.15920143
_cell_length_b   6.73761977
_cell_length_c   6.01624645
_cell_angle_alpha   90.00000000
_cell_angle_beta   90.00000000
_cell_angle_gamma   90.00000000
_symmetry_Int_Tables_number   1
_chemical_formula_structural   BaNi2Ge
_chemical_formula_sum   'Ba2 Ni4 Ge2'
_cell_volume   168.59398302
_cell_formula_units_Z   2
loop_
 _symmetry_equiv_pos_site_id
 _symmetry_equiv_pos_as_xyz
  1  'x, y, z'
loop_
 _atom_site_type_symbol
 _atom_site_label
 _atom_site_symmetry_multiplicity
 _atom_site_fract_x
 _atom_site_fract_y
 _atom_site_fract_z
 _atom_site_occupancy
  Ba  Ba0  1  0.50000000  0.50000000  0.12018633  1.0
  Ba  Ba1  1  0.00000000  0.00000000  0.87981367  1.0
  Ni  Ni2  1  0.50000000  0.68508664  0.59414600  1.0
  Ni  Ni3  1  0.50000000  0.31491336  0.59414600  1.0
  Ni  Ni4  1  0.00000000  0.18508664  0.40585400  1.0
  Ni  Ni5  1  0.00000000  0.81491336  0.40585400  1.0
  Ge  Ge6  1  0.50000000  0.00000000  0.39753415  1.0
  Ge  Ge7  1  0.00000000  0.50000000  0.60246585  1.0
