# generated using pymatgen
data_V3S4
_symmetry_space_group_name_H-M   'P 1'
_cell_length_a   9.06993307
_cell_length_b   9.06993307
_cell_length_c   3.24353518
_cell_angle_alpha   90.00000000
_cell_angle_beta   90.00000000
_cell_angle_gamma   120.00000000
_symmetry_Int_Tables_number   1
_chemical_formula_structural   V3S4
_chemical_formula_sum   'V6 S8'
_cell_volume   231.07736618
_cell_formula_units_Z   2
loop_
 _symmetry_equiv_pos_site_id
 _symmetry_equiv_pos_as_xyz
  1  'x, y, z'
loop_
 _atom_site_type_symbol
 _atom_site_label
 _atom_site_symmetry_multiplicity
 _atom_site_fract_x
 _atom_site_fract_y
 _atom_site_fract_z
 _atom_site_occupancy
  V  V0  1  0.37039088  0.88136281  0.25000000  1.0
  V  V1  1  0.88136281  0.51097193  0.75000000  1.0
  V  V2  1  0.51097193  0.62960912  0.25000000  1.0
  V  V3  1  0.11863719  0.48902807  0.25000000  1.0
  V  V4  1  0.62960912  0.11863719  0.75000000  1.0
  V  V5  1  0.48902807  0.37039088  0.75000000  1.0
  S  S6  1  0.05182291  0.70565481  0.25000000  1.0
  S  S7  1  0.70565481  0.65383191  0.75000000  1.0
  S  S8  1  0.65383191  0.94817709  0.25000000  1.0
  S  S9  1  0.29434519  0.34616809  0.25000000  1.0
  S  S10  1  0.94817709  0.29434519  0.75000000  1.0
  S  S11  1  0.34616809  0.05182291  0.75000000  1.0
  S  S12  1  0.66666667  0.33333333  0.25000000  1.0
  S  S13  1  0.33333333  0.66666667  0.75000000  1.0
