# generated using pymatgen
data_Lu2ZnS4
_symmetry_space_group_name_H-M   'P 1'
_cell_length_a   13.30748454
_cell_length_b   7.73247600
_cell_length_c   6.27723784
_cell_angle_alpha   90.00000000
_cell_angle_beta   90.00000000
_cell_angle_gamma   90.00000000
_symmetry_Int_Tables_number   1
_chemical_formula_structural   Lu2ZnS4
_chemical_formula_sum   'Lu8 Zn4 S16'
_cell_volume   645.92654883
_cell_formula_units_Z   4
loop_
 _symmetry_equiv_pos_site_id
 _symmetry_equiv_pos_as_xyz
  1  'x, y, z'
loop_
 _atom_site_type_symbol
 _atom_site_label
 _atom_site_symmetry_multiplicity
 _atom_site_fract_x
 _atom_site_fract_y
 _atom_site_fract_z
 _atom_site_occupancy
  Lu  Lu0  1  0.76477702  0.25000000  0.50195039  1.0
  Lu  Lu1  1  0.26477702  0.25000000  0.99804961  1.0
  Lu  Lu2  1  0.23522298  0.75000000  0.49804961  1.0
  Lu  Lu3  1  0.73522298  0.75000000  0.00195039  1.0
  Lu  Lu4  1  0.00000000  0.50000000  0.00000000  1.0
  Lu  Lu5  1  0.00000000  0.00000000  0.00000000  1.0
  Lu  Lu6  1  0.50000000  0.50000000  0.50000000  1.0
  Lu  Lu7  1  0.50000000  0.00000000  0.50000000  1.0
  Zn  Zn8  1  0.59147618  0.25000000  0.08728299  1.0
  Zn  Zn9  1  0.09147618  0.25000000  0.41271701  1.0
  Zn  Zn10  1  0.40852382  0.75000000  0.91271701  1.0
  Zn  Zn11  1  0.90852382  0.75000000  0.58728299  1.0
  S  S12  1  0.66823952  0.48983862  0.25754820  1.0
  S  S13  1  0.66823952  0.01016138  0.25754820  1.0
  S  S14  1  0.16823952  0.48983862  0.24245180  1.0
  S  S15  1  0.16823952  0.01016138  0.24245180  1.0
  S  S16  1  0.33176048  0.98983862  0.74245180  1.0
  S  S17  1  0.33176048  0.51016138  0.74245180  1.0
  S  S18  1  0.83176048  0.98983862  0.75754820  1.0
  S  S19  1  0.83176048  0.51016138  0.75754820  1.0
  S  S20  1  0.92831233  0.25000000  0.25414173  1.0
  S  S21  1  0.42831233  0.25000000  0.24585827  1.0
  S  S22  1  0.07168767  0.75000000  0.74585827  1.0
  S  S23  1  0.57168767  0.75000000  0.75414173  1.0
  S  S24  1  0.59020935  0.25000000  0.72154129  1.0
  S  S25  1  0.09020935  0.25000000  0.77845871  1.0
  S  S26  1  0.40979065  0.75000000  0.27845871  1.0
  S  S27  1  0.90979065  0.75000000  0.22154129  1.0
