# generated using pymatgen
data_Ag3Sb
_symmetry_space_group_name_H-M   'P 1'
_cell_length_a   4.90810484
_cell_length_b   6.04399193
_cell_length_c   5.35403138
_cell_angle_alpha   90.00000000
_cell_angle_beta   90.00000000
_cell_angle_gamma   90.00000000
_symmetry_Int_Tables_number   1
_chemical_formula_structural   Ag3Sb
_chemical_formula_sum   'Ag6 Sb2'
_cell_volume   158.82491031
_cell_formula_units_Z   2
loop_
 _symmetry_equiv_pos_site_id
 _symmetry_equiv_pos_as_xyz
  1  'x, y, z'
loop_
 _atom_site_type_symbol
 _atom_site_label
 _atom_site_symmetry_multiplicity
 _atom_site_fract_x
 _atom_site_fract_y
 _atom_site_fract_z
 _atom_site_occupancy
  Ag  Ag0  1  0.50000000  0.74848768  0.65482432  1.0
  Ag  Ag1  1  0.50000000  0.25151232  0.65482432  1.0
  Ag  Ag2  1  0.00000000  0.24848768  0.34517568  1.0
  Ag  Ag3  1  0.00000000  0.75151232  0.34517568  1.0
  Ag  Ag4  1  0.50000000  0.50000000  0.17458137  1.0
  Ag  Ag5  1  0.00000000  0.00000000  0.82541863  1.0
  Sb  Sb6  1  0.50000000  0.00000000  0.16577306  1.0
  Sb  Sb7  1  0.00000000  0.50000000  0.83422694  1.0
