# generated using pymatgen
data_LiB9
_symmetry_space_group_name_H-M   'P 1'
_cell_length_a   5.73589772
_cell_length_b   5.73589772
_cell_length_c   5.01507560
_cell_angle_alpha   90.00000000
_cell_angle_beta   90.00000000
_cell_angle_gamma   120.00000000
_symmetry_Int_Tables_number   1
_chemical_formula_structural   LiB9
_chemical_formula_sum   'Li2 B18'
_cell_volume   142.89298670
_cell_formula_units_Z   2
loop_
 _symmetry_equiv_pos_site_id
 _symmetry_equiv_pos_as_xyz
  1  'x, y, z'
loop_
 _atom_site_type_symbol
 _atom_site_label
 _atom_site_symmetry_multiplicity
 _atom_site_fract_x
 _atom_site_fract_y
 _atom_site_fract_z
 _atom_site_occupancy
  Li  Li0  1  0.00000000  0.00000000  0.43185920  1.0
  Li  Li1  1  0.00000000  0.00000000  -0.06814080  1.0
  B  B2  1  0.62815227  0.62815227  0.68593203  1.0
  B  B3  1  0.37184773  0.00000000  0.68593203  1.0
  B  B4  1  -0.00000000  0.37184773  0.68593203  1.0
  B  B5  1  0.37184773  0.37184773  0.18593203  1.0
  B  B6  1  0.62815227  0.00000000  0.18593203  1.0
  B  B7  1  0.00000000  0.62815227  0.18593203  1.0
  B  B8  1  0.47316302  0.30436349  0.52555745  1.0
  B  B9  1  0.69563651  0.16879953  0.52555745  1.0
  B  B10  1  0.83120047  0.52683698  0.52555745  1.0
  B  B11  1  0.30436349  0.47316302  0.52555745  1.0
  B  B12  1  0.16879953  0.69563651  0.52555745  1.0
  B  B13  1  0.52683698  0.83120047  0.52555745  1.0
  B  B14  1  0.52683698  0.69563651  0.02555745  1.0
  B  B15  1  0.30436349  0.83120047  0.02555745  1.0
  B  B16  1  0.16879953  0.47316302  0.02555745  1.0
  B  B17  1  0.69563651  0.52683698  0.02555745  1.0
  B  B18  1  0.83120047  0.30436349  0.02555745  1.0
  B  B19  1  0.47316302  0.16879953  0.02555745  1.0
