# generated using pymatgen
data_YSiRh2
_symmetry_space_group_name_H-M   'P 1'
_cell_length_a   5.53861537
_cell_length_b   5.53861537
_cell_length_c   15.15345424
_cell_angle_alpha   90.00000000
_cell_angle_beta   90.00000000
_cell_angle_gamma   120.00000000
_symmetry_Int_Tables_number   1
_chemical_formula_structural   YSiRh2
_chemical_formula_sum   'Y6 Si6 Rh12'
_cell_volume   402.57303999
_cell_formula_units_Z   6
loop_
 _symmetry_equiv_pos_site_id
 _symmetry_equiv_pos_as_xyz
  1  'x, y, z'
loop_
 _atom_site_type_symbol
 _atom_site_label
 _atom_site_symmetry_multiplicity
 _atom_site_fract_x
 _atom_site_fract_y
 _atom_site_fract_z
 _atom_site_occupancy
  Y  Y0  1  0.33333333  0.66666667  0.96330810  1.0
  Y  Y1  1  0.33333333  0.66666667  0.53669190  1.0
  Y  Y2  1  0.66666667  0.33333333  0.46330810  1.0
  Y  Y3  1  0.66666667  0.33333333  0.03669190  1.0
  Y  Y4  1  0.33333333  0.66666667  0.75000000  1.0
  Y  Y5  1  0.66666667  0.33333333  0.25000000  1.0
  Si  Si6  1  0.33333333  0.66666667  0.25000000  1.0
  Si  Si7  1  0.66666667  0.33333333  0.75000000  1.0
  Si  Si8  1  0.00000000  0.00000000  0.25000000  1.0
  Si  Si9  1  0.00000000  0.00000000  0.75000000  1.0
  Si  Si10  1  0.00000000  0.00000000  0.50000000  1.0
  Si  Si11  1  0.00000000  0.00000000  0.00000000  1.0
  Rh  Rh12  1  0.16643149  0.83356851  0.36893752  1.0
  Rh  Rh13  1  0.16643149  0.83356851  0.13106248  1.0
  Rh  Rh14  1  0.16643149  0.33286298  0.36893752  1.0
  Rh  Rh15  1  0.16643149  0.33286298  0.13106248  1.0
  Rh  Rh16  1  0.83356851  0.16643149  0.86893752  1.0
  Rh  Rh17  1  0.83356851  0.16643149  0.63106248  1.0
  Rh  Rh18  1  0.83356851  0.66713702  0.86893752  1.0
  Rh  Rh19  1  0.83356851  0.66713702  0.63106248  1.0
  Rh  Rh20  1  0.66713702  0.83356851  0.36893752  1.0
  Rh  Rh21  1  0.66713702  0.83356851  0.13106248  1.0
  Rh  Rh22  1  0.33286298  0.16643149  0.86893752  1.0
  Rh  Rh23  1  0.33286298  0.16643149  0.63106248  1.0
