# generated using pymatgen
data_KGaCl4
_symmetry_space_group_name_H-M   'P 1'
_cell_length_a   10.52018715
_cell_length_b   7.36398719
_cell_length_c   10.18054372
_cell_angle_alpha   90.00000000
_cell_angle_beta   90.00000000
_cell_angle_gamma   90.00000000
_symmetry_Int_Tables_number   1
_chemical_formula_structural   KGaCl4
_chemical_formula_sum   'K4 Ga4 Cl16'
_cell_volume   788.69205128
_cell_formula_units_Z   4
loop_
 _symmetry_equiv_pos_site_id
 _symmetry_equiv_pos_as_xyz
  1  'x, y, z'
loop_
 _atom_site_type_symbol
 _atom_site_label
 _atom_site_symmetry_multiplicity
 _atom_site_fract_x
 _atom_site_fract_y
 _atom_site_fract_z
 _atom_site_occupancy
  K  K0  1  0.25888479  0.75000000  0.24537364  1.0
  K  K1  1  0.75888479  0.75000000  0.25462636  1.0
  K  K2  1  0.74111521  0.25000000  0.75462636  1.0
  K  K3  1  0.24111521  0.25000000  0.74537364  1.0
  Ga  Ga4  1  0.49025278  0.75000000  0.68105791  1.0
  Ga  Ga5  1  0.99025278  0.75000000  0.81894209  1.0
  Ga  Ga6  1  0.50974722  0.25000000  0.31894209  1.0
  Ga  Ga7  1  0.00974722  0.25000000  0.18105791  1.0
  Cl  Cl8  1  0.49001785  0.99613317  0.80693209  1.0
  Cl  Cl9  1  0.49001785  0.50386683  0.80693209  1.0
  Cl  Cl10  1  0.99001785  0.99613317  0.69306791  1.0
  Cl  Cl11  1  0.99001785  0.50386683  0.69306791  1.0
  Cl  Cl12  1  0.50998215  0.49613317  0.19306791  1.0
  Cl  Cl13  1  0.50998215  0.00386683  0.19306791  1.0
  Cl  Cl14  1  0.00998215  0.49613317  0.30693209  1.0
  Cl  Cl15  1  0.00998215  0.00386683  0.30693209  1.0
  Cl  Cl16  1  0.31502873  0.75000000  0.56311614  1.0
  Cl  Cl17  1  0.81502873  0.75000000  0.93688386  1.0
  Cl  Cl18  1  0.68497127  0.25000000  0.43688386  1.0
  Cl  Cl19  1  0.18497127  0.25000000  0.06311614  1.0
  Cl  Cl20  1  0.16580964  0.75000000  0.93614577  1.0
  Cl  Cl21  1  0.66580964  0.75000000  0.56385423  1.0
  Cl  Cl22  1  0.83419036  0.25000000  0.06385423  1.0
  Cl  Cl23  1  0.33419036  0.25000000  0.43614577  1.0
