# generated using pymatgen
data_Lu(Al5Ru)2
_symmetry_space_group_name_H-M   'P 1'
_cell_length_a   6.83005470
_cell_length_b   6.83005470
_cell_length_c   9.10860060
_cell_angle_alpha   90.00000000
_cell_angle_beta   90.00000000
_cell_angle_gamma   96.63676093
_symmetry_Int_Tables_number   1
_chemical_formula_structural   Lu(Al5Ru)2
_chemical_formula_sum   'Lu2 Al20 Ru4'
_cell_volume   422.06558429
_cell_formula_units_Z   2
loop_
 _symmetry_equiv_pos_site_id
 _symmetry_equiv_pos_as_xyz
  1  'x, y, z'
loop_
 _atom_site_type_symbol
 _atom_site_label
 _atom_site_symmetry_multiplicity
 _atom_site_fract_x
 _atom_site_fract_y
 _atom_site_fract_z
 _atom_site_occupancy
  Lu  Lu0  1  0.12914521  0.87085479  0.25000000  1.0
  Lu  Lu1  1  -0.12914521  1.12914521  0.75000000  1.0
  Al  Al2  1  0.14449026  0.41649636  0.25000000  1.0
  Al  Al3  1  -0.58350364  1.14449026  0.75000000  1.0
  Al  Al4  1  0.58350364  0.85550974  0.25000000  1.0
  Al  Al5  1  -0.14449026  1.58350364  0.75000000  1.0
  Al  Al6  1  -0.21830401  1.52016747  0.25000000  1.0
  Al  Al7  1  0.52016747  0.78169599  0.75000000  1.0
  Al  Al8  1  -0.52016747  1.21830401  0.25000000  1.0
  Al  Al9  1  0.21830401  0.47983253  0.75000000  1.0
  Al  Al10  1  0.15407210  0.84592790  0.90014867  1.0
  Al  Al11  1  0.15407210  0.84592790  0.59985133  1.0
  Al  Al12  1  -0.15407210  1.15407210  0.40014867  1.0
  Al  Al13  1  -0.15407210  1.15407210  0.09985133  1.0
  Al  Al14  1  0.37594285  0.62405715  0.45230118  1.0
  Al  Al15  1  0.37594285  0.62405715  0.04769882  1.0
  Al  Al16  1  -0.37594285  1.37594285  0.95230118  1.0
  Al  Al17  1  -0.37594285  1.37594285  0.54769882  1.0
  Al  Al18  1  0.77503198  0.77503198  0.50000000  1.0
  Al  Al19  1  0.77503198  0.77503198  0.00000000  1.0
  Al  Al20  1  0.22496802  0.22496802  0.50000000  1.0
  Al  Al21  1  0.22496802  0.22496802  0.00000000  1.0
  Ru  Ru22  1  -0.00000000  1.50000000  0.50000000  1.0
  Ru  Ru23  1  -0.00000000  1.50000000  0.00000000  1.0
  Ru  Ru24  1  0.50000000  1.00000000  0.00000000  1.0
  Ru  Ru25  1  0.50000000  1.00000000  0.50000000  1.0
