# generated using pymatgen
data_MnGaH4O2F5
_symmetry_space_group_name_H-M   'P 1'
_cell_length_a   7.46672037
_cell_length_b   7.46672037
_cell_length_c   7.46672037
_cell_angle_alpha   85.03367546
_cell_angle_beta   118.59162526
_cell_angle_gamma   127.44551323
_symmetry_Int_Tables_number   1
_chemical_formula_structural   MnGaH4O2F5
_chemical_formula_sum   'Mn2 Ga2 H8 O4 F10'
_cell_volume   277.44288189
_cell_formula_units_Z   2
loop_
 _symmetry_equiv_pos_site_id
 _symmetry_equiv_pos_as_xyz
  1  'x, y, z'
loop_
 _atom_site_type_symbol
 _atom_site_label
 _atom_site_symmetry_multiplicity
 _atom_site_fract_x
 _atom_site_fract_y
 _atom_site_fract_z
 _atom_site_occupancy
  Mn  Mn0  1  0.50000000  0.50000000  0.50000000  1.0
  Mn  Mn1  1  1.50000000  1.00000000  1.00000000  1.0
  Ga  Ga2  1  1.00000000  1.00000000  1.00000000  1.0
  Ga  Ga3  1  0.50000000  0.00000000  0.50000000  1.0
  H  H4  1  1.77931922  1.47569994  0.99051288  1.0
  H  H5  1  1.01481294  0.52430006  0.80361928  1.0
  H  H6  1  1.01481294  1.21119366  1.49051288  1.0
  H  H7  1  1.77931922  1.78880634  1.30361928  1.0
  H  H8  1  1.22068078  0.52430006  1.00948712  1.0
  H  H9  1  1.98518706  1.47569994  1.19638072  1.0
  H  H10  1  1.98518706  1.78880634  1.50948712  1.0
  H  H11  1  1.22068078  1.21119366  1.69638072  1.0
  O  O12  1  1.19981367  0.62781913  0.92800546  1.0
  O  O13  1  0.80018633  0.37218087  1.07199454  1.0
  O  O14  1  0.80018633  0.72819178  1.42800546  1.0
  O  O15  1  1.19981367  1.27180822  1.57199454  1.0
  F  F16  1  0.76478219  0.92418903  0.08778416  1.0
  F  F17  1  0.66359512  1.07581097  0.34059316  1.0
  F  F18  1  0.66359512  0.32300196  0.58778416  1.0
  F  F19  1  0.76478219  0.67699804  0.84059316  1.0
  F  F20  1  1.23521781  1.07581097  0.91221584  1.0
  F  F21  1  1.33640488  0.92418903  0.65940684  1.0
  F  F22  1  1.33640488  0.67699804  1.41221584  1.0
  F  F23  1  1.23521781  0.32300196  1.15940684  1.0
  F  F24  1  1.18242949  0.93242949  1.25000000  1.0
  F  F25  1  1.81757051  1.06757051  0.75000000  1.0
