# generated using pymatgen
data_AsNF6
_symmetry_space_group_name_H-M   'P 1'
_cell_length_a   5.51805108
_cell_length_b   5.51805108
_cell_length_c   5.51805108
_cell_angle_alpha   59.21885245
_cell_angle_beta   59.21885245
_cell_angle_gamma   59.21885245
_symmetry_Int_Tables_number   1
_chemical_formula_structural   AsNF6
_chemical_formula_sum   'As1 N1 F6'
_cell_volume   116.69281486
_cell_formula_units_Z   1
loop_
 _symmetry_equiv_pos_site_id
 _symmetry_equiv_pos_as_xyz
  1  'x, y, z'
loop_
 _atom_site_type_symbol
 _atom_site_label
 _atom_site_symmetry_multiplicity
 _atom_site_fract_x
 _atom_site_fract_y
 _atom_site_fract_z
 _atom_site_occupancy
  As  As0  1  0.00000000  -0.00000000  0.00000000  1.0
  N  N1  1  0.50000000  0.50000000  0.50000000  1.0
  F  F2  1  0.90928319  0.66093831  0.20208671  1.0
  F  F3  1  1.33906169  -0.20208671  0.09071681  1.0
  F  F4  1  0.79791329  0.09071681  0.33906169  1.0
  F  F5  1  1.09071681  0.33906169  -0.20208671  1.0
  F  F6  1  0.66093831  1.20208671  -0.09071681  1.0
  F  F7  1  1.20208671  0.90928319  -0.33906169  1.0
