# generated using pymatgen
data_K3InC12(O2F3)6
_symmetry_space_group_name_H-M   'P 1'
_cell_length_a   10.30290363
_cell_length_b   10.30290363
_cell_length_c   7.74931187
_cell_angle_alpha   90.00000000
_cell_angle_beta   90.00000000
_cell_angle_gamma   120.00000000
_symmetry_Int_Tables_number   1
_chemical_formula_structural   K3InC12(O2F3)6
_chemical_formula_sum   'K3 In1 C12 O12 F18'
_cell_volume   712.38217946
_cell_formula_units_Z   1
loop_
 _symmetry_equiv_pos_site_id
 _symmetry_equiv_pos_as_xyz
  1  'x, y, z'
loop_
 _atom_site_type_symbol
 _atom_site_label
 _atom_site_symmetry_multiplicity
 _atom_site_fract_x
 _atom_site_fract_y
 _atom_site_fract_z
 _atom_site_occupancy
  K  K0  1  0.33333333  0.66666667  0.06142742  1.0
  K  K1  1  0.66666667  0.33333333  0.93857258  1.0
  K  K2  1  0.00000000  0.00000000  0.50000000  1.0
  In  In3  1  0.00000000  0.00000000  0.00000000  1.0
  C  C4  1  0.76459569  0.68975090  0.15707973  1.0
  C  C5  1  0.68975090  0.92515521  0.84292027  1.0
  C  C6  1  0.92515521  0.23540431  0.15707973  1.0
  C  C7  1  0.31024910  0.07484479  0.15707973  1.0
  C  C8  1  0.23540431  0.31024910  0.84292027  1.0
  C  C9  1  0.07484479  0.76459569  0.84292027  1.0
  C  C10  1  0.65613593  0.60952143  0.31201777  1.0
  C  C11  1  0.60952143  0.95338550  0.68798223  1.0
  C  C12  1  0.95338550  0.34386407  0.31201777  1.0
  C  C13  1  0.39047857  0.04661450  0.31201777  1.0
  C  C14  1  0.34386407  0.39047857  0.68798223  1.0
  C  C15  1  0.04661450  0.65613593  0.68798223  1.0
  O  O16  1  0.85895607  0.82729303  0.18966192  1.0
  O  O17  1  0.82729303  0.96833696  0.81033808  1.0
  O  O18  1  0.96833696  0.14104393  0.18966192  1.0
  O  O19  1  0.17270697  0.03166304  0.18966192  1.0
  O  O20  1  0.14104393  0.17270697  0.81033808  1.0
  O  O21  1  0.03166304  0.85895607  0.81033808  1.0
  O  O22  1  0.74569392  0.61617917  0.02472627  1.0
  O  O23  1  0.61617917  0.87048525  0.97527373  1.0
  O  O24  1  0.87048525  0.25430608  0.02472627  1.0
  O  O25  1  0.38382083  0.12951475  0.02472627  1.0
  O  O26  1  0.25430608  0.38382083  0.97527373  1.0
  O  O27  1  0.12951475  0.74569392  0.97527373  1.0
  F  F28  1  0.36766900  0.90349463  0.30295643  1.0
  F  F29  1  0.90349463  0.53582563  0.69704357  1.0
  F  F30  1  0.53582563  0.63233100  0.30295643  1.0
  F  F31  1  0.09650537  0.46417437  0.30295643  1.0
  F  F32  1  0.63233100  0.09650537  0.69704357  1.0
  F  F33  1  0.46417437  0.36766900  0.69704357  1.0
  F  F34  1  0.72159606  0.66103112  0.46853748  1.0
  F  F35  1  0.66103112  0.93943506  0.53146252  1.0
  F  F36  1  0.93943506  0.27840394  0.46853748  1.0
  F  F37  1  0.33896888  0.06056494  0.46853748  1.0
  F  F38  1  0.27840394  0.33896888  0.53146252  1.0
  F  F39  1  0.06056494  0.72159606  0.53146252  1.0
  F  F40  1  0.60071506  0.45928428  0.30932347  1.0
  F  F41  1  0.45928428  0.85856922  0.69067653  1.0
  F  F42  1  0.85856922  0.39928494  0.30932347  1.0
  F  F43  1  0.54071572  0.14143078  0.30932347  1.0
  F  F44  1  0.39928494  0.54071572  0.69067653  1.0
  F  F45  1  0.14143078  0.60071506  0.69067653  1.0
