# generated using pymatgen
data_C6S2N3F8
_symmetry_space_group_name_H-M   'P 1'
_cell_length_a   8.91177933
_cell_length_b   6.43084503
_cell_length_c   11.38195292
_cell_angle_alpha   98.13814850
_cell_angle_beta   109.22142879
_cell_angle_gamma   90.43348743
_symmetry_Int_Tables_number   1
_chemical_formula_structural   C6S2N3F8
_chemical_formula_sum   'C12 S4 N6 F16'
_cell_volume   608.71161567
_cell_formula_units_Z   2
loop_
 _symmetry_equiv_pos_site_id
 _symmetry_equiv_pos_as_xyz
  1  'x, y, z'
loop_
 _atom_site_type_symbol
 _atom_site_label
 _atom_site_symmetry_multiplicity
 _atom_site_fract_x
 _atom_site_fract_y
 _atom_site_fract_z
 _atom_site_occupancy
  C  C0  1  -0.63828128  -0.57357988  -0.68928092  1.0
  C  C1  1  -0.36171872  -0.42642012  -0.31071908  1.0
  C  C2  1  -0.60842438  -0.69670345  -0.80385994  1.0
  C  C3  1  -0.39157562  -0.30329655  -0.19614006  1.0
  C  C4  1  -0.75133641  -0.68843461  -0.92917689  1.0
  C  C5  1  -0.24866359  -0.31156539  -0.07082311  1.0
  C  C6  1  -0.74184897  -0.83780329  -0.04794251  1.0
  C  C7  1  -0.25815103  -0.16219671  -0.95205749  1.0
  C  C8  1  -0.86723417  -0.80517070  -0.17788425  1.0
  C  C9  1  -0.13276583  -0.19482930  -0.82211575  1.0
  C  C10  1  -0.85349034  -0.96934059  -0.27886493  1.0
  C  C11  1  -0.14650966  -0.03065941  -0.72113507  1.0
  S  S12  1  -0.73970655  -0.53064301  -0.50761062  1.0
  S  S13  1  -0.26029345  -0.46935699  -0.49238938  1.0
  S  S14  1  -0.64758096  -0.24496724  -0.54605310  1.0
  S  S15  1  -0.35241904  -0.75503276  -0.45394690  1.0
  N  N16  1  -0.59898187  -0.36801119  -0.66270520  1.0
  N  N17  1  -0.40101813  -0.63198881  -0.33729480  1.0
  N  N18  1  -0.70095344  -0.67837157  -0.62202725  1.0
  N  N19  1  -0.29904656  -0.32162843  -0.37797275  1.0
  N  N20  1  -0.83848767  -0.09707988  -0.35635505  1.0
  N  N21  1  -0.16151233  -0.90292012  -0.64364495  1.0
  F  F22  1  -0.47361547  -0.61509720  -0.81704290  1.0
  F  F23  1  -0.52638453  -0.38490280  -0.18295710  1.0
  F  F24  1  -0.58766953  -0.90306998  -0.78900375  1.0
  F  F25  1  -0.41233047  -0.09693002  -0.21099625  1.0
  F  F26  1  -0.75807115  -0.48629714  -0.95340810  1.0
  F  F27  1  -0.24192885  -0.51370286  -0.04659190  1.0
  F  F28  1  -0.88883251  -0.74289916  -0.90962932  1.0
  F  F29  1  -0.11116749  -0.25710084  -0.09037068  1.0
  F  F30  1  -0.59516278  -0.81114078  -0.05846068  1.0
  F  F31  1  -0.40483722  -0.18885922  -0.94153932  1.0
  F  F32  1  -0.76548176  -0.04156594  -0.03413275  1.0
  F  F33  1  -0.23451824  -0.95843406  -0.96586725  1.0
  F  F34  1  -0.84079651  -0.61218257  -0.20658710  1.0
  F  F35  1  -0.15920349  -0.38781743  -0.79341290  1.0
  F  F36  1  -0.01743133  -0.81823460  -0.17188148  1.0
  F  F37  1  -0.98256867  -0.18176540  -0.82811852  1.0
