# generated using pymatgen
data_C2NCl
_symmetry_space_group_name_H-M   'P 1'
_cell_length_a   8.84501255
_cell_length_b   8.84501255
_cell_length_c   8.84501255
_cell_angle_alpha   130.37666388
_cell_angle_beta   87.42504336
_cell_angle_gamma   113.39805064
_symmetry_Int_Tables_number   1
_chemical_formula_structural   C2NCl
_chemical_formula_sum   'C8 N4 Cl4'
_cell_volume   460.95501581
_cell_formula_units_Z   4
loop_
 _symmetry_equiv_pos_site_id
 _symmetry_equiv_pos_as_xyz
  1  'x, y, z'
loop_
 _atom_site_type_symbol
 _atom_site_label
 _atom_site_symmetry_multiplicity
 _atom_site_fract_x
 _atom_site_fract_y
 _atom_site_fract_z
 _atom_site_occupancy
  C  C0  1  1.45074821  0.85727087  1.10030327  1.0
  C  C1  1  0.75696760  1.35044494  0.89969673  1.0
  C  C2  1  1.74303240  1.64272913  1.59347734  1.0
  C  C3  1  1.04925179  1.14955506  0.40652266  1.0
  C  C4  1  0.54925179  1.14272913  0.89969673  1.0
  C  C5  1  1.24303240  0.64955506  1.10030327  1.0
  C  C6  1  0.25696760  0.35727087  0.40652266  1.0
  C  C7  1  0.95074821  0.85044494  1.59347734  1.0
  N  N8  1  0.40896425  0.78952922  1.19849347  1.0
  N  N9  1  0.59103575  0.21047078  0.80150653  1.0
  N  N10  1  0.90896425  0.71047078  1.61943502  1.0
  N  N11  1  0.09103575  0.28952922  0.38056498  1.0
  Cl  Cl12  1  0.20025316  0.79138392  0.99163708  1.0
  Cl  Cl13  1  0.79974684  0.20861608  1.00836292  1.0
  Cl  Cl14  1  0.70025316  0.70861608  1.40886923  1.0
  Cl  Cl15  1  0.29974684  0.29138392  0.59113077  1.0
