# generated using pymatgen
data_EuTl(MoO4)2
_symmetry_space_group_name_H-M   'P 1'
_cell_length_a   5.18481410
_cell_length_b   19.31169666
_cell_length_c   8.32867756
_cell_angle_alpha   90.00000000
_cell_angle_beta   90.00000000
_cell_angle_gamma   90.00000000
_symmetry_Int_Tables_number   1
_chemical_formula_structural   EuTl(MoO4)2
_chemical_formula_sum   'Eu4 Tl4 Mo8 O32'
_cell_volume   833.93013766
_cell_formula_units_Z   4
loop_
 _symmetry_equiv_pos_site_id
 _symmetry_equiv_pos_as_xyz
  1  'x, y, z'
loop_
 _atom_site_type_symbol
 _atom_site_label
 _atom_site_symmetry_multiplicity
 _atom_site_fract_x
 _atom_site_fract_y
 _atom_site_fract_z
 _atom_site_occupancy
  Eu  Eu0  1  0.50000000  0.49394810  0.25000000  1.0
  Eu  Eu1  1  0.50000000  0.50605190  0.75000000  1.0
  Eu  Eu2  1  -0.00000000  0.99394810  0.25000000  1.0
  Eu  Eu3  1  0.00000000  0.00605190  0.75000000  1.0
  Tl  Tl4  1  0.50000000  0.72763840  0.25000000  1.0
  Tl  Tl5  1  0.50000000  0.27236160  0.75000000  1.0
  Tl  Tl6  1  0.00000000  0.22763840  0.25000000  1.0
  Tl  Tl7  1  0.00000000  0.77236160  0.75000000  1.0
  Mo  Mo8  1  0.47886259  0.09992255  0.01271127  1.0
  Mo  Mo9  1  0.47886259  0.90007745  0.51271127  1.0
  Mo  Mo10  1  0.97886259  0.59992255  0.48728873  1.0
  Mo  Mo11  1  0.97886259  0.40007745  0.98728873  1.0
  Mo  Mo12  1  0.52113741  0.09992255  0.48728873  1.0
  Mo  Mo13  1  0.52113741  0.90007745  0.98728873  1.0
  Mo  Mo14  1  0.02113741  0.59992255  0.01271127  1.0
  Mo  Mo15  1  0.02113741  0.40007745  0.51271127  1.0
  O  O16  1  0.40093958  0.18423336  0.48043554  1.0
  O  O17  1  0.40093958  0.81576664  0.98043554  1.0
  O  O18  1  0.90093958  0.68423336  0.01956446  1.0
  O  O19  1  0.90093958  0.31576664  0.51956446  1.0
  O  O20  1  0.59906042  0.18423336  0.01956446  1.0
  O  O21  1  0.59906042  0.81576664  0.51956446  1.0
  O  O22  1  0.09906042  0.68423336  0.48043554  1.0
  O  O23  1  0.09906042  0.31576664  0.98043554  1.0
  O  O24  1  0.26418109  0.08969415  0.18076234  1.0
  O  O25  1  0.26418109  0.91030585  0.68076234  1.0
  O  O26  1  0.76418109  0.58969415  0.31923766  1.0
  O  O27  1  0.76418109  0.41030585  0.81923766  1.0
  O  O28  1  0.73581891  0.08969415  0.31923766  1.0
  O  O29  1  0.73581891  0.91030585  0.81923766  1.0
  O  O30  1  0.23581891  0.58969415  0.18076234  1.0
  O  O31  1  0.23581891  0.41030585  0.68076234  1.0
  O  O32  1  0.24771815  0.46175967  0.00154149  1.0
  O  O33  1  0.24771815  0.53824033  0.50154149  1.0
  O  O34  1  0.74771815  0.96175967  0.49845851  1.0
  O  O35  1  0.74771815  0.03824033  0.99845851  1.0
  O  O36  1  0.75228185  0.46175967  0.49845851  1.0
  O  O37  1  0.75228185  0.53824033  0.99845851  1.0
  O  O38  1  0.25228185  0.96175967  0.00154149  1.0
  O  O39  1  0.25228185  0.03824033  0.50154149  1.0
  O  O40  1  0.22448223  0.40469719  0.34121113  1.0
  O  O41  1  0.22448223  0.59530281  0.84121113  1.0
  O  O42  1  0.72448223  0.90469719  0.15878887  1.0
  O  O43  1  0.72448223  0.09530281  0.65878887  1.0
  O  O44  1  0.77551777  0.40469719  0.15878887  1.0
  O  O45  1  0.77551777  0.59530281  0.65878887  1.0
  O  O46  1  0.27551777  0.90469719  0.34121113  1.0
  O  O47  1  0.27551777  0.09530281  0.84121113  1.0
