# generated using pymatgen
data_Hf5CoAs3
_symmetry_space_group_name_H-M   'P 1'
_cell_length_a   17.40692715
_cell_length_b   3.68048060
_cell_length_c   10.46589351
_cell_angle_alpha   90.00000000
_cell_angle_beta   90.00000000
_cell_angle_gamma   90.00000000
_symmetry_Int_Tables_number   1
_chemical_formula_structural   Hf5CoAs3
_chemical_formula_sum   'Hf20 Co4 As12'
_cell_volume   670.50644438
_cell_formula_units_Z   4
loop_
 _symmetry_equiv_pos_site_id
 _symmetry_equiv_pos_as_xyz
  1  'x, y, z'
loop_
 _atom_site_type_symbol
 _atom_site_label
 _atom_site_symmetry_multiplicity
 _atom_site_fract_x
 _atom_site_fract_y
 _atom_site_fract_z
 _atom_site_occupancy
  Hf  Hf0  1  0.42326492  0.75000000  0.55664390  1.0
  Hf  Hf1  1  0.92326492  0.75000000  0.94335610  1.0
  Hf  Hf2  1  0.57673508  0.25000000  0.44335610  1.0
  Hf  Hf3  1  0.07673508  0.25000000  0.05664390  1.0
  Hf  Hf4  1  0.33244025  0.75000000  0.25786461  1.0
  Hf  Hf5  1  0.83244025  0.75000000  0.24213539  1.0
  Hf  Hf6  1  0.66755975  0.25000000  0.74213539  1.0
  Hf  Hf7  1  0.16755975  0.25000000  0.75786461  1.0
  Hf  Hf8  1  0.22339445  0.75000000  0.98417656  1.0
  Hf  Hf9  1  0.72339445  0.75000000  0.51582344  1.0
  Hf  Hf10  1  0.77660555  0.25000000  0.01582344  1.0
  Hf  Hf11  1  0.27660555  0.25000000  0.48417656  1.0
  Hf  Hf12  1  0.13158911  0.75000000  0.31589834  1.0
  Hf  Hf13  1  0.63158911  0.75000000  0.18410166  1.0
  Hf  Hf14  1  0.86841089  0.25000000  0.68410166  1.0
  Hf  Hf15  1  0.36841089  0.25000000  0.81589834  1.0
  Hf  Hf16  1  0.02193716  0.75000000  0.61987933  1.0
  Hf  Hf17  1  0.52193716  0.75000000  0.88012067  1.0
  Hf  Hf18  1  0.97806284  0.25000000  0.38012067  1.0
  Hf  Hf19  1  0.47806284  0.25000000  0.11987933  1.0
  Co  Co20  1  0.09171543  0.75000000  0.86808010  1.0
  Co  Co21  1  0.59171543  0.75000000  0.63191990  1.0
  Co  Co22  1  0.90828457  0.25000000  0.13191990  1.0
  Co  Co23  1  0.40828457  0.25000000  0.36808010  1.0
  As  As24  1  0.49261474  0.75000000  0.31076030  1.0
  As  As25  1  0.99261474  0.75000000  0.18923970  1.0
  As  As26  1  0.50738526  0.25000000  0.68923970  1.0
  As  As27  1  0.00738526  0.25000000  0.81076030  1.0
  As  As28  1  0.38065798  0.75000000  0.00915052  1.0
  As  As29  1  0.88065798  0.75000000  0.49084948  1.0
  As  As30  1  0.61934202  0.25000000  0.99084948  1.0
  As  As31  1  0.11934202  0.25000000  0.50915052  1.0
  As  As32  1  0.28153769  0.75000000  0.68521545  1.0
  As  As33  1  0.78153769  0.75000000  0.81478455  1.0
  As  As34  1  0.71846231  0.25000000  0.31478455  1.0
  As  As35  1  0.21846231  0.25000000  0.18521545  1.0
