# generated using pymatgen
data_BeGeAs2
_symmetry_space_group_name_H-M   'P 1'
_cell_length_a   6.69562466
_cell_length_b   6.69562466
_cell_length_c   6.69562466
_cell_angle_alpha   132.02918694
_cell_angle_beta   132.02918694
_cell_angle_gamma   70.18293320
_symmetry_Int_Tables_number   1
_chemical_formula_structural   BeGeAs2
_chemical_formula_sum   'Be2 Ge2 As4'
_cell_volume   162.34580136
_cell_formula_units_Z   2
loop_
 _symmetry_equiv_pos_site_id
 _symmetry_equiv_pos_as_xyz
  1  'x, y, z'
loop_
 _atom_site_type_symbol
 _atom_site_label
 _atom_site_symmetry_multiplicity
 _atom_site_fract_x
 _atom_site_fract_y
 _atom_site_fract_z
 _atom_site_occupancy
  Be  Be0  1  0.50000000  0.50000000  0.00000000  1.0
  Be  Be1  1  0.25000000  0.75000000  0.50000000  1.0
  Ge  Ge2  1  1.00000000  1.00000000  1.00000000  1.0
  Ge  Ge3  1  0.75000000  0.25000000  0.50000000  1.0
  As  As4  1  1.37500000  0.84299982  0.96799982  1.0
  As  As5  1  0.87500000  1.40700018  1.03200018  1.0
  As  As6  1  0.59299982  0.62500000  0.46799982  1.0
  As  As7  1  1.15700018  1.12500000  1.53200018  1.0
