# generated using pymatgen
data_Cs2Si
_symmetry_space_group_name_H-M   'P 1'
_cell_length_a   17.49743787
_cell_length_b   17.49743787
_cell_length_c   17.49743787
_cell_angle_alpha   131.66807427
_cell_angle_beta   131.66807427
_cell_angle_gamma   70.75377540
_symmetry_Int_Tables_number   1
_chemical_formula_structural   Cs2Si
_chemical_formula_sum   'Cs32 Si16'
_cell_volume   2928.12163607
_cell_formula_units_Z   16
loop_
 _symmetry_equiv_pos_site_id
 _symmetry_equiv_pos_as_xyz
  1  'x, y, z'
loop_
 _atom_site_type_symbol
 _atom_site_label
 _atom_site_symmetry_multiplicity
 _atom_site_fract_x
 _atom_site_fract_y
 _atom_site_fract_z
 _atom_site_occupancy
  Cs  Cs0  1  0.71298489  1.00576812  1.51543905  1.0
  Cs  Cs1  1  0.25967093  1.05245416  1.01543905  1.0
  Cs  Cs2  1  0.99032907  0.50576812  1.29278323  1.0
  Cs  Cs3  1  0.53701511  0.55245416  0.79278323  1.0
  Cs  Cs4  1  1.30245416  1.00967093  1.51543905  1.0
  Cs  Cs5  1  1.25576812  0.46298489  1.01543905  1.0
  Cs  Cs6  1  0.99423188  0.50967093  0.70721677  1.0
  Cs  Cs7  1  0.94754584  0.96298489  1.20721677  1.0
  Cs  Cs8  1  0.21298489  0.69754584  0.70721677  1.0
  Cs  Cs9  1  0.75967093  0.74423188  1.20721677  1.0
  Cs  Cs10  1  0.49032907  0.19754584  0.48456095  1.0
  Cs  Cs11  1  1.03701511  0.24423188  0.98456095  1.0
  Cs  Cs12  1  0.80245416  1.28701511  1.29278323  1.0
  Cs  Cs13  1  0.75576812  0.74032907  0.79278323  1.0
  Cs  Cs14  1  0.49423188  0.78701511  0.48456095  1.0
  Cs  Cs15  1  0.44754584  1.24032907  0.98456095  1.0
  Cs  Cs16  1  0.16381870  0.96401732  0.63116248  1.0
  Cs  Cs17  1  0.41714516  0.71734378  1.13116248  1.0
  Cs  Cs18  1  0.83285484  0.46401732  0.80019862  1.0
  Cs  Cs19  1  0.08618130  0.21734378  0.30019862  1.0
  Cs  Cs20  1  0.96734378  0.16714516  0.63116248  1.0
  Cs  Cs21  1  0.21401732  -0.08618130  0.13116248  1.0
  Cs  Cs22  1  1.03598268  0.66714516  1.19980138  1.0
  Cs  Cs23  1  0.28265622  0.41381870  0.69980138  1.0
  Cs  Cs24  1  0.66381870  1.03265622  1.19980138  1.0
  Cs  Cs25  1  -0.08285484  0.78598268  0.69980138  1.0
  Cs  Cs26  1  0.33285484  0.53265622  0.36883752  1.0
  Cs  Cs27  1  0.58618130  0.28598268  0.86883752  1.0
  Cs  Cs28  1  0.46734378  0.83618130  0.80019862  1.0
  Cs  Cs29  1  0.71401732  0.58285484  1.30019862  1.0
  Cs  Cs30  1  0.53598268  0.33618130  0.36883752  1.0
  Cs  Cs31  1  0.78265622  0.08285484  0.86883752  1.0
  Si  Si32  1  0.97120476  0.79274311  1.52677576  1.0
  Si  Si33  1  0.48403265  0.80557100  1.02677576  1.0
  Si  Si34  1  0.76596735  0.29274311  0.82153835  1.0
  Si  Si35  1  0.27879524  0.30557100  0.32153835  1.0
  Si  Si36  1  1.05557100  1.23403265  1.52677576  1.0
  Si  Si37  1  1.04274311  0.72120476  1.02677576  1.0
  Si  Si38  1  1.20725689  0.73403265  1.17846165  1.0
  Si  Si39  1  1.19442900  1.22120476  1.67846165  1.0
  Si  Si40  1  0.47120476  0.94442900  1.17846165  1.0
  Si  Si41  1  0.98403265  0.95725689  1.67846165  1.0
  Si  Si42  1  0.26596735  0.44442900  0.47322424  1.0
  Si  Si43  1  0.77879524  0.45725689  0.97322424  1.0
  Si  Si44  1  0.55557100  1.02879524  0.82153835  1.0
  Si  Si45  1  0.54274311  0.51596735  0.32153835  1.0
  Si  Si46  1  0.70725689  0.52879524  0.47322424  1.0
  Si  Si47  1  0.69442900  1.01596735  0.97322424  1.0
