# generated using pymatgen
data_Ca2ZnGe2O7
_symmetry_space_group_name_H-M   'P 1'
_cell_length_a   8.05342647
_cell_length_b   8.05342647
_cell_length_c   5.22269302
_cell_angle_alpha   90.00000000
_cell_angle_beta   90.00000000
_cell_angle_gamma   90.00000000
_symmetry_Int_Tables_number   1
_chemical_formula_structural   Ca2ZnGe2O7
_chemical_formula_sum   'Ca4 Zn2 Ge4 O14'
_cell_volume   338.73174146
_cell_formula_units_Z   2
loop_
 _symmetry_equiv_pos_site_id
 _symmetry_equiv_pos_as_xyz
  1  'x, y, z'
loop_
 _atom_site_type_symbol
 _atom_site_label
 _atom_site_symmetry_multiplicity
 _atom_site_fract_x
 _atom_site_fract_y
 _atom_site_fract_z
 _atom_site_occupancy
  Ca  Ca0  1  0.83286182  0.33286182  0.49092705  1.0
  Ca  Ca1  1  0.66713818  0.83286182  0.50907295  1.0
  Ca  Ca2  1  0.16713818  0.66713818  0.49092705  1.0
  Ca  Ca3  1  0.33286182  0.16713818  0.50907295  1.0
  Zn  Zn4  1  0.50000000  0.50000000  0.00000000  1.0
  Zn  Zn5  1  0.00000000  0.00000000  0.00000000  1.0
  Ge  Ge6  1  0.35502831  0.85502831  0.05658204  1.0
  Ge  Ge7  1  0.14497169  0.35502831  0.94341796  1.0
  Ge  Ge8  1  0.64497169  0.14497169  0.05658204  1.0
  Ge  Ge9  1  0.85502831  0.64497169  0.94341796  1.0
  O  O10  1  0.32697105  0.41256382  0.77418437  1.0
  O  O11  1  0.17302895  0.91256382  0.22581563  1.0
  O  O12  1  0.58743618  0.32697105  0.22581563  1.0
  O  O13  1  0.91256382  0.82697105  0.77418437  1.0
  O  O14  1  0.67302895  0.58743618  0.77418437  1.0
  O  O15  1  0.82697105  0.08743618  0.22581563  1.0
  O  O16  1  0.41256382  0.67302895  0.22581563  1.0
  O  O17  1  0.08743618  0.17302895  0.77418437  1.0
  O  O18  1  0.36000558  0.86000558  0.72379129  1.0
  O  O19  1  0.13999442  0.36000558  0.27620871  1.0
  O  O20  1  0.63999442  0.13999442  0.72379129  1.0
  O  O21  1  0.86000558  0.63999442  0.27620871  1.0
  O  O22  1  0.00000000  0.50000000  0.79530696  1.0
  O  O23  1  0.50000000  0.00000000  0.20469304  1.0
