# generated using pymatgen
data_KBaMnO4
_symmetry_space_group_name_H-M   'P 1'
_cell_length_a   7.85239450
_cell_length_b   5.88121267
_cell_length_c   10.39984075
_cell_angle_alpha   90.00000000
_cell_angle_beta   90.00000000
_cell_angle_gamma   90.00000000
_symmetry_Int_Tables_number   1
_chemical_formula_structural   KBaMnO4
_chemical_formula_sum   'K4 Ba4 Mn4 O16'
_cell_volume   480.28130702
_cell_formula_units_Z   4
loop_
 _symmetry_equiv_pos_site_id
 _symmetry_equiv_pos_as_xyz
  1  'x, y, z'
loop_
 _atom_site_type_symbol
 _atom_site_label
 _atom_site_symmetry_multiplicity
 _atom_site_fract_x
 _atom_site_fract_y
 _atom_site_fract_z
 _atom_site_occupancy
  K  K0  1  0.84029011  0.75000000  0.42281174  1.0
  K  K1  1  0.34029011  0.75000000  0.07718826  1.0
  K  K2  1  0.15970989  0.25000000  0.57718826  1.0
  K  K3  1  0.65970989  0.25000000  0.92281174  1.0
  Ba  Ba4  1  0.50442318  0.75000000  0.69290863  1.0
  Ba  Ba5  1  0.00442318  0.75000000  0.80709137  1.0
  Ba  Ba6  1  0.49557682  0.25000000  0.30709137  1.0
  Ba  Ba7  1  0.99557682  0.25000000  0.19290863  1.0
  Mn  Mn8  1  0.76988986  0.75000000  0.08299845  1.0
  Mn  Mn9  1  0.26988986  0.75000000  0.41700155  1.0
  Mn  Mn10  1  0.23011014  0.25000000  0.91700155  1.0
  Mn  Mn11  1  0.73011014  0.25000000  0.58299845  1.0
  O  O12  1  0.70327995  0.98885717  0.16020628  1.0
  O  O13  1  0.70327995  0.51114283  0.16020628  1.0
  O  O14  1  0.20327995  0.98885717  0.33979372  1.0
  O  O15  1  0.20327995  0.51114283  0.33979372  1.0
  O  O16  1  0.29672005  0.48885717  0.83979372  1.0
  O  O17  1  0.29672005  0.01114283  0.83979372  1.0
  O  O18  1  0.79672005  0.48885717  0.66020628  1.0
  O  O19  1  0.79672005  0.01114283  0.66020628  1.0
  O  O20  1  0.98613229  0.75000000  0.07706315  1.0
  O  O21  1  0.48613229  0.75000000  0.42293685  1.0
  O  O22  1  0.01386771  0.25000000  0.92293685  1.0
  O  O23  1  0.51386771  0.25000000  0.57706315  1.0
  O  O24  1  0.19248175  0.75000000  0.57097346  1.0
  O  O25  1  0.69248175  0.75000000  0.92902654  1.0
  O  O26  1  0.80751825  0.25000000  0.42902654  1.0
  O  O27  1  0.30751825  0.25000000  0.07097346  1.0
