# generated using pymatgen
data_CeSi3Ru
_symmetry_space_group_name_H-M   'P 1'
_cell_length_a   5.80154612
_cell_length_b   5.80154612
_cell_length_c   5.80154612
_cell_angle_alpha   137.68526128
_cell_angle_beta   137.68526128
_cell_angle_gamma   61.38537896
_symmetry_Int_Tables_number   1
_chemical_formula_structural   CeSi3Ru
_chemical_formula_sum   'Ce1 Si3 Ru1'
_cell_volume   87.49753450
_cell_formula_units_Z   1
loop_
 _symmetry_equiv_pos_site_id
 _symmetry_equiv_pos_as_xyz
  1  'x, y, z'
loop_
 _atom_site_type_symbol
 _atom_site_label
 _atom_site_symmetry_multiplicity
 _atom_site_fract_x
 _atom_site_fract_y
 _atom_site_fract_z
 _atom_site_occupancy
  Ce  Ce0  1  0.56680602  0.56680602  1.00000000  1.0
  Si  Si1  1  0.83582245  0.33582245  0.50000000  1.0
  Si  Si2  1  0.33582245  0.83582245  0.50000000  1.0
  Si  Si3  1  -0.00766590  -0.00766590  -0.00000000  1.0
  Ru  Ru4  1  0.22701497  0.22701497  -0.00000000  1.0
