# generated using pymatgen
data_Li3GaGeO5
_symmetry_space_group_name_H-M   'P 1'
_cell_length_a   5.50669993
_cell_length_b   15.97255986
_cell_length_c   5.00000843
_cell_angle_alpha   90.00000000
_cell_angle_beta   90.00000000
_cell_angle_gamma   90.00000000
_symmetry_Int_Tables_number   1
_chemical_formula_structural   Li3GaGeO5
_chemical_formula_sum   'Li12 Ga4 Ge4 O20'
_cell_volume   439.78121268
_cell_formula_units_Z   4
loop_
 _symmetry_equiv_pos_site_id
 _symmetry_equiv_pos_as_xyz
  1  'x, y, z'
loop_
 _atom_site_type_symbol
 _atom_site_label
 _atom_site_symmetry_multiplicity
 _atom_site_fract_x
 _atom_site_fract_y
 _atom_site_fract_z
 _atom_site_occupancy
  Li  Li0  1  0.33868914  0.50443182  0.51500528  1.0
  Li  Li1  1  0.83868914  0.99556818  0.51500528  1.0
  Li  Li2  1  0.66131086  0.49556818  0.01500528  1.0
  Li  Li3  1  0.16131086  0.00443182  0.01500528  1.0
  Li  Li4  1  0.32854201  0.69667083  0.51387749  1.0
  Li  Li5  1  0.82854201  0.80332917  0.51387749  1.0
  Li  Li6  1  0.67145799  0.30332917  0.01387749  1.0
  Li  Li7  1  0.17145799  0.19667083  0.01387749  1.0
  Li  Li8  1  0.17518780  0.59618679  0.01238999  1.0
  Li  Li9  1  0.67518780  0.90381321  0.01238999  1.0
  Li  Li10  1  0.82481220  0.40381321  0.51238999  1.0
  Li  Li11  1  0.32481220  0.09618679  0.51238999  1.0
  Ga  Ga12  1  0.17040544  0.79918739  0.01410053  1.0
  Ga  Ga13  1  0.67040544  0.70081261  0.01410053  1.0
  Ga  Ga14  1  0.82959456  0.20081261  0.51410053  1.0
  Ga  Ga15  1  0.32959456  0.29918739  0.51410053  1.0
  Ge  Ge16  1  0.33886393  0.90343745  0.51983003  1.0
  Ge  Ge17  1  0.83886393  0.59656255  0.51983003  1.0
  Ge  Ge18  1  0.66113607  0.09656255  0.01983003  1.0
  Ge  Ge19  1  0.16113607  0.40343745  0.01983003  1.0
  O  O20  1  0.34642632  0.70469853  0.11705239  1.0
  O  O21  1  0.84642632  0.79530147  0.11705239  1.0
  O  O22  1  0.65357368  0.29530147  0.61705239  1.0
  O  O23  1  0.15357368  0.20469853  0.61705239  1.0
  O  O24  1  0.32097870  0.89473083  0.15668080  1.0
  O  O25  1  0.82097870  0.60526917  0.15668080  1.0
  O  O26  1  0.67902130  0.10526917  0.65668080  1.0
  O  O27  1  0.17902130  0.39473083  0.65668080  1.0
  O  O28  1  0.18229432  0.80858839  0.63654045  1.0
  O  O29  1  0.68229432  0.69141161  0.63654045  1.0
  O  O30  1  0.81770568  0.19141161  0.13654045  1.0
  O  O31  1  0.31770568  0.30858839  0.13654045  1.0
  O  O32  1  0.17888862  0.99180251  0.62288595  1.0
  O  O33  1  0.67888862  0.50819749  0.62288595  1.0
  O  O34  1  0.82111138  0.00819749  0.12288595  1.0
  O  O35  1  0.32111138  0.49180251  0.12288595  1.0
  O  O36  1  0.14175520  0.60189271  0.62163709  1.0
  O  O37  1  0.64175520  0.89810729  0.62163709  1.0
  O  O38  1  0.85824480  0.39810729  0.12163709  1.0
  O  O39  1  0.35824480  0.10189271  0.12163709  1.0
