# generated using pymatgen
data_NaTl2MoF6
_symmetry_space_group_name_H-M   'P 1'
_cell_length_a   6.21199451
_cell_length_b   6.21199451
_cell_length_c   6.21199451
_cell_angle_alpha   60.00000000
_cell_angle_beta   60.00000000
_cell_angle_gamma   60.00000000
_symmetry_Int_Tables_number   1
_chemical_formula_structural   NaTl2MoF6
_chemical_formula_sum   'Na1 Tl2 Mo1 F6'
_cell_volume   169.50331363
_cell_formula_units_Z   1
loop_
 _symmetry_equiv_pos_site_id
 _symmetry_equiv_pos_as_xyz
  1  'x, y, z'
loop_
 _atom_site_type_symbol
 _atom_site_label
 _atom_site_symmetry_multiplicity
 _atom_site_fract_x
 _atom_site_fract_y
 _atom_site_fract_z
 _atom_site_occupancy
  Na  Na0  1  -0.50000000  0.50000000  0.50000000  1.0
  Tl  Tl1  1  0.75000000  0.75000000  -0.25000000  1.0
  Tl  Tl2  1  1.25000000  0.25000000  0.25000000  1.0
  Mo  Mo3  1  0.00000000  0.00000000  0.00000000  1.0
  F  F4  1  -0.76409445  0.76409445  0.76409445  1.0
  F  F5  1  -0.23590555  0.23590555  0.76409445  1.0
  F  F6  1  0.76409445  0.76409445  -0.76409445  1.0
  F  F7  1  0.23590555  1.23590555  -0.23590555  1.0
  F  F8  1  0.23590555  -0.23590555  1.23590555  1.0
  F  F9  1  -0.23590555  0.23590555  0.23590555  1.0
