# generated using pymatgen
data_La2GeI2
_symmetry_space_group_name_H-M   'P 1'
_cell_length_a   11.81383815
_cell_length_b   11.81383815
_cell_length_c   11.81383815
_cell_angle_alpha   21.96186924
_cell_angle_beta   21.96186924
_cell_angle_gamma   21.96186924
_symmetry_Int_Tables_number   1
_chemical_formula_structural   La2GeI2
_chemical_formula_sum   'La2 Ge1 I2'
_cell_volume   202.16471567
_cell_formula_units_Z   1
loop_
 _symmetry_equiv_pos_site_id
 _symmetry_equiv_pos_as_xyz
  1  'x, y, z'
loop_
 _atom_site_type_symbol
 _atom_site_label
 _atom_site_symmetry_multiplicity
 _atom_site_fract_x
 _atom_site_fract_y
 _atom_site_fract_z
 _atom_site_occupancy
  La  La0  1  1.61789556  0.61789556  0.61789556  1.0
  La  La1  1  1.38210444  0.38210444  0.38210444  1.0
  Ge  Ge2  1  0.00000000  -0.00000000  0.00000000  1.0
  I  I3  1  0.77487320  0.77487320  0.77487320  1.0
  I  I4  1  1.22512680  1.22512680  0.22512680  1.0
