# generated using pymatgen
data_LuAgSn
_symmetry_space_group_name_H-M   'P 1'
_cell_length_a   7.31664890
_cell_length_b   7.31664890
_cell_length_c   4.46046274
_cell_angle_alpha   90.00000000
_cell_angle_beta   90.00000000
_cell_angle_gamma   120.00000000
_symmetry_Int_Tables_number   1
_chemical_formula_structural   LuAgSn
_chemical_formula_sum   'Lu3 Ag3 Sn3'
_cell_volume   206.79259262
_cell_formula_units_Z   3
loop_
 _symmetry_equiv_pos_site_id
 _symmetry_equiv_pos_as_xyz
  1  'x, y, z'
loop_
 _atom_site_type_symbol
 _atom_site_label
 _atom_site_symmetry_multiplicity
 _atom_site_fract_x
 _atom_site_fract_y
 _atom_site_fract_z
 _atom_site_occupancy
  Lu  Lu0  1  0.43186759  0.43186759  -0.00000000  1.0
  Lu  Lu1  1  0.00000000  0.56813241  0.00000000  1.0
  Lu  Lu2  1  0.56813241  0.00000000  -0.00000000  1.0
  Ag  Ag3  1  0.75372041  0.75372041  0.50000000  1.0
  Ag  Ag4  1  0.00000000  0.24627959  0.50000000  1.0
  Ag  Ag5  1  0.24627959  -0.00000000  0.50000000  1.0
  Sn  Sn6  1  0.33333333  0.66666667  0.50000000  1.0
  Sn  Sn7  1  0.66666667  0.33333333  0.50000000  1.0
  Sn  Sn8  1  0.00000000  0.00000000  0.00000000  1.0
