# generated using pymatgen
data_Cd4GeSe6
_symmetry_space_group_name_H-M   'P 1'
_cell_length_a   7.58130903
_cell_length_b   7.58130903
_cell_length_c   13.16937769
_cell_angle_alpha   72.98433904
_cell_angle_beta   107.01566096
_cell_angle_gamma   119.93692812
_symmetry_Int_Tables_number   1
_chemical_formula_structural   Cd4GeSe6
_chemical_formula_sum   'Cd8 Ge2 Se12'
_cell_volume   617.32685845
_cell_formula_units_Z   2
loop_
 _symmetry_equiv_pos_site_id
 _symmetry_equiv_pos_as_xyz
  1  'x, y, z'
loop_
 _atom_site_type_symbol
 _atom_site_label
 _atom_site_symmetry_multiplicity
 _atom_site_fract_x
 _atom_site_fract_y
 _atom_site_fract_z
 _atom_site_occupancy
  Cd  Cd0  1  1.78403098  0.06770537  0.30057003  1.0
  Cd  Cd1  1  0.93229463  0.21596902  0.80057003  1.0
  Cd  Cd2  1  1.09326103  -0.30644490  0.30523529  1.0
  Cd  Cd3  1  0.30644490  -0.09326103  0.80523529  1.0
  Cd  Cd4  1  0.57046106  0.21441908  0.49454108  1.0
  Cd  Cd5  1  0.78558092  0.42953894  0.99454108  1.0
  Cd  Cd6  1  1.29146444  -0.69555904  0.14493053  1.0
  Cd  Cd7  1  1.69555904  -0.29146444  0.64493053  1.0
  Ge  Ge8  1  1.69719615  -0.15732627  0.05657668  1.0
  Ge  Ge9  1  1.15732627  -0.69719615  0.55657668  1.0
  Se  Se10  1  0.97825072  0.97576877  0.50396808  1.0
  Se  Se11  1  0.02423123  0.02174928  0.00396808  1.0
  Se  Se12  1  0.72678652  0.72358727  0.24546419  1.0
  Se  Se13  1  0.27641273  0.27321348  0.74546419  1.0
  Se  Se14  1  1.45827133  -0.48928124  0.47590867  1.0
  Se  Se15  1  0.48928124  -0.45827133  0.97590867  1.0
  Se  Se16  1  1.49457946  0.02207574  0.00209193  1.0
  Se  Se17  1  0.97792426  0.50542054  0.50209193  1.0
  Se  Se18  1  1.42814693  0.06470760  0.30866572  1.0
  Se  Se19  1  0.93529240  0.57185307  0.80866572  1.0
  Se  Se20  1  1.03475235  -0.58045141  0.18704778  1.0
  Se  Se21  1  0.58045141  -0.03475235  0.68704778  1.0
