# generated using pymatgen
data_K4MgCl6
_symmetry_space_group_name_H-M   'P 1'
_cell_length_a   8.62378227
_cell_length_b   8.62378227
_cell_length_c   8.62378227
_cell_angle_alpha   89.65311254
_cell_angle_beta   89.65311254
_cell_angle_gamma   89.65311254
_symmetry_Int_Tables_number   1
_chemical_formula_structural   K4MgCl6
_chemical_formula_sum   'K8 Mg2 Cl12'
_cell_volume   641.31229460
_cell_formula_units_Z   2
loop_
 _symmetry_equiv_pos_site_id
 _symmetry_equiv_pos_as_xyz
  1  'x, y, z'
loop_
 _atom_site_type_symbol
 _atom_site_label
 _atom_site_symmetry_multiplicity
 _atom_site_fract_x
 _atom_site_fract_y
 _atom_site_fract_z
 _atom_site_occupancy
  K  K0  1  0.87540846  1.25000000  -0.37540846  1.0
  K  K1  1  1.37540846  0.12459154  -0.25000000  1.0
  K  K2  1  0.75000000  0.37540846  0.12459154  1.0
  K  K3  1  1.25000000  0.62459154  -0.12459154  1.0
  K  K4  1  1.12459154  -0.25000000  0.37540846  1.0
  K  K5  1  0.62459154  0.87540846  0.25000000  1.0
  K  K6  1  0.25000000  0.25000000  0.25000000  1.0
  K  K7  1  0.75000000  0.75000000  0.75000000  1.0
  Mg  Mg8  1  0.50000000  0.50000000  0.50000000  1.0
  Mg  Mg9  1  0.00000000  0.00000000  0.00000000  1.0
  Cl  Cl10  1  1.21734744  0.43220890  -0.44379871  1.0
  Cl  Cl11  1  0.71734744  1.05620129  -0.06779110  1.0
  Cl  Cl12  1  0.94379871  0.06779110  0.28265256  1.0
  Cl  Cl13  1  1.44379871  -0.21734744  0.56779110  1.0
  Cl  Cl14  1  1.56779110  0.44379871  -0.21734744  1.0
  Cl  Cl15  1  1.06779110  0.28265256  -0.05620129  1.0
  Cl  Cl16  1  0.78265256  0.56779110  0.44379871  1.0
  Cl  Cl17  1  1.28265256  -0.05620129  0.06779110  1.0
  Cl  Cl18  1  0.55620129  1.21734744  -0.56779110  1.0
  Cl  Cl19  1  1.05620129  0.93220890  -0.28265256  1.0
  Cl  Cl20  1  0.93220890  0.71734744  0.05620129  1.0
  Cl  Cl21  1  0.43220890  0.55620129  0.21734744  1.0
