# generated using pymatgen
data_RbNa2AuO2
_symmetry_space_group_name_H-M   'P 1'
_cell_length_a   5.69330953
_cell_length_b   10.24357736
_cell_length_c   4.09770751
_cell_angle_alpha   90.00000000
_cell_angle_beta   90.00000000
_cell_angle_gamma   90.00000000
_symmetry_Int_Tables_number   1
_chemical_formula_structural   RbNa2AuO2
_chemical_formula_sum   'Rb2 Na4 Au2 O4'
_cell_volume   238.97771426
_cell_formula_units_Z   2
loop_
 _symmetry_equiv_pos_site_id
 _symmetry_equiv_pos_as_xyz
  1  'x, y, z'
loop_
 _atom_site_type_symbol
 _atom_site_label
 _atom_site_symmetry_multiplicity
 _atom_site_fract_x
 _atom_site_fract_y
 _atom_site_fract_z
 _atom_site_occupancy
  Rb  Rb0  1  0.50000000  0.00000000  0.50000000  1.0
  Rb  Rb1  1  0.00000000  0.50000000  0.00000000  1.0
  Na  Na2  1  0.94172581  0.77572217  0.50000000  1.0
  Na  Na3  1  0.44172581  0.72427783  0.00000000  1.0
  Na  Na4  1  0.05827419  0.22427783  0.50000000  1.0
  Na  Na5  1  0.55827419  0.27572217  0.00000000  1.0
  Au  Au6  1  0.50000000  0.50000000  0.50000000  1.0
  Au  Au7  1  0.00000000  0.00000000  0.00000000  1.0
  O  O8  1  0.27910537  0.65510739  0.50000000  1.0
  O  O9  1  0.77910537  0.84489261  0.00000000  1.0
  O  O10  1  0.72089463  0.34489261  0.50000000  1.0
  O  O11  1  0.22089463  0.15510739  0.00000000  1.0
