# generated using pymatgen
data_RuF5
_symmetry_space_group_name_H-M   'P 1'
_cell_length_a   5.97387315
_cell_length_b   10.63361456
_cell_length_c   13.44656531
_cell_angle_alpha   90.00000000
_cell_angle_beta   100.97613242
_cell_angle_gamma   90.00000000
_symmetry_Int_Tables_number   1
_chemical_formula_structural   RuF5
_chemical_formula_sum   'Ru8 F40'
_cell_volume   838.55196285
_cell_formula_units_Z   8
loop_
 _symmetry_equiv_pos_site_id
 _symmetry_equiv_pos_as_xyz
  1  'x, y, z'
loop_
 _atom_site_type_symbol
 _atom_site_label
 _atom_site_symmetry_multiplicity
 _atom_site_fract_x
 _atom_site_fract_y
 _atom_site_fract_z
 _atom_site_occupancy
  F  F0  1  0.91243192  0.14238319  0.87229168  1.0
  F  F1  1  0.91243192  0.35761681  0.37229168  1.0
  F  F2  1  0.08756808  0.64238319  0.62770832  1.0
  F  F3  1  0.08756808  0.85761681  0.12770832  1.0
  F  F4  1  0.81327812  0.90554136  0.94149488  1.0
  F  F5  1  0.81327812  0.59445864  0.44149488  1.0
  F  F6  1  0.18672188  0.40554136  0.55850512  1.0
  F  F7  1  0.18672188  0.09445864  0.05850512  1.0
  F  F8  1  0.54082240  0.86177129  0.75666856  1.0
  F  F9  1  0.54082240  0.63822871  0.25666856  1.0
  F  F10  1  0.45917760  0.36177129  0.74333144  1.0
  F  F11  1  0.45917760  0.13822871  0.24333144  1.0
  F  F12  1  0.37107336  0.59291350  0.80646713  1.0
  F  F13  1  0.37107336  0.90708650  0.30646713  1.0
  F  F14  1  0.62892664  0.09291350  0.69353287  1.0
  F  F15  1  0.62892664  0.40708650  0.19353287  1.0
  F  F16  1  0.90980578  0.66947919  0.87952331  1.0
  F  F17  1  0.90980578  0.83052081  0.37952331  1.0
  F  F18  1  0.09019422  0.16947919  0.62047669  1.0
  F  F19  1  0.09019422  0.33052081  0.12047669  1.0
  F  F20  1  0.96782860  0.93585471  0.76557737  1.0
  F  F21  1  0.96782860  0.56414529  0.26557737  1.0
  F  F22  1  0.03217140  0.43585471  0.73442263  1.0
  F  F23  1  0.03217140  0.06414529  0.23442263  1.0
  F  F24  1  0.52493475  0.56365197  0.63556976  1.0
  F  F25  1  0.52493475  0.93634803  0.13556976  1.0
  F  F26  1  0.47506525  0.06365197  0.86443024  1.0
  F  F27  1  0.47506525  0.43634803  0.36443024  1.0
  F  F28  1  0.75210700  0.80014437  0.54948199  1.0
  F  F29  1  0.75210700  0.69985563  0.04948199  1.0
  F  F30  1  0.24789300  0.30014437  0.95051801  1.0
  F  F31  1  0.24789300  0.19985563  0.45051801  1.0
  F  F32  1  0.24752488  0.82736081  0.95259396  1.0
  F  F33  1  0.24752488  0.67263919  0.45259396  1.0
  F  F34  1  0.75247512  0.32736081  0.54740604  1.0
  F  F35  1  0.75247512  0.17263919  0.04740604  1.0
  F  F36  1  0.81934284  0.37514283  0.94060736  1.0
  F  F37  1  0.81934284  0.12485717  0.44060736  1.0
  F  F38  1  0.18065716  0.87514283  0.55939264  1.0
  F  F39  1  0.18065716  0.62485717  0.05939264  1.0
  Ru  Ru40  1  0.71092419  0.99805534  0.80827813  1.0
  Ru  Ru41  1  0.71092419  0.50194466  0.30827813  1.0
  Ru  Ru42  1  0.28907581  0.49805534  0.69172187  1.0
  Ru  Ru43  1  0.28907581  0.00194466  0.19172187  1.0
  Ru  Ru44  1  1.00374438  0.75424401  0.99879475  1.0
  Ru  Ru45  1  1.00374438  0.74575599  0.49879475  1.0
  Ru  Ru46  1  -0.00374438  0.25424401  0.50120525  1.0
  Ru  Ru47  1  -0.00374438  0.24575599  0.00120525  1.0
