# generated using pymatgen
data_K2MoS4
_symmetry_space_group_name_H-M   'P 1'
_cell_length_a   9.60553365
_cell_length_b   6.94505330
_cell_length_c   12.39897041
_cell_angle_alpha   90.00000000
_cell_angle_beta   90.00000000
_cell_angle_gamma   90.00000000
_symmetry_Int_Tables_number   1
_chemical_formula_structural   K2MoS4
_chemical_formula_sum   'K8 Mo4 S16'
_cell_volume   827.14701024
_cell_formula_units_Z   4
loop_
 _symmetry_equiv_pos_site_id
 _symmetry_equiv_pos_as_xyz
  1  'x, y, z'
loop_
 _atom_site_type_symbol
 _atom_site_label
 _atom_site_symmetry_multiplicity
 _atom_site_fract_x
 _atom_site_fract_y
 _atom_site_fract_z
 _atom_site_occupancy
  K  K0  1  0.84486540  0.75000000  0.38805782  1.0
  K  K1  1  0.34486540  0.75000000  0.11194218  1.0
  K  K2  1  0.15513460  0.25000000  0.61194218  1.0
  K  K3  1  0.65513460  0.25000000  0.88805782  1.0
  K  K4  1  0.54703250  0.75000000  0.66296788  1.0
  K  K5  1  0.04703250  0.75000000  0.83703212  1.0
  K  K6  1  0.45296750  0.25000000  0.33703212  1.0
  K  K7  1  0.95296750  0.25000000  0.16296788  1.0
  Mo  Mo8  1  0.75387218  0.75000000  0.06539956  1.0
  Mo  Mo9  1  0.25387218  0.75000000  0.43460044  1.0
  Mo  Mo10  1  0.24612782  0.25000000  0.93460044  1.0
  Mo  Mo11  1  0.74612782  0.25000000  0.56539956  1.0
  S  S12  1  0.65201096  0.00453000  0.13384676  1.0
  S  S13  1  0.65201096  0.49547000  0.13384676  1.0
  S  S14  1  0.15201096  0.00453000  0.36615324  1.0
  S  S15  1  0.15201096  0.49547000  0.36615324  1.0
  S  S16  1  0.34798904  0.50453000  0.86615324  1.0
  S  S17  1  0.34798904  0.99547000  0.86615324  1.0
  S  S18  1  0.84798904  0.50453000  0.63384676  1.0
  S  S19  1  0.84798904  0.99547000  0.63384676  1.0
  S  S20  1  0.97711914  0.75000000  0.10868782  1.0
  S  S21  1  0.47711914  0.75000000  0.39131218  1.0
  S  S22  1  0.02288086  0.25000000  0.89131218  1.0
  S  S23  1  0.52288086  0.25000000  0.60868782  1.0
  S  S24  1  0.22487249  0.75000000  0.61068985  1.0
  S  S25  1  0.72487249  0.75000000  0.88931015  1.0
  S  S26  1  0.77512751  0.25000000  0.38931015  1.0
  S  S27  1  0.27512751  0.25000000  0.11068985  1.0
