# generated using pymatgen
data_SiO2
_symmetry_space_group_name_H-M   'P 1'
_cell_length_a   8.82908072
_cell_length_b   7.80553833
_cell_length_c   5.32710061
_cell_angle_alpha   82.15450765
_cell_angle_beta   61.13936452
_cell_angle_gamma   36.70612784
_symmetry_Int_Tables_number   1
_chemical_formula_structural   SiO2
_chemical_formula_sum   'Si4 O8'
_cell_volume   168.75169843
_cell_formula_units_Z   4
loop_
 _symmetry_equiv_pos_site_id
 _symmetry_equiv_pos_as_xyz
  1  'x, y, z'
loop_
 _atom_site_type_symbol
 _atom_site_label
 _atom_site_symmetry_multiplicity
 _atom_site_fract_x
 _atom_site_fract_y
 _atom_site_fract_z
 _atom_site_occupancy
  Si  Si0  1  0.18684024  1.18684024  -0.18684024  1.0
  Si  Si1  1  0.81315976  0.81315976  -0.81315976  1.0
  Si  Si2  1  1.06315976  0.06315976  0.43684024  1.0
  Si  Si3  1  1.43684024  0.43684024  0.06315976  1.0
  O  O4  1  0.31370391  -0.31370391  1.31370391  1.0
  O  O5  1  0.93629609  0.56370391  0.93629609  1.0
  O  O6  1  0.68629609  -0.68629609  0.68629609  1.0
  O  O7  1  0.56370391  0.93629609  0.56370391  1.0
  O  O8  1  1.12500000  0.12500000  0.62500000  1.0
  O  O9  1  1.62500000  0.12500000  0.12500000  1.0
  O  O10  1  1.12500000  0.62500000  0.12500000  1.0
  O  O11  1  1.12500000  0.12500000  0.12500000  1.0
