# generated using pymatgen
data_Tl4SnSe3
_symmetry_space_group_name_H-M   'P 1'
_cell_length_a   8.80221483
_cell_length_b   8.80221483
_cell_length_c   8.80221483
_cell_angle_alpha   122.11228447
_cell_angle_beta   122.11228447
_cell_angle_gamma   86.37876595
_symmetry_Int_Tables_number   1
_chemical_formula_structural   Tl4SnSe3
_chemical_formula_sum   'Tl8 Sn2 Se6'
_cell_volume   465.82793926
_cell_formula_units_Z   2
loop_
 _symmetry_equiv_pos_site_id
 _symmetry_equiv_pos_as_xyz
  1  'x, y, z'
loop_
 _atom_site_type_symbol
 _atom_site_label
 _atom_site_symmetry_multiplicity
 _atom_site_fract_x
 _atom_site_fract_y
 _atom_site_fract_z
 _atom_site_occupancy
  Tl  Tl0  1  1.19631365  0.69631365  1.20351215  1.0
  Tl  Tl1  1  0.50719850  1.00719850  1.20351215  1.0
  Tl  Tl2  1  0.99280150  1.19631365  1.50000000  1.0
  Tl  Tl3  1  0.30368635  0.50719850  0.50000000  1.0
  Tl  Tl4  1  0.69631365  0.49280150  0.50000000  1.0
  Tl  Tl5  1  1.00719850  0.80368635  1.50000000  1.0
  Tl  Tl6  1  0.49280150  0.99280150  0.79648785  1.0
  Tl  Tl7  1  0.80368635  0.30368635  0.79648785  1.0
  Sn  Sn8  1  0.00000000  0.00000000  0.00000000  1.0
  Sn  Sn9  1  0.50000000  0.50000000  1.00000000  1.0
  Se  Se10  1  0.83352022  0.33352022  1.16704044  1.0
  Se  Se11  1  0.66647978  0.83352022  1.50000000  1.0
  Se  Se12  1  0.33352022  0.16647978  0.50000000  1.0
  Se  Se13  1  0.16647978  0.66647978  0.83295956  1.0
  Se  Se14  1  0.75000000  0.75000000  1.00000000  1.0
  Se  Se15  1  0.25000000  0.25000000  -0.00000000  1.0
