# generated using pymatgen
data_V3O8
_symmetry_space_group_name_H-M   'P 1'
_cell_length_a   18.41493876
_cell_length_b   3.59437861
_cell_length_c   9.79549778
_cell_angle_alpha   90.00000000
_cell_angle_beta   90.00000000
_cell_angle_gamma   90.00000000
_symmetry_Int_Tables_number   1
_chemical_formula_structural   V3O8
_chemical_formula_sum   'V12 O32'
_cell_volume   648.36656427
_cell_formula_units_Z   4
loop_
 _symmetry_equiv_pos_site_id
 _symmetry_equiv_pos_as_xyz
  1  'x, y, z'
loop_
 _atom_site_type_symbol
 _atom_site_label
 _atom_site_symmetry_multiplicity
 _atom_site_fract_x
 _atom_site_fract_y
 _atom_site_fract_z
 _atom_site_occupancy
  O  O0  1  0.45428201  0.75000000  0.07778420  1.0
  O  O1  1  0.95428201  0.75000000  0.42221580  1.0
  O  O2  1  0.54571799  0.25000000  0.92221580  1.0
  O  O3  1  0.04571799  0.25000000  0.57778420  1.0
  O  O4  1  0.45702320  0.75000000  0.78404590  1.0
  O  O5  1  0.95702320  0.75000000  0.71595410  1.0
  O  O6  1  0.54297680  0.25000000  0.21595410  1.0
  O  O7  1  0.04297680  0.25000000  0.28404590  1.0
  O  O8  1  0.37237496  0.75000000  0.55768620  1.0
  O  O9  1  0.87237496  0.75000000  0.94231380  1.0
  O  O10  1  0.62762504  0.25000000  0.44231380  1.0
  O  O11  1  0.12762504  0.25000000  0.05768620  1.0
  O  O12  1  0.30420834  0.75000000  0.80891333  1.0
  O  O13  1  0.80420834  0.75000000  0.69108667  1.0
  O  O14  1  0.69579166  0.25000000  0.19108667  1.0
  O  O15  1  0.19579166  0.25000000  0.30891333  1.0
  O  O16  1  0.09896722  0.75000000  0.76473059  1.0
  O  O17  1  0.59896722  0.75000000  0.73526941  1.0
  O  O18  1  0.90103278  0.25000000  0.23526941  1.0
  O  O19  1  0.40103278  0.25000000  0.26473059  1.0
  O  O20  1  0.01386707  0.75000000  0.07560861  1.0
  O  O21  1  0.51386707  0.75000000  0.42439139  1.0
  O  O22  1  0.98613293  0.25000000  0.92439139  1.0
  O  O23  1  0.48613293  0.25000000  0.57560861  1.0
  O  O24  1  0.61549573  0.75000000  0.02558099  1.0
  O  O25  1  0.11549573  0.75000000  0.47441901  1.0
  O  O26  1  0.38450427  0.25000000  0.97441901  1.0
  O  O27  1  0.88450427  0.25000000  0.52558099  1.0
  O  O28  1  0.28084165  0.75000000  0.04894247  1.0
  O  O29  1  0.78084165  0.75000000  0.45105753  1.0
  O  O30  1  0.71915835  0.25000000  0.95105753  1.0
  O  O31  1  0.21915835  0.25000000  0.54894247  1.0
  V  V32  1  0.45505220  0.75000000  0.59724702  1.0
  V  V33  1  0.95505220  0.75000000  0.90275298  1.0
  V  V34  1  0.54494780  0.25000000  0.40275298  1.0
  V  V35  1  0.04494780  0.25000000  0.09724702  1.0
  V  V36  1  0.35324639  0.75000000  0.95168685  1.0
  V  V37  1  0.85324639  0.75000000  0.54831315  1.0
  V  V38  1  0.64675361  0.25000000  0.04831315  1.0
  V  V39  1  0.14675361  0.25000000  0.45168685  1.0
  V  V40  1  0.04763934  0.75000000  0.63502233  1.0
  V  V41  1  0.54763934  0.75000000  0.86497767  1.0
  V  V42  1  0.95236066  0.25000000  0.36497767  1.0
  V  V43  1  0.45236066  0.25000000  0.13502233  1.0
