# generated using pymatgen
data_In4Se3
_symmetry_space_group_name_H-M   'P 1'
_cell_length_a   15.64165860
_cell_length_b   12.56355093
_cell_length_c   4.17695671
_cell_angle_alpha   90.00000000
_cell_angle_beta   90.00000000
_cell_angle_gamma   90.00000000
_symmetry_Int_Tables_number   1
_chemical_formula_structural   In4Se3
_chemical_formula_sum   'In16 Se12'
_cell_volume   820.83370474
_cell_formula_units_Z   4
loop_
 _symmetry_equiv_pos_site_id
 _symmetry_equiv_pos_as_xyz
  1  'x, y, z'
loop_
 _atom_site_type_symbol
 _atom_site_label
 _atom_site_symmetry_multiplicity
 _atom_site_fract_x
 _atom_site_fract_y
 _atom_site_fract_z
 _atom_site_occupancy
  In  In0  1  0.46533080  0.64429895  0.50000000  1.0
  In  In1  1  0.96533080  0.85570105  0.00000000  1.0
  In  In2  1  0.53466920  0.35570105  0.50000000  1.0
  In  In3  1  0.03466920  0.14429895  0.00000000  1.0
  In  In4  1  0.31353329  0.52315175  0.50000000  1.0
  In  In5  1  0.81353329  0.97684825  0.00000000  1.0
  In  In6  1  0.68646671  0.47684825  0.50000000  1.0
  In  In7  1  0.18646671  0.02315175  0.00000000  1.0
  In  In8  1  0.07532658  0.60829062  0.50000000  1.0
  In  In9  1  0.57532658  0.89170938  0.00000000  1.0
  In  In10  1  0.92467342  0.39170938  0.50000000  1.0
  In  In11  1  0.42467342  0.10829062  0.00000000  1.0
  In  In12  1  0.78971008  0.66380988  0.50000000  1.0
  In  In13  1  0.28971008  0.83619012  0.00000000  1.0
  In  In14  1  0.21028992  0.33619012  0.50000000  1.0
  In  In15  1  0.71028992  0.16380988  0.00000000  1.0
  Se  Se16  1  0.40263394  0.84867552  0.50000000  1.0
  Se  Se17  1  0.90263394  0.65132448  0.00000000  1.0
  Se  Se18  1  0.59736606  0.15132448  0.50000000  1.0
  Se  Se19  1  0.09736606  0.34867552  0.00000000  1.0
  Se  Se20  1  0.27078935  0.13606958  0.50000000  1.0
  Se  Se21  1  0.77078935  0.36393042  0.00000000  1.0
  Se  Se22  1  0.72921065  0.86393042  0.50000000  1.0
  Se  Se23  1  0.22921065  0.63606958  0.00000000  1.0
  Se  Se24  1  0.07261322  0.84645279  0.50000000  1.0
  Se  Se25  1  0.57261322  0.65354721  0.00000000  1.0
  Se  Se26  1  0.92738678  0.15354721  0.50000000  1.0
  Se  Se27  1  0.42738678  0.34645279  0.00000000  1.0
