# generated using pymatgen
data_Eu2Pt2O7
_symmetry_space_group_name_H-M   'P 1'
_cell_length_a   7.36583390
_cell_length_b   7.36583390
_cell_length_c   7.36583390
_cell_angle_alpha   60.00000000
_cell_angle_beta   60.00000000
_cell_angle_gamma   60.00000000
_symmetry_Int_Tables_number   1
_chemical_formula_structural   Eu2Pt2O7
_chemical_formula_sum   'Eu4 Pt4 O14'
_cell_volume   282.58608015
_cell_formula_units_Z   2
loop_
 _symmetry_equiv_pos_site_id
 _symmetry_equiv_pos_as_xyz
  1  'x, y, z'
loop_
 _atom_site_type_symbol
 _atom_site_label
 _atom_site_symmetry_multiplicity
 _atom_site_fract_x
 _atom_site_fract_y
 _atom_site_fract_z
 _atom_site_occupancy
  O  O0  1  0.70978000  0.70978000  -0.70978000  1.0
  O  O1  1  0.29022000  1.29022000  -0.29022000  1.0
  O  O2  1  0.70978000  -0.70978000  0.70978000  1.0
  O  O3  1  0.29022000  -0.29022000  0.29022000  1.0
  O  O4  1  -0.70978000  0.70978000  0.70978000  1.0
  O  O5  1  -0.29022000  0.29022000  0.29022000  1.0
  O  O6  1  -0.45978000  0.54022000  0.95978000  1.0
  O  O7  1  0.95978000  0.95978000  -0.45978000  1.0
  O  O8  1  0.54022000  0.95978000  0.54022000  1.0
  O  O9  1  0.95978000  0.54022000  0.95978000  1.0
  O  O10  1  0.95978000  0.54022000  -0.45978000  1.0
  O  O11  1  0.54022000  0.95978000  -0.04022000  1.0
  O  O12  1  0.25000000  1.25000000  0.25000000  1.0
  O  O13  1  0.00000000  0.00000000  0.00000000  1.0
  Pt  Pt14  1  1.12500000  0.62500000  0.62500000  1.0
  Pt  Pt15  1  0.62500000  1.12500000  -0.37500000  1.0
  Pt  Pt16  1  -0.37500000  0.62500000  1.12500000  1.0
  Pt  Pt17  1  -0.37500000  0.62500000  0.62500000  1.0
  Eu  Eu18  1  0.62500000  1.12500000  0.12500000  1.0
  Eu  Eu19  1  0.12500000  1.62500000  0.12500000  1.0
  Eu  Eu20  1  0.12500000  0.12500000  1.62500000  1.0
  Eu  Eu21  1  0.12500000  0.12500000  0.12500000  1.0
