# generated using pymatgen
data_Eu3S4
_symmetry_space_group_name_H-M   'P 1'
_cell_length_a   7.41797070
_cell_length_b   7.41797070
_cell_length_c   7.41797070
_cell_angle_alpha   109.47122063
_cell_angle_beta   109.47122063
_cell_angle_gamma   109.47122063
_symmetry_Int_Tables_number   1
_chemical_formula_structural   Eu3S4
_chemical_formula_sum   'Eu6 S8'
_cell_volume   314.21972869
_cell_formula_units_Z   2
loop_
 _symmetry_equiv_pos_site_id
 _symmetry_equiv_pos_as_xyz
  1  'x, y, z'
loop_
 _atom_site_type_symbol
 _atom_site_label
 _atom_site_symmetry_multiplicity
 _atom_site_fract_x
 _atom_site_fract_y
 _atom_site_fract_z
 _atom_site_occupancy
  Eu  Eu0  1  1.12500000  0.87500000  1.25000000  1.0
  Eu  Eu1  1  0.37500000  0.62500000  0.75000000  1.0
  Eu  Eu2  1  0.25000000  1.12500000  0.87500000  1.0
  Eu  Eu3  1  0.75000000  1.37500000  0.62500000  1.0
  Eu  Eu4  1  0.62500000  0.75000000  0.37500000  1.0
  Eu  Eu5  1  0.87500000  0.25000000  1.12500000  1.0
  S  S6  1  1.35521814  1.35521814  1.35521814  1.0
  S  S7  1  1.50000000  1.00000000  1.14478186  1.0
  S  S8  1  0.85521814  0.85521814  0.85521814  1.0
  S  S9  1  0.50000000  1.00000000  0.64478186  1.0
  S  S10  1  1.00000000  1.14478186  1.50000000  1.0
  S  S11  1  1.14478186  0.50000000  1.00000000  1.0
  S  S12  1  1.00000000  0.64478186  1.50000000  1.0
  S  S13  1  0.64478186  1.50000000  1.00000000  1.0
