# generated using pymatgen
data_NaMn4V3O12
_symmetry_space_group_name_H-M   'P 1'
_cell_length_a   11.05323725
_cell_length_b   11.05323725
_cell_length_c   11.05323725
_cell_angle_alpha   143.07805721
_cell_angle_beta   143.07805721
_cell_angle_gamma   53.20817747
_symmetry_Int_Tables_number   1
_chemical_formula_structural   NaMn4V3O12
_chemical_formula_sum   'Na2 Mn8 V6 O24'
_cell_volume   484.29275989
_cell_formula_units_Z   2
loop_
 _symmetry_equiv_pos_site_id
 _symmetry_equiv_pos_as_xyz
  1  'x, y, z'
loop_
 _atom_site_type_symbol
 _atom_site_label
 _atom_site_symmetry_multiplicity
 _atom_site_fract_x
 _atom_site_fract_y
 _atom_site_fract_z
 _atom_site_occupancy
  V  V0  1  0.52992318  1.12500000  0.90492318  1.0
  V  V1  1  1.37500000  1.47007682  1.59507682  1.0
  V  V2  1  0.87500000  0.77992318  0.40492318  1.0
  V  V3  1  1.22007682  0.62500000  1.09507682  1.0
  V  V4  1  0.75000000  0.25000000  0.50000000  1.0
  V  V5  1  1.00000000  1.00000000  1.00000000  1.0
  Mn  Mn6  1  0.97801504  0.47801504  0.50000000  1.0
  Mn  Mn7  1  0.77198496  0.77198496  1.00000000  1.0
  Mn  Mn8  1  1.22801504  1.22801504  1.00000000  1.0
  Mn  Mn9  1  0.52198496  1.02198496  0.50000000  1.0
  Mn  Mn10  1  1.11249551  1.12500000  1.48749551  1.0
  Mn  Mn11  1  1.37500000  0.88750449  1.01250449  1.0
  Mn  Mn12  1  0.87500000  1.36249551  0.98749551  1.0
  Mn  Mn13  1  0.63750449  0.62500000  0.51250449  1.0
  Na  Na14  1  0.25000000  0.75000000  0.50000000  1.0
  Na  Na15  1  0.50000000  0.50000000  -0.00000000  1.0
  O  O16  1  1.19264668  1.37851511  1.26804459  1.0
  O  O17  1  0.63952948  0.87148489  0.31413158  1.0
  O  O18  1  0.67460209  1.36047052  1.23195541  1.0
  O  O19  1  0.62148489  0.88952948  0.81413158  1.0
  O  O20  1  1.55735332  1.32539791  1.68586842  1.0
  O  O21  1  1.11047052  0.92460209  0.73195541  1.0
  O  O22  1  1.07539791  0.80735332  1.18586842  1.0
  O  O23  1  1.12851511  0.44264668  0.76804459  1.0
  O  O24  1  0.84741613  1.08742706  1.34451848  1.0
  O  O25  1  1.00709142  1.16257294  1.25998907  1.0
  O  O26  1  1.25289765  0.99290858  1.15548152  1.0
  O  O27  1  0.91257294  1.25709142  0.75998907  1.0
  O  O28  1  0.90258387  0.74710235  0.74001093  1.0
  O  O29  1  0.74290858  0.50289765  0.65548152  1.0
  O  O30  1  1.49710235  1.15258387  1.24001093  1.0
  O  O31  1  0.83742706  1.09741613  0.84451848  1.0
  O  O32  1  1.30640769  1.10906191  1.79713851  1.0
  O  O33  1  1.43807659  1.14093809  1.69734578  1.0
  O  O34  1  1.25926919  0.56192341  0.70286149  1.0
  O  O35  1  0.89093809  1.68807659  1.19734578  1.0
  O  O36  1  0.44359231  0.74073081  0.30265422  1.0
  O  O37  1  0.31192341  0.50926919  0.20286149  1.0
  O  O38  1  1.49073081  0.69359231  0.80265422  1.0
  O  O39  1  0.85906191  1.55640769  1.29713851  1.0
