# generated using pymatgen
data_Gd4Ru
_symmetry_space_group_name_H-M   'P 1'
_cell_length_a   7.64646529
_cell_length_b   7.64646529
_cell_length_c   7.64646529
_cell_angle_alpha   60.00000000
_cell_angle_beta   60.00000000
_cell_angle_gamma   60.00000000
_symmetry_Int_Tables_number   1
_chemical_formula_structural   Gd4Ru
_chemical_formula_sum   'Gd8 Ru2'
_cell_volume   316.13105874
_cell_formula_units_Z   2
loop_
 _symmetry_equiv_pos_site_id
 _symmetry_equiv_pos_as_xyz
  1  'x, y, z'
loop_
 _atom_site_type_symbol
 _atom_site_label
 _atom_site_symmetry_multiplicity
 _atom_site_fract_x
 _atom_site_fract_y
 _atom_site_fract_z
 _atom_site_occupancy
  Gd  Gd0  1  -0.11301557  0.88698443  0.33904671  1.0
  Gd  Gd1  1  0.88698443  -0.66095329  0.88698443  1.0
  Gd  Gd2  1  0.36301557  0.36301557  0.36301557  1.0
  Gd  Gd3  1  -0.08904671  0.36301557  0.36301557  1.0
  Gd  Gd4  1  -0.66095329  0.88698443  0.88698443  1.0
  Gd  Gd5  1  0.88698443  -0.11301557  0.88698443  1.0
  Gd  Gd6  1  0.36301557  -0.08904671  0.36301557  1.0
  Gd  Gd7  1  0.36301557  0.36301557  -0.08904671  1.0
  Ru  Ru8  1  0.50000000  0.50000000  -0.50000000  1.0
  Ru  Ru9  1  0.75000000  -0.25000000  0.75000000  1.0
