# generated using pymatgen
data_CdP(C2O)4
_symmetry_space_group_name_H-M   'P 1'
_cell_length_a   5.45161559
_cell_length_b   13.26421454
_cell_length_c   8.34216983
_cell_angle_alpha   90.00000000
_cell_angle_beta   132.67620362
_cell_angle_gamma   90.00000000
_symmetry_Int_Tables_number   1
_chemical_formula_structural   CdP(C2O)4
_chemical_formula_sum   'Cd2 P2 C16 O8'
_cell_volume   443.49531426
_cell_formula_units_Z   2
loop_
 _symmetry_equiv_pos_site_id
 _symmetry_equiv_pos_as_xyz
  1  'x, y, z'
loop_
 _atom_site_type_symbol
 _atom_site_label
 _atom_site_symmetry_multiplicity
 _atom_site_fract_x
 _atom_site_fract_y
 _atom_site_fract_z
 _atom_site_occupancy
  P  P0  1  0.36867757  0.12229006  0.23968143  1.0
  P  P1  1  0.36867757  0.87770994  0.73968143  1.0
  Cd  Cd2  1  0.82708120  1.00305321  0.23905435  1.0
  Cd  Cd3  1  0.82708120  -0.00305321  0.73905435  1.0
  O  O4  1  0.28468197  0.07241897  0.03701594  1.0
  O  O5  1  0.28468197  0.92758103  0.53701594  1.0
  O  O6  1  0.69060222  0.06814883  0.44257117  1.0
  O  O7  1  0.69060222  0.93185117  0.94257117  1.0
  O  O8  1  0.27313506  0.77446075  0.17984470  1.0
  O  O9  1  0.27313506  0.22553925  0.67984470  1.0
  O  O10  1  0.08310702  0.12893135  0.23188709  1.0
  O  O11  1  0.08310702  0.87106865  0.73188709  1.0
  C  C12  1  0.50376665  0.74667830  0.75261009  1.0
  C  C13  1  0.50376665  0.25332170  0.25261009  1.0
  C  C14  1  0.72635490  0.69443759  0.96475706  1.0
  C  C15  1  0.72635490  0.30556241  0.46475706  1.0
  C  C16  1  0.33770545  0.70539568  0.56214213  1.0
  C  C17  1  0.33770545  0.29460432  0.06214213  1.0
  C  C18  1  0.84575208  0.61255104  0.26545587  1.0
  C  C19  1  0.84575208  0.38744896  0.76545587  1.0
  C  C20  1  0.60655396  0.62420426  0.01575037  1.0
  C  C21  1  0.60655396  0.37579574  0.51575037  1.0
  C  C22  1  1.07452764  0.72187271  0.16380075  1.0
  C  C23  1  1.07452764  0.27812729  0.66380075  1.0
  C  C24  1  0.12466936  0.67487309  0.35591836  1.0
  C  C25  1  0.12466936  0.32512691  0.85591836  1.0
  C  C26  1  0.57378491  0.55574985  0.12671068  1.0
  C  C27  1  0.57378491  0.44425015  0.62671068  1.0
