# generated using pymatgen
data_LiMnVO4
_symmetry_space_group_name_H-M   'P 1'
_cell_length_a   5.20986596
_cell_length_b   5.20986596
_cell_length_c   6.34004912
_cell_angle_alpha   90.00000000
_cell_angle_beta   90.00000000
_cell_angle_gamma   112.31874675
_symmetry_Int_Tables_number   1
_chemical_formula_structural   LiMnVO4
_chemical_formula_sum   'Li2 Mn2 V2 O8'
_cell_volume   159.19433256
_cell_formula_units_Z   2
loop_
 _symmetry_equiv_pos_site_id
 _symmetry_equiv_pos_as_xyz
  1  'x, y, z'
loop_
 _atom_site_type_symbol
 _atom_site_label
 _atom_site_symmetry_multiplicity
 _atom_site_fract_x
 _atom_site_fract_y
 _atom_site_fract_z
 _atom_site_occupancy
  Li  Li0  1  -0.33534578  1.33534578  0.25000000  1.0
  Li  Li1  1  0.33534578  0.66465422  0.75000000  1.0
  Mn  Mn2  1  0.00000000  0.00000000  0.50000000  1.0
  Mn  Mn3  1  0.00000000  0.00000000  0.00000000  1.0
  V  V4  1  0.35446473  0.64553527  0.25000000  1.0
  V  V5  1  -0.35446473  1.35446473  0.75000000  1.0
  O  O6  1  0.23905673  0.28044789  0.25000000  1.0
  O  O7  1  -0.71955211  1.23905673  0.75000000  1.0
  O  O8  1  0.71955211  0.76094327  0.25000000  1.0
  O  O9  1  -0.23905673  1.71955211  0.75000000  1.0
  O  O10  1  0.24017926  0.75982074  0.47033948  1.0
  O  O11  1  0.24017926  0.75982074  0.02966052  1.0
  O  O12  1  -0.24017926  1.24017926  0.97033948  1.0
  O  O13  1  -0.24017926  1.24017926  0.52966052  1.0
