# generated using pymatgen
data_BaLi2Si
_symmetry_space_group_name_H-M   'P 1'
_cell_length_a   4.65524572
_cell_length_b   6.68095426
_cell_length_c   6.36354082
_cell_angle_alpha   90.00000000
_cell_angle_beta   90.00000000
_cell_angle_gamma   90.00000000
_symmetry_Int_Tables_number   1
_chemical_formula_structural   BaLi2Si
_chemical_formula_sum   'Ba2 Li4 Si2'
_cell_volume   197.91556115
_cell_formula_units_Z   2
loop_
 _symmetry_equiv_pos_site_id
 _symmetry_equiv_pos_as_xyz
  1  'x, y, z'
loop_
 _atom_site_type_symbol
 _atom_site_label
 _atom_site_symmetry_multiplicity
 _atom_site_fract_x
 _atom_site_fract_y
 _atom_site_fract_z
 _atom_site_occupancy
  Ba  Ba0  1  0.50000000  0.50000000  0.09436610  1.0
  Ba  Ba1  1  0.00000000  0.00000000  0.90563390  1.0
  Li  Li2  1  0.50000000  0.70180159  0.58910414  1.0
  Li  Li3  1  0.50000000  0.29819841  0.58910414  1.0
  Li  Li4  1  0.00000000  0.20180159  0.41089586  1.0
  Li  Li5  1  0.00000000  0.79819841  0.41089586  1.0
  Si  Si6  1  0.50000000  0.00000000  0.30708039  1.0
  Si  Si7  1  0.00000000  0.50000000  0.69291961  1.0
