# generated using pymatgen
data_Ca(CuSn)2
_symmetry_space_group_name_H-M   'P 1'
_cell_length_a   5.91174674
_cell_length_b   5.91174674
_cell_length_c   4.88452389
_cell_angle_alpha   73.33465459
_cell_angle_beta   106.66534541
_cell_angle_gamma   137.91433342
_symmetry_Int_Tables_number   1
_chemical_formula_structural   Ca(CuSn)2
_chemical_formula_sum   'Ca1 Cu2 Sn2'
_cell_volume   108.88025829
_cell_formula_units_Z   1
loop_
 _symmetry_equiv_pos_site_id
 _symmetry_equiv_pos_as_xyz
  1  'x, y, z'
loop_
 _atom_site_type_symbol
 _atom_site_label
 _atom_site_symmetry_multiplicity
 _atom_site_fract_x
 _atom_site_fract_y
 _atom_site_fract_z
 _atom_site_occupancy
  Ca  Ca0  1  0.00000000  0.00000000  0.00000000  1.0
  Cu  Cu1  1  1.26245368  -0.26245368  0.86764411  1.0
  Cu  Cu2  1  0.73754632  -0.73754632  0.13235589  1.0
  Sn  Sn3  1  0.64339005  -0.64339005  0.56733061  1.0
  Sn  Sn4  1  1.35660995  -0.35660995  0.43266939  1.0
