# generated using pymatgen
data_BaCl2
_symmetry_space_group_name_H-M   'P 1'
_cell_length_a   8.16405519
_cell_length_b   8.16405519
_cell_length_c   4.70289707
_cell_angle_alpha   90.00000000
_cell_angle_beta   90.00000000
_cell_angle_gamma   120.00000000
_symmetry_Int_Tables_number   1
_chemical_formula_structural   BaCl2
_chemical_formula_sum   'Ba3 Cl6'
_cell_volume   271.46132797
_cell_formula_units_Z   3
loop_
 _symmetry_equiv_pos_site_id
 _symmetry_equiv_pos_as_xyz
  1  'x, y, z'
loop_
 _atom_site_type_symbol
 _atom_site_label
 _atom_site_symmetry_multiplicity
 _atom_site_fract_x
 _atom_site_fract_y
 _atom_site_fract_z
 _atom_site_occupancy
  Ba  Ba0  1  0.33333333  0.66666667  0.50000000  1.0
  Ba  Ba1  1  0.66666667  0.33333333  0.50000000  1.0
  Ba  Ba2  1  0.00000000  -0.00000000  -0.00000000  1.0
  Cl  Cl3  1  0.74306865  0.74306865  0.50000000  1.0
  Cl  Cl4  1  -0.00000000  0.25693135  0.50000000  1.0
  Cl  Cl5  1  0.25693135  0.00000000  0.50000000  1.0
  Cl  Cl6  1  0.41018868  0.41018868  0.00000000  1.0
  Cl  Cl7  1  0.00000000  0.58981132  -0.00000000  1.0
  Cl  Cl8  1  0.58981132  0.00000000  0.00000000  1.0
