# generated using pymatgen
data_MnNbP
_symmetry_space_group_name_H-M   'P 1'
_cell_length_a   6.16537931
_cell_length_b   3.58578118
_cell_length_c   7.14766568
_cell_angle_alpha   90.00000000
_cell_angle_beta   90.00000000
_cell_angle_gamma   90.00000000
_symmetry_Int_Tables_number   1
_chemical_formula_structural   MnNbP
_chemical_formula_sum   'Mn4 Nb4 P4'
_cell_volume   158.01845646
_cell_formula_units_Z   4
loop_
 _symmetry_equiv_pos_site_id
 _symmetry_equiv_pos_as_xyz
  1  'x, y, z'
loop_
 _atom_site_type_symbol
 _atom_site_label
 _atom_site_symmetry_multiplicity
 _atom_site_fract_x
 _atom_site_fract_y
 _atom_site_fract_z
 _atom_site_occupancy
  Mn  Mn0  1  0.85990561  0.75000000  0.05807858  1.0
  Mn  Mn1  1  0.35990561  0.75000000  0.44192142  1.0
  Mn  Mn2  1  0.14009439  0.25000000  0.94192142  1.0
  Mn  Mn3  1  0.64009439  0.25000000  0.55807858  1.0
  Nb  Nb4  1  0.97198522  0.75000000  0.67454810  1.0
  Nb  Nb5  1  0.47198522  0.75000000  0.82545190  1.0
  Nb  Nb6  1  0.02801478  0.25000000  0.32545190  1.0
  Nb  Nb7  1  0.52801478  0.25000000  0.17454810  1.0
  P  P8  1  0.72804431  0.75000000  0.37245853  1.0
  P  P9  1  0.22804431  0.75000000  0.12754147  1.0
  P  P10  1  0.27195569  0.25000000  0.62754147  1.0
  P  P11  1  0.77195569  0.25000000  0.87245853  1.0
