# generated using pymatgen
data_MnTe2O5
_symmetry_space_group_name_H-M   'P 1'
_cell_length_a   8.96923104
_cell_length_b   8.96923104
_cell_length_c   13.19783641
_cell_angle_alpha   90.00000000
_cell_angle_beta   90.00000000
_cell_angle_gamma   90.00000000
_symmetry_Int_Tables_number   1
_chemical_formula_structural   MnTe2O5
_chemical_formula_sum   'Mn8 Te16 O40'
_cell_volume   1061.72773716
_cell_formula_units_Z   8
loop_
 _symmetry_equiv_pos_site_id
 _symmetry_equiv_pos_as_xyz
  1  'x, y, z'
loop_
 _atom_site_type_symbol
 _atom_site_label
 _atom_site_symmetry_multiplicity
 _atom_site_fract_x
 _atom_site_fract_y
 _atom_site_fract_z
 _atom_site_occupancy
  Mn  Mn0  1  0.50000000  0.00000000  0.25000000  1.0
  Mn  Mn1  1  0.00000000  0.50000000  0.25000000  1.0
  Mn  Mn2  1  0.00000000  0.50000000  0.75000000  1.0
  Mn  Mn3  1  0.50000000  0.00000000  0.75000000  1.0
  Mn  Mn4  1  0.50000000  0.00000000  0.00000000  1.0
  Mn  Mn5  1  0.00000000  0.50000000  0.00000000  1.0
  Mn  Mn6  1  0.00000000  0.50000000  0.50000000  1.0
  Mn  Mn7  1  0.50000000  0.00000000  0.50000000  1.0
  Te  Te8  1  0.81638860  0.78573798  0.86589619  1.0
  Te  Te9  1  0.68361140  0.28573798  0.86589619  1.0
  Te  Te10  1  0.31638860  0.71426202  0.86589619  1.0
  Te  Te11  1  0.18361140  0.21426202  0.86589619  1.0
  Te  Te12  1  0.78573798  0.81638860  0.36589619  1.0
  Te  Te13  1  0.71426202  0.31638860  0.36589619  1.0
  Te  Te14  1  0.28573798  0.68361140  0.36589619  1.0
  Te  Te15  1  0.21426202  0.18361140  0.36589619  1.0
  Te  Te16  1  0.68361140  0.71426202  0.63410381  1.0
  Te  Te17  1  0.81638860  0.21426202  0.63410381  1.0
  Te  Te18  1  0.18361140  0.78573798  0.63410381  1.0
  Te  Te19  1  0.31638860  0.28573798  0.63410381  1.0
  Te  Te20  1  0.71426202  0.68361140  0.13410381  1.0
  Te  Te21  1  0.78573798  0.18361140  0.13410381  1.0
  Te  Te22  1  0.21426202  0.81638860  0.13410381  1.0
  Te  Te23  1  0.28573798  0.31638860  0.13410381  1.0
  O  O24  1  0.35820924  0.92726185  0.88329077  1.0
  O  O25  1  0.14179076  0.42726185  0.88329077  1.0
  O  O26  1  0.85820924  0.57273815  0.88329077  1.0
  O  O27  1  0.64179076  0.07273815  0.88329077  1.0
  O  O28  1  0.92726185  0.35820924  0.38329077  1.0
  O  O29  1  0.57273815  0.85820924  0.38329077  1.0
  O  O30  1  0.42726185  0.14179076  0.38329077  1.0
  O  O31  1  0.07273815  0.64179076  0.38329077  1.0
  O  O32  1  0.14179076  0.57273815  0.61670923  1.0
  O  O33  1  0.35820924  0.07273815  0.61670923  1.0
  O  O34  1  0.64179076  0.92726185  0.61670923  1.0
  O  O35  1  0.85820924  0.42726185  0.61670923  1.0
  O  O36  1  0.57273815  0.14179076  0.11670923  1.0
  O  O37  1  0.92726185  0.64179076  0.11670923  1.0
  O  O38  1  0.07273815  0.35820924  0.11670923  1.0
  O  O39  1  0.42726185  0.85820924  0.11670923  1.0
  O  O40  1  0.62196343  0.77005848  0.79627443  1.0
  O  O41  1  0.87803657  0.27005848  0.79627443  1.0
  O  O42  1  0.12196343  0.72994152  0.79627443  1.0
  O  O43  1  0.37803657  0.22994152  0.79627443  1.0
  O  O44  1  0.77005848  0.62196343  0.29627443  1.0
  O  O45  1  0.72994152  0.12196343  0.29627443  1.0
  O  O46  1  0.27005848  0.87803657  0.29627443  1.0
  O  O47  1  0.22994152  0.37803657  0.29627443  1.0
  O  O48  1  0.87803657  0.72994152  0.70372557  1.0
  O  O49  1  0.62196343  0.22994152  0.70372557  1.0
  O  O50  1  0.37803657  0.77005848  0.70372557  1.0
  O  O51  1  0.12196343  0.27005848  0.70372557  1.0
  O  O52  1  0.72994152  0.87803657  0.20372557  1.0
  O  O53  1  0.77005848  0.37803657  0.20372557  1.0
  O  O54  1  0.22994152  0.62196343  0.20372557  1.0
  O  O55  1  0.27005848  0.12196343  0.20372557  1.0
  O  O56  1  0.80452101  0.30452101  0.00000000  1.0
  O  O57  1  0.69547899  0.80452101  0.00000000  1.0
  O  O58  1  0.30452101  0.19547899  0.00000000  1.0
  O  O59  1  0.19547899  0.69547899  0.00000000  1.0
  O  O60  1  0.30452101  0.80452101  0.50000000  1.0
  O  O61  1  0.19547899  0.30452101  0.50000000  1.0
  O  O62  1  0.80452101  0.69547899  0.50000000  1.0
  O  O63  1  0.69547899  0.19547899  0.50000000  1.0
