# generated using pymatgen
data_TiSn6F16
_symmetry_space_group_name_H-M   'P 1'
_cell_length_a   10.28461670
_cell_length_b   10.28461670
_cell_length_c   11.22636552
_cell_angle_alpha   90.12436613
_cell_angle_beta   89.87563387
_cell_angle_gamma   134.42956113
_symmetry_Int_Tables_number   1
_chemical_formula_structural   TiSn6F16
_chemical_formula_sum   'Ti2 Sn12 F32'
_cell_volume   847.96960151
_cell_formula_units_Z   2
loop_
 _symmetry_equiv_pos_site_id
 _symmetry_equiv_pos_as_xyz
  1  'x, y, z'
loop_
 _atom_site_type_symbol
 _atom_site_label
 _atom_site_symmetry_multiplicity
 _atom_site_fract_x
 _atom_site_fract_y
 _atom_site_fract_z
 _atom_site_occupancy
  Ti  Ti0  1  0.65608951  0.65608951  0.75000000  1.0
  Ti  Ti1  1  0.34391049  0.34391049  0.25000000  1.0
  Sn  Sn2  1  0.72391923  0.10870548  0.81986282  1.0
  Sn  Sn3  1  0.89129452  0.27608077  0.31986282  1.0
  Sn  Sn4  1  1.10870548  0.72391923  0.68013718  1.0
  Sn  Sn5  1  0.27608077  -0.10870548  0.18013718  1.0
  Sn  Sn6  1  0.54161571  0.22302813  0.54115151  1.0
  Sn  Sn7  1  0.77697187  0.45838429  0.04115151  1.0
  Sn  Sn8  1  1.22302813  0.54161571  0.95884849  1.0
  Sn  Sn9  1  0.45838429  -0.22302813  0.45884849  1.0
  Sn  Sn10  1  0.27270102  0.13518415  0.90113111  1.0
  Sn  Sn11  1  0.86481585  0.72729898  0.40113111  1.0
  Sn  Sn12  1  1.13518415  0.27270102  0.59886889  1.0
  Sn  Sn13  1  0.72729898  -0.13518415  0.09886889  1.0
  F  F14  1  0.63205547  -0.32467093  0.91507945  1.0
  F  F15  1  1.32467093  0.36794453  0.41507945  1.0
  F  F16  1  0.67532907  0.63205547  0.58492055  1.0
  F  F17  1  0.36794453  0.32467093  0.08492055  1.0
  F  F18  1  0.41627498  -0.44748787  0.72728739  1.0
  F  F19  1  1.44748787  0.58372502  0.22728739  1.0
  F  F20  1  0.55251213  0.41627498  0.77271261  1.0
  F  F21  1  0.58372502  0.44748787  0.27271261  1.0
  F  F22  1  0.75039585  -0.10986561  0.72361533  1.0
  F  F23  1  1.10986561  0.24960415  0.22361533  1.0
  F  F24  1  0.89013439  0.75039585  0.77638467  1.0
  F  F25  1  0.24960415  0.10986561  0.27638467  1.0
  F  F26  1  0.85333712  0.08875749  0.97757495  1.0
  F  F27  1  0.91124251  0.14666288  0.47757495  1.0
  F  F28  1  1.08875749  0.85333712  0.52242505  1.0
  F  F29  1  0.14666288  -0.08875749  0.02242505  1.0
  F  F30  1  0.37605998  -0.12559340  0.58390422  1.0
  F  F31  1  1.12559340  0.62394002  0.08390422  1.0
  F  F32  1  0.87440660  0.37605998  0.91609578  1.0
  F  F33  1  0.62394002  0.12559340  0.41609578  1.0
  F  F34  1  0.71963267  0.26467602  0.66296071  1.0
  F  F35  1  0.73532398  0.28036733  0.16296071  1.0
  F  F36  1  1.26467602  0.71963267  0.83703929  1.0
  F  F37  1  0.28036733  -0.26467602  0.33703929  1.0
  F  F38  1  0.51249991  0.20338992  0.96401588  1.0
  F  F39  1  0.79661008  0.48750009  0.46401588  1.0
  F  F40  1  1.20338992  0.51249991  0.53598412  1.0
  F  F41  1  0.48750009  -0.20338992  0.03598412  1.0
  F  F42  1  0.28349800  -0.00496612  0.75409646  1.0
  F  F43  1  1.00496612  0.71650200  0.25409646  1.0
  F  F44  1  0.99503388  0.28349800  0.74590354  1.0
  F  F45  1  0.71650200  0.00496612  0.24590354  1.0
