# generated using pymatgen
data_B2Se2O7
_symmetry_space_group_name_H-M   'P 1'
_cell_length_a   7.81070200
_cell_length_b   7.99925400
_cell_length_c   9.21898249
_cell_angle_alpha   90.00000000
_cell_angle_beta   90.00000000
_cell_angle_gamma   90.00000000
_symmetry_Int_Tables_number   1
_chemical_formula_structural   B2Se2O7
_chemical_formula_sum   'B8 Se8 O28'
_cell_volume   576.00008316
_cell_formula_units_Z   4
loop_
 _symmetry_equiv_pos_site_id
 _symmetry_equiv_pos_as_xyz
  1  'x, y, z'
loop_
 _atom_site_type_symbol
 _atom_site_label
 _atom_site_symmetry_multiplicity
 _atom_site_fract_x
 _atom_site_fract_y
 _atom_site_fract_z
 _atom_site_occupancy
  B  B0  1  0.42700863  0.98489643  0.14089516  1.0
  B  B1  1  0.92700863  0.51510357  0.85910484  1.0
  B  B2  1  0.57299137  0.48489643  0.35910484  1.0
  B  B3  1  0.07299137  0.01510357  0.64089516  1.0
  B  B4  1  0.39660758  0.95531330  0.64582290  1.0
  B  B5  1  0.89660758  0.54468670  0.35417710  1.0
  B  B6  1  0.60339242  0.45531330  0.85417710  1.0
  B  B7  1  0.10339242  0.04468670  0.14582290  1.0
  Se  Se8  1  0.41463670  0.60869110  0.62732217  1.0
  Se  Se9  1  0.91463670  0.89130890  0.37267783  1.0
  Se  Se10  1  0.58536330  0.10869110  0.87267783  1.0
  Se  Se11  1  0.08536330  0.39130890  0.12732217  1.0
  Se  Se12  1  0.07440407  0.83045810  0.89760891  1.0
  Se  Se13  1  0.57440407  0.66954190  0.10239109  1.0
  Se  Se14  1  0.92559593  0.33045810  0.60239109  1.0
  Se  Se15  1  0.42559593  0.16954190  0.39760891  1.0
  O  O16  1  0.49248227  0.30557091  0.88569443  1.0
  O  O17  1  0.99248227  0.19442909  0.11430557  1.0
  O  O18  1  0.50751773  0.80557091  0.61430557  1.0
  O  O19  1  0.00751773  0.69442909  0.38569443  1.0
  O  O20  1  0.40927541  0.99969945  0.80468245  1.0
  O  O21  1  0.90927541  0.50030055  0.19531755  1.0
  O  O22  1  0.59072459  0.49969945  0.69531755  1.0
  O  O23  1  0.09072459  0.00030055  0.30468245  1.0
  O  O24  1  0.39713477  0.80134609  0.11804037  1.0
  O  O25  1  0.89713477  0.69865391  0.88195963  1.0
  O  O26  1  0.60286523  0.30134609  0.38195963  1.0
  O  O27  1  0.10286523  0.19865391  0.61804037  1.0
  O  O28  1  0.22285951  0.92190121  0.61153485  1.0
  O  O29  1  0.72285951  0.57809879  0.38846515  1.0
  O  O30  1  0.77714049  0.42190121  0.88846515  1.0
  O  O31  1  0.27714049  0.07809879  0.11153485  1.0
  O  O32  1  0.01538818  0.90355503  0.06734635  1.0
  O  O33  1  0.51538818  0.59644497  0.93265365  1.0
  O  O34  1  0.98461182  0.40355503  0.43265365  1.0
  O  O35  1  0.48461182  0.09644497  0.56734635  1.0
  O  O36  1  0.99629877  0.49796795  0.70603647  1.0
  O  O37  1  0.49629877  1.00203205  0.29396353  1.0
  O  O38  1  0.00370123  -0.00203205  0.79396353  1.0
  O  O39  1  0.50370123  0.50203205  0.20603647  1.0
  O  O40  1  0.92064911  0.96129590  0.54972211  1.0
  O  O41  1  0.42064911  0.53870410  0.45027789  1.0
  O  O42  1  0.07935089  0.46129590  0.95027789  1.0
  O  O43  1  0.57935089  0.03870410  0.04972211  1.0
