# generated using pymatgen
data_YMn2AsO8
_symmetry_space_group_name_H-M   'P 1'
_cell_length_a   5.23341814
_cell_length_b   11.16554698
_cell_length_c   4.94019965
_cell_angle_alpha   90.00000000
_cell_angle_beta   90.00000000
_cell_angle_gamma   90.00000000
_symmetry_Int_Tables_number   1
_chemical_formula_structural   YMn2AsO8
_chemical_formula_sum   'Y2 Mn4 As2 O16'
_cell_volume   288.67550806
_cell_formula_units_Z   2
loop_
 _symmetry_equiv_pos_site_id
 _symmetry_equiv_pos_as_xyz
  1  'x, y, z'
loop_
 _atom_site_type_symbol
 _atom_site_label
 _atom_site_symmetry_multiplicity
 _atom_site_fract_x
 _atom_site_fract_y
 _atom_site_fract_z
 _atom_site_occupancy
  Mn  Mn0  1  0.00000000  0.29723911  -0.00000000  1.0
  Mn  Mn1  1  0.50000000  0.20276089  0.00000000  1.0
  Mn  Mn2  1  0.50000000  0.79723911  0.00000000  1.0
  Mn  Mn3  1  0.00000000  0.70276089  -0.00000000  1.0
  As  As4  1  0.50000000  0.00000000  0.50000000  1.0
  As  As5  1  0.00000000  0.50000000  0.50000000  1.0
  O  O6  1  0.31667814  0.08280989  0.27385108  1.0
  O  O7  1  0.81667814  0.41719011  0.27385108  1.0
  O  O8  1  0.68332186  0.08280989  0.72614892  1.0
  O  O9  1  0.18332186  0.58280989  0.27385108  1.0
  O  O10  1  0.31667814  0.91719011  0.72614892  1.0
  O  O11  1  0.81667814  0.58280989  0.72614892  1.0
  O  O12  1  0.68332186  0.91719011  0.27385108  1.0
  O  O13  1  0.18332186  0.41719011  0.72614892  1.0
  O  O14  1  0.31544977  0.32015277  0.17690528  1.0
  O  O15  1  0.81544977  0.17984723  0.17690528  1.0
  O  O16  1  0.68455023  0.32015277  0.82309472  1.0
  O  O17  1  0.18455023  0.82015277  0.17690528  1.0
  O  O18  1  0.31544977  0.67984723  0.82309472  1.0
  O  O19  1  0.81544977  0.82015277  0.82309472  1.0
  O  O20  1  0.68455023  0.67984723  0.17690528  1.0
  O  O21  1  0.18455023  0.17984723  0.82309472  1.0
  Y  Y22  1  0.00000000  0.00000000  0.00000000  1.0
  Y  Y23  1  0.50000000  0.50000000  0.00000000  1.0
