# generated using pymatgen
data_LuAg(WO4)2
_symmetry_space_group_name_H-M   'P 1'
_cell_length_a   7.33082971
_cell_length_b   7.33082971
_cell_length_c   7.23860045
_cell_angle_alpha   65.78658287
_cell_angle_beta   114.21341713
_cell_angle_gamma   85.16743855
_symmetry_Int_Tables_number   1
_chemical_formula_structural   LuAg(WO4)2
_chemical_formula_sum   'Lu2 Ag2 W4 O16'
_cell_volume   308.31033505
_cell_formula_units_Z   2
loop_
 _symmetry_equiv_pos_site_id
 _symmetry_equiv_pos_as_xyz
  1  'x, y, z'
loop_
 _atom_site_type_symbol
 _atom_site_label
 _atom_site_symmetry_multiplicity
 _atom_site_fract_x
 _atom_site_fract_y
 _atom_site_fract_z
 _atom_site_occupancy
  Lu  Lu0  1  0.69616656  -0.30383344  0.00000000  1.0
  Lu  Lu1  1  1.30383344  0.30383344  0.00000000  1.0
  Ag  Ag2  1  0.68385850  -0.68385850  0.52052421  1.0
  Ag  Ag3  1  0.31614150  -0.31614150  0.47947579  1.0
  W  W4  1  0.20952453  -0.20952453  0.97183214  1.0
  W  W5  1  0.79047547  -0.79047547  0.02816786  1.0
  W  W6  1  0.83444301  -0.16555699  0.50000000  1.0
  W  W7  1  1.16555699  0.16555699  0.50000000  1.0
  O  O8  1  0.68904685  -0.21892686  0.65336547  1.0
  O  O9  1  1.21892686  0.31095315  0.65336547  1.0
  O  O10  1  0.78107314  -0.31095315  0.34663453  1.0
  O  O11  1  1.31095315  0.21892686  0.34663453  1.0
  O  O12  1  1.70058316  0.03837591  0.91371366  1.0
  O  O13  1  0.96162409  -0.70058316  0.91371366  1.0
  O  O14  1  1.03837591  0.70058316  0.08628634  1.0
  O  O15  1  0.29941684  -0.03837591  0.08628634  1.0
  O  O16  1  0.35435616  -0.10321149  0.75690802  1.0
  O  O17  1  1.10321149  0.64564384  0.75690802  1.0
  O  O18  1  0.89678851  -0.64564384  0.24309198  1.0
  O  O19  1  1.64564384  0.10321149  0.24309198  1.0
  O  O20  1  0.97851089  -0.97851089  0.66053136  1.0
  O  O21  1  0.02148911  -0.02148911  0.33946864  1.0
  O  O22  1  0.55563684  -0.55563684  0.86335840  1.0
  O  O23  1  0.44436316  -0.44436316  0.13664160  1.0
