# generated using pymatgen
data_Cu3PO4
_symmetry_space_group_name_H-M   'P 1'
_cell_length_a   6.33974881
_cell_length_b   6.33974881
_cell_length_c   5.57417048
_cell_angle_alpha   90.00000000
_cell_angle_beta   90.00000000
_cell_angle_gamma   120.00000000
_symmetry_Int_Tables_number   1
_chemical_formula_structural   Cu3PO4
_chemical_formula_sum   'Cu6 P2 O8'
_cell_volume   194.02378884
_cell_formula_units_Z   2
loop_
 _symmetry_equiv_pos_site_id
 _symmetry_equiv_pos_as_xyz
  1  'x, y, z'
loop_
 _atom_site_type_symbol
 _atom_site_label
 _atom_site_symmetry_multiplicity
 _atom_site_fract_x
 _atom_site_fract_y
 _atom_site_fract_z
 _atom_site_occupancy
  Cu  Cu0  1  0.86662166  0.73324331  0.28067630  1.0
  Cu  Cu1  1  0.73324331  0.86662166  0.71932370  1.0
  Cu  Cu2  1  0.86662166  0.13337834  0.28067630  1.0
  Cu  Cu3  1  0.26675669  0.13337834  0.28067630  1.0
  Cu  Cu4  1  0.13337834  0.26675669  0.71932370  1.0
  Cu  Cu5  1  0.13337834  0.86662166  0.71932370  1.0
  P  P6  1  0.33333333  0.66666667  0.30803174  1.0
  P  P7  1  0.66666667  0.33333333  0.69196826  1.0
  O  O8  1  0.20090535  0.79909465  0.20360285  1.0
  O  O9  1  0.79909465  0.59818929  0.79639715  1.0
  O  O10  1  0.59818929  0.79909465  0.20360285  1.0
  O  O11  1  0.20090535  0.40181071  0.20360285  1.0
  O  O12  1  0.79909465  0.20090535  0.79639715  1.0
  O  O13  1  0.40181071  0.20090535  0.79639715  1.0
  O  O14  1  0.33333333  0.66666667  0.58754012  1.0
  O  O15  1  0.66666667  0.33333333  0.41245988  1.0
