# generated using pymatgen
data_ScP(H2O3)2
_symmetry_space_group_name_H-M   'P 1'
_cell_length_a   5.45940653
_cell_length_b   10.42417185
_cell_length_c   10.32194253
_cell_angle_alpha   90.00000000
_cell_angle_beta   119.56092097
_cell_angle_gamma   90.00000000
_symmetry_Int_Tables_number   1
_chemical_formula_structural   ScP(H2O3)2
_chemical_formula_sum   'Sc4 P4 H16 O24'
_cell_volume   510.95614550
_cell_formula_units_Z   4
loop_
 _symmetry_equiv_pos_site_id
 _symmetry_equiv_pos_as_xyz
  1  'x, y, z'
loop_
 _atom_site_type_symbol
 _atom_site_label
 _atom_site_symmetry_multiplicity
 _atom_site_fract_x
 _atom_site_fract_y
 _atom_site_fract_z
 _atom_site_occupancy
  Sc  Sc0  1  0.87791498  0.82749034  0.29276970  1.0
  Sc  Sc1  1  0.87791498  0.67250966  0.79276970  1.0
  Sc  Sc2  1  0.12208502  0.32749034  0.20723030  1.0
  Sc  Sc3  1  0.12208502  0.17250966  0.70723030  1.0
  P  P4  1  0.72980433  0.14509931  0.32149245  1.0
  P  P5  1  0.72980433  0.35490069  0.82149245  1.0
  P  P6  1  0.27019567  0.64509931  0.17850755  1.0
  P  P7  1  0.27019567  0.85490069  0.67850755  1.0
  H  H8  1  0.91073962  0.95518354  0.74616035  1.0
  H  H9  1  0.91073962  0.54481646  0.24616035  1.0
  H  H10  1  0.08926038  0.45518354  0.75383965  1.0
  H  H11  1  0.08926038  0.04481646  0.25383965  1.0
  H  H12  1  0.64585136  0.45667715  0.21355408  1.0
  H  H13  1  0.64585136  0.04332285  0.71355408  1.0
  H  H14  1  0.35414864  0.95667715  0.28644592  1.0
  H  H15  1  0.35414864  0.54332285  0.78644592  1.0
  H  H16  1  0.59021371  0.30452620  0.47549957  1.0
  H  H17  1  0.59021371  0.19547380  0.97549957  1.0
  H  H18  1  0.40978629  0.80452620  0.02450043  1.0
  H  H19  1  0.40978629  0.69547380  0.52450043  1.0
  H  H20  1  0.36830337  0.33638233  0.52678941  1.0
  H  H21  1  0.36830337  0.16361767  0.02678941  1.0
  H  H22  1  0.63169663  0.83638233  0.97321059  1.0
  H  H23  1  0.63169663  0.66361767  0.47321059  1.0
  O  O24  1  0.92827354  0.17785073  0.25771178  1.0
  O  O25  1  0.92827354  0.32214927  0.75771178  1.0
  O  O26  1  0.07172646  0.67785073  0.24228822  1.0
  O  O27  1  0.07172646  0.82214927  0.74228822  1.0
  O  O28  1  0.84893340  0.20168642  0.48093699  1.0
  O  O29  1  0.84893340  0.29831358  0.98093699  1.0
  O  O30  1  0.15106660  0.70168642  0.01906301  1.0
  O  O31  1  0.15106660  0.79831358  0.51906301  1.0
  O  O32  1  0.84674689  0.45392644  0.23993574  1.0
  O  O33  1  0.84674689  0.04607356  0.73993574  1.0
  O  O34  1  0.15325311  0.95392644  0.26006426  1.0
  O  O35  1  0.15325311  0.54607356  0.76006426  1.0
  O  O36  1  0.70076167  -0.00343106  0.32366546  1.0
  O  O37  1  0.70076167  0.50343106  0.82366546  1.0
  O  O38  1  0.29923833  0.49656894  0.17633454  1.0
  O  O39  1  0.29923833  1.00343106  0.67633454  1.0
  O  O40  1  0.43487632  0.20583085  0.21762994  1.0
  O  O41  1  0.43487632  0.29416915  0.71762994  1.0
  O  O42  1  0.56512368  0.70583085  0.28237006  1.0
  O  O43  1  0.56512368  0.79416915  0.78237006  1.0
  O  O44  1  0.40846413  0.34886968  0.44440031  1.0
  O  O45  1  0.40846413  0.15113032  0.94440031  1.0
  O  O46  1  0.59153587  0.84886968  0.05559969  1.0
  O  O47  1  0.59153587  0.65113032  0.55559969  1.0
