# generated using pymatgen
data_ZrNCl
_symmetry_space_group_name_H-M   'P 1'
_cell_length_a   10.22000465
_cell_length_b   10.22000465
_cell_length_c   10.22000465
_cell_angle_alpha   20.43677496
_cell_angle_beta   20.43677496
_cell_angle_gamma   20.43677496
_symmetry_Int_Tables_number   1
_chemical_formula_structural   ZrNCl
_chemical_formula_sum   'Zr2 N2 Cl2'
_cell_volume   113.90571359
_cell_formula_units_Z   2
loop_
 _symmetry_equiv_pos_site_id
 _symmetry_equiv_pos_as_xyz
  1  'x, y, z'
loop_
 _atom_site_type_symbol
 _atom_site_label
 _atom_site_symmetry_multiplicity
 _atom_site_fract_x
 _atom_site_fract_y
 _atom_site_fract_z
 _atom_site_occupancy
  Zr  Zr0  1  0.87690414  0.87690414  0.87690414  1.0
  Zr  Zr1  1  1.12309586  1.12309586  0.12309586  1.0
  N  N2  1  0.80467211  0.80467211  0.80467211  1.0
  N  N3  1  1.19532789  1.19532789  0.19532789  1.0
  Cl  Cl4  1  1.60391740  0.60391740  0.60391740  1.0
  Cl  Cl5  1  1.39608260  0.39608260  0.39608260  1.0
