# generated using pymatgen
data_Gd4In5S13
_symmetry_space_group_name_H-M   'P 1'
_cell_length_a   12.00363365
_cell_length_b   21.49022556
_cell_length_c   3.91100037
_cell_angle_alpha   90.00000000
_cell_angle_beta   90.00000000
_cell_angle_gamma   90.00000000
_symmetry_Int_Tables_number   1
_chemical_formula_structural   Gd4In5S13
_chemical_formula_sum   'Gd8 In10 S26'
_cell_volume   1008.88476382
_cell_formula_units_Z   2
loop_
 _symmetry_equiv_pos_site_id
 _symmetry_equiv_pos_as_xyz
  1  'x, y, z'
loop_
 _atom_site_type_symbol
 _atom_site_label
 _atom_site_symmetry_multiplicity
 _atom_site_fract_x
 _atom_site_fract_y
 _atom_site_fract_z
 _atom_site_occupancy
  Gd  Gd0  1  0.48004774  0.82797498  0.00000000  1.0
  Gd  Gd1  1  0.98004774  0.67202502  0.00000000  1.0
  Gd  Gd2  1  0.51995226  0.17202502  0.00000000  1.0
  Gd  Gd3  1  0.01995226  0.32797498  0.00000000  1.0
  Gd  Gd4  1  0.32273987  0.65989048  0.00000000  1.0
  Gd  Gd5  1  0.82273987  0.84010952  0.00000000  1.0
  Gd  Gd6  1  0.67726013  0.34010952  0.00000000  1.0
  Gd  Gd7  1  0.17726013  0.15989048  0.00000000  1.0
  In  In8  1  0.15443129  0.50851724  0.50000000  1.0
  In  In9  1  0.65443129  0.99148276  0.50000000  1.0
  In  In10  1  0.84556871  0.49148276  0.50000000  1.0
  In  In11  1  0.34556871  0.00851724  0.50000000  1.0
  In  In12  1  0.15678908  0.83265673  0.50000000  1.0
  In  In13  1  0.65678908  0.66734327  0.50000000  1.0
  In  In14  1  0.84321092  0.16734327  0.50000000  1.0
  In  In15  1  0.34321092  0.33265673  0.50000000  1.0
  In  In16  1  0.50000000  0.50000000  0.00000000  1.0
  In  In17  1  0.00000000  0.00000000  0.00000000  1.0
  S  S18  1  0.49713009  0.59166870  0.50000000  1.0
  S  S19  1  0.99713009  0.90833130  0.50000000  1.0
  S  S20  1  0.50286991  0.40833130  0.50000000  1.0
  S  S21  1  0.00286991  0.09166870  0.50000000  1.0
  S  S22  1  0.41227005  0.73874607  0.50000000  1.0
  S  S23  1  0.91227005  0.76125393  0.50000000  1.0
  S  S24  1  0.58772995  0.26125393  0.50000000  1.0
  S  S25  1  0.08772995  0.23874607  0.50000000  1.0
  S  S26  1  0.34270876  0.88662148  0.50000000  1.0
  S  S27  1  0.84270876  0.61337852  0.50000000  1.0
  S  S28  1  0.65729124  0.11337852  0.50000000  1.0
  S  S29  1  0.15729124  0.38662148  0.50000000  1.0
  S  S30  1  0.14710507  0.63487769  0.50000000  1.0
  S  S31  1  0.64710507  0.86512231  0.50000000  1.0
  S  S32  1  0.85289493  0.36512231  0.50000000  1.0
  S  S33  1  0.35289493  0.13487769  0.50000000  1.0
  S  S34  1  0.29624089  0.52584652  0.00000000  1.0
  S  S35  1  0.79624089  0.97415348  0.00000000  1.0
  S  S36  1  0.70375911  0.47415348  0.00000000  1.0
  S  S37  1  0.20375911  0.02584652  0.00000000  1.0
  S  S38  1  0.16178416  0.76110683  0.00000000  1.0
  S  S39  1  0.66178416  0.73889317  0.00000000  1.0
  S  S40  1  0.83821584  0.23889317  0.00000000  1.0
  S  S41  1  0.33821584  0.26110683  0.00000000  1.0
  S  S42  1  0.50000000  0.00000000  0.00000000  1.0
  S  S43  1  0.00000000  0.50000000  0.00000000  1.0
