# generated using pymatgen
data_CsB3O5
_symmetry_space_group_name_H-M   'P 1'
_cell_length_a   6.03380152
_cell_length_b   8.54804327
_cell_length_c   10.05477446
_cell_angle_alpha   90.00000000
_cell_angle_beta   90.00000000
_cell_angle_gamma   90.00000000
_symmetry_Int_Tables_number   1
_chemical_formula_structural   CsB3O5
_chemical_formula_sum   'Cs4 B12 O20'
_cell_volume   518.59707772
_cell_formula_units_Z   4
loop_
 _symmetry_equiv_pos_site_id
 _symmetry_equiv_pos_as_xyz
  1  'x, y, z'
loop_
 _atom_site_type_symbol
 _atom_site_label
 _atom_site_symmetry_multiplicity
 _atom_site_fract_x
 _atom_site_fract_y
 _atom_site_fract_z
 _atom_site_occupancy
  Cs  Cs0  1  0.49452066  0.73271338  0.13798499  1.0
  Cs  Cs1  1  0.99452066  0.76728662  0.86201501  1.0
  Cs  Cs2  1  0.50547934  0.23271338  0.36201501  1.0
  Cs  Cs3  1  0.00547934  0.26728662  0.63798499  1.0
  B  B4  1  0.47043619  0.43107711  0.80414558  1.0
  B  B5  1  0.97043619  0.06892289  0.19585442  1.0
  B  B6  1  0.52956381  0.93107711  0.69585442  1.0
  B  B7  1  0.02956381  0.56892289  0.30414558  1.0
  B  B8  1  0.44060464  0.65122374  0.64267348  1.0
  B  B9  1  0.94060464  0.84877626  0.35732652  1.0
  B  B10  1  0.55939536  0.15122374  0.85732652  1.0
  B  B11  1  0.05939536  0.34877626  0.14267348  1.0
  B  B12  1  0.24354397  0.87270055  0.53300926  1.0
  B  B13  1  0.74354397  0.62729945  0.46699074  1.0
  B  B14  1  0.75645603  0.37270055  0.96699074  1.0
  B  B15  1  0.25645603  0.12729945  0.03300926  1.0
  O  O16  1  0.44334599  0.27525935  0.78119633  1.0
  O  O17  1  0.94334599  0.22474065  0.21880367  1.0
  O  O18  1  0.55665401  0.77525935  0.71880367  1.0
  O  O19  1  0.05665401  0.72474065  0.28119633  1.0
  O  O20  1  0.37202741  0.98354064  0.60335974  1.0
  O  O21  1  0.87202741  0.51645936  0.39664026  1.0
  O  O22  1  0.62797259  0.48354064  0.89664026  1.0
  O  O23  1  0.12797259  0.01645936  0.10335974  1.0
  O  O24  1  0.34242876  0.53668553  0.73552173  1.0
  O  O25  1  0.84242876  0.96331447  0.26447827  1.0
  O  O26  1  0.65757124  0.03668553  0.76447827  1.0
  O  O27  1  0.15757124  0.46331447  0.23552173  1.0
  O  O28  1  0.25916807  0.71736056  0.56178102  1.0
  O  O29  1  0.75916807  0.78263944  0.43821898  1.0
  O  O30  1  0.74083193  0.21736056  0.93821898  1.0
  O  O31  1  0.24083193  0.28263944  0.06178102  1.0
  O  O32  1  0.89814311  0.43546535  0.05815855  1.0
  O  O33  1  0.39814311  0.06453465  0.94184145  1.0
  O  O34  1  0.10185689  0.93546535  0.44184145  1.0
  O  O35  1  0.60185689  0.56453465  0.55815855  1.0
