# generated using pymatgen
data_Lu2FeB6
_symmetry_space_group_name_H-M   'P 1'
_cell_length_a   8.96377404
_cell_length_b   11.31346960
_cell_length_c   3.46011749
_cell_angle_alpha   90.00000000
_cell_angle_beta   90.00000000
_cell_angle_gamma   90.00000000
_symmetry_Int_Tables_number   1
_chemical_formula_structural   Lu2FeB6
_chemical_formula_sum   'Lu8 Fe4 B24'
_cell_volume   350.89530697
_cell_formula_units_Z   4
loop_
 _symmetry_equiv_pos_site_id
 _symmetry_equiv_pos_as_xyz
  1  'x, y, z'
loop_
 _atom_site_type_symbol
 _atom_site_label
 _atom_site_symmetry_multiplicity
 _atom_site_fract_x
 _atom_site_fract_y
 _atom_site_fract_z
 _atom_site_occupancy
  Lu  Lu0  1  0.17722513  0.91460625  0.50000000  1.0
  Lu  Lu1  1  0.67722513  0.58539375  0.50000000  1.0
  Lu  Lu2  1  0.82277487  0.08539375  0.50000000  1.0
  Lu  Lu3  1  0.32277487  0.41460625  0.50000000  1.0
  Lu  Lu4  1  0.05698836  0.62910955  0.50000000  1.0
  Lu  Lu5  1  0.55698836  0.87089045  0.50000000  1.0
  Lu  Lu6  1  0.94301164  0.37089045  0.50000000  1.0
  Lu  Lu7  1  0.44301164  0.12910955  0.50000000  1.0
  Fe  Fe8  1  0.36159057  0.67950531  0.50000000  1.0
  Fe  Fe9  1  0.86159057  0.82049469  0.50000000  1.0
  Fe  Fe10  1  0.63840943  0.32049469  0.50000000  1.0
  Fe  Fe11  1  0.13840943  0.17950531  0.50000000  1.0
  B  B12  1  0.44617768  0.56725858  0.00000000  1.0
  B  B13  1  0.94617768  0.93274142  0.00000000  1.0
  B  B14  1  0.55382232  0.43274142  0.00000000  1.0
  B  B15  1  0.05382232  0.06725858  0.00000000  1.0
  B  B16  1  0.39326146  0.97075269  0.00000000  1.0
  B  B17  1  0.89326146  0.52924731  0.00000000  1.0
  B  B18  1  0.60673854  0.02924731  0.00000000  1.0
  B  B19  1  0.10673854  0.47075269  0.00000000  1.0
  B  B20  1  0.36839580  0.81477955  0.00000000  1.0
  B  B21  1  0.86839580  0.68522045  0.00000000  1.0
  B  B22  1  0.63160420  0.18522045  0.00000000  1.0
  B  B23  1  0.13160420  0.31477955  0.00000000  1.0
  B  B24  1  0.25264925  0.58117098  0.00000000  1.0
  B  B25  1  0.75264925  0.91882902  0.00000000  1.0
  B  B26  1  0.74735075  0.41882902  0.00000000  1.0
  B  B27  1  0.24735075  0.08117098  0.00000000  1.0
  B  B28  1  0.20935864  0.73451194  0.00000000  1.0
  B  B29  1  0.70935864  0.76548806  0.00000000  1.0
  B  B30  1  0.79064136  0.26548806  0.00000000  1.0
  B  B31  1  0.29064136  0.23451194  0.00000000  1.0
  B  B32  1  0.01593200  0.78821935  0.00000000  1.0
  B  B33  1  0.51593200  0.71178065  0.00000000  1.0
  B  B34  1  0.98406800  0.21178065  0.00000000  1.0
  B  B35  1  0.48406800  0.28821935  0.00000000  1.0
