# generated using pymatgen
data_Si3Ru2
_symmetry_space_group_name_H-M   'P 1'
_cell_length_a   5.59325753
_cell_length_b   5.59325753
_cell_length_c   8.92285748
_cell_angle_alpha   90.00000000
_cell_angle_beta   90.00000000
_cell_angle_gamma   90.00000000
_symmetry_Int_Tables_number   1
_chemical_formula_structural   Si3Ru2
_chemical_formula_sum   'Si12 Ru8'
_cell_volume   279.14740016
_cell_formula_units_Z   4
loop_
 _symmetry_equiv_pos_site_id
 _symmetry_equiv_pos_as_xyz
  1  'x, y, z'
loop_
 _atom_site_type_symbol
 _atom_site_label
 _atom_site_symmetry_multiplicity
 _atom_site_fract_x
 _atom_site_fract_y
 _atom_site_fract_z
 _atom_site_occupancy
  Si  Si0  1  0.20724290  0.35556275  0.09056702  1.0
  Si  Si1  1  0.79275710  0.35556275  0.59056702  1.0
  Si  Si2  1  0.64443725  0.79275710  0.40943298  1.0
  Si  Si3  1  0.35556275  0.79275710  0.90943298  1.0
  Si  Si4  1  0.20724290  0.64443725  0.59056702  1.0
  Si  Si5  1  0.79275710  0.64443725  0.09056702  1.0
  Si  Si6  1  0.64443725  0.20724290  0.90943298  1.0
  Si  Si7  1  0.35556275  0.20724290  0.40943298  1.0
  Si  Si8  1  0.17047196  0.82952804  0.25000000  1.0
  Si  Si9  1  0.82952804  0.82952804  0.75000000  1.0
  Si  Si10  1  0.17047196  0.17047196  0.75000000  1.0
  Si  Si11  1  0.82952804  0.17047196  0.25000000  1.0
  Ru  Ru12  1  0.50000000  0.00000000  0.12761569  1.0
  Ru  Ru13  1  0.50000000  0.00000000  0.62761569  1.0
  Ru  Ru14  1  0.00000000  0.50000000  0.37238431  1.0
  Ru  Ru15  1  0.00000000  0.50000000  0.87238431  1.0
  Ru  Ru16  1  0.00000000  0.00000000  0.00000000  1.0
  Ru  Ru17  1  0.00000000  0.00000000  0.50000000  1.0
  Ru  Ru18  1  0.50000000  0.50000000  0.25000000  1.0
  Ru  Ru19  1  0.50000000  0.50000000  0.75000000  1.0
