# generated using pymatgen
data_ZnS
_symmetry_space_group_name_H-M   'P 1'
_cell_length_a   3.84984794
_cell_length_b   3.84984794
_cell_length_c   69.20912774
_cell_angle_alpha   90.00000000
_cell_angle_beta   90.00000000
_cell_angle_gamma   120.00000000
_symmetry_Int_Tables_number   1
_chemical_formula_structural   ZnS
_chemical_formula_sum   'Zn22 S22'
_cell_volume   888.34397052
_cell_formula_units_Z   22
loop_
 _symmetry_equiv_pos_site_id
 _symmetry_equiv_pos_as_xyz
  1  'x, y, z'
loop_
 _atom_site_type_symbol
 _atom_site_label
 _atom_site_symmetry_multiplicity
 _atom_site_fract_x
 _atom_site_fract_y
 _atom_site_fract_z
 _atom_site_occupancy
  Zn  Zn0  1  -0.00000000  -0.00000000  0.13636638  1.0
  Zn  Zn1  1  -0.00000000  -0.00000000  0.31816970  1.0
  Zn  Zn2  1  -0.00000000  -0.00000000  0.49999939  1.0
  Zn  Zn3  1  -0.00000000  -0.00000000  0.63635246  1.0
  Zn  Zn4  1  -0.00000000  -0.00000000  0.81818781  1.0
  Zn  Zn5  1  -0.00000000  -0.00000000  0.95454137  1.0
  Zn  Zn6  1  0.66666667  0.33333333  0.04546196  1.0
  Zn  Zn7  1  0.66666667  0.33333333  0.18178094  1.0
  Zn  Zn8  1  0.66666667  0.33333333  0.27274919  1.0
  Zn  Zn9  1  0.66666667  0.33333333  0.40908031  1.0
  Zn  Zn10  1  0.66666667  0.33333333  0.54544723  1.0
  Zn  Zn11  1  0.66666667  0.33333333  0.68177935  1.0
  Zn  Zn12  1  0.66666667  0.33333333  0.77275819  1.0
  Zn  Zn13  1  0.66666667  0.33333333  0.90909075  1.0
  Zn  Zn14  1  0.33333333  0.66666667  -0.00003041  1.0
  Zn  Zn15  1  0.33333333  0.66666667  0.09094804  1.0
  Zn  Zn16  1  0.33333333  0.66666667  0.22726493  1.0
  Zn  Zn17  1  0.33333333  0.66666667  0.36358991  1.0
  Zn  Zn18  1  0.33333333  0.66666667  0.45457009  1.0
  Zn  Zn19  1  0.33333333  0.66666667  0.59090253  1.0
  Zn  Zn20  1  0.33333333  0.66666667  0.72726757  1.0
  Zn  Zn21  1  0.33333333  0.66666667  0.86363693  1.0
  S  S22  1  -0.00000000  -0.00000000  0.10229638  1.0
  S  S23  1  -0.00000000  -0.00000000  0.28409921  1.0
  S  S24  1  -0.00000000  -0.00000000  0.46592395  1.0
  S  S25  1  0.00000000  0.00000000  0.60227128  1.0
  S  S26  1  -0.00000000  -0.00000000  0.78411219  1.0
  S  S27  1  -0.00000000  -0.00000000  0.92045926  1.0
  S  S28  1  0.66666667  0.33333333  0.01133251  1.0
  S  S29  1  0.66666667  0.33333333  0.14771974  1.0
  S  S30  1  0.66666667  0.33333333  0.23868175  1.0
  S  S31  1  0.66666667  0.33333333  0.37495214  1.0
  S  S32  1  0.66666667  0.33333333  0.51136563  1.0
  S  S33  1  0.66666667  0.33333333  0.64771383  1.0
  S  S34  1  0.66666667  0.33333333  0.73868746  1.0
  S  S35  1  0.66666667  0.33333333  0.87500750  1.0
  S  S36  1  0.33333333  0.66666667  0.05687941  1.0
  S  S37  1  0.33333333  0.66666667  0.19313903  1.0
  S  S38  1  0.33333333  0.66666667  0.32952692  1.0
  S  S39  1  0.33333333  0.66666667  0.42050069  1.0
  S  S40  1  0.33333333  0.66666667  0.55681852  1.0
  S  S41  1  0.33333333  0.66666667  0.69313961  1.0
  S  S42  1  0.33333333  0.66666667  0.82955501  1.0
  S  S43  1  0.33333333  0.66666667  0.96590333  1.0
