# generated using pymatgen
data_Rb3Nb2AsSe11
_symmetry_space_group_name_H-M   'P 1'
_cell_length_a   10.36463448
_cell_length_b   10.36463448
_cell_length_c   10.19526024
_cell_angle_alpha   83.93696746
_cell_angle_beta   96.06303254
_cell_angle_gamma   95.96229650
_symmetry_Int_Tables_number   1
_chemical_formula_structural   Rb3Nb2AsSe11
_chemical_formula_sum   'Rb6 Nb4 As2 Se22'
_cell_volume   1078.24263904
_cell_formula_units_Z   2
loop_
 _symmetry_equiv_pos_site_id
 _symmetry_equiv_pos_as_xyz
  1  'x, y, z'
loop_
 _atom_site_type_symbol
 _atom_site_label
 _atom_site_symmetry_multiplicity
 _atom_site_fract_x
 _atom_site_fract_y
 _atom_site_fract_z
 _atom_site_occupancy
  Rb  Rb0  1  0.92873690  -0.06785829  0.49950756  1.0
  Rb  Rb1  1  1.06785829  0.07126310  -0.00049244  1.0
  Rb  Rb2  1  1.30212048  0.53392181  0.24102194  1.0
  Rb  Rb3  1  0.46607819  -0.30212048  0.74102194  1.0
  Rb  Rb4  1  1.67432105  0.17541377  0.83631944  1.0
  Rb  Rb5  1  0.82458623  -0.67432105  0.33631944  1.0
  Nb  Nb6  1  0.56965910  -0.02786928  0.22835445  1.0
  Nb  Nb7  1  1.02786928  0.43034090  0.72835445  1.0
  Nb  Nb8  1  1.31515373  0.08531718  0.41204179  1.0
  Nb  Nb9  1  0.91468282  -0.31515373  0.91204179  1.0
  As  As10  1  1.36833455  0.30120853  0.67680081  1.0
  As  As11  1  0.69879147  -0.36833455  0.17680081  1.0
  Se  Se12  1  0.60019140  -0.21156338  0.41924962  1.0
  Se  Se13  1  1.21156338  0.39980860  0.91924962  1.0
  Se  Se14  1  0.54154683  -0.22280373  0.07356453  1.0
  Se  Se15  1  1.22280373  0.45845317  0.57356453  1.0
  Se  Se16  1  1.78133599  0.05189503  0.17061606  1.0
  Se  Se17  1  0.94810497  -0.78133599  0.67061606  1.0
  Se  Se18  1  1.58005212  0.00330063  0.48297212  1.0
  Se  Se19  1  0.99669937  -0.58005212  0.98297212  1.0
  Se  Se20  1  0.24124990  -0.15940908  0.47273544  1.0
  Se  Se21  1  1.15940908  0.75875010  0.97273544  1.0
  Se  Se22  1  0.29358798  -0.09759178  0.25124330  1.0
  Se  Se23  1  1.09759178  0.70641202  0.75124330  1.0
  Se  Se24  1  1.41824281  0.06842635  0.02541531  1.0
  Se  Se25  1  0.93157365  -0.41824281  0.52541531  1.0
  Se  Se26  1  1.46037985  0.19740925  0.21025639  1.0
  Se  Se27  1  0.80259075  -0.46037985  0.71025639  1.0
  Se  Se28  1  0.92104588  -0.27712831  0.16554174  1.0
  Se  Se29  1  1.27712831  0.07895412  0.66554174  1.0
  Se  Se30  1  1.49336892  0.28282985  0.48607864  1.0
  Se  Se31  1  0.71717015  -0.49336892  0.98607864  1.0
  Se  Se32  1  1.13266342  0.19909237  0.32868086  1.0
  Se  Se33  1  0.80090763  -0.13266342  0.82868086  1.0
