# generated using pymatgen
data_RbGdCr2O8
_symmetry_space_group_name_H-M   'P 1'
_cell_length_a   5.84477198
_cell_length_b   9.37835917
_cell_length_c   14.23533643
_cell_angle_alpha   90.00000000
_cell_angle_beta   90.00000000
_cell_angle_gamma   90.00000000
_symmetry_Int_Tables_number   1
_chemical_formula_structural   RbGdCr2O8
_chemical_formula_sum   'Rb4 Gd4 Cr8 O32'
_cell_volume   780.30101164
_cell_formula_units_Z   4
loop_
 _symmetry_equiv_pos_site_id
 _symmetry_equiv_pos_as_xyz
  1  'x, y, z'
loop_
 _atom_site_type_symbol
 _atom_site_label
 _atom_site_symmetry_multiplicity
 _atom_site_fract_x
 _atom_site_fract_y
 _atom_site_fract_z
 _atom_site_occupancy
  Rb  Rb0  1  0.75989247  0.59223758  0.58714310  1.0
  Rb  Rb1  1  0.25989247  0.90776242  0.41285690  1.0
  Rb  Rb2  1  0.24010753  0.09223758  0.91285690  1.0
  Rb  Rb3  1  0.74010753  0.40776242  0.08714310  1.0
  Gd  Gd4  1  0.27805097  0.55164444  0.85417998  1.0
  Gd  Gd5  1  0.77805097  0.94835556  0.14582002  1.0
  Gd  Gd6  1  0.72194903  0.05164444  0.64582002  1.0
  Gd  Gd7  1  0.22194903  0.44835556  0.35417998  1.0
  Cr  Cr8  1  0.26931454  0.85825243  0.66405554  1.0
  Cr  Cr9  1  0.76931454  0.64174757  0.33594446  1.0
  Cr  Cr10  1  0.73068546  0.35825243  0.83594446  1.0
  Cr  Cr11  1  0.23068546  0.14174757  0.16405554  1.0
  Cr  Cr12  1  0.27374363  0.67708585  0.11600965  1.0
  Cr  Cr13  1  0.77374363  0.82291415  0.88399035  1.0
  Cr  Cr14  1  0.72625637  0.17708585  0.38399035  1.0
  Cr  Cr15  1  0.22625637  0.32291415  0.61600965  1.0
  O  O16  1  0.47250130  0.23713076  0.60986013  1.0
  O  O17  1  0.97250130  0.26286924  0.39013987  1.0
  O  O18  1  0.52749870  0.73713076  0.89013987  1.0
  O  O19  1  0.02749870  0.76286924  0.10986013  1.0
  O  O20  1  0.49166042  0.85310411  0.59036959  1.0
  O  O21  1  0.99166042  0.64689589  0.40963041  1.0
  O  O22  1  0.50833958  0.35310411  0.90963041  1.0
  O  O23  1  0.00833958  0.14689589  0.09036959  1.0
  O  O24  1  0.48770963  0.79124929  0.10744385  1.0
  O  O25  1  0.98770963  0.70875071  0.89255615  1.0
  O  O26  1  0.51229037  0.29124929  0.39255615  1.0
  O  O27  1  0.01229037  0.20875071  0.60744385  1.0
  O  O28  1  0.33200068  0.99294906  0.73229400  1.0
  O  O29  1  0.83200068  0.50705094  0.26770600  1.0
  O  O30  1  0.66799932  0.49294906  0.76770600  1.0
  O  O31  1  0.16799932  0.00705094  0.23229400  1.0
  O  O32  1  0.24968623  0.70619391  0.72124750  1.0
  O  O33  1  0.74968623  0.79380609  0.27875250  1.0
  O  O34  1  0.75031377  0.20619391  0.77875250  1.0
  O  O35  1  0.25031377  0.29380609  0.22124750  1.0
  O  O36  1  0.21107451  0.44002285  0.52918868  1.0
  O  O37  1  0.71107451  0.05997715  0.47081132  1.0
  O  O38  1  0.78892549  0.94002285  0.97081132  1.0
  O  O39  1  0.28892549  0.55997715  0.02918868  1.0
  O  O40  1  0.20532956  0.40664621  0.71789696  1.0
  O  O41  1  0.70532956  0.09335379  0.28210304  1.0
  O  O42  1  0.79467044  0.90664621  0.78210304  1.0
  O  O43  1  0.29467044  0.59335379  0.21789696  1.0
  O  O44  1  0.02960792  0.88970765  0.60415586  1.0
  O  O45  1  0.52960792  0.61029235  0.39584414  1.0
  O  O46  1  0.97039208  0.38970765  0.89584414  1.0
  O  O47  1  0.47039208  0.11029235  0.10415586  1.0
