# generated using pymatgen
data_NiPdF6
_symmetry_space_group_name_H-M   'P 1'
_cell_length_a   5.38908833
_cell_length_b   5.38908833
_cell_length_c   5.38908833
_cell_angle_alpha   55.74379080
_cell_angle_beta   55.74379080
_cell_angle_gamma   55.74379080
_symmetry_Int_Tables_number   1
_chemical_formula_structural   NiPdF6
_chemical_formula_sum   'Ni1 Pd1 F6'
_cell_volume   99.74525658
_cell_formula_units_Z   1
loop_
 _symmetry_equiv_pos_site_id
 _symmetry_equiv_pos_as_xyz
  1  'x, y, z'
loop_
 _atom_site_type_symbol
 _atom_site_label
 _atom_site_symmetry_multiplicity
 _atom_site_fract_x
 _atom_site_fract_y
 _atom_site_fract_z
 _atom_site_occupancy
  Ni  Ni0  1  -0.00000000  -0.00000000  0.00000000  1.0
  Pd  Pd1  1  0.50000000  0.50000000  -0.50000000  1.0
  F  F2  1  0.11189007  0.75094422  -0.61470197  1.0
  F  F3  1  0.61470197  -0.11189007  0.24905578  1.0
  F  F4  1  1.24905578  -0.38529803  -0.11189007  1.0
  F  F5  1  0.88810993  0.24905578  -0.38529803  1.0
  F  F6  1  0.38529803  0.11189007  -0.24905578  1.0
  F  F7  1  0.75094422  0.38529803  -0.88810993  1.0
