# generated using pymatgen
data_KB2SbO6
_symmetry_space_group_name_H-M   'P 1'
_cell_length_a   7.02109743
_cell_length_b   7.02109743
_cell_length_c   7.50400753
_cell_angle_alpha   58.91385899
_cell_angle_beta   121.08614101
_cell_angle_gamma   119.17265984
_symmetry_Int_Tables_number   1
_chemical_formula_structural   KB2SbO6
_chemical_formula_sum   'K2 B4 Sb2 O12'
_cell_volume   258.70637327
_cell_formula_units_Z   2
loop_
 _symmetry_equiv_pos_site_id
 _symmetry_equiv_pos_as_xyz
  1  'x, y, z'
loop_
 _atom_site_type_symbol
 _atom_site_label
 _atom_site_symmetry_multiplicity
 _atom_site_fract_x
 _atom_site_fract_y
 _atom_site_fract_z
 _atom_site_occupancy
  K  K0  1  1.23610560  0.71912994  0.53035696  1.0
  K  K1  1  1.28087006  -0.23610560  0.03035696  1.0
  B  B2  1  0.80401410  0.63324089  0.62359888  1.0
  B  B3  1  0.36675911  0.19598590  0.12359888  1.0
  B  B4  1  1.41861233  0.33137907  0.52440944  1.0
  B  B5  1  0.66862093  0.58138767  0.02440944  1.0
  Sb  Sb6  1  1.83044039  0.13786764  0.85537116  1.0
  Sb  Sb7  1  0.86213236  0.16955961  0.35537116  1.0
  O  O8  1  1.49337045  0.13989460  0.66266865  1.0
  O  O9  1  0.86010540  0.50662955  0.16266865  1.0
  O  O10  1  0.67816492  -0.19561374  0.87708386  1.0
  O  O11  1  1.19561374  0.32183508  0.37708386  1.0
  O  O12  1  0.93424376  0.48463464  0.79061990  1.0
  O  O13  1  0.51536536  0.06575624  0.29061990  1.0
  O  O14  1  0.56605307  0.56060448  0.50882391  1.0
  O  O15  1  0.43939552  0.43394693  0.00882391  1.0
  O  O16  1  0.92905091  0.86439170  0.57433031  1.0
  O  O17  1  0.13560830  0.07094909  0.07433031  1.0
  O  O18  1  0.93708235  0.24400866  0.61043694  1.0
  O  O19  1  0.75599134  0.06291765  0.11043694  1.0
