# generated using pymatgen
data_BH5(NF2)2
_symmetry_space_group_name_H-M   'P 1'
_cell_length_a   7.53835961
_cell_length_b   7.53835961
_cell_length_c   13.19622326
_cell_angle_alpha   67.11492340
_cell_angle_beta   112.88507660
_cell_angle_gamma   138.35761620
_symmetry_Int_Tables_number   1
_chemical_formula_structural   BH5(NF2)2
_chemical_formula_sum   'B4 H20 N8 F16'
_cell_volume   453.11750010
_cell_formula_units_Z   4
loop_
 _symmetry_equiv_pos_site_id
 _symmetry_equiv_pos_as_xyz
  1  'x, y, z'
loop_
 _atom_site_type_symbol
 _atom_site_label
 _atom_site_symmetry_multiplicity
 _atom_site_fract_x
 _atom_site_fract_y
 _atom_site_fract_z
 _atom_site_occupancy
  B  B0  1  0.17318429  -0.03599761  0.92342354  1.0
  B  B1  1  1.03599761  0.82681571  0.42342354  1.0
  B  B2  1  0.96400239  -0.82681571  0.57657646  1.0
  B  B3  1  1.82681571  0.03599761  0.07657646  1.0
  H  H4  1  0.61613810  -0.18281972  0.78969962  1.0
  H  H5  1  1.18281972  -0.61613810  0.28969962  1.0
  H  H6  1  0.81718028  0.61613810  0.71030038  1.0
  H  H7  1  1.38386190  0.18281972  0.21030038  1.0
  H  H8  1  1.34083600  -0.33590961  0.69334210  1.0
  H  H9  1  1.33590961  -0.34083600  0.19334210  1.0
  H  H10  1  0.66409039  0.34083600  0.80665790  1.0
  H  H11  1  0.65916400  0.33590961  0.30665790  1.0
  H  H12  1  0.51086867  0.07402648  0.69222739  1.0
  H  H13  1  0.92597352  -0.51086867  0.19222739  1.0
  H  H14  1  1.07402648  0.51086867  0.80777261  1.0
  H  H15  1  1.48913133  -0.07402648  0.30777261  1.0
  H  H16  1  0.68145742  0.35003765  0.59328593  1.0
  H  H17  1  0.64996235  -0.68145742  0.09328593  1.0
  H  H18  1  1.35003765  0.68145742  0.90671407  1.0
  H  H19  1  1.31854258  -0.35003765  0.40671407  1.0
  H  H20  1  0.42002933  0.25130290  0.62437323  1.0
  H  H21  1  0.74869710  -0.42002933  0.12437323  1.0
  H  H22  1  1.25130290  0.42002933  0.87562678  1.0
  H  H23  1  1.57997067  -0.25130290  0.37562678  1.0
  N  N24  1  0.43832881  -0.23117310  0.75765928  1.0
  N  N25  1  1.23117310  -0.43832881  0.25765928  1.0
  N  N26  1  0.76882690  0.43832881  0.74234072  1.0
  N  N27  1  1.56167119  0.23117310  0.24234072  1.0
  N  N28  1  0.58081033  0.26786920  0.65722115  1.0
  N  N29  1  0.73213080  -0.58081033  0.15722115  1.0
  N  N30  1  1.26786920  0.58081033  0.84277885  1.0
  N  N31  1  1.41918967  -0.26786920  0.34277885  1.0
  F  F32  1  1.85851125  -0.08912543  0.61688565  1.0
  F  F33  1  1.08912543  -0.85851125  0.11688565  1.0
  F  F34  1  0.91087457  0.85851125  0.88311435  1.0
  F  F35  1  0.14148875  0.08912543  0.38311435  1.0
  F  F36  1  0.82062268  0.18095664  0.97102007  1.0
  F  F37  1  0.81904336  -0.82062268  0.47102007  1.0
  F  F38  1  1.18095664  0.82062268  0.52897993  1.0
  F  F39  1  1.17937732  -0.18095664  0.02897993  1.0
  F  F40  1  0.25321669  -0.04979093  0.84789812  1.0
  F  F41  1  1.04979093  0.74678331  0.34789812  1.0
  F  F42  1  0.95020907  -0.74678331  0.65210188  1.0
  F  F43  1  1.74678331  0.04979093  0.15210188  1.0
  F  F44  1  0.36041408  0.24275008  0.93326284  1.0
  F  F45  1  0.75724992  0.63958592  0.43326284  1.0
  F  F46  1  1.24275008  -0.63958592  0.56673716  1.0
  F  F47  1  1.63958592  -0.24275008  0.06673716  1.0
