# generated using pymatgen
data_Lu(Al2Cu)4
_symmetry_space_group_name_H-M   'P 1'
_cell_length_a   6.71996177
_cell_length_b   6.71996177
_cell_length_c   6.71996177
_cell_angle_alpha   98.31479195
_cell_angle_beta   98.31479195
_cell_angle_gamma   135.29814329
_symmetry_Int_Tables_number   1
_chemical_formula_structural   Lu(Al2Cu)4
_chemical_formula_sum   'Lu1 Al8 Cu4'
_cell_volume   197.42192633
_cell_formula_units_Z   1
loop_
 _symmetry_equiv_pos_site_id
 _symmetry_equiv_pos_as_xyz
  1  'x, y, z'
loop_
 _atom_site_type_symbol
 _atom_site_label
 _atom_site_symmetry_multiplicity
 _atom_site_fract_x
 _atom_site_fract_y
 _atom_site_fract_z
 _atom_site_occupancy
  Lu  Lu0  1  0.00000000  0.00000000  0.00000000  1.0
  Al  Al1  1  0.50000000  0.71760040  0.21760040  1.0
  Al  Al2  1  0.71760040  0.50000000  1.21760040  1.0
  Al  Al3  1  0.28239960  0.50000000  0.78239960  1.0
  Al  Al4  1  0.50000000  1.28239960  0.78239960  1.0
  Al  Al5  1  0.00000000  0.65267235  0.65267235  1.0
  Al  Al6  1  0.65267235  1.00000000  0.65267235  1.0
  Al  Al7  1  1.34732765  1.00000000  1.34732765  1.0
  Al  Al8  1  -0.00000000  0.34732765  0.34732765  1.0
  Cu  Cu9  1  0.50000000  0.50000000  0.50000000  1.0
  Cu  Cu10  1  1.00000000  1.00000000  0.50000000  1.0
  Cu  Cu11  1  1.00000000  0.50000000  1.00000000  1.0
  Cu  Cu12  1  1.50000000  1.00000000  1.00000000  1.0
