# generated using pymatgen
data_Cd3N2
_symmetry_space_group_name_H-M   'P 1'
_cell_length_a   9.50539331
_cell_length_b   9.50539331
_cell_length_c   9.50539331
_cell_angle_alpha   109.47122063
_cell_angle_beta   109.47122063
_cell_angle_gamma   109.47122063
_symmetry_Int_Tables_number   1
_chemical_formula_structural   Cd3N2
_chemical_formula_sum   'Cd24 N16'
_cell_volume   661.13231313
_cell_formula_units_Z   8
loop_
 _symmetry_equiv_pos_site_id
 _symmetry_equiv_pos_as_xyz
  1  'x, y, z'
loop_
 _atom_site_type_symbol
 _atom_site_label
 _atom_site_symmetry_multiplicity
 _atom_site_fract_x
 _atom_site_fract_y
 _atom_site_fract_z
 _atom_site_occupancy
  Cd  Cd0  1  0.55268884  0.52917349  0.77451837  1.0
  Cd  Cd1  1  1.05268884  0.27817047  1.02351535  1.0
  Cd  Cd2  1  0.25465513  0.77817047  0.72548163  1.0
  Cd  Cd3  1  0.75465513  1.02917349  0.47648465  1.0
  Cd  Cd4  1  0.52351535  1.24534487  0.97082651  1.0
  Cd  Cd5  1  1.02351535  1.05268884  0.27817047  1.0
  Cd  Cd6  1  0.77451837  0.55268884  0.52917349  1.0
  Cd  Cd7  1  1.27451837  0.74534487  1.22182953  1.0
  Cd  Cd8  1  0.77817047  0.72548163  0.25465513  1.0
  Cd  Cd9  1  1.27817047  1.02351535  1.05268884  1.0
  Cd  Cd10  1  0.97082651  0.52351535  1.24534487  1.0
  Cd  Cd11  1  1.47082651  1.22548163  1.44731116  1.0
  Cd  Cd12  1  1.74534487  1.22182953  1.27451837  1.0
  Cd  Cd13  1  1.24534487  0.97082651  1.52351535  1.0
  Cd  Cd14  1  1.44731116  1.47082651  1.22548163  1.0
  Cd  Cd15  1  0.94731116  1.72182953  0.97648465  1.0
  Cd  Cd16  1  1.22548163  1.44731116  1.47082651  1.0
  Cd  Cd17  1  0.72548163  1.25465513  0.77817047  1.0
  Cd  Cd18  1  1.47648465  0.75465513  1.02917349  1.0
  Cd  Cd19  1  0.97648465  0.94731116  1.72182953  1.0
  Cd  Cd20  1  1.02917349  1.47648465  0.75465513  1.0
  Cd  Cd21  1  0.52917349  0.77451837  0.55268884  1.0
  Cd  Cd22  1  1.22182953  1.27451837  1.74534487  1.0
  Cd  Cd23  1  0.72182953  0.97648465  0.94731116  1.0
  N  N24  1  1.72309671  1.47309671  1.25000000  1.0
  N  N25  1  1.22309671  0.97309671  1.25000000  1.0
  N  N26  1  0.75000000  0.77690329  0.02690329  1.0
  N  N27  1  0.25000000  1.22309671  0.97309671  1.0
  N  N28  1  0.25000000  0.72309671  0.47309671  1.0
  N  N29  1  0.75000000  1.27690329  0.52690329  1.0
  N  N30  1  1.47309671  1.25000000  1.72309671  1.0
  N  N31  1  0.97309671  0.25000000  1.22309671  1.0
  N  N32  1  0.02690329  0.75000000  0.77690329  1.0
  N  N33  1  0.52690329  0.75000000  0.27690329  1.0
  N  N34  1  0.27690329  0.52690329  0.75000000  1.0
  N  N35  1  0.77690329  1.02690329  0.75000000  1.0
  N  N36  1  1.00000000  0.50000000  1.00000000  1.0
  N  N37  1  0.50000000  0.50000000  0.50000000  1.0
  N  N38  1  1.00000000  1.00000000  1.50000000  1.0
  N  N39  1  1.50000000  1.00000000  1.00000000  1.0
