# generated using pymatgen
data_Eu2(WO4)3
_symmetry_space_group_name_H-M   'P 1'
_cell_length_a   7.03430391
_cell_length_b   7.03430391
_cell_length_c   11.64830327
_cell_angle_alpha   79.07156418
_cell_angle_beta   100.92843582
_cell_angle_gamma   67.76186849
_symmetry_Int_Tables_number   1
_chemical_formula_structural   Eu2(WO4)3
_chemical_formula_sum   'Eu4 W6 O24'
_cell_volume   501.70511813
_cell_formula_units_Z   2
loop_
 _symmetry_equiv_pos_site_id
 _symmetry_equiv_pos_as_xyz
  1  'x, y, z'
loop_
 _atom_site_type_symbol
 _atom_site_label
 _atom_site_symmetry_multiplicity
 _atom_site_fract_x
 _atom_site_fract_y
 _atom_site_fract_z
 _atom_site_occupancy
  Eu  Eu0  1  1.54134983  0.21395946  0.09223430  1.0
  Eu  Eu1  1  0.78604054  -0.54134983  0.59223430  1.0
  Eu  Eu2  1  1.21395946  0.54134983  0.40776570  1.0
  Eu  Eu3  1  0.45865017  -0.21395946  0.90776570  1.0
  W  W4  1  0.63088759  -0.36911241  0.25000000  1.0
  W  W5  1  1.36911241  0.36911241  0.75000000  1.0
  W  W6  1  1.75071053  0.03809252  0.45044115  1.0
  W  W7  1  0.96190748  -0.75071053  0.95044115  1.0
  W  W8  1  1.03809252  0.75071053  0.04955885  1.0
  W  W9  1  0.24928947  -0.03809252  0.54955885  1.0
  O  O10  1  1.90058596  0.02468425  0.07393083  1.0
  O  O11  1  0.97531575  -0.90058596  0.57393083  1.0
  O  O12  1  1.02468425  0.90058596  0.42606917  1.0
  O  O13  1  0.09941404  -0.02468425  0.92606917  1.0
  O  O14  1  0.58411860  -0.16390639  0.11222883  1.0
  O  O15  1  1.16390639  0.41588140  0.61222883  1.0
  O  O16  1  0.83609361  -0.41588140  0.38777117  1.0
  O  O17  1  1.41588140  0.16390639  0.88777117  1.0
  O  O18  1  0.37895495  -0.29356854  0.28159764  1.0
  O  O19  1  1.29356854  0.62104505  0.78159764  1.0
  O  O20  1  0.70643146  -0.62104505  0.21840236  1.0
  O  O21  1  1.62104505  0.29356854  0.71840236  1.0
  O  O22  1  1.60142066  0.05005481  0.30347619  1.0
  O  O23  1  0.94994519  -0.60142066  0.80347619  1.0
  O  O24  1  1.05005481  0.60142066  0.19652381  1.0
  O  O25  1  0.39857934  -0.05005481  0.69652381  1.0
  O  O26  1  1.58996847  0.31252722  0.45986799  1.0
  O  O27  1  0.68747278  -0.58996847  0.95986799  1.0
  O  O28  1  1.31252722  0.58996847  0.04013201  1.0
  O  O29  1  0.41003153  -0.31252722  0.54013201  1.0
  O  O30  1  1.26941586  0.16260102  0.44256537  1.0
  O  O31  1  0.83739898  -0.26941586  0.94256537  1.0
  O  O32  1  1.16260102  0.26941586  0.05743463  1.0
  O  O33  1  0.73058414  -0.16260102  0.55743463  1.0
