# generated using pymatgen
data_K3BP2
_symmetry_space_group_name_H-M   'P 1'
_cell_length_a   6.50973349
_cell_length_b   6.50973349
_cell_length_c   8.95985906
_cell_angle_alpha   75.09871883
_cell_angle_beta   104.90128117
_cell_angle_gamma   93.54755049
_symmetry_Int_Tables_number   1
_chemical_formula_structural   K3BP2
_chemical_formula_sum   'K6 B2 P4'
_cell_volume   354.57676243
_cell_formula_units_Z   2
loop_
 _symmetry_equiv_pos_site_id
 _symmetry_equiv_pos_as_xyz
  1  'x, y, z'
loop_
 _atom_site_type_symbol
 _atom_site_label
 _atom_site_symmetry_multiplicity
 _atom_site_fract_x
 _atom_site_fract_y
 _atom_site_fract_z
 _atom_site_occupancy
  K  K0  1  0.34882511  0.34882511  0.75000000  1.0
  K  K1  1  0.65117489  0.65117489  0.25000000  1.0
  K  K2  1  0.74746956  0.15192467  0.51867985  1.0
  K  K3  1  0.84807533  0.25253044  0.01867985  1.0
  K  K4  1  1.15192467  -0.25253044  0.98132015  1.0
  K  K5  1  1.25253044  -0.15192467  0.48132015  1.0
  B  B6  1  0.71745959  0.71745959  0.75000000  1.0
  B  B7  1  0.28254041  0.28254041  0.25000000  1.0
  P  P8  1  1.59202614  -0.14738269  0.85233319  1.0
  P  P9  1  1.14738269  -0.59202614  0.35233319  1.0
  P  P10  1  0.85261731  0.59202614  0.64766681  1.0
  P  P11  1  0.40797386  0.14738269  0.14766681  1.0
