# generated using pymatgen
data_KLa5V2O13
_symmetry_space_group_name_H-M   'P 1'
_cell_length_a   10.58852664
_cell_length_b   10.58852664
_cell_length_c   12.68550770
_cell_angle_alpha   62.94306912
_cell_angle_beta   117.05693088
_cell_angle_gamma   147.25938119
_symmetry_Int_Tables_number   1
_chemical_formula_structural   KLa5V2O13
_chemical_formula_sum   'K2 La10 V4 O26'
_cell_volume   677.26933565
_cell_formula_units_Z   2
loop_
 _symmetry_equiv_pos_site_id
 _symmetry_equiv_pos_as_xyz
  1  'x, y, z'
loop_
 _atom_site_type_symbol
 _atom_site_label
 _atom_site_symmetry_multiplicity
 _atom_site_fract_x
 _atom_site_fract_y
 _atom_site_fract_z
 _atom_site_occupancy
  K  K0  1  0.75077974  0.75077974  0.50000000  1.0
  K  K1  1  0.24922026  0.24922026  0.50000000  1.0
  La  La2  1  0.76206826  0.23793174  0.75758008  1.0
  La  La3  1  1.23793174  -0.23793174  0.24241992  1.0
  La  La4  1  0.80890771  -0.80890771  0.08692265  1.0
  La  La5  1  0.19109229  -0.19109229  0.91307735  1.0
  La  La6  1  1.33437382  -0.33437382  0.61517324  1.0
  La  La7  1  0.66562618  0.33437382  0.38482676  1.0
  La  La8  1  0.39138162  -0.39138162  0.94292306  1.0
  La  La9  1  0.60861838  -0.60861838  0.05707694  1.0
  La  La10  1  0.96853293  -0.96853293  0.83445929  1.0
  La  La11  1  0.03146707  -0.03146707  0.16554071  1.0
  V  V12  1  0.84465315  -0.84465315  0.44590351  1.0
  V  V13  1  0.15534685  -0.15534685  0.55409649  1.0
  V  V14  1  0.55855581  0.44144419  0.75951529  1.0
  V  V15  1  1.44144419  -0.44144419  0.24048471  1.0
  O  O16  1  0.61205646  -0.11298882  0.77077830  1.0
  O  O17  1  1.11298882  0.38794354  0.77077830  1.0
  O  O18  1  1.38794354  0.11298882  0.22922170  1.0
  O  O19  1  0.88701118  -0.38794354  0.22922170  1.0
  O  O20  1  1.02304963  -0.55429520  0.43016251  1.0
  O  O21  1  1.55429520  -0.02304963  0.43016251  1.0
  O  O22  1  0.97695037  0.55429520  0.56983749  1.0
  O  O23  1  0.44570480  0.02304963  0.56983749  1.0
  O  O24  1  0.87189695  -0.87189695  0.33934519  1.0
  O  O25  1  0.12810305  -0.12810305  0.66065481  1.0
  O  O26  1  1.65828648  -0.18977222  0.14947767  1.0
  O  O27  1  1.18977222  -0.65828648  0.14947767  1.0
  O  O28  1  0.34171352  0.18977222  0.85052233  1.0
  O  O29  1  0.81022778  0.65828648  0.85052233  1.0
  O  O30  1  0.53703585  -0.02845194  0.91735437  1.0
  O  O31  1  1.02845194  0.46296415  0.91735437  1.0
  O  O32  1  1.46296415  0.02845194  0.08264563  1.0
  O  O33  1  0.97154806  -0.46296415  0.08264563  1.0
  O  O34  1  1.46627163  -0.46627163  0.65051854  1.0
  O  O35  1  0.53372837  0.46627163  0.34948146  1.0
  O  O36  1  0.91989722  -0.91989722  0.58476750  1.0
  O  O37  1  0.08010278  -0.08010278  0.41523250  1.0
  O  O38  1  0.61454682  0.38545318  0.69473324  1.0
  O  O39  1  1.38545318  -0.38545318  0.30526676  1.0
  O  O40  1  0.75655637  0.75655637  -0.00000000  1.0
  O  O41  1  0.24344363  0.24344363  -0.00000000  1.0
