# generated using pymatgen
data_Zr(IO3)4
_symmetry_space_group_name_H-M   'P 1'
_cell_length_a   8.55350136
_cell_length_b   8.55350136
_cell_length_c   7.47185322
_cell_angle_alpha   90.00000000
_cell_angle_beta   90.00000000
_cell_angle_gamma   90.00000000
_symmetry_Int_Tables_number   1
_chemical_formula_structural   Zr(IO3)4
_chemical_formula_sum   'Zr2 I8 O24'
_cell_volume   546.65860610
_cell_formula_units_Z   2
loop_
 _symmetry_equiv_pos_site_id
 _symmetry_equiv_pos_as_xyz
  1  'x, y, z'
loop_
 _atom_site_type_symbol
 _atom_site_label
 _atom_site_symmetry_multiplicity
 _atom_site_fract_x
 _atom_site_fract_y
 _atom_site_fract_z
 _atom_site_occupancy
  Zr  Zr0  1  0.00000000  0.50000000  0.95329800  1.0
  Zr  Zr1  1  0.50000000  0.00000000  0.04670200  1.0
  I  I2  1  0.27986465  0.25125460  0.72472073  1.0
  I  I3  1  0.72013535  0.74874540  0.72472073  1.0
  I  I4  1  0.75125460  0.22013535  0.72472073  1.0
  I  I5  1  0.24874540  0.77986465  0.72472073  1.0
  I  I6  1  0.22013535  0.24874540  0.27527927  1.0
  I  I7  1  0.77986465  0.75125460  0.27527927  1.0
  I  I8  1  0.74874540  0.27986465  0.27527927  1.0
  I  I9  1  0.25125460  0.72013535  0.27527927  1.0
  O  O10  1  0.25165228  0.40054674  0.45805108  1.0
  O  O11  1  0.74834772  0.59945326  0.45805108  1.0
  O  O12  1  0.90054674  0.24834772  0.45805108  1.0
  O  O13  1  0.09945326  0.75165228  0.45805108  1.0
  O  O14  1  0.24834772  0.09945326  0.54194892  1.0
  O  O15  1  0.75165228  0.90054674  0.54194892  1.0
  O  O16  1  0.59945326  0.25165228  0.54194892  1.0
  O  O17  1  0.40054674  0.74834772  0.54194892  1.0
  O  O18  1  0.06883533  0.29503943  0.78524746  1.0
  O  O19  1  0.93116467  0.70496057  0.78524746  1.0
  O  O20  1  0.79503943  0.43116467  0.78524746  1.0
  O  O21  1  0.20496057  0.56883533  0.78524746  1.0
  O  O22  1  0.43116467  0.20496057  0.21475254  1.0
  O  O23  1  0.56883533  0.79503943  0.21475254  1.0
  O  O24  1  0.70496057  0.06883533  0.21475254  1.0
  O  O25  1  0.29503943  0.93116467  0.21475254  1.0
  O  O26  1  0.29456932  0.08342384  0.89766259  1.0
  O  O27  1  0.70543068  0.91657616  0.89766259  1.0
  O  O28  1  0.58342384  0.20543068  0.89766259  1.0
  O  O29  1  0.41657616  0.79456932  0.89766259  1.0
  O  O30  1  0.20543068  0.41657616  0.10233741  1.0
  O  O31  1  0.79456932  0.58342384  0.10233741  1.0
  O  O32  1  0.91657616  0.29456932  0.10233741  1.0
  O  O33  1  0.08342384  0.70543068  0.10233741  1.0
