# generated using pymatgen
data_CsBC3NO2F9
_symmetry_space_group_name_H-M   'P 1'
_cell_length_a   10.06805587
_cell_length_b   7.97813492
_cell_length_c   6.64264704
_cell_angle_alpha   92.71405303
_cell_angle_beta   96.71800325
_cell_angle_gamma   91.59693467
_symmetry_Int_Tables_number   1
_chemical_formula_structural   CsBC3NO2F9
_chemical_formula_sum   'Cs2 B2 C6 N2 O4 F18'
_cell_volume   529.00790895
_cell_formula_units_Z   2
loop_
 _symmetry_equiv_pos_site_id
 _symmetry_equiv_pos_as_xyz
  1  'x, y, z'
loop_
 _atom_site_type_symbol
 _atom_site_label
 _atom_site_symmetry_multiplicity
 _atom_site_fract_x
 _atom_site_fract_y
 _atom_site_fract_z
 _atom_site_occupancy
  Cs  Cs0  1  -0.31060195  -0.75885892  -0.99553185  1.0
  Cs  Cs1  1  -0.68939805  -0.24114108  -0.00446815  1.0
  B  B2  1  -0.75513437  -0.73719944  -0.61784579  1.0
  B  B3  1  -0.24486563  -0.26280056  -0.38215421  1.0
  C  C4  1  -0.89557669  -0.81424407  -0.74264823  1.0
  C  C5  1  -0.10442331  -0.18575593  -0.25735177  1.0
  C  C6  1  -0.77352092  -0.54511438  -0.52649715  1.0
  C  C7  1  -0.22647908  -0.45488562  -0.47350285  1.0
  C  C8  1  -0.69865797  -0.85713347  -0.43397993  1.0
  C  C9  1  -0.30134203  -0.14286653  -0.56602007  1.0
  N  N10  1  -0.64681873  -0.73387035  -0.77759761  1.0
  N  N11  1  -0.35318127  -0.26612965  -0.22240239  1.0
  O  O12  1  -0.61558619  -0.60030536  -0.85058204  1.0
  O  O13  1  -0.38441381  -0.39969464  -0.14941796  1.0
  O  O14  1  -0.59613311  -0.86820938  -0.82546909  1.0
  O  O15  1  -0.40386689  -0.13179062  -0.17453091  1.0
  F  F16  1  -0.94107687  -0.72189819  -0.90528575  1.0
  F  F17  1  -0.05892313  -0.27810181  -0.09471425  1.0
  F  F18  1  -0.88504978  -0.97540959  -0.82306174  1.0
  F  F19  1  -0.11495022  -0.02459041  -0.17693826  1.0
  F  F20  1  -0.82770359  -0.43786621  -0.66838721  1.0
  F  F21  1  -0.17229641  -0.56213379  -0.33161279  1.0
  F  F22  1  -0.30698632  -0.97499890  -0.51103160  1.0
  F  F23  1  -0.69301368  -0.02500110  -0.48896840  1.0
  F  F24  1  -0.65402369  -0.46737583  -0.44164098  1.0
  F  F25  1  -0.34597631  -0.53262417  -0.55835902  1.0
  F  F26  1  -1.00195119  -0.17815222  -0.37558805  1.0
  F  F27  1  0.00195119  -0.82184778  -0.62441195  1.0
  F  F28  1  -0.85516524  -0.53866372  -0.37496914  1.0
  F  F29  1  -0.14483476  -0.46133628  -0.62503086  1.0
  F  F30  1  -0.56982463  -0.80823305  -0.35238599  1.0
  F  F31  1  -0.43017537  -0.19176695  -0.64761401  1.0
  F  F32  1  -0.77366141  -0.85171347  -0.27415495  1.0
  F  F33  1  -0.22633859  -0.14828653  -0.72584505  1.0
