# generated using pymatgen
data_Ba3Na(IrO9)2
_symmetry_space_group_name_H-M   'P 1'
_cell_length_a   6.75091902
_cell_length_b   6.75091902
_cell_length_c   19.17908129
_cell_angle_alpha   90.00000000
_cell_angle_beta   90.00000000
_cell_angle_gamma   120.00000000
_symmetry_Int_Tables_number   1
_chemical_formula_structural   Ba3Na(IrO9)2
_chemical_formula_sum   'Ba6 Na2 Ir4 O36'
_cell_volume   756.97969105
_cell_formula_units_Z   2
loop_
 _symmetry_equiv_pos_site_id
 _symmetry_equiv_pos_as_xyz
  1  'x, y, z'
loop_
 _atom_site_type_symbol
 _atom_site_label
 _atom_site_symmetry_multiplicity
 _atom_site_fract_x
 _atom_site_fract_y
 _atom_site_fract_z
 _atom_site_occupancy
  Ba  Ba0  1  0.33333333  0.66666667  0.64212321  1.0
  Ba  Ba1  1  0.66666667  0.33333333  0.35787679  1.0
  Ba  Ba2  1  0.66666667  0.33333333  0.14212321  1.0
  Ba  Ba3  1  0.33333333  0.66666667  0.85787679  1.0
  Ba  Ba4  1  0.00000000  0.00000000  0.25000000  1.0
  Ba  Ba5  1  -0.00000000  -0.00000000  0.75000000  1.0
  Na  Na6  1  0.00000000  0.00000000  0.50000000  1.0
  Na  Na7  1  -0.00000000  -0.00000000  -0.00000000  1.0
  Ir  Ir8  1  0.33333333  0.66666667  0.41852489  1.0
  Ir  Ir9  1  0.66666667  0.33333333  0.58147511  1.0
  Ir  Ir10  1  0.66666667  0.33333333  0.91852489  1.0
  Ir  Ir11  1  0.33333333  0.66666667  0.08147511  1.0
  O  O12  1  0.41186841  0.38901355  0.25000000  1.0
  O  O13  1  0.61098645  1.02285486  0.25000000  1.0
  O  O14  1  -0.02285486  0.58813159  0.25000000  1.0
  O  O15  1  0.61098645  0.58813159  0.25000000  1.0
  O  O16  1  -0.02285486  0.38901355  0.25000000  1.0
  O  O17  1  0.41186841  1.02285486  0.25000000  1.0
  O  O18  1  0.58813159  0.61098645  0.75000000  1.0
  O  O19  1  0.38901355  -0.02285486  0.75000000  1.0
  O  O20  1  1.02285486  0.41186841  0.75000000  1.0
  O  O21  1  0.38901355  0.41186841  0.75000000  1.0
  O  O22  1  1.02285486  0.61098645  0.75000000  1.0
  O  O23  1  0.58813159  -0.02285486  0.75000000  1.0
  O  O24  1  0.06632907  0.72232438  0.08260366  1.0
  O  O25  1  0.27767562  0.34400469  0.08260366  1.0
  O  O26  1  0.65599531  0.93367093  0.08260366  1.0
  O  O27  1  0.27767562  0.93367093  0.08260366  1.0
  O  O28  1  0.65599531  0.72232438  0.08260366  1.0
  O  O29  1  0.06632907  0.34400469  0.08260366  1.0
  O  O30  1  0.93367093  0.27767562  0.91739634  1.0
  O  O31  1  0.72232438  0.65599531  0.91739634  1.0
  O  O32  1  0.34400469  0.06632907  0.91739634  1.0
  O  O33  1  0.72232438  0.06632907  0.91739634  1.0
  O  O34  1  0.34400469  0.27767562  0.91739634  1.0
  O  O35  1  0.93367093  0.65599531  0.91739634  1.0
  O  O36  1  0.93367093  0.27767562  0.58260366  1.0
  O  O37  1  0.72232438  0.65599531  0.58260366  1.0
  O  O38  1  0.34400469  0.06632907  0.58260366  1.0
  O  O39  1  0.72232438  0.06632907  0.58260366  1.0
  O  O40  1  0.34400469  0.27767562  0.58260366  1.0
  O  O41  1  0.93367093  0.65599531  0.58260366  1.0
  O  O42  1  0.06632907  0.72232438  0.41739634  1.0
  O  O43  1  0.27767562  0.34400469  0.41739634  1.0
  O  O44  1  0.65599531  0.93367093  0.41739634  1.0
  O  O45  1  0.27767562  0.93367093  0.41739634  1.0
  O  O46  1  0.65599531  0.72232438  0.41739634  1.0
  O  O47  1  0.06632907  0.34400469  0.41739634  1.0
