# generated using pymatgen
data_Zn(SbO2)2
_symmetry_space_group_name_H-M   'P 1'
_cell_length_a   8.68252536
_cell_length_b   8.68252536
_cell_length_c   6.07703380
_cell_angle_alpha   90.00000000
_cell_angle_beta   90.00000000
_cell_angle_gamma   90.00000000
_symmetry_Int_Tables_number   1
_chemical_formula_structural   Zn(SbO2)2
_chemical_formula_sum   'Zn4 Sb8 O16'
_cell_volume   458.12476922
_cell_formula_units_Z   4
loop_
 _symmetry_equiv_pos_site_id
 _symmetry_equiv_pos_as_xyz
  1  'x, y, z'
loop_
 _atom_site_type_symbol
 _atom_site_label
 _atom_site_symmetry_multiplicity
 _atom_site_fract_x
 _atom_site_fract_y
 _atom_site_fract_z
 _atom_site_occupancy
  Zn  Zn0  1  0.00000000  0.50000000  0.25000000  1.0
  Zn  Zn1  1  0.50000000  0.00000000  0.75000000  1.0
  Zn  Zn2  1  0.00000000  0.50000000  0.75000000  1.0
  Zn  Zn3  1  0.50000000  0.00000000  0.25000000  1.0
  Sb  Sb4  1  0.17998273  0.16355774  0.00000000  1.0
  Sb  Sb5  1  0.83644226  0.17998273  0.50000000  1.0
  Sb  Sb6  1  0.82001727  0.83644226  0.00000000  1.0
  Sb  Sb7  1  0.16355774  0.82001727  0.50000000  1.0
  Sb  Sb8  1  0.67998273  0.33644226  -0.00000000  1.0
  Sb  Sb9  1  0.66355774  0.67998273  0.50000000  1.0
  Sb  Sb10  1  0.32001727  0.66355774  -0.00000000  1.0
  Sb  Sb11  1  0.33644226  0.32001727  0.50000000  1.0
  O  O12  1  0.09412943  0.63665929  0.00000000  1.0
  O  O13  1  0.36334071  0.09412943  0.50000000  1.0
  O  O14  1  0.90587057  0.36334071  0.00000000  1.0
  O  O15  1  0.63665929  0.90587057  0.50000000  1.0
  O  O16  1  0.59412943  0.86334071  0.00000000  1.0
  O  O17  1  0.13665929  0.59412943  0.50000000  1.0
  O  O18  1  0.40587057  0.13665929  0.00000000  1.0
  O  O19  1  0.86334071  0.40587057  0.50000000  1.0
  O  O20  1  0.31840294  0.81840294  0.25000000  1.0
  O  O21  1  0.18159706  0.31840294  0.75000000  1.0
  O  O22  1  0.68159706  0.18159706  0.25000000  1.0
  O  O23  1  0.81840294  0.68159706  0.75000000  1.0
  O  O24  1  0.68159706  0.18159706  0.75000000  1.0
  O  O25  1  0.81840294  0.68159706  0.25000000  1.0
  O  O26  1  0.31840294  0.81840294  0.75000000  1.0
  O  O27  1  0.18159706  0.31840294  0.25000000  1.0
