# generated using pymatgen
data_SiP2
_symmetry_space_group_name_H-M   'P 1'
_cell_length_a   10.28010607
_cell_length_b   15.84086208
_cell_length_c   3.45343743
_cell_angle_alpha   90.00000000
_cell_angle_beta   90.00000000
_cell_angle_gamma   90.00000000
_symmetry_Int_Tables_number   1
_chemical_formula_structural   SiP2
_chemical_formula_sum   'Si8 P16'
_cell_volume   562.37758199
_cell_formula_units_Z   8
loop_
 _symmetry_equiv_pos_site_id
 _symmetry_equiv_pos_as_xyz
  1  'x, y, z'
loop_
 _atom_site_type_symbol
 _atom_site_label
 _atom_site_symmetry_multiplicity
 _atom_site_fract_x
 _atom_site_fract_y
 _atom_site_fract_z
 _atom_site_occupancy
  Si  Si0  1  0.09065056  0.66642224  0.50000000  1.0
  Si  Si1  1  0.59065056  0.83357776  0.50000000  1.0
  Si  Si2  1  0.90934944  0.33357776  0.50000000  1.0
  Si  Si3  1  0.40934944  0.16642224  0.50000000  1.0
  Si  Si4  1  0.30681615  0.76796402  0.00000000  1.0
  Si  Si5  1  0.80681615  0.73203598  0.00000000  1.0
  Si  Si6  1  0.69318385  0.23203598  0.00000000  1.0
  Si  Si7  1  0.19318385  0.26796402  0.00000000  1.0
  P  P8  1  0.25985221  0.57288735  0.50000000  1.0
  P  P9  1  0.75985221  0.92711265  0.50000000  1.0
  P  P10  1  0.74014779  0.42711265  0.50000000  1.0
  P  P11  1  0.24014779  0.07288735  0.50000000  1.0
  P  P12  1  0.17252547  0.79961443  0.50000000  1.0
  P  P13  1  0.67252547  0.70038557  0.50000000  1.0
  P  P14  1  0.82747453  0.20038557  0.50000000  1.0
  P  P15  1  0.32747453  0.29961443  0.50000000  1.0
  P  P16  1  0.46160545  0.87096040  0.00000000  1.0
  P  P17  1  0.96160545  0.62903960  0.00000000  1.0
  P  P18  1  0.53839455  0.12903960  0.00000000  1.0
  P  P19  1  0.03839455  0.37096040  0.00000000  1.0
  P  P20  1  0.37618382  0.62739386  0.00000000  1.0
  P  P21  1  0.87618382  0.87260614  0.00000000  1.0
  P  P22  1  0.62381618  0.37260614  0.00000000  1.0
  P  P23  1  0.12381618  0.12739386  0.00000000  1.0
