# generated using pymatgen
data_Zn2W3O8
_symmetry_space_group_name_H-M   'P 1'
_cell_length_a   5.83456636
_cell_length_b   5.83456636
_cell_length_c   10.11341198
_cell_angle_alpha   90.00000000
_cell_angle_beta   90.00000000
_cell_angle_gamma   120.00000000
_symmetry_Int_Tables_number   1
_chemical_formula_structural   Zn2W3O8
_chemical_formula_sum   'Zn4 W6 O16'
_cell_volume   298.15733498
_cell_formula_units_Z   2
loop_
 _symmetry_equiv_pos_site_id
 _symmetry_equiv_pos_as_xyz
  1  'x, y, z'
loop_
 _atom_site_type_symbol
 _atom_site_label
 _atom_site_symmetry_multiplicity
 _atom_site_fract_x
 _atom_site_fract_y
 _atom_site_fract_z
 _atom_site_occupancy
  Zn  Zn0  1  0.33333333  0.66666667  0.05948875  1.0
  Zn  Zn1  1  0.66666667  0.33333333  0.55948875  1.0
  Zn  Zn2  1  0.33333333  0.66666667  0.62976842  1.0
  Zn  Zn3  1  0.66666667  0.33333333  0.12976842  1.0
  W  W4  1  0.70808399  0.85404199  0.36151356  1.0
  W  W5  1  0.85404199  0.70808399  0.86151356  1.0
  W  W6  1  0.85404199  0.14595801  0.86151356  1.0
  W  W7  1  0.14595801  0.85404199  0.36151356  1.0
  W  W8  1  0.14595801  0.29191601  0.36151356  1.0
  W  W9  1  0.29191601  0.14595801  0.86151356  1.0
  O  O10  1  0.02383664  0.51191832  0.47512161  1.0
  O  O11  1  0.51191832  0.02383664  0.97512161  1.0
  O  O12  1  0.51191832  0.48808168  0.97512161  1.0
  O  O13  1  0.48808168  0.51191832  0.47512161  1.0
  O  O14  1  0.48808168  0.97616336  0.47512161  1.0
  O  O15  1  0.97616336  0.48808168  0.97512161  1.0
  O  O16  1  0.33278427  0.16639213  0.24431414  1.0
  O  O17  1  0.16639213  0.33278427  0.74431414  1.0
  O  O18  1  0.16639213  0.83360787  0.74431414  1.0
  O  O19  1  0.83360787  0.16639213  0.24431414  1.0
  O  O20  1  0.83360787  0.66721573  0.24431414  1.0
  O  O21  1  0.66721573  0.83360787  0.74431414  1.0
  O  O22  1  0.33333333  0.66666667  0.25593817  1.0
  O  O23  1  0.66666667  0.33333333  0.75593817  1.0
  O  O24  1  -0.00000000  -0.00000000  0.00335673  1.0
  O  O25  1  -0.00000000  -0.00000000  0.50335673  1.0
