# generated using pymatgen
data_Gd11(In3Si2)2
_symmetry_space_group_name_H-M   'P 1'
_cell_length_a   11.59079060
_cell_length_b   11.59079060
_cell_length_c   11.59079060
_cell_angle_alpha   119.77799016
_cell_angle_beta   119.77799016
_cell_angle_gamma   90.38496438
_symmetry_Int_Tables_number   1
_chemical_formula_structural   Gd11(In3Si2)2
_chemical_formula_sum   'Gd22 In12 Si8'
_cell_volume   1104.76136518
_cell_formula_units_Z   2
loop_
 _symmetry_equiv_pos_site_id
 _symmetry_equiv_pos_as_xyz
  1  'x, y, z'
loop_
 _atom_site_type_symbol
 _atom_site_label
 _atom_site_symmetry_multiplicity
 _atom_site_fract_x
 _atom_site_fract_y
 _atom_site_fract_z
 _atom_site_occupancy
  Si  Si0  1  0.62082660  0.62082660  -0.00000000  1.0
  Si  Si1  1  0.37917340  0.37917340  -0.00000000  1.0
  Si  Si2  1  1.25000000  0.75000000  0.50000000  1.0
  Si  Si3  1  0.75000000  1.25000000  0.50000000  1.0
  Si  Si4  1  0.50000000  0.84620391  0.34620391  1.0
  Si  Si5  1  0.84620391  0.50000000  0.34620391  1.0
  Si  Si6  1  0.15379609  0.50000000  0.65379609  1.0
  Si  Si7  1  0.50000000  0.15379609  0.65379609  1.0
  In  In8  1  0.62267681  0.62267681  0.58674432  1.0
  In  In9  1  0.96406751  0.96406751  0.58674432  1.0
  In  In10  1  1.03593249  0.62267681  1.00000000  1.0
  In  In11  1  1.37732319  0.96406751  1.00000000  1.0
  In  In12  1  0.62267681  1.03593249  1.00000000  1.0
  In  In13  1  0.96406751  1.37732319  1.00000000  1.0
  In  In14  1  1.03593249  1.03593249  0.41325568  1.0
  In  In15  1  0.37732319  0.37732319  0.41325568  1.0
  In  In16  1  0.87101535  0.87101535  0.74203071  1.0
  In  In17  1  1.12898465  0.87101535  1.00000000  1.0
  In  In18  1  0.87101535  1.12898465  1.00000000  1.0
  In  In19  1  0.12898465  0.12898465  0.25796929  1.0
  Gd  Gd20  1  0.43533814  0.68573667  0.74960147  1.0
  Gd  Gd21  1  1.06386480  1.31426333  0.74960147  1.0
  Gd  Gd22  1  0.93613520  0.68573667  0.25039853  1.0
  Gd  Gd23  1  0.56466186  0.31426333  0.25039853  1.0
  Gd  Gd24  1  0.68573667  0.43533814  0.74960147  1.0
  Gd  Gd25  1  1.31426333  1.06386480  0.74960147  1.0
  Gd  Gd26  1  0.68573667  0.93613520  0.25039853  1.0
  Gd  Gd27  1  0.31426333  0.56466186  0.25039853  1.0
  Gd  Gd28  1  1.55002814  0.89919596  0.65083219  1.0
  Gd  Gd29  1  0.75163623  1.10080404  0.65083219  1.0
  Gd  Gd30  1  1.24836377  0.89919596  0.34916781  1.0
  Gd  Gd31  1  1.44997186  1.10080404  1.34916781  1.0
  Gd  Gd32  1  0.89919596  1.55002814  0.65083219  1.0
  Gd  Gd33  1  1.10080404  0.75163623  0.65083219  1.0
  Gd  Gd34  1  0.89919596  1.24836377  0.34916781  1.0
  Gd  Gd35  1  1.10080404  1.44997186  1.34916781  1.0
  Gd  Gd36  1  0.66488612  0.66488612  0.32977225  1.0
  Gd  Gd37  1  1.33511388  0.66488612  1.00000000  1.0
  Gd  Gd38  1  0.66488612  1.33511388  1.00000000  1.0
  Gd  Gd39  1  0.33511388  0.33511388  0.67022775  1.0
  Gd  Gd40  1  0.83288265  0.83288265  -0.00000000  1.0
  Gd  Gd41  1  0.16711735  0.16711735  -0.00000000  1.0
