# generated using pymatgen
data_NaIn2CuS4
_symmetry_space_group_name_H-M   'P 1'
_cell_length_a   7.05096612
_cell_length_b   7.05096612
_cell_length_c   7.05096612
_cell_angle_alpha   130.98522971
_cell_angle_beta   130.98522971
_cell_angle_gamma   71.83654697
_symmetry_Int_Tables_number   1
_chemical_formula_structural   NaIn2CuS4
_chemical_formula_sum   'Na1 In2 Cu1 S4'
_cell_volume   195.39455805
_cell_formula_units_Z   1
loop_
 _symmetry_equiv_pos_site_id
 _symmetry_equiv_pos_as_xyz
  1  'x, y, z'
loop_
 _atom_site_type_symbol
 _atom_site_label
 _atom_site_symmetry_multiplicity
 _atom_site_fract_x
 _atom_site_fract_y
 _atom_site_fract_z
 _atom_site_occupancy
  Na  Na0  1  0.25000000  0.75000000  0.50000000  1.0
  In  In1  1  0.50000000  0.50000000  1.00000000  1.0
  In  In2  1  0.75000000  0.25000000  0.50000000  1.0
  Cu  Cu3  1  0.00000000  0.00000000  0.00000000  1.0
  S  S4  1  1.11075689  1.13836822  1.47451294  1.0
  S  S5  1  0.66385528  0.63624395  0.52548706  1.0
  S  S6  1  0.36375605  0.88924311  1.02761133  1.0
  S  S7  1  0.86163178  0.33614472  0.97238867  1.0
