# generated using pymatgen
data_Ca2S2O7
_symmetry_space_group_name_H-M   'P 1'
_cell_length_a   11.07375382
_cell_length_b   5.65940486
_cell_length_c   9.93855958
_cell_angle_alpha   90.00000000
_cell_angle_beta   90.00000000
_cell_angle_gamma   90.00000000
_symmetry_Int_Tables_number   1
_chemical_formula_structural   Ca2S2O7
_chemical_formula_sum   'Ca8 S8 O28'
_cell_volume   622.85803771
_cell_formula_units_Z   4
loop_
 _symmetry_equiv_pos_site_id
 _symmetry_equiv_pos_as_xyz
  1  'x, y, z'
loop_
 _atom_site_type_symbol
 _atom_site_label
 _atom_site_symmetry_multiplicity
 _atom_site_fract_x
 _atom_site_fract_y
 _atom_site_fract_z
 _atom_site_occupancy
  O  O0  1  0.29620604  0.08448254  0.48519127  1.0
  O  O1  1  0.29620604  0.91551746  -0.01480873  1.0
  O  O2  1  0.79620604  0.58448254  1.01480873  1.0
  O  O3  1  0.79620604  0.41551746  0.51480873  1.0
  O  O4  1  0.70379396  0.08448254  1.01480873  1.0
  O  O5  1  0.70379396  0.91551746  0.51480873  1.0
  O  O6  1  0.20379396  0.58448254  0.48519127  1.0
  O  O7  1  0.20379396  0.41551746  -0.01480873  1.0
  O  O8  1  0.19947865  0.27700890  0.74771273  1.0
  O  O9  1  0.19947865  0.72299110  0.24771273  1.0
  O  O10  1  0.69947865  0.77700890  0.75228727  1.0
  O  O11  1  0.69947865  0.22299110  0.25228727  1.0
  O  O12  1  0.80052135  0.27700890  0.75228727  1.0
  O  O13  1  0.80052135  0.72299110  0.25228727  1.0
  O  O14  1  0.30052135  0.77700890  0.74771273  1.0
  O  O15  1  0.30052135  0.22299110  0.24771273  1.0
  O  O16  1  0.96096488  0.17296392  0.59437390  1.0
  O  O17  1  0.96096488  0.82703608  0.09437390  1.0
  O  O18  1  0.46096488  0.67296392  0.90562610  1.0
  O  O19  1  0.46096488  0.32703608  0.40562610  1.0
  O  O20  1  0.03903512  0.17296392  0.90562610  1.0
  O  O21  1  0.03903512  0.82703608  0.40562610  1.0
  O  O22  1  0.53903512  0.67296392  0.59437390  1.0
  O  O23  1  0.53903512  0.32703608  0.09437390  1.0
  O  O24  1  0.50000000  0.18745496  0.75000000  1.0
  O  O25  1  0.50000000  0.81254504  0.25000000  1.0
  O  O26  1  0.00000000  0.68745496  0.75000000  1.0
  O  O27  1  0.00000000  0.31254504  0.25000000  1.0
  S  S28  1  0.12344189  0.37461089  0.86316140  1.0
  S  S29  1  0.12344189  0.62538911  0.36316140  1.0
  S  S30  1  0.62344189  0.87461089  0.63683860  1.0
  S  S31  1  0.62344189  0.12538911  0.13683860  1.0
  S  S32  1  0.87655811  0.37461089  0.63683860  1.0
  S  S33  1  0.87655811  0.62538911  0.13683860  1.0
  S  S34  1  0.37655811  0.87461089  0.86316140  1.0
  S  S35  1  0.37655811  0.12538911  0.36316140  1.0
  Ca  Ca36  1  0.36883699  0.42241707  0.62601894  1.0
  Ca  Ca37  1  0.36883699  0.57758293  0.12601894  1.0
  Ca  Ca38  1  0.86883699  0.92241707  0.87398106  1.0
  Ca  Ca39  1  0.86883699  0.07758293  0.37398106  1.0
  Ca  Ca40  1  0.63116301  0.42241707  0.87398106  1.0
  Ca  Ca41  1  0.63116301  0.57758293  0.37398106  1.0
  Ca  Ca42  1  0.13116301  0.92241707  0.62601894  1.0
  Ca  Ca43  1  0.13116301  0.07758293  0.12601894  1.0
