# generated using pymatgen
data_La(CoAs)2
_symmetry_space_group_name_H-M   'P 1'
_cell_length_a   5.98223780
_cell_length_b   5.98223780
_cell_length_c   5.98223780
_cell_angle_alpha   140.10273297
_cell_angle_beta   140.10273297
_cell_angle_gamma   57.69734646
_symmetry_Int_Tables_number   1
_chemical_formula_structural   La(CoAs)2
_chemical_formula_sum   'La1 Co2 As2'
_cell_volume   87.31020642
_cell_formula_units_Z   1
loop_
 _symmetry_equiv_pos_site_id
 _symmetry_equiv_pos_as_xyz
  1  'x, y, z'
loop_
 _atom_site_type_symbol
 _atom_site_label
 _atom_site_symmetry_multiplicity
 _atom_site_fract_x
 _atom_site_fract_y
 _atom_site_fract_z
 _atom_site_occupancy
  La  La0  1  0.00000000  0.00000000  0.00000000  1.0
  Co  Co1  1  0.25000000  0.75000000  0.50000000  1.0
  Co  Co2  1  0.75000000  0.25000000  0.50000000  1.0
  As  As3  1  0.63837120  0.63837120  1.00000000  1.0
  As  As4  1  0.36162880  0.36162880  0.00000000  1.0
