# generated using pymatgen
data_YCoO3
_symmetry_space_group_name_H-M   'P 1'
_cell_length_a   5.49603083
_cell_length_b   7.38513022
_cell_length_c   5.15005563
_cell_angle_alpha   90.00000000
_cell_angle_beta   90.00000000
_cell_angle_gamma   90.00000000
_symmetry_Int_Tables_number   1
_chemical_formula_structural   YCoO3
_chemical_formula_sum   'Y4 Co4 O12'
_cell_volume   209.03511023
_cell_formula_units_Z   4
loop_
 _symmetry_equiv_pos_site_id
 _symmetry_equiv_pos_as_xyz
  1  'x, y, z'
loop_
 _atom_site_type_symbol
 _atom_site_label
 _atom_site_symmetry_multiplicity
 _atom_site_fract_x
 _atom_site_fract_y
 _atom_site_fract_z
 _atom_site_occupancy
  Y  Y0  1  0.07429132  0.75000000  0.52100893  1.0
  Y  Y1  1  0.57429132  0.75000000  0.97899107  1.0
  Y  Y2  1  0.92570868  0.25000000  0.47899107  1.0
  Y  Y3  1  0.42570868  0.25000000  0.02100893  1.0
  Co  Co4  1  0.50000000  0.00000000  0.50000000  1.0
  Co  Co5  1  0.50000000  0.50000000  0.50000000  1.0
  Co  Co6  1  0.00000000  0.00000000  0.00000000  1.0
  Co  Co7  1  0.00000000  0.50000000  0.00000000  1.0
  O  O8  1  0.30177589  0.94913957  0.80865775  1.0
  O  O9  1  0.30177589  0.55086043  0.80865775  1.0
  O  O10  1  0.80177589  0.94913957  0.69134225  1.0
  O  O11  1  0.80177589  0.55086043  0.69134225  1.0
  O  O12  1  0.69822411  0.44913957  0.19134225  1.0
  O  O13  1  0.69822411  0.05086043  0.19134225  1.0
  O  O14  1  0.19822411  0.44913957  0.30865775  1.0
  O  O15  1  0.19822411  0.05086043  0.30865775  1.0
  O  O16  1  0.96986581  0.75000000  0.10198591  1.0
  O  O17  1  0.46986581  0.75000000  0.39801409  1.0
  O  O18  1  0.03013419  0.25000000  0.89801409  1.0
  O  O19  1  0.53013419  0.25000000  0.60198591  1.0
