# generated using pymatgen
data_Fe3BO6
_symmetry_space_group_name_H-M   'P 1'
_cell_length_a   9.95804291
_cell_length_b   8.55087486
_cell_length_c   4.47010140
_cell_angle_alpha   90.00000000
_cell_angle_beta   90.00000000
_cell_angle_gamma   90.00000000
_symmetry_Int_Tables_number   1
_chemical_formula_structural   Fe3BO6
_chemical_formula_sum   'Fe12 B4 O24'
_cell_volume   380.62903909
_cell_formula_units_Z   4
loop_
 _symmetry_equiv_pos_site_id
 _symmetry_equiv_pos_as_xyz
  1  'x, y, z'
loop_
 _atom_site_type_symbol
 _atom_site_label
 _atom_site_symmetry_multiplicity
 _atom_site_fract_x
 _atom_site_fract_y
 _atom_site_fract_z
 _atom_site_occupancy
  Fe  Fe0  1  0.61967297  0.43509854  0.02137744  1.0
  Fe  Fe1  1  0.61967297  0.06490146  0.02137744  1.0
  Fe  Fe2  1  0.11967297  0.43509854  0.47862256  1.0
  Fe  Fe3  1  0.11967297  0.06490146  0.47862256  1.0
  Fe  Fe4  1  0.38032703  0.93509854  0.97862256  1.0
  Fe  Fe5  1  0.38032703  0.56490146  0.97862256  1.0
  Fe  Fe6  1  0.88032703  0.93509854  0.52137744  1.0
  Fe  Fe7  1  0.88032703  0.56490146  0.52137744  1.0
  Fe  Fe8  1  0.90083708  0.25000000  0.01191597  1.0
  Fe  Fe9  1  0.40083708  0.25000000  0.48808403  1.0
  Fe  Fe10  1  0.09916292  0.75000000  0.98808403  1.0
  Fe  Fe11  1  0.59916292  0.75000000  0.51191597  1.0
  B  B12  1  0.71192718  0.25000000  0.58769485  1.0
  B  B13  1  0.21192718  0.25000000  0.91230515  1.0
  B  B14  1  0.28807282  0.75000000  0.41230515  1.0
  B  B15  1  0.78807282  0.75000000  0.08769485  1.0
  O  O16  1  0.95564677  0.41245316  0.26224406  1.0
  O  O17  1  0.95564677  0.08754684  0.26224406  1.0
  O  O18  1  0.45564677  0.41245316  0.23775594  1.0
  O  O19  1  0.45564677  0.08754684  0.23775594  1.0
  O  O20  1  0.04435323  0.91245316  0.73775594  1.0
  O  O21  1  0.04435323  0.58754684  0.73775594  1.0
  O  O22  1  0.54435323  0.91245316  0.76224406  1.0
  O  O23  1  0.54435323  0.58754684  0.76224406  1.0
  O  O24  1  0.71896946  0.88801039  0.23643518  1.0
  O  O25  1  0.71896946  0.61198961  0.23643518  1.0
  O  O26  1  0.21896946  0.88801039  0.26356482  1.0
  O  O27  1  0.21896946  0.61198961  0.26356482  1.0
  O  O28  1  0.28103054  0.38801039  0.76356482  1.0
  O  O29  1  0.28103054  0.11198961  0.76356482  1.0
  O  O30  1  0.78103054  0.38801039  0.73643518  1.0
  O  O31  1  0.78103054  0.11198961  0.73643518  1.0
  O  O32  1  0.71159944  0.25000000  0.26426020  1.0
  O  O33  1  0.21159944  0.25000000  0.23573980  1.0
  O  O34  1  0.28840056  0.75000000  0.73573980  1.0
  O  O35  1  0.78840056  0.75000000  0.76426020  1.0
  O  O36  1  0.57415678  0.25000000  0.72015772  1.0
  O  O37  1  0.07415678  0.25000000  0.77984228  1.0
  O  O38  1  0.42584322  0.75000000  0.27984228  1.0
  O  O39  1  0.92584322  0.75000000  0.22015772  1.0
