# generated using pymatgen
data_KZn2CdB2O6F
_symmetry_space_group_name_H-M   'P 1'
_cell_length_a   5.07495897
_cell_length_b   5.07495897
_cell_length_c   15.46062709
_cell_angle_alpha   90.00000000
_cell_angle_beta   90.00000000
_cell_angle_gamma   120.00000000
_symmetry_Int_Tables_number   1
_chemical_formula_structural   KZn2CdB2O6F
_chemical_formula_sum   'K2 Zn4 Cd2 B4 O12 F2'
_cell_volume   344.84410664
_cell_formula_units_Z   2
loop_
 _symmetry_equiv_pos_site_id
 _symmetry_equiv_pos_as_xyz
  1  'x, y, z'
loop_
 _atom_site_type_symbol
 _atom_site_label
 _atom_site_symmetry_multiplicity
 _atom_site_fract_x
 _atom_site_fract_y
 _atom_site_fract_z
 _atom_site_occupancy
  K  K0  1  0.00000000  0.00000000  0.25000000  1.0
  K  K1  1  0.00000000  0.00000000  0.75000000  1.0
  Zn  Zn2  1  0.33333333  0.66666667  0.11665875  1.0
  Zn  Zn3  1  0.33333333  0.66666667  0.38334125  1.0
  Zn  Zn4  1  0.66666667  0.33333333  0.61665875  1.0
  Zn  Zn5  1  0.66666667  0.33333333  0.88334125  1.0
  Cd  Cd6  1  0.00000000  0.00000000  0.00000000  1.0
  Cd  Cd7  1  0.00000000  0.00000000  0.50000000  1.0
  B  B8  1  0.33333333  0.66666667  0.59494151  1.0
  B  B9  1  0.33333333  0.66666667  0.90505849  1.0
  B  B10  1  0.66666667  0.33333333  0.09494151  1.0
  B  B11  1  0.66666667  0.33333333  0.40505849  1.0
  O  O12  1  0.68157676  0.61354525  0.09543803  1.0
  O  O13  1  0.68157676  0.06803151  0.40456197  1.0
  O  O14  1  0.61354525  0.68157676  0.59543803  1.0
  O  O15  1  0.61354525  0.93196849  0.90456197  1.0
  O  O16  1  0.93196849  0.61354525  0.40456197  1.0
  O  O17  1  0.93196849  0.31842324  0.09543803  1.0
  O  O18  1  0.38645475  0.31842324  0.40456197  1.0
  O  O19  1  0.38645475  0.06803151  0.09543803  1.0
  O  O20  1  0.31842324  0.93196849  0.59543803  1.0
  O  O21  1  0.31842324  0.38645475  0.90456197  1.0
  O  O22  1  0.06803151  0.68157676  0.90456197  1.0
  O  O23  1  0.06803151  0.38645475  0.59543803  1.0
  F  F24  1  0.33333333  0.66666667  0.25000000  1.0
  F  F25  1  0.66666667  0.33333333  0.75000000  1.0
