# generated using pymatgen
data_Tl4PbSe3
_symmetry_space_group_name_H-M   'P 1'
_cell_length_a   8.88259133
_cell_length_b   8.88259133
_cell_length_c   8.88259133
_cell_angle_alpha   122.17808215
_cell_angle_beta   122.17808215
_cell_angle_gamma   86.26711395
_symmetry_Int_Tables_number   1
_chemical_formula_structural   Tl4PbSe3
_chemical_formula_sum   'Tl8 Pb2 Se6'
_cell_volume   478.14880732
_cell_formula_units_Z   2
loop_
 _symmetry_equiv_pos_site_id
 _symmetry_equiv_pos_as_xyz
  1  'x, y, z'
loop_
 _atom_site_type_symbol
 _atom_site_label
 _atom_site_symmetry_multiplicity
 _atom_site_fract_x
 _atom_site_fract_y
 _atom_site_fract_z
 _atom_site_occupancy
  Tl  Tl0  1  1.19658479  0.69658479  1.20332564  1.0
  Tl  Tl1  1  0.50674085  1.00674085  1.20332564  1.0
  Tl  Tl2  1  0.99325915  1.19658479  1.50000000  1.0
  Tl  Tl3  1  0.30341521  0.50674085  0.50000000  1.0
  Tl  Tl4  1  0.69658479  0.49325915  0.50000000  1.0
  Tl  Tl5  1  1.00674085  0.80341521  1.50000000  1.0
  Tl  Tl6  1  0.49325915  0.99325915  0.79667436  1.0
  Tl  Tl7  1  0.80341521  0.30341521  0.79667436  1.0
  Pb  Pb8  1  0.00000000  0.00000000  0.00000000  1.0
  Pb  Pb9  1  0.50000000  0.50000000  1.00000000  1.0
  Se  Se10  1  0.83387712  0.33387712  1.16775424  1.0
  Se  Se11  1  0.66612288  0.83387712  1.50000000  1.0
  Se  Se12  1  0.33387712  0.16612288  0.50000000  1.0
  Se  Se13  1  0.16612288  0.66612288  0.83224576  1.0
  Se  Se14  1  0.75000000  0.75000000  1.00000000  1.0
  Se  Se15  1  0.25000000  0.25000000  0.00000000  1.0
