# generated using pymatgen
data_Ba3P14
_symmetry_space_group_name_H-M   'P 1'
_cell_length_a   6.56398744
_cell_length_b   13.22552120
_cell_length_c   12.19349648
_cell_angle_alpha   90.00000000
_cell_angle_beta   122.19570777
_cell_angle_gamma   90.00000000
_symmetry_Int_Tables_number   1
_chemical_formula_structural   Ba3P14
_chemical_formula_sum   'Ba6 P28'
_cell_volume   895.77470474
_cell_formula_units_Z   2
loop_
 _symmetry_equiv_pos_site_id
 _symmetry_equiv_pos_as_xyz
  1  'x, y, z'
loop_
 _atom_site_type_symbol
 _atom_site_label
 _atom_site_symmetry_multiplicity
 _atom_site_fract_x
 _atom_site_fract_y
 _atom_site_fract_z
 _atom_site_occupancy
  Ba  Ba0  1  0.18291165  0.34700287  0.88764717  1.0
  Ba  Ba1  1  0.18291165  0.15299713  0.38764717  1.0
  Ba  Ba2  1  0.81708835  0.84700287  0.61235283  1.0
  Ba  Ba3  1  0.81708835  0.65299713  0.11235283  1.0
  Ba  Ba4  1  0.00000000  0.00000000  0.00000000  1.0
  Ba  Ba5  1  0.00000000  0.50000000  0.50000000  1.0
  P  P6  1  0.74096383  0.77603329  0.85601058  1.0
  P  P7  1  0.74096383  0.72396671  0.35601058  1.0
  P  P8  1  0.25903617  0.27603329  0.64398942  1.0
  P  P9  1  0.25903617  0.22396671  0.14398942  1.0
  P  P10  1  0.62534702  0.21477897  0.77324241  1.0
  P  P11  1  0.62534702  0.28522103  0.27324241  1.0
  P  P12  1  0.37465298  0.71477897  0.72675759  1.0
  P  P13  1  0.37465298  0.78522103  0.22675759  1.0
  P  P14  1  0.72378289  0.51203335  0.81311327  1.0
  P  P15  1  0.72378289  0.98796665  0.31311327  1.0
  P  P16  1  0.27621711  0.01203335  0.68688673  1.0
  P  P17  1  0.27621711  0.48796665  0.18688673  1.0
  P  P18  1  0.58921407  0.06354680  0.68597325  1.0
  P  P19  1  0.58921407  0.43645320  0.18597325  1.0
  P  P20  1  0.41078593  0.56354680  0.81402675  1.0
  P  P21  1  0.41078593  0.93645320  0.31402675  1.0
  P  P22  1  0.95167504  0.65240694  0.84865474  1.0
  P  P23  1  0.95167504  0.84759306  0.34865474  1.0
  P  P24  1  0.04832496  0.15240694  0.65134526  1.0
  P  P25  1  0.04832496  0.34759306  0.15134526  1.0
  P  P26  1  0.29576754  0.08754335  0.85752921  1.0
  P  P27  1  0.29576754  0.41245665  0.35752921  1.0
  P  P28  1  0.70423246  0.58754335  0.64247079  1.0
  P  P29  1  0.70423246  0.91245665  0.14247079  1.0
  P  P30  1  0.61390912  0.18224672  0.94724614  1.0
  P  P31  1  0.61390912  0.31775328  0.44724614  1.0
  P  P32  1  0.38609088  0.68224672  0.55275386  1.0
  P  P33  1  0.38609088  0.81775328  0.05275386  1.0
