# generated using pymatgen
data_ScAgGe
_symmetry_space_group_name_H-M   'P 1'
_cell_length_a   6.92919875
_cell_length_b   6.92919875
_cell_length_c   4.04545258
_cell_angle_alpha   90.00000000
_cell_angle_beta   90.00000000
_cell_angle_gamma   120.00000000
_symmetry_Int_Tables_number   1
_chemical_formula_structural   ScAgGe
_chemical_formula_sum   'Sc3 Ag3 Ge3'
_cell_volume   168.21463744
_cell_formula_units_Z   3
loop_
 _symmetry_equiv_pos_site_id
 _symmetry_equiv_pos_as_xyz
  1  'x, y, z'
loop_
 _atom_site_type_symbol
 _atom_site_label
 _atom_site_symmetry_multiplicity
 _atom_site_fract_x
 _atom_site_fract_y
 _atom_site_fract_z
 _atom_site_occupancy
  Sc  Sc0  1  0.41701581  0.41701581  0.00000000  1.0
  Sc  Sc1  1  0.00000000  0.58298419  0.00000000  1.0
  Sc  Sc2  1  0.58298419  0.00000000  0.00000000  1.0
  Ag  Ag3  1  0.74597178  0.74597178  0.50000000  1.0
  Ag  Ag4  1  0.00000000  0.25402822  0.50000000  1.0
  Ag  Ag5  1  0.25402822  0.00000000  0.50000000  1.0
  Ge  Ge6  1  0.33333333  0.66666667  0.50000000  1.0
  Ge  Ge7  1  0.66666667  0.33333333  0.50000000  1.0
  Ge  Ge8  1  0.00000000  0.00000000  0.00000000  1.0
