# generated using pymatgen
data_HfI4
_symmetry_space_group_name_H-M   'P 1'
_cell_length_a   13.42107594
_cell_length_b   13.42107594
_cell_length_c   13.42107594
_cell_angle_alpha   90.00000000
_cell_angle_beta   90.00000000
_cell_angle_gamma   90.00000000
_symmetry_Int_Tables_number   1
_chemical_formula_structural   HfI4
_chemical_formula_sum   'Hf8 I32'
_cell_volume   2417.47505332
_cell_formula_units_Z   8
loop_
 _symmetry_equiv_pos_site_id
 _symmetry_equiv_pos_as_xyz
  1  'x, y, z'
loop_
 _atom_site_type_symbol
 _atom_site_label
 _atom_site_symmetry_multiplicity
 _atom_site_fract_x
 _atom_site_fract_y
 _atom_site_fract_z
 _atom_site_occupancy
  Hf  Hf0  1  0.36916378  0.63083622  0.13083622  1.0
  Hf  Hf1  1  0.63083622  0.13083622  0.36916378  1.0
  Hf  Hf2  1  0.13083622  0.36916378  0.63083622  1.0
  Hf  Hf3  1  0.86916378  0.86916378  0.86916378  1.0
  Hf  Hf4  1  0.63083622  0.36916378  0.86916378  1.0
  Hf  Hf5  1  0.36916378  0.86916378  0.63083622  1.0
  Hf  Hf6  1  0.86916378  0.63083622  0.36916378  1.0
  Hf  Hf7  1  0.13083622  0.13083622  0.13083622  1.0
  I  I8  1  0.25406782  0.74593218  0.24593218  1.0
  I  I9  1  0.74593218  0.24593218  0.25406782  1.0
  I  I10  1  0.24593218  0.25406782  0.74593218  1.0
  I  I11  1  0.75406782  0.75406782  0.75406782  1.0
  I  I12  1  0.74593218  0.25406782  0.75406782  1.0
  I  I13  1  0.25406782  0.75406782  0.74593218  1.0
  I  I14  1  0.75406782  0.74593218  0.25406782  1.0
  I  I15  1  0.24593218  0.24593218  0.24593218  1.0
  I  I16  1  0.25403603  0.51941785  1.01191271  1.0
  I  I17  1  0.74596397  1.01941785  0.48808729  1.0
  I  I18  1  0.24596397  0.48058215  0.51191271  1.0
  I  I19  1  0.75403603  -0.01941785  -0.01191271  1.0
  I  I20  1  1.01191271  0.25403603  0.51941785  1.0
  I  I21  1  0.48808729  0.74596397  1.01941785  1.0
  I  I22  1  0.51191271  0.24596397  0.48058215  1.0
  I  I23  1  -0.01191271  0.75403603  -0.01941785  1.0
  I  I24  1  0.51941785  1.01191271  0.25403603  1.0
  I  I25  1  1.01941785  0.48808729  0.74596397  1.0
  I  I26  1  0.48058215  0.51191271  0.24596397  1.0
  I  I27  1  -0.01941785  -0.01191271  0.75403603  1.0
  I  I28  1  0.74596397  0.48058215  -0.01191271  1.0
  I  I29  1  0.25403603  -0.01941785  0.51191271  1.0
  I  I30  1  0.75403603  0.51941785  0.48808729  1.0
  I  I31  1  0.24596397  1.01941785  1.01191271  1.0
  I  I32  1  -0.01191271  0.74596397  0.48058215  1.0
  I  I33  1  0.51191271  0.25403603  -0.01941785  1.0
  I  I34  1  0.48808729  0.75403603  0.51941785  1.0
  I  I35  1  1.01191271  0.24596397  1.01941785  1.0
  I  I36  1  0.48058215  -0.01191271  0.74596397  1.0
  I  I37  1  -0.01941785  0.51191271  0.25403603  1.0
  I  I38  1  0.51941785  0.48808729  0.75403603  1.0
  I  I39  1  1.01941785  1.01191271  0.24596397  1.0
