# generated using pymatgen
data_Sr2HN
_symmetry_space_group_name_H-M   'P 1'
_cell_length_a   6.72117190
_cell_length_b   6.72117190
_cell_length_c   6.72117190
_cell_angle_alpha   32.97857112
_cell_angle_beta   32.97857112
_cell_angle_gamma   32.97857112
_symmetry_Int_Tables_number   1
_chemical_formula_structural   Sr2HN
_chemical_formula_sum   'Sr2 H1 N1'
_cell_volume   80.05435498
_cell_formula_units_Z   1
loop_
 _symmetry_equiv_pos_site_id
 _symmetry_equiv_pos_as_xyz
  1  'x, y, z'
loop_
 _atom_site_type_symbol
 _atom_site_label
 _atom_site_symmetry_multiplicity
 _atom_site_fract_x
 _atom_site_fract_y
 _atom_site_fract_z
 _atom_site_occupancy
  Sr  Sr0  1  0.76143323  0.76143323  0.76143323  1.0
  Sr  Sr1  1  1.23856677  1.23856677  0.23856677  1.0
  H  H2  1  0.00000000  0.00000000  0.00000000  1.0
  N  N3  1  1.50000000  0.50000000  0.50000000  1.0
