# generated using pymatgen
data_CaAl2(SiO5)2
_symmetry_space_group_name_H-M   'P 1'
_cell_length_a   5.13238154
_cell_length_b   7.20385333
_cell_length_c   11.75905043
_cell_angle_alpha   90.00000000
_cell_angle_beta   90.00000000
_cell_angle_gamma   90.00000000
_symmetry_Int_Tables_number   1
_chemical_formula_structural   CaAl2(SiO5)2
_chemical_formula_sum   'Ca2 Al4 Si4 O20'
_cell_volume   434.76647569
_cell_formula_units_Z   2
loop_
 _symmetry_equiv_pos_site_id
 _symmetry_equiv_pos_as_xyz
  1  'x, y, z'
loop_
 _atom_site_type_symbol
 _atom_site_label
 _atom_site_symmetry_multiplicity
 _atom_site_fract_x
 _atom_site_fract_y
 _atom_site_fract_z
 _atom_site_occupancy
  Si  Si0  1  0.05128790  1.05214371  0.14732744  1.0
  Si  Si1  1  0.05128790  -0.05214371  0.85267256  1.0
  Si  Si2  1  -0.05128790  1.05214371  0.35267256  1.0
  Si  Si3  1  -0.05128790  -0.05214371  0.64732744  1.0
  Al  Al4  1  0.56989900  0.65450661  0.54734369  1.0
  Al  Al5  1  0.56989900  0.34549339  0.45265631  1.0
  Al  Al6  1  0.43010100  0.65450661  -0.04734369  1.0
  Al  Al7  1  0.43010100  0.34549339  0.04734369  1.0
  O  O8  1  -0.30165993  0.87100478  0.58385221  1.0
  O  O9  1  -0.30165993  0.12899522  0.41614779  1.0
  O  O10  1  0.30165993  0.87100478  0.91614779  1.0
  O  O11  1  0.30165993  0.12899522  0.08385221  1.0
  O  O12  1  0.00000000  0.79032943  0.75000000  1.0
  O  O13  1  0.00000000  0.20967057  0.25000000  1.0
  O  O14  1  0.72661277  0.59642076  0.88601737  1.0
  O  O15  1  0.72661277  0.40357924  0.11398263  1.0
  O  O16  1  0.27338723  0.59642076  0.61398263  1.0
  O  O17  1  0.27338723  0.40357924  0.38601737  1.0
  O  O18  1  0.00000000  0.11381026  0.75000000  1.0
  O  O19  1  0.00000000  0.88618974  0.25000000  1.0
  O  O20  1  0.16368537  0.95669747  0.44334085  1.0
  O  O21  1  0.16368537  0.04330253  0.55665915  1.0
  O  O22  1  0.83631463  0.95669747  1.05665915  1.0
  O  O23  1  0.83631463  0.04330253  -0.05665915  1.0
  O  O24  1  0.66298050  0.42070801  0.59637345  1.0
  O  O25  1  0.66298050  0.57929199  0.40362655  1.0
  O  O26  1  0.33701950  0.42070801  0.90362655  1.0
  O  O27  1  0.33701950  0.57929199  0.09637345  1.0
  Ca  Ca28  1  0.00000000  0.45565101  0.75000000  1.0
  Ca  Ca29  1  0.00000000  0.54434899  0.25000000  1.0
