# generated using pymatgen
data_B
_symmetry_space_group_name_H-M   'P 1'
_cell_length_a   7.01911983
_cell_length_b   7.01911983
_cell_length_c   7.01911983
_cell_angle_alpha   90.00000000
_cell_angle_beta   90.00000000
_cell_angle_gamma   90.00000000
_symmetry_Int_Tables_number   1
_chemical_formula_structural   B
_chemical_formula_sum   B48
_cell_volume   345.81829855
_cell_formula_units_Z   48
loop_
 _symmetry_equiv_pos_site_id
 _symmetry_equiv_pos_as_xyz
  1  'x, y, z'
loop_
 _atom_site_type_symbol
 _atom_site_label
 _atom_site_symmetry_multiplicity
 _atom_site_fract_x
 _atom_site_fract_y
 _atom_site_fract_z
 _atom_site_occupancy
  B  B0  1  0.44763417  0.76482471  0.70901860  1.0
  B  B1  1  0.44763417  0.73517529  0.20901860  1.0
  B  B2  1  0.94763417  0.76482471  0.79098140  1.0
  B  B3  1  0.94763417  0.73517529  0.29098140  1.0
  B  B4  1  0.26482471  0.79098140  0.55236583  1.0
  B  B5  1  0.26482471  0.70901860  0.05236583  1.0
  B  B6  1  0.76482471  0.79098140  0.94763417  1.0
  B  B7  1  0.76482471  0.70901860  0.44763417  1.0
  B  B8  1  0.29098140  0.94763417  0.73517529  1.0
  B  B9  1  0.29098140  0.55236583  0.23517529  1.0
  B  B10  1  0.79098140  0.94763417  0.76482471  1.0
  B  B11  1  0.79098140  0.55236583  0.26482471  1.0
  B  B12  1  0.55236583  0.26482471  0.79098140  1.0
  B  B13  1  0.55236583  0.23517529  0.29098140  1.0
  B  B14  1  0.05236583  0.26482471  0.70901860  1.0
  B  B15  1  0.05236583  0.23517529  0.20901860  1.0
  B  B16  1  0.73517529  0.29098140  0.94763417  1.0
  B  B17  1  0.73517529  0.20901860  0.44763417  1.0
  B  B18  1  0.23517529  0.29098140  0.55236583  1.0
  B  B19  1  0.23517529  0.20901860  0.05236583  1.0
  B  B20  1  0.70901860  0.44763417  0.76482471  1.0
  B  B21  1  0.70901860  0.05236583  0.26482471  1.0
  B  B22  1  0.20901860  0.44763417  0.73517529  1.0
  B  B23  1  0.20901860  0.05236583  0.23517529  1.0
  B  B24  1  0.46093547  0.52365677  0.79832354  1.0
  B  B25  1  0.46093547  0.97634323  0.29832354  1.0
  B  B26  1  0.96093547  0.52365677  0.70167646  1.0
  B  B27  1  0.96093547  0.97634323  0.20167646  1.0
  B  B28  1  0.02365677  0.70167646  0.53906453  1.0
  B  B29  1  0.02365677  0.79832354  0.03906453  1.0
  B  B30  1  0.52365677  0.70167646  0.96093547  1.0
  B  B31  1  0.52365677  0.79832354  0.46093547  1.0
  B  B32  1  0.20167646  0.96093547  0.97634323  1.0
  B  B33  1  0.20167646  0.53906453  0.47634323  1.0
  B  B34  1  0.70167646  0.96093547  0.52365677  1.0
  B  B35  1  0.70167646  0.53906453  0.02365677  1.0
  B  B36  1  0.53906453  0.02365677  0.70167646  1.0
  B  B37  1  0.53906453  0.47634323  0.20167646  1.0
  B  B38  1  0.03906453  0.02365677  0.79832354  1.0
  B  B39  1  0.03906453  0.47634323  0.29832354  1.0
  B  B40  1  0.97634323  0.20167646  0.96093547  1.0
  B  B41  1  0.97634323  0.29832354  0.46093547  1.0
  B  B42  1  0.47634323  0.20167646  0.53906453  1.0
  B  B43  1  0.47634323  0.29832354  0.03906453  1.0
  B  B44  1  0.79832354  0.46093547  0.52365677  1.0
  B  B45  1  0.79832354  0.03906453  0.02365677  1.0
  B  B46  1  0.29832354  0.46093547  0.97634323  1.0
  B  B47  1  0.29832354  0.03906453  0.47634323  1.0
