# generated using pymatgen
data_Hg5Pd2
_symmetry_space_group_name_H-M   'P 1'
_cell_length_a   9.87739374
_cell_length_b   9.87739374
_cell_length_c   2.99443127
_cell_angle_alpha   90.00000000
_cell_angle_beta   90.00000000
_cell_angle_gamma   90.00000000
_symmetry_Int_Tables_number   1
_chemical_formula_structural   Hg5Pd2
_chemical_formula_sum   'Hg10 Pd4'
_cell_volume   292.14542017
_cell_formula_units_Z   2
loop_
 _symmetry_equiv_pos_site_id
 _symmetry_equiv_pos_as_xyz
  1  'x, y, z'
loop_
 _atom_site_type_symbol
 _atom_site_label
 _atom_site_symmetry_multiplicity
 _atom_site_fract_x
 _atom_site_fract_y
 _atom_site_fract_z
 _atom_site_occupancy
  Hg  Hg0  1  0.43508881  0.70412701  0.00000000  1.0
  Hg  Hg1  1  0.93508881  0.79587299  0.00000000  1.0
  Hg  Hg2  1  0.29587299  0.43508881  0.00000000  1.0
  Hg  Hg3  1  0.79587299  0.06491119  0.00000000  1.0
  Hg  Hg4  1  0.56491119  0.29587299  0.00000000  1.0
  Hg  Hg5  1  0.06491119  0.20412701  0.00000000  1.0
  Hg  Hg6  1  0.70412701  0.56491119  0.00000000  1.0
  Hg  Hg7  1  0.20412701  0.93508881  0.00000000  1.0
  Hg  Hg8  1  0.50000000  0.00000000  0.00000000  1.0
  Hg  Hg9  1  0.00000000  0.50000000  0.00000000  1.0
  Pd  Pd10  1  0.32060389  0.17939611  0.50000000  1.0
  Pd  Pd11  1  0.82060389  0.32060389  0.50000000  1.0
  Pd  Pd12  1  0.67939611  0.82060389  0.50000000  1.0
  Pd  Pd13  1  0.17939611  0.67939611  0.50000000  1.0
