# generated using pymatgen
data_K5Pb24
_symmetry_space_group_name_H-M   'P 1'
_cell_length_a   10.87933510
_cell_length_b   10.87933510
_cell_length_c   10.87933510
_cell_angle_alpha   109.47122063
_cell_angle_beta   109.47122063
_cell_angle_gamma   109.47122063
_symmetry_Int_Tables_number   1
_chemical_formula_structural   K5Pb24
_chemical_formula_sum   'K5 Pb24'
_cell_volume   991.25449805
_cell_formula_units_Z   1
loop_
 _symmetry_equiv_pos_site_id
 _symmetry_equiv_pos_as_xyz
  1  'x, y, z'
loop_
 _atom_site_type_symbol
 _atom_site_label
 _atom_site_symmetry_multiplicity
 _atom_site_fract_x
 _atom_site_fract_y
 _atom_site_fract_z
 _atom_site_occupancy
  K  K0  1  0.36206709  0.36206709  0.36206709  1.0
  K  K1  1  1.00000000  1.00000000  0.63793291  1.0
  K  K2  1  1.00000000  0.63793291  1.00000000  1.0
  K  K3  1  0.63793291  1.00000000  1.00000000  1.0
  K  K4  1  0.00000000  0.00000000  0.00000000  1.0
  Pb  Pb5  1  0.80902540  0.61003672  0.61003672  1.0
  Pb  Pb6  1  0.61003672  0.80902540  0.61003672  1.0
  Pb  Pb7  1  1.00000000  1.19898868  0.38996328  1.0
  Pb  Pb8  1  1.19898868  1.00000000  0.38996328  1.0
  Pb  Pb9  1  0.61003672  0.61003672  0.80902540  1.0
  Pb  Pb10  1  0.80101132  0.80101132  0.19097460  1.0
  Pb  Pb11  1  1.00000000  0.38996328  1.19898868  1.0
  Pb  Pb12  1  0.80101132  0.19097460  0.80101132  1.0
  Pb  Pb13  1  0.19097460  0.80101132  0.80101132  1.0
  Pb  Pb14  1  0.38996328  1.00000000  1.19898868  1.0
  Pb  Pb15  1  1.19898868  0.38996328  1.00000000  1.0
  Pb  Pb16  1  0.38996328  1.19898868  1.00000000  1.0
  Pb  Pb17  1  0.27808039  0.59796668  0.59796668  1.0
  Pb  Pb18  1  0.59796668  0.27808039  0.59796668  1.0
  Pb  Pb19  1  1.00000000  0.68011371  1.40203332  1.0
  Pb  Pb20  1  0.68011371  1.00000000  1.40203332  1.0
  Pb  Pb21  1  0.59796668  0.59796668  0.27808039  1.0
  Pb  Pb22  1  1.31988629  1.31988629  0.72191961  1.0
  Pb  Pb23  1  1.00000000  1.40203332  0.68011371  1.0
  Pb  Pb24  1  1.31988629  0.72191961  1.31988629  1.0
  Pb  Pb25  1  0.72191961  1.31988629  1.31988629  1.0
  Pb  Pb26  1  1.40203332  1.00000000  0.68011371  1.0
  Pb  Pb27  1  0.68011371  1.40203332  1.00000000  1.0
  Pb  Pb28  1  1.40203332  0.68011371  1.00000000  1.0
