# generated using pymatgen
data_Zn2BiO6
_symmetry_space_group_name_H-M   'P 1'
_cell_length_a   4.81630306
_cell_length_b   4.81630306
_cell_length_c   9.60377780
_cell_angle_alpha   90.00000000
_cell_angle_beta   90.00000000
_cell_angle_gamma   90.00000000
_symmetry_Int_Tables_number   1
_chemical_formula_structural   Zn2BiO6
_chemical_formula_sum   'Zn4 Bi2 O12'
_cell_volume   222.77667448
_cell_formula_units_Z   2
loop_
 _symmetry_equiv_pos_site_id
 _symmetry_equiv_pos_as_xyz
  1  'x, y, z'
loop_
 _atom_site_type_symbol
 _atom_site_label
 _atom_site_symmetry_multiplicity
 _atom_site_fract_x
 _atom_site_fract_y
 _atom_site_fract_z
 _atom_site_occupancy
  Zn  Zn0  1  0.50000000  0.50000000  0.16526243  1.0
  Zn  Zn1  1  0.50000000  0.50000000  0.83473757  1.0
  Zn  Zn2  1  0.00000000  0.00000000  0.66526243  1.0
  Zn  Zn3  1  0.00000000  0.00000000  0.33473757  1.0
  Bi  Bi4  1  0.50000000  0.50000000  0.50000000  1.0
  Bi  Bi5  1  0.00000000  0.00000000  0.00000000  1.0
  O  O6  1  0.19607815  0.80392185  0.17391959  1.0
  O  O7  1  0.19607815  0.80392185  0.82608041  1.0
  O  O8  1  0.69607815  0.69607815  0.67391959  1.0
  O  O9  1  0.69607815  0.69607815  0.32608041  1.0
  O  O10  1  0.80392185  0.19607815  0.17391959  1.0
  O  O11  1  0.80392185  0.19607815  0.82608041  1.0
  O  O12  1  0.30392185  0.30392185  0.67391959  1.0
  O  O13  1  0.30392185  0.30392185  0.32608041  1.0
  O  O14  1  0.18593003  0.81406997  0.50000000  1.0
  O  O15  1  0.68593003  0.68593003  0.00000000  1.0
  O  O16  1  0.81406997  0.18593003  0.50000000  1.0
  O  O17  1  0.31406997  0.31406997  0.00000000  1.0
