# generated using pymatgen
data_Gd2InPd2
_symmetry_space_group_name_H-M   'P 1'
_cell_length_a   7.78418763
_cell_length_b   7.78418763
_cell_length_c   3.78464025
_cell_angle_alpha   90.00000000
_cell_angle_beta   90.00000000
_cell_angle_gamma   90.00000000
_symmetry_Int_Tables_number   1
_chemical_formula_structural   Gd2InPd2
_chemical_formula_sum   'Gd4 In2 Pd4'
_cell_volume   229.32489076
_cell_formula_units_Z   2
loop_
 _symmetry_equiv_pos_site_id
 _symmetry_equiv_pos_as_xyz
  1  'x, y, z'
loop_
 _atom_site_type_symbol
 _atom_site_label
 _atom_site_symmetry_multiplicity
 _atom_site_fract_x
 _atom_site_fract_y
 _atom_site_fract_z
 _atom_site_occupancy
  Gd  Gd0  1  0.32576384  0.17423616  0.50000000  1.0
  Gd  Gd1  1  0.82576384  0.32576384  0.50000000  1.0
  Gd  Gd2  1  0.67423616  0.82576384  0.50000000  1.0
  Gd  Gd3  1  0.17423616  0.67423616  0.50000000  1.0
  In  In4  1  0.50000000  0.50000000  0.00000000  1.0
  In  In5  1  0.00000000  0.00000000  0.00000000  1.0
  Pd  Pd6  1  0.87211428  0.62788572  0.00000000  1.0
  Pd  Pd7  1  0.37211428  0.87211428  0.00000000  1.0
  Pd  Pd8  1  0.12788572  0.37211428  0.00000000  1.0
  Pd  Pd9  1  0.62788572  0.12788572  0.00000000  1.0
