# generated using pymatgen
data_Cu3P
_symmetry_space_group_name_H-M   'P 1'
_cell_length_a   6.98954441
_cell_length_b   6.98954441
_cell_length_c   7.20664126
_cell_angle_alpha   90.00000000
_cell_angle_beta   90.00000000
_cell_angle_gamma   120.00000000
_symmetry_Int_Tables_number   1
_chemical_formula_structural   Cu3P
_chemical_formula_sum   'Cu18 P6'
_cell_volume   304.90270203
_cell_formula_units_Z   6
loop_
 _symmetry_equiv_pos_site_id
 _symmetry_equiv_pos_as_xyz
  1  'x, y, z'
loop_
 _atom_site_type_symbol
 _atom_site_label
 _atom_site_symmetry_multiplicity
 _atom_site_fract_x
 _atom_site_fract_y
 _atom_site_fract_z
 _atom_site_occupancy
  Cu  Cu0  1  0.33333333  0.66666667  0.17442851  1.0
  Cu  Cu1  1  0.33333333  0.66666667  0.67442851  1.0
  Cu  Cu2  1  0.66666667  0.33333333  0.32557149  1.0
  Cu  Cu3  1  0.66666667  0.33333333  0.82557149  1.0
  Cu  Cu4  1  0.93381129  0.62478358  0.07596003  1.0
  Cu  Cu5  1  0.93381129  0.30902771  0.57596003  1.0
  Cu  Cu6  1  0.62478358  0.93381129  0.42403997  1.0
  Cu  Cu7  1  0.62478358  0.69097229  0.92403997  1.0
  Cu  Cu8  1  0.69097229  0.62478358  0.57596003  1.0
  Cu  Cu9  1  0.69097229  0.06618871  0.07596003  1.0
  Cu  Cu10  1  0.37521642  0.06618871  0.57596003  1.0
  Cu  Cu11  1  0.37521642  0.30902771  0.07596003  1.0
  Cu  Cu12  1  0.06618871  0.69097229  0.42403997  1.0
  Cu  Cu13  1  0.06618871  0.37521642  0.92403997  1.0
  Cu  Cu14  1  0.30902771  0.93381129  0.92403997  1.0
  Cu  Cu15  1  0.30902771  0.37521642  0.42403997  1.0
  Cu  Cu16  1  -0.00000000  -0.00000000  0.25000000  1.0
  Cu  Cu17  1  -0.00000000  -0.00000000  0.75000000  1.0
  P  P18  1  0.66335022  0.66335022  0.25000000  1.0
  P  P19  1  0.66335022  0.00000000  0.75000000  1.0
  P  P20  1  -0.00000000  0.66335022  0.75000000  1.0
  P  P21  1  -0.00000000  0.33664978  0.25000000  1.0
  P  P22  1  0.33664978  0.33664978  0.75000000  1.0
  P  P23  1  0.33664978  -0.00000000  0.25000000  1.0
