# generated using pymatgen
data_Y3Ge4
_symmetry_space_group_name_H-M   'P 1'
_cell_length_a   5.72952344
_cell_length_b   5.72952344
_cell_length_c   14.32656269
_cell_angle_alpha   90.00000000
_cell_angle_beta   90.00000000
_cell_angle_gamma   138.32175534
_symmetry_Int_Tables_number   1
_chemical_formula_structural   Y3Ge4
_chemical_formula_sum   'Y6 Ge8'
_cell_volume   312.72738281
_cell_formula_units_Z   2
loop_
 _symmetry_equiv_pos_site_id
 _symmetry_equiv_pos_as_xyz
  1  'x, y, z'
loop_
 _atom_site_type_symbol
 _atom_site_label
 _atom_site_symmetry_multiplicity
 _atom_site_fract_x
 _atom_site_fract_y
 _atom_site_fract_z
 _atom_site_occupancy
  Y  Y0  1  0.32938077  0.67061923  0.90315845  1.0
  Y  Y1  1  0.32938077  0.67061923  0.59684155  1.0
  Y  Y2  1  -0.32938077  0.32938077  0.40315845  1.0
  Y  Y3  1  -0.32938077  0.32938077  0.09684155  1.0
  Y  Y4  1  0.04489530  0.95510470  0.75000000  1.0
  Y  Y5  1  -0.04489530  0.04489530  0.25000000  1.0
  Ge  Ge6  1  -0.38128269  0.38128269  0.89137569  1.0
  Ge  Ge7  1  -0.38128269  0.38128269  0.60862431  1.0
  Ge  Ge8  1  0.38128269  0.61871731  0.39137569  1.0
  Ge  Ge9  1  0.38128269  0.61871731  0.10862431  1.0
  Ge  Ge10  1  -0.22729921  0.22729921  0.75000000  1.0
  Ge  Ge11  1  0.22729921  0.77270079  0.25000000  1.0
  Ge  Ge12  1  0.00000000  0.00000000  0.00000000  1.0
  Ge  Ge13  1  0.00000000  0.00000000  0.50000000  1.0
