# generated using pymatgen
data_TaNiP
_symmetry_space_group_name_H-M   'P 1'
_cell_length_a   6.11166634
_cell_length_b   3.57947900
_cell_length_c   7.12790425
_cell_angle_alpha   90.00000000
_cell_angle_beta   90.00000000
_cell_angle_gamma   90.00000000
_symmetry_Int_Tables_number   1
_chemical_formula_structural   TaNiP
_chemical_formula_sum   'Ta4 Ni4 P4'
_cell_volume   155.93417677
_cell_formula_units_Z   4
loop_
 _symmetry_equiv_pos_site_id
 _symmetry_equiv_pos_as_xyz
  1  'x, y, z'
loop_
 _atom_site_type_symbol
 _atom_site_label
 _atom_site_symmetry_multiplicity
 _atom_site_fract_x
 _atom_site_fract_y
 _atom_site_fract_z
 _atom_site_occupancy
  Ta  Ta0  1  0.97780116  0.75000000  0.66560936  1.0
  Ta  Ta1  1  0.47780116  0.75000000  0.83439064  1.0
  Ta  Ta2  1  0.02219884  0.25000000  0.33439064  1.0
  Ta  Ta3  1  0.52219884  0.25000000  0.16560936  1.0
  Ni  Ni4  1  0.84993375  0.75000000  0.06862921  1.0
  Ni  Ni5  1  0.34993375  0.75000000  0.43137079  1.0
  Ni  Ni6  1  0.15006625  0.25000000  0.93137079  1.0
  Ni  Ni7  1  0.65006625  0.25000000  0.56862921  1.0
  P  P8  1  0.71802773  0.75000000  0.37622758  1.0
  P  P9  1  0.21802773  0.75000000  0.12377242  1.0
  P  P10  1  0.28197227  0.25000000  0.62377242  1.0
  P  P11  1  0.78197227  0.25000000  0.87622758  1.0
