# generated using pymatgen
data_S4N5Cl
_symmetry_space_group_name_H-M   'P 1'
_cell_length_a   19.21974484
_cell_length_b   7.96324213
_cell_length_c   5.02934620
_cell_angle_alpha   90.00000000
_cell_angle_beta   90.00000000
_cell_angle_gamma   90.00000000
_symmetry_Int_Tables_number   1
_chemical_formula_structural   S4N5Cl
_chemical_formula_sum   'S16 N20 Cl4'
_cell_volume   769.74888896
_cell_formula_units_Z   4
loop_
 _symmetry_equiv_pos_site_id
 _symmetry_equiv_pos_as_xyz
  1  'x, y, z'
loop_
 _atom_site_type_symbol
 _atom_site_label
 _atom_site_symmetry_multiplicity
 _atom_site_fract_x
 _atom_site_fract_y
 _atom_site_fract_z
 _atom_site_occupancy
  S  S0  1  0.94685480  0.25000000  0.47622854  1.0
  S  S1  1  0.44685480  0.25000000  0.02377146  1.0
  S  S2  1  0.05314520  0.75000000  0.52377146  1.0
  S  S3  1  0.55314520  0.75000000  0.97622854  1.0
  S  S4  1  0.80213213  0.25000000  0.43994990  1.0
  S  S5  1  0.30213213  0.25000000  0.06005010  1.0
  S  S6  1  0.19786787  0.75000000  0.56005010  1.0
  S  S7  1  0.69786787  0.75000000  0.93994990  1.0
  S  S8  1  0.87958222  0.99066397  0.18757130  1.0
  S  S9  1  0.87958222  0.50933603  0.18757130  1.0
  S  S10  1  0.37958222  0.99066397  0.31242870  1.0
  S  S11  1  0.37958222  0.50933603  0.31242870  1.0
  S  S12  1  0.12041778  0.49066397  0.81242870  1.0
  S  S13  1  0.12041778  0.00933603  0.81242870  1.0
  S  S14  1  0.62041778  0.49066397  0.68757130  1.0
  S  S15  1  0.62041778  0.00933603  0.68757130  1.0
  N  N16  1  0.94876055  0.41455887  0.26223540  1.0
  N  N17  1  0.94876055  0.08544113  0.26223540  1.0
  N  N18  1  0.44876055  0.41455887  0.23776460  1.0
  N  N19  1  0.44876055  0.08544113  0.23776460  1.0
  N  N20  1  0.05123945  0.91455887  0.73776460  1.0
  N  N21  1  0.05123945  0.58544113  0.73776460  1.0
  N  N22  1  0.55123945  0.91455887  0.76223540  1.0
  N  N23  1  0.55123945  0.58544113  0.76223540  1.0
  N  N24  1  0.87187101  0.25000000  0.62970898  1.0
  N  N25  1  0.37187101  0.25000000  0.87029102  1.0
  N  N26  1  0.12812899  0.75000000  0.37029102  1.0
  N  N27  1  0.62812899  0.75000000  0.12970898  1.0
  N  N28  1  0.80827864  0.41625380  0.23242412  1.0
  N  N29  1  0.80827864  0.08374620  0.23242412  1.0
  N  N30  1  0.30827864  0.41625380  0.26757588  1.0
  N  N31  1  0.30827864  0.08374620  0.26757588  1.0
  N  N32  1  0.19172136  0.91625380  0.76757588  1.0
  N  N33  1  0.19172136  0.58374620  0.76757588  1.0
  N  N34  1  0.69172136  0.91625380  0.73242412  1.0
  N  N35  1  0.69172136  0.58374620  0.73242412  1.0
  Cl  Cl36  1  0.62518080  0.25000000  0.07512909  1.0
  Cl  Cl37  1  0.12518080  0.25000000  0.42487091  1.0
  Cl  Cl38  1  0.37481920  0.75000000  0.92487091  1.0
  Cl  Cl39  1  0.87481920  0.75000000  0.57512909  1.0
