# generated using pymatgen
data_Lu6TeO12
_symmetry_space_group_name_H-M   'P 1'
_cell_length_a   6.42164096
_cell_length_b   6.42164096
_cell_length_c   6.42164096
_cell_angle_alpha   98.79597217
_cell_angle_beta   98.79597217
_cell_angle_gamma   98.79597217
_symmetry_Int_Tables_number   1
_chemical_formula_structural   Lu6TeO12
_chemical_formula_sum   'Lu6 Te1 O12'
_cell_volume   254.37119554
_cell_formula_units_Z   1
loop_
 _symmetry_equiv_pos_site_id
 _symmetry_equiv_pos_as_xyz
  1  'x, y, z'
loop_
 _atom_site_type_symbol
 _atom_site_label
 _atom_site_symmetry_multiplicity
 _atom_site_fract_x
 _atom_site_fract_y
 _atom_site_fract_z
 _atom_site_occupancy
  Lu  Lu0  1  0.85462672  0.67990225  0.38971931  1.0
  Lu  Lu1  1  1.32009775  -0.38971931  0.14537328  1.0
  Lu  Lu2  1  0.61028069  0.14537328  0.32009775  1.0
  Lu  Lu3  1  1.14537328  0.32009775  -0.38971931  1.0
  Lu  Lu4  1  0.67990225  1.38971931  -0.14537328  1.0
  Lu  Lu5  1  1.38971931  0.85462672  -0.32009775  1.0
  Te  Te6  1  -0.00000000  -0.00000000  -0.00000000  1.0
  O  O7  1  0.69431094  1.03921311  -0.07621563  1.0
  O  O8  1  0.96078690  0.07621563  0.30568906  1.0
  O  O9  1  1.07621563  0.30568906  -0.03921310  1.0
  O  O10  1  1.30568906  -0.03921310  0.07621563  1.0
  O  O11  1  1.03921311  0.92378437  -0.30568906  1.0
  O  O12  1  0.92378437  0.69431094  0.03921311  1.0
  O  O13  1  1.40944400  0.57112568  -0.17753051  1.0
  O  O14  1  0.42887432  1.17753051  -0.40944400  1.0
  O  O15  1  1.17753051  0.59055600  -0.57112568  1.0
  O  O16  1  0.59055600  0.42887432  0.17753051  1.0
  O  O17  1  1.57112568  -0.17753051  0.40944400  1.0
  O  O18  1  0.82246949  0.40944400  0.57112568  1.0
