# generated using pymatgen
data_VBiO4
_symmetry_space_group_name_H-M   'P 1'
_cell_length_a   6.92596659
_cell_length_b   6.92596659
_cell_length_c   5.16584670
_cell_angle_alpha   68.10458681
_cell_angle_beta   111.89541319
_cell_angle_gamma   63.65231185
_symmetry_Int_Tables_number   1
_chemical_formula_structural   VBiO4
_chemical_formula_sum   'V2 Bi2 O8'
_cell_volume   157.00838748
_cell_formula_units_Z   2
loop_
 _symmetry_equiv_pos_site_id
 _symmetry_equiv_pos_as_xyz
  1  'x, y, z'
loop_
 _atom_site_type_symbol
 _atom_site_label
 _atom_site_symmetry_multiplicity
 _atom_site_fract_x
 _atom_site_fract_y
 _atom_site_fract_z
 _atom_site_occupancy
  V  V0  1  0.62505331  0.62505331  0.75000000  1.0
  V  V1  1  0.37494669  0.37494669  0.25000000  1.0
  Bi  Bi2  1  1.12505371  0.12505371  0.75000000  1.0
  Bi  Bi3  1  0.87494629  -0.12505371  0.25000000  1.0
  O  O4  1  0.79598788  0.29779724  0.13743179  1.0
  O  O5  1  0.70220276  0.20401212  0.63743179  1.0
  O  O6  1  1.29779724  -0.20401212  0.36256821  1.0
  O  O7  1  1.20401212  -0.29779724  0.86256821  1.0
  O  O8  1  0.43517876  0.15841638  0.13920018  1.0
  O  O9  1  0.84158362  0.56482124  0.63920018  1.0
  O  O10  1  1.15841638  -0.56482124  0.36079982  1.0
  O  O11  1  1.56482124  -0.15841638  0.86079982  1.0
