# generated using pymatgen
data_Sc6TeO12
_symmetry_space_group_name_H-M   'P 1'
_cell_length_a   6.16272878
_cell_length_b   6.16272878
_cell_length_c   6.16272878
_cell_angle_alpha   98.99559972
_cell_angle_beta   98.99559972
_cell_angle_gamma   98.99559972
_symmetry_Int_Tables_number   1
_chemical_formula_structural   Sc6TeO12
_chemical_formula_sum   'Sc6 Te1 O12'
_cell_volume   224.37756685
_cell_formula_units_Z   1
loop_
 _symmetry_equiv_pos_site_id
 _symmetry_equiv_pos_as_xyz
  1  'x, y, z'
loop_
 _atom_site_type_symbol
 _atom_site_label
 _atom_site_symmetry_multiplicity
 _atom_site_fract_x
 _atom_site_fract_y
 _atom_site_fract_z
 _atom_site_occupancy
  Sc  Sc0  1  0.85349784  0.67084044  0.39144371  1.0
  Sc  Sc1  1  1.32915956  -0.39144371  0.14650216  1.0
  Sc  Sc2  1  0.60855629  0.14650216  0.32915956  1.0
  Sc  Sc3  1  1.14650216  0.32915956  -0.39144371  1.0
  Sc  Sc4  1  0.67084044  1.39144371  -0.14650216  1.0
  Sc  Sc5  1  1.39144371  0.85349784  -0.32915956  1.0
  Te  Te6  1  0.00000000  0.00000000  0.00000000  1.0
  O  O7  1  0.68843071  1.04591059  -0.09344364  1.0
  O  O8  1  0.95408941  0.09344364  0.31156929  1.0
  O  O9  1  1.09344364  0.31156929  -0.04591059  1.0
  O  O10  1  1.31156929  -0.04591059  0.09344364  1.0
  O  O11  1  1.04591059  0.90655636  -0.31156929  1.0
  O  O12  1  0.90655636  0.68843071  0.04591059  1.0
  O  O13  1  1.41216535  0.58015134  -0.17832069  1.0
  O  O14  1  0.41984866  1.17832069  -0.41216535  1.0
  O  O15  1  1.17832069  0.58783465  -0.58015134  1.0
  O  O16  1  0.58783465  0.41984866  0.17832069  1.0
  O  O17  1  1.58015134  -0.17832069  0.41216535  1.0
  O  O18  1  0.82167931  0.41216535  0.58015134  1.0
