# generated using pymatgen
data_RbTe7Mo6
_symmetry_space_group_name_H-M   'P 1'
_cell_length_a   10.44474966
_cell_length_b   10.44474966
_cell_length_c   10.44474966
_cell_angle_alpha   59.74343281
_cell_angle_beta   59.74343281
_cell_angle_gamma   59.74343282
_symmetry_Int_Tables_number   1
_chemical_formula_structural   RbTe7Mo6
_chemical_formula_sum   'Rb2 Te14 Mo12'
_cell_volume   801.01631661
_cell_formula_units_Z   2
loop_
 _symmetry_equiv_pos_site_id
 _symmetry_equiv_pos_as_xyz
  1  'x, y, z'
loop_
 _atom_site_type_symbol
 _atom_site_label
 _atom_site_symmetry_multiplicity
 _atom_site_fract_x
 _atom_site_fract_y
 _atom_site_fract_z
 _atom_site_occupancy
  Rb  Rb0  1  0.37847933  0.37847933  -0.62152067  1.0
  Rb  Rb1  1  0.62152067  0.62152067  -0.37847933  1.0
  Te  Te2  1  0.22450864  0.22450864  0.22450864  1.0
  Te  Te3  1  0.77549136  -0.22450864  -0.22450864  1.0
  Te  Te4  1  0.37174424  0.02096636  -0.25154866  1.0
  Te  Te5  1  1.25154866  -0.37174424  -0.02096636  1.0
  Te  Te6  1  0.97903364  0.25154866  -0.37174424  1.0
  Te  Te7  1  0.62825576  -0.02096636  0.25154866  1.0
  Te  Te8  1  0.74845134  -0.62825576  0.02096636  1.0
  Te  Te9  1  1.02096636  -0.25154866  -0.62825576  1.0
  Te  Te10  1  0.57304556  0.20140672  -0.16486220  1.0
  Te  Te11  1  0.16486220  0.42695444  -0.20140672  1.0
  Te  Te12  1  0.79859328  0.16486220  -0.57304556  1.0
  Te  Te13  1  0.42695444  0.79859328  -0.83513780  1.0
  Te  Te14  1  0.83513780  -0.42695444  0.20140672  1.0
  Te  Te15  1  1.20140672  -0.16486220  -0.42695444  1.0
  Mo  Mo16  1  0.18704671  0.89038225  -0.94490939  1.0
  Mo  Mo17  1  0.94490939  -0.18704671  0.10961775  1.0
  Mo  Mo18  1  1.10961775  -0.05509061  -0.18704671  1.0
  Mo  Mo19  1  0.81295329  0.10961775  -0.05509061  1.0
  Mo  Mo20  1  0.05509061  0.18704671  -0.10961775  1.0
  Mo  Mo21  1  0.89038225  0.05509061  -0.81295329  1.0
  Mo  Mo22  1  0.28936690  0.11782764  -0.00147653  1.0
  Mo  Mo23  1  1.00147653  -0.28936690  -0.11782764  1.0
  Mo  Mo24  1  0.88217236  0.00147653  -0.28936690  1.0
  Mo  Mo25  1  0.71063310  -0.11782764  0.00147653  1.0
  Mo  Mo26  1  0.99852347  -0.71063310  0.11782764  1.0
  Mo  Mo27  1  1.11782764  -0.00147653  -0.71063310  1.0
