# generated using pymatgen
data_KAuC2(SN)2
_symmetry_space_group_name_H-M   'P 1'
_cell_length_a   7.90838648
_cell_length_b   7.90838648
_cell_length_c   18.77596714
_cell_angle_alpha   68.95774342
_cell_angle_beta   111.04225658
_cell_angle_gamma   134.94858700
_symmetry_Int_Tables_number   1
_chemical_formula_structural   KAuC2(SN)2
_chemical_formula_sum   'K4 Au4 C8 S8 N8'
_cell_volume   765.74020658
_cell_formula_units_Z   4
loop_
 _symmetry_equiv_pos_site_id
 _symmetry_equiv_pos_as_xyz
  1  'x, y, z'
loop_
 _atom_site_type_symbol
 _atom_site_label
 _atom_site_symmetry_multiplicity
 _atom_site_fract_x
 _atom_site_fract_y
 _atom_site_fract_z
 _atom_site_occupancy
  K  K0  1  1.18905995  -0.11477755  0.53463451  1.0
  K  K1  1  0.88522245  -0.81094005  0.96536549  1.0
  K  K2  1  0.81094005  0.11477755  0.46536549  1.0
  K  K3  1  1.11477755  0.81094005  0.03463451  1.0
  Au  Au4  1  0.15977158  0.15977158  0.75000000  1.0
  Au  Au5  1  0.84022842  0.84022842  0.25000000  1.0
  Au  Au6  1  0.65486385  0.65486385  0.75000000  1.0
  Au  Au7  1  0.34513615  0.34513615  0.25000000  1.0
  C  C8  1  0.83087890  -0.73964143  0.63123055  1.0
  C  C9  1  1.26035857  -0.16912110  0.86876945  1.0
  C  C10  1  1.16912110  0.73964143  0.36876945  1.0
  C  C11  1  0.73964143  0.16912110  0.13123055  1.0
  C  C12  1  1.43871159  -0.57022606  0.59435880  1.0
  C  C13  1  0.42977394  0.43871159  0.90564120  1.0
  C  C14  1  0.56128841  0.57022606  0.40564120  1.0
  C  C15  1  1.57022606  -0.43871159  0.09435880  1.0
  S  S16  1  1.01124307  -0.64525758  0.71440367  1.0
  S  S17  1  1.35474242  0.01124307  0.78559633  1.0
  S  S18  1  0.98875693  0.64525758  0.28559633  1.0
  S  S19  1  0.64525758  -0.01124307  0.21440367  1.0
  S  S20  1  1.70643636  -0.33364222  0.63259581  1.0
  S  S21  1  0.66635778  0.70643636  0.86740419  1.0
  S  S22  1  0.29356364  0.33364222  0.36740419  1.0
  S  S23  1  1.33364222  -0.70643636  0.13259581  1.0
  N  N24  1  1.70486878  0.20434571  0.57108810  1.0
  N  N25  1  1.20434571  -0.29513122  0.92891190  1.0
  N  N26  1  0.29513122  -0.20434571  0.42891190  1.0
  N  N27  1  0.79565429  0.29513122  0.07108810  1.0
  N  N28  1  1.25592691  -0.73427372  0.56390660  1.0
  N  N29  1  0.26572628  0.25592691  0.93609340  1.0
  N  N30  1  0.74407309  0.73427372  0.43609340  1.0
  N  N31  1  1.73427372  -0.25592691  0.06390660  1.0
