# generated using pymatgen
data_Ca2YAs(WO3)2
_symmetry_space_group_name_H-M   'P 1'
_cell_length_a   17.99763569
_cell_length_b   17.99763569
_cell_length_c   17.99763569
_cell_angle_alpha   159.57171985
_cell_angle_beta   159.57171985
_cell_angle_gamma   29.04724407
_symmetry_Int_Tables_number   1
_chemical_formula_structural   Ca2YAs(WO3)2
_chemical_formula_sum   'Ca8 Y4 As4 W8 O24'
_cell_volume   709.83008762
_cell_formula_units_Z   4
loop_
 _symmetry_equiv_pos_site_id
 _symmetry_equiv_pos_as_xyz
  1  'x, y, z'
loop_
 _atom_site_type_symbol
 _atom_site_label
 _atom_site_symmetry_multiplicity
 _atom_site_fract_x
 _atom_site_fract_y
 _atom_site_fract_z
 _atom_site_occupancy
  Ca  Ca0  1  0.25858864  0.44115784  0.61062769  1.0
  Ca  Ca1  1  0.83053014  0.64796095  1.38937231  1.0
  Ca  Ca2  1  0.19115784  1.08053014  0.68256919  1.0
  Ca  Ca3  1  0.49141136  0.80884216  0.88937231  1.0
  Ca  Ca4  1  0.39796095  0.50858864  0.31743081  1.0
  Ca  Ca5  1  0.91946986  0.60203905  1.11062769  1.0
  Ca  Ca6  1  0.55884216  1.16946986  0.81743081  1.0
  Ca  Ca7  1  0.35203905  0.74141136  0.18256919  1.0
  Y  Y8  1  0.37500000  0.12500000  0.25000000  1.0
  Y  Y9  1  0.87500000  0.12500000  0.75000000  1.0
  Y  Y10  1  0.87500000  1.12500000  1.25000000  1.0
  Y  Y11  1  0.87500000  0.62500000  0.75000000  1.0
  As  As12  1  0.87500000  0.62500000  1.25000000  1.0
  As  As13  1  0.37500000  0.62500000  0.75000000  1.0
  As  As14  1  0.37500000  0.62500000  0.25000000  1.0
  As  As15  1  0.37500000  1.12500000  0.75000000  1.0
  W  W16  1  0.74041560  0.12318903  0.78548945  1.0
  W  W17  1  0.33769959  -0.04507385  0.21451055  1.0
  W  W18  1  0.87318903  0.58769959  0.88277343  1.0
  W  W19  1  1.00958440  0.12681097  0.71451055  1.0
  W  W20  1  0.70492615  0.99041560  1.11722657  1.0
  W  W21  1  0.41230041  0.29507385  0.28548945  1.0
  W  W22  1  0.87681097  0.66230041  0.61722657  1.0
  W  W23  1  1.04507385  1.25958440  1.38277343  1.0
  O  O24  1  0.88455364  0.27366679  1.14986369  1.0
  O  O25  1  0.12380310  0.73468996  0.85013631  1.0
  O  O26  1  1.02366679  0.37380310  0.88911314  1.0
  O  O27  1  0.86544636  0.97633321  1.35013631  1.0
  O  O28  1  0.48468996  1.13455364  1.11088686  1.0
  O  O29  1  0.62619690  0.51531004  0.64986369  1.0
  O  O30  1  0.72633321  0.87619690  0.61088686  1.0
  O  O31  1  1.26531004  1.11544636  1.38911314  1.0
  O  O32  1  0.50049005  0.23371543  0.59504956  1.0
  O  O33  1  0.63866588  0.90544049  1.40495044  1.0
  O  O34  1  0.98371543  0.88866588  1.23322539  1.0
  O  O35  1  0.24950995  1.01628457  0.90495044  1.0
  O  O36  1  0.65544049  0.75049005  0.76677461  1.0
  O  O37  1  1.11133412  0.34455951  1.09504956  1.0
  O  O38  1  0.76628457  1.36133412  1.26677461  1.0
  O  O39  1  1.09455951  0.49950995  0.73322539  1.0
  O  O40  1  0.91286479  0.34585292  1.10002239  1.0
  O  O41  1  0.24583053  0.81284240  0.89997761  1.0
  O  O42  1  1.09585292  0.49583053  0.93298813  1.0
  O  O43  1  0.83713521  0.90414708  1.39997761  1.0
  O  O44  1  0.56284240  1.16286479  1.06701187  1.0
  O  O45  1  0.50416947  0.43715760  0.60002239  1.0
  O  O46  1  0.65414708  0.75416947  0.56701187  1.0
  O  O47  1  1.18715760  1.08713521  1.43298813  1.0
