# generated using pymatgen
data_BaIn2Rh
_symmetry_space_group_name_H-M   'P 1'
_cell_length_a   6.22618228
_cell_length_b   6.22618228
_cell_length_c   8.14213408
_cell_angle_alpha   90.00000000
_cell_angle_beta   90.00000000
_cell_angle_gamma   137.36436674
_symmetry_Int_Tables_number   1
_chemical_formula_structural   BaIn2Rh
_chemical_formula_sum   'Ba2 In4 Rh2'
_cell_volume   213.78860382
_cell_formula_units_Z   2
loop_
 _symmetry_equiv_pos_site_id
 _symmetry_equiv_pos_as_xyz
  1  'x, y, z'
loop_
 _atom_site_type_symbol
 _atom_site_label
 _atom_site_symmetry_multiplicity
 _atom_site_fract_x
 _atom_site_fract_y
 _atom_site_fract_z
 _atom_site_occupancy
  Ba  Ba0  1  0.44810311  0.55189689  0.75000000  1.0
  Ba  Ba1  1  -0.44810311  0.44810311  0.25000000  1.0
  In  In2  1  0.16529027  0.83470973  0.94455988  1.0
  In  In3  1  0.16529027  0.83470973  0.55544012  1.0
  In  In4  1  -0.16529027  0.16529027  0.44455988  1.0
  In  In5  1  -0.16529027  0.16529027  0.05544012  1.0
  Rh  Rh6  1  -0.28308218  0.28308218  0.75000000  1.0
  Rh  Rh7  1  0.28308218  0.71691782  0.25000000  1.0
