# generated using pymatgen
data_FeCu2SnS4
_symmetry_space_group_name_H-M   'P 1'
_cell_length_a   6.61828324
_cell_length_b   6.61828324
_cell_length_c   6.61828324
_cell_angle_alpha   131.14713498
_cell_angle_beta   131.14713498
_cell_angle_gamma   71.57941648
_symmetry_Int_Tables_number   1
_chemical_formula_structural   FeCu2SnS4
_chemical_formula_sum   'Fe1 Cu2 Sn1 S4'
_cell_volume   160.84584392
_cell_formula_units_Z   1
loop_
 _symmetry_equiv_pos_site_id
 _symmetry_equiv_pos_as_xyz
  1  'x, y, z'
loop_
 _atom_site_type_symbol
 _atom_site_label
 _atom_site_symmetry_multiplicity
 _atom_site_fract_x
 _atom_site_fract_y
 _atom_site_fract_z
 _atom_site_occupancy
  Fe  Fe0  1  -0.00000000  -0.00000000  -0.00000000  1.0
  Cu  Cu1  1  0.25000000  0.75000000  0.50000000  1.0
  Cu  Cu2  1  0.75000000  0.25000000  0.50000000  1.0
  Sn  Sn3  1  0.50000000  0.50000000  1.00000000  1.0
  S  S4  1  0.36492722  0.89962013  1.00000000  1.0
  S  S5  1  1.10037987  1.10037987  1.46530708  1.0
  S  S6  1  0.63507278  0.63507278  0.53469292  1.0
  S  S7  1  0.89962013  0.36492722  1.00000000  1.0
