# generated using pymatgen
data_Li2PNO2
_symmetry_space_group_name_H-M   'P 1'
_cell_length_a   5.30450972
_cell_length_b   5.30450972
_cell_length_c   4.74959601
_cell_angle_alpha   90.00000000
_cell_angle_beta   90.00000000
_cell_angle_gamma   61.68534637
_symmetry_Int_Tables_number   1
_chemical_formula_structural   Li2PNO2
_chemical_formula_sum   'Li4 P2 N2 O4'
_cell_volume   117.65368519
_cell_formula_units_Z   2
loop_
 _symmetry_equiv_pos_site_id
 _symmetry_equiv_pos_as_xyz
  1  'x, y, z'
loop_
 _atom_site_type_symbol
 _atom_site_label
 _atom_site_symmetry_multiplicity
 _atom_site_fract_x
 _atom_site_fract_y
 _atom_site_fract_z
 _atom_site_occupancy
  Li  Li0  1  -0.17530613  1.50678371  0.00187835  1.0
  Li  Li1  1  0.50678371  0.82469387  0.50187835  1.0
  Li  Li2  1  -0.50678371  1.17530613  0.00187835  1.0
  Li  Li3  1  0.17530613  0.49321629  0.50187835  1.0
  P  P4  1  0.15469098  0.84530902  0.00479449  1.0
  P  P5  1  -0.15469098  1.15469098  0.50479449  1.0
  N  N6  1  0.11506155  0.88493845  0.66064224  1.0
  N  N7  1  -0.11506155  1.11506155  0.16064224  1.0
  O  O8  1  0.16687863  0.55327242  0.08640328  1.0
  O  O9  1  -0.44672758  1.16687863  0.58640328  1.0
  O  O10  1  0.44672758  0.83312137  0.08640328  1.0
  O  O11  1  -0.16687863  1.44672758  0.58640328  1.0
