# generated using pymatgen
data_KCuPO4
_symmetry_space_group_name_H-M   'P 1'
_cell_length_a   5.12946108
_cell_length_b   9.77272765
_cell_length_c   8.31287537
_cell_angle_alpha   90.00000000
_cell_angle_beta   93.06186128
_cell_angle_gamma   90.00000000
_symmetry_Int_Tables_number   1
_chemical_formula_structural   KCuPO4
_chemical_formula_sum   'K4 Cu4 P4 O16'
_cell_volume   416.11980143
_cell_formula_units_Z   4
loop_
 _symmetry_equiv_pos_site_id
 _symmetry_equiv_pos_as_xyz
  1  'x, y, z'
loop_
 _atom_site_type_symbol
 _atom_site_label
 _atom_site_symmetry_multiplicity
 _atom_site_fract_x
 _atom_site_fract_y
 _atom_site_fract_z
 _atom_site_occupancy
  P  P0  1  0.76911580  0.28213308  0.56051010  1.0
  P  P1  1  0.23088420  0.78213308  0.43948990  1.0
  P  P2  1  0.24359908  0.01338632  0.95681014  1.0
  P  P3  1  0.75640092  0.51338632  0.04318986  1.0
  O  O4  1  0.94620797  0.03348178  0.98345258  1.0
  O  O5  1  0.05379203  0.53348178  0.01654742  1.0
  O  O6  1  0.92099177  0.19902324  0.43285243  1.0
  O  O7  1  0.07900823  0.69902324  0.56714757  1.0
  O  O8  1  0.82704796  0.43780585  0.56177056  1.0
  O  O9  1  0.17295204  0.93780585  0.43822944  1.0
  O  O10  1  0.65275650  0.38518155  0.94949009  1.0
  O  O11  1  0.34724350  0.88518155  0.05050991  1.0
  O  O12  1  0.59427068  0.63783101  0.97708928  1.0
  O  O13  1  0.40572932  0.13783101  0.02291072  1.0
  O  O14  1  0.47762862  0.25197358  0.55385524  1.0
  O  O15  1  0.52237138  0.75197358  0.44614476  1.0
  O  O16  1  0.28458160  -0.01327196  0.77326779  1.0
  O  O17  1  0.71541840  0.48672804  0.22673221  1.0
  O  O18  1  0.92411775  0.21764966  0.72063546  1.0
  O  O19  1  0.07588225  0.71764966  0.27936454  1.0
  Cu  Cu20  1  0.73835605  0.19633588  0.92046685  1.0
  Cu  Cu21  1  0.26164395  0.69633588  0.07953315  1.0
  Cu  Cu22  1  0.86930996  0.58826570  0.40628828  1.0
  Cu  Cu23  1  0.13069004  0.08826570  0.59371172  1.0
  K  K24  1  0.73125579  0.82601396  0.76213757  1.0
  K  K25  1  0.26874421  0.32601396  0.23786243  1.0
  K  K26  1  0.28645033  0.47169036  0.73498639  1.0
  K  K27  1  0.71354967  0.97169036  0.26501361  1.0
