# generated using pymatgen
data_Li4Ca3(SiN3)2
_symmetry_space_group_name_H-M   'P 1'
_cell_length_a   5.67795308
_cell_length_b   5.67795308
_cell_length_c   5.99323367
_cell_angle_alpha   89.72598309
_cell_angle_beta   90.27401691
_cell_angle_gamma   61.52726620
_symmetry_Int_Tables_number   1
_chemical_formula_structural   Li4Ca3(SiN3)2
_chemical_formula_sum   'Li4 Ca3 Si2 N6'
_cell_volume   169.83863157
_cell_formula_units_Z   1
loop_
 _symmetry_equiv_pos_site_id
 _symmetry_equiv_pos_as_xyz
  1  'x, y, z'
loop_
 _atom_site_type_symbol
 _atom_site_label
 _atom_site_symmetry_multiplicity
 _atom_site_fract_x
 _atom_site_fract_y
 _atom_site_fract_z
 _atom_site_occupancy
  Li  Li0  1  1.46379543  0.18465051  0.87396959  1.0
  Li  Li1  1  0.81534949  -0.46379543  0.87396959  1.0
  Li  Li2  1  1.18465051  0.46379543  0.12603041  1.0
  Li  Li3  1  0.53620457  -0.18465051  0.12603041  1.0
  Ca  Ca4  1  0.81556435  -0.18443565  0.50000000  1.0
  Ca  Ca5  1  1.18443565  0.18443565  0.50000000  1.0
  Ca  Ca6  1  0.00000000  0.00000000  0.00000000  1.0
  Si  Si7  1  0.38138676  -0.38138676  0.66950589  1.0
  Si  Si8  1  0.61861324  -0.61861324  0.33049411  1.0
  N  N9  1  0.43360538  -0.13488044  0.79094149  1.0
  N  N10  1  1.13488044  0.56639462  0.79094149  1.0
  N  N11  1  0.86511956  -0.56639462  0.20905851  1.0
  N  N12  1  1.56639462  0.13488044  0.20905851  1.0
  N  N13  1  0.69332249  -0.69332249  0.63300367  1.0
  N  N14  1  0.30667751  -0.30667751  0.36699633  1.0
