# generated using pymatgen
data_Zn2BNCl2O3
_symmetry_space_group_name_H-M   'P 1'
_cell_length_a   8.27811064
_cell_length_b   8.27811064
_cell_length_c   8.27811064
_cell_angle_alpha   34.93167456
_cell_angle_beta   34.93167456
_cell_angle_gamma   34.93167456
_symmetry_Int_Tables_number   1
_chemical_formula_structural   Zn2BNCl2O3
_chemical_formula_sum   'Zn2 B1 N1 Cl2 O3'
_cell_volume   166.04962743
_cell_formula_units_Z   1
loop_
 _symmetry_equiv_pos_site_id
 _symmetry_equiv_pos_as_xyz
  1  'x, y, z'
loop_
 _atom_site_type_symbol
 _atom_site_label
 _atom_site_symmetry_multiplicity
 _atom_site_fract_x
 _atom_site_fract_y
 _atom_site_fract_z
 _atom_site_occupancy
  Zn  Zn0  1  0.29944176  0.29944176  0.29944176  1.0
  Zn  Zn1  1  0.70055824  -0.29944176  -0.29944176  1.0
  B  B2  1  0.00000000  0.00000000  0.00000000  1.0
  N  N3  1  0.50000000  0.50000000  -0.50000000  1.0
  Cl  Cl4  1  0.20317021  0.20317021  0.20317021  1.0
  Cl  Cl5  1  0.79682979  -0.20317021  -0.20317021  1.0
  O  O6  1  0.72235574  0.00000000  -0.72235574  1.0
  O  O7  1  0.27764426  -0.27764426  0.00000000  1.0
  O  O8  1  0.00000000  0.27764426  -0.27764426  1.0
