# generated using pymatgen
data_K2Li3FeO4
_symmetry_space_group_name_H-M   'P 1'
_cell_length_a   5.59955509
_cell_length_b   8.85954769
_cell_length_c   11.08052117
_cell_angle_alpha   90.00000000
_cell_angle_beta   111.09515398
_cell_angle_gamma   90.00000000
_symmetry_Int_Tables_number   1
_chemical_formula_structural   K2Li3FeO4
_chemical_formula_sum   'K8 Li12 Fe4 O16'
_cell_volume   512.86072985
_cell_formula_units_Z   4
loop_
 _symmetry_equiv_pos_site_id
 _symmetry_equiv_pos_as_xyz
  1  'x, y, z'
loop_
 _atom_site_type_symbol
 _atom_site_label
 _atom_site_symmetry_multiplicity
 _atom_site_fract_x
 _atom_site_fract_y
 _atom_site_fract_z
 _atom_site_occupancy
  K  K0  1  0.70976117  0.99262348  0.36253340  1.0
  K  K1  1  0.70976117  0.50737652  0.86253340  1.0
  K  K2  1  0.29023883  0.49262348  0.13746660  1.0
  K  K3  1  0.29023883  0.00737652  0.63746660  1.0
  K  K4  1  0.28068385  0.22812831  0.39013323  1.0
  K  K5  1  0.28068385  0.27187169  0.89013323  1.0
  K  K6  1  0.71931615  0.72812831  0.10986677  1.0
  K  K7  1  0.71931615  0.77187169  0.60986677  1.0
  Li  Li8  1  0.90446349  0.46672853  0.29810426  1.0
  Li  Li9  1  0.90446349  0.03327147  0.79810426  1.0
  Li  Li10  1  0.09553651  0.96672853  0.20189574  1.0
  Li  Li11  1  0.09553651  0.53327147  0.70189574  1.0
  Li  Li12  1  0.62855508  0.99291440  0.92973682  1.0
  Li  Li13  1  0.62855508  0.50708560  0.42973682  1.0
  Li  Li14  1  0.37144492  0.49291440  0.57026318  1.0
  Li  Li15  1  0.37144492  0.00708560  0.07026318  1.0
  Li  Li16  1  0.62090990  0.23819233  0.19959983  1.0
  Li  Li17  1  0.62090990  0.26180767  0.69959983  1.0
  Li  Li18  1  0.37909010  0.73819233  0.30040017  1.0
  Li  Li19  1  0.37909010  0.76180767  0.80040017  1.0
  Fe  Fe20  1  0.90011868  0.21175610  0.06262005  1.0
  Fe  Fe21  1  0.90011868  0.28824390  0.56262005  1.0
  Fe  Fe22  1  0.09988132  0.71175610  0.43737995  1.0
  Fe  Fe23  1  0.09988132  0.78824390  0.93737995  1.0
  O  O24  1  0.78287929  0.39234730  0.11639084  1.0
  O  O25  1  0.78287929  0.10765270  0.61639084  1.0
  O  O26  1  0.21712071  0.89234730  0.38360916  1.0
  O  O27  1  0.21712071  0.60765270  0.88360916  1.0
  O  O28  1  0.76451345  0.31042704  0.37928294  1.0
  O  O29  1  0.76451345  0.18957296  0.87928294  1.0
  O  O30  1  0.23548655  0.81042704  0.12071706  1.0
  O  O31  1  0.23548655  0.68957296  0.62071706  1.0
  O  O32  1  0.74302686  0.67566821  0.35586510  1.0
  O  O33  1  0.74302686  0.82433179  0.85586510  1.0
  O  O34  1  0.25697314  0.17566821  0.14413490  1.0
  O  O35  1  0.25697314  0.32433179  0.64413490  1.0
  O  O36  1  0.74222568  0.04887378  0.12231497  1.0
  O  O37  1  0.74222568  0.45112622  0.62231497  1.0
  O  O38  1  0.25777432  0.54887378  0.37768503  1.0
  O  O39  1  0.25777432  0.95112622  0.87768503  1.0
