# generated using pymatgen
data_CdCu2SiSe4
_symmetry_space_group_name_H-M   'P 1'
_cell_length_a   8.09222060
_cell_length_b   6.88895621
_cell_length_c   6.63215525
_cell_angle_alpha   90.00000000
_cell_angle_beta   90.00000000
_cell_angle_gamma   90.00000000
_symmetry_Int_Tables_number   1
_chemical_formula_structural   CdCu2SiSe4
_chemical_formula_sum   'Cd2 Cu4 Si2 Se8'
_cell_volume   369.72244943
_cell_formula_units_Z   2
loop_
 _symmetry_equiv_pos_site_id
 _symmetry_equiv_pos_as_xyz
  1  'x, y, z'
loop_
 _atom_site_type_symbol
 _atom_site_label
 _atom_site_symmetry_multiplicity
 _atom_site_fract_x
 _atom_site_fract_y
 _atom_site_fract_z
 _atom_site_occupancy
  Cd  Cd0  1  0.50000000  0.65014429  0.00615638  1.0
  Cd  Cd1  1  0.00000000  0.34985571  0.50615638  1.0
  Cu  Cu2  1  0.24781269  0.17545073  0.01134008  1.0
  Cu  Cu3  1  0.74781269  0.82454927  0.51134008  1.0
  Cu  Cu4  1  0.75218731  0.17545073  0.01134008  1.0
  Cu  Cu5  1  0.25218731  0.82454927  0.51134008  1.0
  Si  Si6  1  0.50000000  0.32228902  0.50412126  1.0
  Si  Si7  1  0.00000000  0.67771098  0.00412126  1.0
  Se  Se8  1  0.27189741  0.15657609  0.37670391  1.0
  Se  Se9  1  0.77189741  0.84342391  0.87670391  1.0
  Se  Se10  1  0.72810259  0.15657609  0.37670391  1.0
  Se  Se11  1  0.22810259  0.84342391  0.87670391  1.0
  Se  Se12  1  0.50000000  0.29190409  0.85496144  1.0
  Se  Se13  1  0.00000000  0.70809591  0.35496144  1.0
  Se  Se14  1  0.50000000  0.64822583  0.41117295  1.0
  Se  Se15  1  0.00000000  0.35177417  0.91117295  1.0
