# generated using pymatgen
data_Ca5Ir
_symmetry_space_group_name_H-M   'P 1'
_cell_length_a   7.63238866
_cell_length_b   15.69159018
_cell_length_c   6.77987533
_cell_angle_alpha   90.00000000
_cell_angle_beta   90.00000000
_cell_angle_gamma   90.00000000
_symmetry_Int_Tables_number   1
_chemical_formula_structural   Ca5Ir
_chemical_formula_sum   'Ca20 Ir4'
_cell_volume   811.98712482
_cell_formula_units_Z   4
loop_
 _symmetry_equiv_pos_site_id
 _symmetry_equiv_pos_as_xyz
  1  'x, y, z'
loop_
 _atom_site_type_symbol
 _atom_site_label
 _atom_site_symmetry_multiplicity
 _atom_site_fract_x
 _atom_site_fract_y
 _atom_site_fract_z
 _atom_site_occupancy
  Ca  Ca0  1  0.46552298  0.35527945  0.82408319  1.0
  Ca  Ca1  1  0.46552298  0.14472055  0.82408319  1.0
  Ca  Ca2  1  0.96552298  0.35527945  0.67591681  1.0
  Ca  Ca3  1  0.96552298  0.14472055  0.67591681  1.0
  Ca  Ca4  1  0.53447702  0.85527945  0.17591681  1.0
  Ca  Ca5  1  0.53447702  0.64472055  0.17591681  1.0
  Ca  Ca6  1  0.03447702  0.85527945  0.32408319  1.0
  Ca  Ca7  1  0.03447702  0.64472055  0.32408319  1.0
  Ca  Ca8  1  0.19206481  0.93344211  0.85875711  1.0
  Ca  Ca9  1  0.19206481  0.56655789  0.85875711  1.0
  Ca  Ca10  1  0.69206481  0.93344211  0.64124289  1.0
  Ca  Ca11  1  0.69206481  0.56655789  0.64124289  1.0
  Ca  Ca12  1  0.80793519  0.43344211  0.14124289  1.0
  Ca  Ca13  1  0.80793519  0.06655789  0.14124289  1.0
  Ca  Ca14  1  0.30793519  0.43344211  0.35875711  1.0
  Ca  Ca15  1  0.30793519  0.06655789  0.35875711  1.0
  Ca  Ca16  1  0.40541481  0.75000000  0.65235720  1.0
  Ca  Ca17  1  0.90541481  0.75000000  0.84764280  1.0
  Ca  Ca18  1  0.59458519  0.25000000  0.34764280  1.0
  Ca  Ca19  1  0.09458519  0.25000000  0.15235720  1.0
  Ir  Ir20  1  0.23931940  0.75000000  0.03600952  1.0
  Ir  Ir21  1  0.73931940  0.75000000  0.46399048  1.0
  Ir  Ir22  1  0.76068060  0.25000000  0.96399048  1.0
  Ir  Ir23  1  0.26068060  0.25000000  0.53600952  1.0
