# generated using pymatgen
data_La3C3Cl2
_symmetry_space_group_name_H-M   'P 1'
_cell_length_a   7.83049632
_cell_length_b   13.01675587
_cell_length_c   6.97219871
_cell_angle_alpha   90.00000000
_cell_angle_beta   103.75491835
_cell_angle_gamma   90.00000000
_symmetry_Int_Tables_number   1
_chemical_formula_structural   La3C3Cl2
_chemical_formula_sum   'La12 C12 Cl8'
_cell_volume   690.27934787
_cell_formula_units_Z   4
loop_
 _symmetry_equiv_pos_site_id
 _symmetry_equiv_pos_as_xyz
  1  'x, y, z'
loop_
 _atom_site_type_symbol
 _atom_site_label
 _atom_site_symmetry_multiplicity
 _atom_site_fract_x
 _atom_site_fract_y
 _atom_site_fract_z
 _atom_site_occupancy
  La  La0  1  0.76404223  0.35025574  0.86177554  1.0
  La  La1  1  0.76404223  0.14974426  0.36177554  1.0
  La  La2  1  0.23595777  0.85025574  0.63822446  1.0
  La  La3  1  0.23595777  0.64974426  0.13822446  1.0
  La  La4  1  0.68940669  0.99158242  0.87393177  1.0
  La  La5  1  0.68940669  0.50841758  0.37393177  1.0
  La  La6  1  0.31059331  0.49158242  0.62606823  1.0
  La  La7  1  0.31059331  0.00841758  0.12606823  1.0
  La  La8  1  0.61602094  0.67839636  0.86441666  1.0
  La  La9  1  0.61602094  0.82160364  0.36441666  1.0
  La  La10  1  0.38397906  0.17839636  0.63558334  1.0
  La  La11  1  0.38397906  0.32160364  0.13558334  1.0
  C  C12  1  0.55793100  0.46991161  0.97044691  1.0
  C  C13  1  0.55793100  0.03008839  0.47044691  1.0
  C  C14  1  0.44206900  0.96991161  0.52955309  1.0
  C  C15  1  0.44206900  0.53008839  0.02955309  1.0
  C  C16  1  0.49277684  0.86748986  0.97176125  1.0
  C  C17  1  0.49277684  0.63251014  0.47176125  1.0
  C  C18  1  0.50722316  0.36748986  0.52823875  1.0
  C  C19  1  0.50722316  0.13251014  0.02823875  1.0
  C  C20  1  0.38508141  0.70446015  0.52159506  1.0
  C  C21  1  0.38508141  0.79553985  0.02159506  1.0
  C  C22  1  0.61491859  0.20446015  0.97840494  1.0
  C  C23  1  0.61491859  0.29553985  0.47840494  1.0
  Cl  Cl24  1  0.94698870  0.55682986  0.75946286  1.0
  Cl  Cl25  1  0.94698870  0.94317014  0.25946286  1.0
  Cl  Cl26  1  0.05301130  0.05682986  0.74053714  1.0
  Cl  Cl27  1  0.05301130  0.44317014  0.24053714  1.0
  Cl  Cl28  1  0.88035495  0.81420365  0.75701888  1.0
  Cl  Cl29  1  0.88035495  0.68579635  0.25701888  1.0
  Cl  Cl30  1  0.11964505  0.31420365  0.74298112  1.0
  Cl  Cl31  1  0.11964505  0.18579635  0.24298112  1.0
