# generated using pymatgen
data_Ta2Al
_symmetry_space_group_name_H-M   'P 1'
_cell_length_a   9.92771917
_cell_length_b   9.92771917
_cell_length_c   5.21143492
_cell_angle_alpha   90.00000000
_cell_angle_beta   90.00000000
_cell_angle_gamma   90.00000000
_symmetry_Int_Tables_number   1
_chemical_formula_structural   Ta2Al
_chemical_formula_sum   'Ta20 Al10'
_cell_volume   513.63698193
_cell_formula_units_Z   10
loop_
 _symmetry_equiv_pos_site_id
 _symmetry_equiv_pos_as_xyz
  1  'x, y, z'
loop_
 _atom_site_type_symbol
 _atom_site_label
 _atom_site_symmetry_multiplicity
 _atom_site_fract_x
 _atom_site_fract_y
 _atom_site_fract_z
 _atom_site_occupancy
  Ta  Ta0  1  0.18140995  0.81859005  0.25171289  1.0
  Ta  Ta1  1  0.18140995  0.81859005  0.74828711  1.0
  Ta  Ta2  1  0.68140995  0.68140995  0.75171289  1.0
  Ta  Ta3  1  0.68140995  0.68140995  0.24828711  1.0
  Ta  Ta4  1  0.81859005  0.18140995  0.25171289  1.0
  Ta  Ta5  1  0.81859005  0.18140995  0.74828711  1.0
  Ta  Ta6  1  0.31859005  0.31859005  0.75171289  1.0
  Ta  Ta7  1  0.31859005  0.31859005  0.24828711  1.0
  Ta  Ta8  1  0.37069892  0.03581660  0.50000000  1.0
  Ta  Ta9  1  0.87069892  0.46418340  -0.00000000  1.0
  Ta  Ta10  1  0.96418340  0.62930108  0.50000000  1.0
  Ta  Ta11  1  0.46418340  0.87069892  -0.00000000  1.0
  Ta  Ta12  1  0.62930108  0.96418340  0.50000000  1.0
  Ta  Ta13  1  0.12930108  0.53581660  -0.00000000  1.0
  Ta  Ta14  1  0.03581660  0.37069892  0.50000000  1.0
  Ta  Ta15  1  0.53581660  0.12930108  -0.00000000  1.0
  Ta  Ta16  1  0.10212499  0.10212499  0.50000000  1.0
  Ta  Ta17  1  0.60212499  0.39787501  0.00000000  1.0
  Ta  Ta18  1  0.89787501  0.89787501  0.50000000  1.0
  Ta  Ta19  1  0.39787501  0.60212499  0.00000000  1.0
  Al  Al20  1  0.43351808  0.76260403  0.50000000  1.0
  Al  Al21  1  0.93351808  0.73739597  0.00000000  1.0
  Al  Al22  1  0.23739597  0.56648192  0.50000000  1.0
  Al  Al23  1  0.73739597  0.93351808  0.00000000  1.0
  Al  Al24  1  0.56648192  0.23739597  0.50000000  1.0
  Al  Al25  1  0.06648192  0.26260403  0.00000000  1.0
  Al  Al26  1  0.76260403  0.43351808  0.50000000  1.0
  Al  Al27  1  0.26260403  0.06648192  0.00000000  1.0
  Al  Al28  1  0.50000000  0.50000000  0.50000000  1.0
  Al  Al29  1  0.00000000  0.00000000  -0.00000000  1.0
