# generated using pymatgen
data_MgO
_symmetry_space_group_name_H-M   'P 1'
_cell_length_a   2.99637900
_cell_length_b   2.99637900
_cell_length_c   29.76606370
_cell_angle_alpha   90.00000000
_cell_angle_beta   90.00000000
_cell_angle_gamma   120.00000000
_symmetry_Int_Tables_number   1
_chemical_formula_structural   MgO
_chemical_formula_sum   'Mg12 O12'
_cell_volume   231.44378689
_cell_formula_units_Z   12
loop_
 _symmetry_equiv_pos_site_id
 _symmetry_equiv_pos_as_xyz
  1  'x, y, z'
loop_
 _atom_site_type_symbol
 _atom_site_label
 _atom_site_symmetry_multiplicity
 _atom_site_fract_x
 _atom_site_fract_y
 _atom_site_fract_z
 _atom_site_occupancy
  Mg  Mg0  1  0.33333333  0.66666667  0.83502691  1.0
  Mg  Mg1  1  0.66666667  0.33333333  0.16497309  1.0
  Mg  Mg2  1  0.66666667  0.33333333  0.33502691  1.0
  Mg  Mg3  1  0.33333333  0.66666667  0.66497309  1.0
  Mg  Mg4  1  0.33333333  0.66666667  0.41750966  1.0
  Mg  Mg5  1  0.66666667  0.33333333  0.58249034  1.0
  Mg  Mg6  1  0.66666667  0.33333333  0.91750966  1.0
  Mg  Mg7  1  0.33333333  0.66666667  0.08249034  1.0
  Mg  Mg8  1  0.00000000  0.00000000  0.25000000  1.0
  Mg  Mg9  1  0.00000000  0.00000000  0.75000000  1.0
  Mg  Mg10  1  0.00000000  0.00000000  0.00000000  1.0
  Mg  Mg11  1  0.00000000  0.00000000  0.50000000  1.0
  O  O12  1  0.33333333  0.66666667  0.95875892  1.0
  O  O13  1  0.66666667  0.33333333  0.04124108  1.0
  O  O14  1  0.66666667  0.33333333  0.45875892  1.0
  O  O15  1  0.33333333  0.66666667  0.54124108  1.0
  O  O16  1  0.33333333  0.66666667  0.20608769  1.0
  O  O17  1  0.66666667  0.33333333  0.79391231  1.0
  O  O18  1  0.66666667  0.33333333  0.70608769  1.0
  O  O19  1  0.33333333  0.66666667  0.29391231  1.0
  O  O20  1  0.00000000  0.00000000  0.12373332  1.0
  O  O21  1  0.00000000  0.00000000  0.87626668  1.0
  O  O22  1  0.00000000  0.00000000  0.62373332  1.0
  O  O23  1  0.00000000  0.00000000  0.37626668  1.0
