# generated using pymatgen
data_V(HO)2
_symmetry_space_group_name_H-M   'P 1'
_cell_length_a   5.34999910
_cell_length_b   4.75040818
_cell_length_c   3.27214988
_cell_angle_alpha   90.00000000
_cell_angle_beta   90.00000000
_cell_angle_gamma   90.00000000
_symmetry_Int_Tables_number   1
_chemical_formula_structural   V(HO)2
_chemical_formula_sum   'V2 H4 O4'
_cell_volume   83.16064016
_cell_formula_units_Z   2
loop_
 _symmetry_equiv_pos_site_id
 _symmetry_equiv_pos_as_xyz
  1  'x, y, z'
loop_
 _atom_site_type_symbol
 _atom_site_label
 _atom_site_symmetry_multiplicity
 _atom_site_fract_x
 _atom_site_fract_y
 _atom_site_fract_z
 _atom_site_occupancy
  V  V0  1  0.50000000  0.50000000  0.50000000  1.0
  V  V1  1  0.00000000  0.00000000  -0.00000000  1.0
  H  H2  1  0.66693035  -0.01796306  0.50000000  1.0
  H  H3  1  0.33306965  1.01796306  0.50000000  1.0
  H  H4  1  0.16693035  0.51796306  0.00000000  1.0
  H  H5  1  0.83306965  0.48203694  0.00000000  1.0
  O  O6  1  0.76943421  0.15342437  0.50000000  1.0
  O  O7  1  0.23056579  0.84657563  0.50000000  1.0
  O  O8  1  0.26943421  0.34657563  -0.00000000  1.0
  O  O9  1  0.73056579  0.65342437  -0.00000000  1.0
