# generated using pymatgen
data_SmAsO4
_symmetry_space_group_name_H-M   'P 1'
_cell_length_a   6.84854950
_cell_length_b   6.84854950
_cell_length_c   6.84854950
_cell_angle_alpha   135.62491437
_cell_angle_beta   135.62491437
_cell_angle_gamma   64.56075958
_symmetry_Int_Tables_number   1
_chemical_formula_structural   SmAsO4
_chemical_formula_sum   'Sm2 As2 O8'
_cell_volume   154.91583091
_cell_formula_units_Z   2
loop_
 _symmetry_equiv_pos_site_id
 _symmetry_equiv_pos_as_xyz
  1  'x, y, z'
loop_
 _atom_site_type_symbol
 _atom_site_label
 _atom_site_symmetry_multiplicity
 _atom_site_fract_x
 _atom_site_fract_y
 _atom_site_fract_z
 _atom_site_occupancy
  Sm  Sm0  1  0.25000000  0.75000000  0.50000000  1.0
  Sm  Sm1  1  0.50000000  0.50000000  -0.00000000  1.0
  As  As2  1  0.75000000  0.25000000  0.50000000  1.0
  As  As3  1  1.00000000  1.00000000  1.00000000  1.0
  O  O4  1  0.81269632  0.41841998  0.89101118  1.0
  O  O5  1  0.52740880  0.92168514  1.10898882  1.0
  O  O6  1  0.67168514  1.06269632  0.89427634  1.0
  O  O7  1  1.16841998  0.77740880  1.10572366  1.0
  O  O8  1  0.93730368  0.83158002  0.60898882  1.0
  O  O9  1  1.22259120  1.32831486  1.39101118  1.0
  O  O10  1  1.07831486  1.18730368  1.60572366  1.0
  O  O11  1  0.58158002  0.47259120  0.39427634  1.0
