# generated using pymatgen
data_Si5O8
_symmetry_space_group_name_H-M   'P 1'
_cell_length_a   7.04187558
_cell_length_b   7.04187558
_cell_length_c   9.25754220
_cell_angle_alpha   84.26991927
_cell_angle_beta   95.73008073
_cell_angle_gamma   120.20456203
_symmetry_Int_Tables_number   1
_chemical_formula_structural   Si5O8
_chemical_formula_sum   'Si10 O16'
_cell_volume   394.09834763
_cell_formula_units_Z   2
loop_
 _symmetry_equiv_pos_site_id
 _symmetry_equiv_pos_as_xyz
  1  'x, y, z'
loop_
 _atom_site_type_symbol
 _atom_site_label
 _atom_site_symmetry_multiplicity
 _atom_site_fract_x
 _atom_site_fract_y
 _atom_site_fract_z
 _atom_site_occupancy
  O  O0  1  0.58515657  0.16950401  0.65508587  1.0
  O  O1  1  0.80378827  0.42338643  0.13827773  1.0
  O  O2  1  0.65987138  0.41974865  0.43181329  1.0
  O  O3  1  0.42338643  -0.19621173  0.86172227  1.0
  O  O4  1  1.14258110  0.77354499  0.60978286  1.0
  O  O5  1  1.33733466  0.57631086  0.10209003  1.0
  O  O6  1  0.41974865  -0.34012862  0.56818671  1.0
  O  O7  1  1.16950401  0.58515657  0.34491413  1.0
  O  O8  1  0.57631086  0.33733466  0.89790997  1.0
  O  O9  1  0.77354499  0.14258110  0.39021714  1.0
  O  O10  1  0.99858474  0.34772755  0.62623766  1.0
  O  O11  1  0.73640846  0.73640846  -0.00000000  1.0
  O  O12  1  0.34772755  -0.00141526  0.37376234  1.0
  O  O13  1  1.00053740  0.65392537  0.88190000  1.0
  O  O14  1  0.22020059  0.22020059  0.50000000  1.0
  O  O15  1  0.65392537  0.00053740  0.11810000  1.0
  Si  Si16  1  0.76595034  0.27497347  0.52729877  1.0
  Si  Si17  1  0.78435742  0.53843966  0.97929876  1.0
  Si  Si18  1  0.39443532  0.25550086  0.37947065  1.0
  Si  Si19  1  0.21056450  -0.17304722  0.78558687  1.0
  Si  Si20  1  0.53843966  -0.21564258  0.02070124  1.0
  Si  Si21  1  1.25550086  0.39443532  0.62052935  1.0
  Si  Si22  1  0.27497347  -0.23404966  0.47270123  1.0
  Si  Si23  1  0.82695278  0.21056450  0.21441313  1.0
  Si  Si24  1  1.20967364  0.42222098  0.24234068  1.0
  Si  Si25  1  0.42222098  0.20967364  0.75765932  1.0
