# generated using pymatgen
data_FeWN2
_symmetry_space_group_name_H-M   'P 1'
_cell_length_a   5.62347149
_cell_length_b   5.62347149
_cell_length_c   5.62347149
_cell_angle_alpha   30.26890114
_cell_angle_beta   30.26890114
_cell_angle_gamma   30.26890114
_symmetry_Int_Tables_number   1
_chemical_formula_structural   FeWN2
_chemical_formula_sum   'Fe1 W1 N2'
_cell_volume   40.03840604
_cell_formula_units_Z   1
loop_
 _symmetry_equiv_pos_site_id
 _symmetry_equiv_pos_as_xyz
  1  'x, y, z'
loop_
 _atom_site_type_symbol
 _atom_site_label
 _atom_site_symmetry_multiplicity
 _atom_site_fract_x
 _atom_site_fract_y
 _atom_site_fract_z
 _atom_site_occupancy
  Fe  Fe0  1  1.50000000  0.50000000  0.50000000  1.0
  W  W1  1  0.00000000  0.00000000  -0.00000000  1.0
  N  N2  1  0.74794767  0.74794767  0.74794767  1.0
  N  N3  1  1.25205233  1.25205233  0.25205233  1.0
