# generated using pymatgen
data_Mg(BiO3)2
_symmetry_space_group_name_H-M   'P 1'
_cell_length_a   4.91736605
_cell_length_b   4.91736605
_cell_length_c   9.89442408
_cell_angle_alpha   90.00000000
_cell_angle_beta   90.00000000
_cell_angle_gamma   90.00000000
_symmetry_Int_Tables_number   1
_chemical_formula_structural   Mg(BiO3)2
_chemical_formula_sum   'Mg2 Bi4 O12'
_cell_volume   239.25201141
_cell_formula_units_Z   2
loop_
 _symmetry_equiv_pos_site_id
 _symmetry_equiv_pos_as_xyz
  1  'x, y, z'
loop_
 _atom_site_type_symbol
 _atom_site_label
 _atom_site_symmetry_multiplicity
 _atom_site_fract_x
 _atom_site_fract_y
 _atom_site_fract_z
 _atom_site_occupancy
  Mg  Mg0  1  0.50000000  0.50000000  0.50000000  1.0
  Mg  Mg1  1  0.00000000  0.00000000  0.00000000  1.0
  Bi  Bi2  1  0.50000000  0.50000000  0.16720240  1.0
  Bi  Bi3  1  0.50000000  0.50000000  0.83279760  1.0
  Bi  Bi4  1  0.00000000  0.00000000  0.66720240  1.0
  Bi  Bi5  1  0.00000000  0.00000000  0.33279760  1.0
  O  O6  1  0.19148619  0.80851381  0.16470921  1.0
  O  O7  1  0.19148619  0.80851381  0.83529079  1.0
  O  O8  1  0.69148619  0.69148619  0.66470921  1.0
  O  O9  1  0.69148619  0.69148619  0.33529079  1.0
  O  O10  1  0.80851381  0.19148619  0.16470921  1.0
  O  O11  1  0.80851381  0.19148619  0.83529079  1.0
  O  O12  1  0.30851381  0.30851381  0.66470921  1.0
  O  O13  1  0.30851381  0.30851381  0.33529079  1.0
  O  O14  1  0.19666507  0.80333493  0.50000000  1.0
  O  O15  1  0.69666507  0.69666507  0.00000000  1.0
  O  O16  1  0.80333493  0.19666507  0.50000000  1.0
  O  O17  1  0.30333493  0.30333493  0.00000000  1.0
