# generated using pymatgen
data_C
_symmetry_space_group_name_H-M   'P 1'
_cell_length_a   8.94309200
_cell_length_b   8.94309200
_cell_length_c   8.94309200
_cell_angle_alpha   122.18977837
_cell_angle_beta   123.20467030
_cell_angle_gamma   85.39092891
_symmetry_Int_Tables_number   1
_chemical_formula_structural   C
_chemical_formula_sum   C60
_cell_volume   483.38595544
_cell_formula_units_Z   60
loop_
 _symmetry_equiv_pos_site_id
 _symmetry_equiv_pos_as_xyz
  1  'x, y, z'
loop_
 _atom_site_type_symbol
 _atom_site_label
 _atom_site_symmetry_multiplicity
 _atom_site_fract_x
 _atom_site_fract_y
 _atom_site_fract_z
 _atom_site_occupancy
  C  C0  1  0.63883191  0.70206842  0.73455636  1.0
  C  C1  1  1.03248794  1.09572445  1.73455636  1.0
  C  C2  1  0.96751206  0.70206842  1.06323651  1.0
  C  C3  1  0.36116809  1.09572445  1.06323651  1.0
  C  C4  1  0.63883191  0.90427555  0.93676349  1.0
  C  C5  1  1.03248794  0.29793158  0.93676349  1.0
  C  C6  1  0.96751206  0.90427555  1.26544364  1.0
  C  C7  1  0.36116809  0.29793158  0.26544364  1.0
  C  C8  1  0.46615066  0.43960456  0.69192014  1.0
  C  C9  1  1.25231558  1.22576948  1.69192014  1.0
  C  C10  1  0.74768442  0.43960456  0.97345390  1.0
  C  C11  1  0.53384934  1.22576948  0.97345390  1.0
  C  C12  1  0.46615066  0.77423052  1.02654610  1.0
  C  C13  1  1.25231558  0.56039544  1.02654610  1.0
  C  C14  1  0.74768442  0.77423052  1.30807986  1.0
  C  C15  1  0.53384934  0.56039544  0.30807986  1.0
  C  C16  1  0.45105086  0.65150853  0.53087646  1.0
  C  C17  1  0.87936792  1.07982560  1.53087646  1.0
  C  C18  1  1.12063208  0.65150853  1.20045767  1.0
  C  C19  1  0.54894914  1.07982560  1.20045767  1.0
  C  C20  1  0.45105086  0.92017440  0.79954233  1.0
  C  C21  1  0.87936792  0.34849147  0.79954233  1.0
  C  C22  1  1.12063208  0.92017440  1.46912354  1.0
  C  C23  1  0.54894914  0.34849147  0.46912354  1.0
  C  C24  1  0.80327528  0.73405329  0.72403285  1.0
  C  C25  1  0.98997957  0.92075757  1.72403285  1.0
  C  C26  1  1.01002043  0.73405329  0.93077800  1.0
  C  C27  1  0.19672472  0.92075757  0.93077800  1.0
  C  C28  1  0.80327528  1.07924243  1.06922200  1.0
  C  C29  1  0.98997957  0.26594671  1.06922200  1.0
  C  C30  1  1.01002043  1.07924243  1.27596715  1.0
  C  C31  1  0.19672472  0.26594671  0.27596715  1.0
  C  C32  1  0.62164317  0.50872656  0.70043378  1.0
  C  C33  1  1.19170723  1.07879061  1.70043378  1.0
  C  C34  1  0.80829277  0.50872656  0.88708339  1.0
  C  C35  1  0.37835683  1.07879061  0.88708339  1.0
  C  C36  1  0.62164317  0.92120939  1.11291661  1.0
  C  C37  1  1.19170723  0.49127344  1.11291661  1.0
  C  C38  1  0.80829277  0.92120939  1.29956622  1.0
  C  C39  1  0.37835683  0.49127344  0.29956622  1.0
  C  C40  1  0.72608714  0.64583281  0.48209625  1.0
  C  C41  1  0.83626344  0.75600910  1.48209625  1.0
  C  C42  1  1.16373656  0.64583281  0.91974566  1.0
  C  C43  1  0.27391286  0.75600910  0.91974566  1.0
  C  C44  1  0.72608714  1.24399090  1.08025434  1.0
  C  C45  1  0.83626344  0.35416719  1.08025434  1.0
  C  C46  1  1.16373656  1.24399090  1.51790375  1.0
  C  C47  1  0.27391286  0.35416719  0.51790375  1.0
  C  C48  1  0.86715522  0.92393786  1.79109307  1.0
  C  C49  1  0.13284478  0.92393786  1.05678264  1.0
  C  C50  1  0.86715522  0.07606214  0.94321736  1.0
  C  C51  1  0.13284478  0.07606214  0.20890693  1.0
  C  C52  1  0.55189369  0.40112226  0.84922857  1.0
  C  C53  1  0.44810631  1.29733488  0.84922857  1.0
  C  C54  1  0.55189369  0.70266512  1.15077143  1.0
  C  C55  1  0.44810631  0.59887774  0.15077143  1.0
  C  C56  1  0.35849327  0.77622833  0.58226494  1.0
  C  C57  1  0.80603661  0.22377167  0.58226494  1.0
  C  C58  1  1.19396339  0.77622833  1.41773506  1.0
  C  C59  1  0.64150673  0.22377167  0.41773506  1.0
