# generated using pymatgen
data_Ti3(BiO3)4
_symmetry_space_group_name_H-M   'P 1'
_cell_length_a   9.48137065
_cell_length_b   9.48137065
_cell_length_c   9.48137065
_cell_angle_alpha   109.47122063
_cell_angle_beta   109.47122063
_cell_angle_gamma   109.47122063
_symmetry_Int_Tables_number   1
_chemical_formula_structural   Ti3(BiO3)4
_chemical_formula_sum   'Ti6 Bi8 O24'
_cell_volume   656.13239767
_cell_formula_units_Z   2
loop_
 _symmetry_equiv_pos_site_id
 _symmetry_equiv_pos_as_xyz
  1  'x, y, z'
loop_
 _atom_site_type_symbol
 _atom_site_label
 _atom_site_symmetry_multiplicity
 _atom_site_fract_x
 _atom_site_fract_y
 _atom_site_fract_z
 _atom_site_occupancy
  Ti  Ti0  1  1.12500000  0.87500000  1.25000000  1.0
  Ti  Ti1  1  0.37500000  0.62500000  0.75000000  1.0
  Ti  Ti2  1  0.25000000  1.12500000  0.87500000  1.0
  Ti  Ti3  1  0.75000000  1.37500000  0.62500000  1.0
  Ti  Ti4  1  0.62500000  0.75000000  0.37500000  1.0
  Ti  Ti5  1  0.87500000  0.25000000  1.12500000  1.0
  Bi  Bi6  1  1.31603744  1.31603744  1.31603744  1.0
  Bi  Bi7  1  1.50000000  1.00000000  1.18396256  1.0
  Bi  Bi8  1  0.81603744  0.81603744  0.81603744  1.0
  Bi  Bi9  1  0.50000000  1.00000000  0.68396256  1.0
  Bi  Bi10  1  1.00000000  1.18396256  1.50000000  1.0
  Bi  Bi11  1  1.18396256  0.50000000  1.00000000  1.0
  Bi  Bi12  1  1.00000000  0.68396256  1.50000000  1.0
  Bi  Bi13  1  0.68396256  1.50000000  1.00000000  1.0
  O  O14  1  1.30478846  1.14698348  1.08763301  1.0
  O  O15  1  1.55935047  1.21715545  1.41236699  1.0
  O  O16  1  0.64698348  0.80478846  0.58763301  1.0
  O  O17  1  0.71715545  1.05935047  0.91236699  1.0
  O  O18  1  1.08763301  1.30478846  1.14698348  1.0
  O  O19  1  0.65780497  0.94064953  0.35301652  1.0
  O  O20  1  0.80478846  0.58763301  0.64698348  1.0
  O  O21  1  0.44064953  1.15780497  0.85301652  1.0
  O  O22  1  1.14698348  1.08763301  1.30478846  1.0
  O  O23  1  1.28284455  0.84219503  1.19521154  1.0
  O  O24  1  0.58763301  0.64698348  0.80478846  1.0
  O  O25  1  0.34219503  0.78284455  0.69521154  1.0
  O  O26  1  0.94064953  1.35301652  0.65780497  1.0
  O  O27  1  1.19521154  1.28284455  1.84219503  1.0
  O  O28  1  0.78284455  0.69521154  0.34219503  1.0
  O  O29  1  0.85301652  0.44064953  1.15780497  1.0
  O  O30  1  1.84219503  1.19521154  1.28284455  1.0
  O  O31  1  0.41236699  0.55935047  0.21715545  1.0
  O  O32  1  1.05935047  0.91236699  1.71715545  1.0
  O  O33  1  0.69521154  1.34219503  0.78284455  1.0
  O  O34  1  1.21715545  1.41236699  1.55935047  1.0
  O  O35  1  0.35301652  0.65780497  0.94064953  1.0
  O  O36  1  1.15780497  0.85301652  1.44064953  1.0
  O  O37  1  0.91236699  1.71715545  1.05935047  1.0
