# generated using pymatgen
data_CdC9Br3N
_symmetry_space_group_name_H-M   'P 1'
_cell_length_a   9.11796010
_cell_length_b   9.11796010
_cell_length_c   6.53471499
_cell_angle_alpha   90.00000000
_cell_angle_beta   90.00000000
_cell_angle_gamma   120.00000000
_symmetry_Int_Tables_number   1
_chemical_formula_structural   CdC9Br3N
_chemical_formula_sum   'Cd2 C18 Br6 N2'
_cell_volume   470.49244838
_cell_formula_units_Z   2
loop_
 _symmetry_equiv_pos_site_id
 _symmetry_equiv_pos_as_xyz
  1  'x, y, z'
loop_
 _atom_site_type_symbol
 _atom_site_label
 _atom_site_symmetry_multiplicity
 _atom_site_fract_x
 _atom_site_fract_y
 _atom_site_fract_z
 _atom_site_occupancy
  Cd  Cd0  1  -0.00000000  -0.00000000  -0.00000000  1.0
  Cd  Cd1  1  -0.00000000  -0.00000000  0.50000000  1.0
  N  N2  1  0.33333333  0.66666667  0.25000000  1.0
  N  N3  1  0.66666667  0.33333333  0.75000000  1.0
  C  C4  1  0.14853406  0.57427559  0.25000000  1.0
  C  C5  1  0.85146594  0.42572441  0.75000000  1.0
  C  C6  1  0.42572441  0.57425847  0.25000000  1.0
  C  C7  1  0.57427559  0.42574153  0.75000000  1.0
  C  C8  1  0.42574153  0.85146594  0.25000000  1.0
  C  C9  1  0.57425847  0.14853406  0.75000000  1.0
  C  C10  1  0.05301424  0.52651571  0.07133457  1.0
  C  C11  1  0.94698576  0.47348429  0.92866543  1.0
  C  C12  1  0.47348429  0.52649852  0.07133457  1.0
  C  C13  1  0.94698576  0.47348429  0.57133457  1.0
  C  C14  1  0.52651571  0.47350148  0.92866543  1.0
  C  C15  1  0.05301424  0.52651571  0.42866543  1.0
  C  C16  1  0.47350148  0.94698576  0.07133457  1.0
  C  C17  1  0.52651571  0.47350148  0.57133457  1.0
  C  C18  1  0.52649852  0.05301424  0.92866543  1.0
  C  C19  1  0.47348429  0.52649852  0.42866543  1.0
  C  C20  1  0.52649852  0.05301424  0.57133457  1.0
  C  C21  1  0.47350148  0.94698576  0.42866543  1.0
  Br  Br22  1  0.27697833  0.13853994  0.25000000  1.0
  Br  Br23  1  0.72302167  0.86146006  0.75000000  1.0
  Br  Br24  1  0.86146006  0.13843839  0.25000000  1.0
  Br  Br25  1  0.13853994  0.86156161  0.75000000  1.0
  Br  Br26  1  0.86156161  0.72302167  0.25000000  1.0
  Br  Br27  1  0.13843839  0.27697833  0.75000000  1.0
