# generated using pymatgen
data_K4HfO4
_symmetry_space_group_name_H-M   'P 1'
_cell_length_a   9.91189937
_cell_length_b   6.60749599
_cell_length_c   6.58003746
_cell_angle_alpha   67.38265039
_cell_angle_beta   71.72925973
_cell_angle_gamma   80.80415291
_symmetry_Int_Tables_number   1
_chemical_formula_structural   K4HfO4
_chemical_formula_sum   'K8 Hf2 O8'
_cell_volume   377.36924891
_cell_formula_units_Z   2
loop_
 _symmetry_equiv_pos_site_id
 _symmetry_equiv_pos_as_xyz
  1  'x, y, z'
loop_
 _atom_site_type_symbol
 _atom_site_label
 _atom_site_symmetry_multiplicity
 _atom_site_fract_x
 _atom_site_fract_y
 _atom_site_fract_z
 _atom_site_occupancy
  K  K0  1  0.98205598  0.76134797  0.24001771  1.0
  K  K1  1  0.01794402  0.23865203  0.75998229  1.0
  K  K2  1  0.61016012  0.23048282  0.95411677  1.0
  K  K3  1  0.38983988  0.76951718  0.04588323  1.0
  K  K4  1  0.82701890  0.27204411  0.39463623  1.0
  K  K5  1  0.17298110  0.72795589  0.60536377  1.0
  K  K6  1  0.56098586  0.73237723  0.48162678  1.0
  K  K7  1  0.43901414  0.26762277  0.51837322  1.0
  Hf  Hf8  1  0.75585484  0.72234291  0.84414932  1.0
  Hf  Hf9  1  0.24414516  0.27765709  0.15585068  1.0
  O  O10  1  0.35699593  0.45587451  0.84693563  1.0
  O  O11  1  0.64300407  0.54412549  0.15306437  1.0
  O  O12  1  0.80574079  0.53668113  0.65487446  1.0
  O  O13  1  0.19425921  0.46331887  0.34512554  1.0
  O  O14  1  0.62918681  0.96371394  0.70680908  1.0
  O  O15  1  0.37081319  0.03628606  0.29319092  1.0
  O  O16  1  0.92143471  0.84755202  0.84886606  1.0
  O  O17  1  0.07856529  0.15244798  0.15113394  1.0
