# generated using pymatgen
data_Ti5TlSe8
_symmetry_space_group_name_H-M   'P 1'
_cell_length_a   9.62651146
_cell_length_b   9.62651146
_cell_length_c   9.22696641
_cell_angle_alpha   75.71012923
_cell_angle_beta   104.28987077
_cell_angle_gamma   158.60781038
_symmetry_Int_Tables_number   1
_chemical_formula_structural   Ti5TlSe8
_chemical_formula_sum   'Ti5 Tl1 Se8'
_cell_volume   301.88334422
_cell_formula_units_Z   1
loop_
 _symmetry_equiv_pos_site_id
 _symmetry_equiv_pos_as_xyz
  1  'x, y, z'
loop_
 _atom_site_type_symbol
 _atom_site_label
 _atom_site_symmetry_multiplicity
 _atom_site_fract_x
 _atom_site_fract_y
 _atom_site_fract_z
 _atom_site_occupancy
  Ti  Ti0  1  0.65223008  -0.65223008  0.49921743  1.0
  Ti  Ti1  1  1.34776992  -0.34776992  0.50078257  1.0
  Ti  Ti2  1  0.00000000  -0.00000000  0.50000000  1.0
  Ti  Ti3  1  0.70904315  -0.70904315  0.84866085  1.0
  Ti  Ti4  1  1.29095685  -0.29095685  0.15133915  1.0
  Se  Se5  1  0.91414775  -0.91414775  0.68041747  1.0
  Se  Se6  1  1.08585225  -0.08585225  0.31958253  1.0
  Se  Se7  1  0.83913907  -0.83913907  1.00157464  1.0
  Se  Se8  1  1.16086093  -0.16086093  -0.00157464  1.0
  Se  Se9  1  0.75775100  -0.75775100  0.33836830  1.0
  Se  Se10  1  1.24224900  -0.24224900  0.66163170  1.0
  Se  Se11  1  0.57318086  -0.57318086  0.67833590  1.0
  Se  Se12  1  1.42681914  -0.42681914  0.32166410  1.0
  Tl  Tl13  1  0.50000000  0.50000000  -0.00000000  1.0
