# generated using pymatgen
data_Ca3CoIrO6
_symmetry_space_group_name_H-M   'P 1'
_cell_length_a   6.45497991
_cell_length_b   6.45497991
_cell_length_c   6.45497991
_cell_angle_alpha   91.41435436
_cell_angle_beta   91.41435436
_cell_angle_gamma   91.41435436
_symmetry_Int_Tables_number   1
_chemical_formula_structural   Ca3CoIrO6
_chemical_formula_sum   'Ca6 Co2 Ir2 O12'
_cell_volume   268.70818712
_cell_formula_units_Z   2
loop_
 _symmetry_equiv_pos_site_id
 _symmetry_equiv_pos_as_xyz
  1  'x, y, z'
loop_
 _atom_site_type_symbol
 _atom_site_label
 _atom_site_symmetry_multiplicity
 _atom_site_fract_x
 _atom_site_fract_y
 _atom_site_fract_z
 _atom_site_occupancy
  Ca  Ca0  1  0.88702759  1.25000000  -0.38702759  1.0
  Ca  Ca1  1  1.38702759  0.11297241  -0.25000000  1.0
  Ca  Ca2  1  0.75000000  0.38702759  0.11297241  1.0
  Ca  Ca3  1  1.25000000  0.61297241  -0.11297241  1.0
  Ca  Ca4  1  1.11297241  -0.25000000  0.38702759  1.0
  Ca  Ca5  1  0.61297241  0.88702759  0.25000000  1.0
  Co  Co6  1  0.25000000  0.25000000  0.25000000  1.0
  Co  Co7  1  0.75000000  0.75000000  0.75000000  1.0
  Ir  Ir8  1  0.50000000  0.50000000  0.50000000  1.0
  Ir  Ir9  1  -0.00000000  -0.00000000  0.00000000  1.0
  O  O10  1  1.20201715  0.40826333  -0.45960759  1.0
  O  O11  1  0.70201716  1.04039241  -0.09173667  1.0
  O  O12  1  0.95960759  0.09173667  0.29798284  1.0
  O  O13  1  1.45960759  -0.20201715  0.59173667  1.0
  O  O14  1  1.59173667  0.45960759  -0.20201715  1.0
  O  O15  1  1.09173667  0.29798285  -0.04039241  1.0
  O  O16  1  0.79798285  0.59173667  0.45960759  1.0
  O  O17  1  1.29798285  -0.04039241  0.09173667  1.0
  O  O18  1  0.54039241  1.20201715  -0.59173667  1.0
  O  O19  1  1.04039241  0.90826333  -0.29798285  1.0
  O  O20  1  0.90826333  0.70201716  0.04039241  1.0
  O  O21  1  0.40826333  0.54039241  0.20201715  1.0
