# generated using pymatgen
data_Mg5Si6
_symmetry_space_group_name_H-M   'P 1'
_cell_length_a   8.15513051
_cell_length_b   8.15513051
_cell_length_c   6.50283090
_cell_angle_alpha   77.85300446
_cell_angle_beta   102.14699554
_cell_angle_gamma   151.72837997
_symmetry_Int_Tables_number   1
_chemical_formula_structural   Mg5Si6
_chemical_formula_sum   'Mg5 Si6'
_cell_volume   199.96350777
_cell_formula_units_Z   1
loop_
 _symmetry_equiv_pos_site_id
 _symmetry_equiv_pos_as_xyz
  1  'x, y, z'
loop_
 _atom_site_type_symbol
 _atom_site_label
 _atom_site_symmetry_multiplicity
 _atom_site_fract_x
 _atom_site_fract_y
 _atom_site_fract_z
 _atom_site_occupancy
  Mg  Mg0  1  0.67249179  -0.67249179  0.45093343  1.0
  Mg  Mg1  1  1.32750821  -0.32750821  0.54906657  1.0
  Mg  Mg2  1  0.59320101  -0.59320101  0.93403397  1.0
  Mg  Mg3  1  1.40679899  -0.40679899  0.06596603  1.0
  Mg  Mg4  1  0.50000000  0.50000000  0.50000000  1.0
  Si  Si5  1  0.95543769  -0.95543769  0.80200518  1.0
  Si  Si6  1  1.04456231  -0.04456231  0.19799482  1.0
  Si  Si7  1  0.80618493  -0.80618493  0.22950036  1.0
  Si  Si8  1  1.19381507  -0.19381507  0.77049964  1.0
  Si  Si9  1  0.79942598  -0.79942598  0.84174626  1.0
  Si  Si10  1  1.20057402  -0.20057402  0.15825374  1.0
