# generated using pymatgen
data_CsH4NF2
_symmetry_space_group_name_H-M   'P 1'
_cell_length_a   7.54645747
_cell_length_b   4.19912868
_cell_length_c   14.03510685
_cell_angle_alpha   90.00000000
_cell_angle_beta   90.00000000
_cell_angle_gamma   90.00000000
_symmetry_Int_Tables_number   1
_chemical_formula_structural   CsH4NF2
_chemical_formula_sum   'Cs4 H16 N4 F8'
_cell_volume   444.75212894
_cell_formula_units_Z   4
loop_
 _symmetry_equiv_pos_site_id
 _symmetry_equiv_pos_as_xyz
  1  'x, y, z'
loop_
 _atom_site_type_symbol
 _atom_site_label
 _atom_site_symmetry_multiplicity
 _atom_site_fract_x
 _atom_site_fract_y
 _atom_site_fract_z
 _atom_site_occupancy
  Cs  Cs0  1  0.85777449  0.75000000  0.36208899  1.0
  Cs  Cs1  1  0.35777449  0.75000000  0.13791101  1.0
  Cs  Cs2  1  0.14222551  0.25000000  0.63791101  1.0
  Cs  Cs3  1  0.64222551  0.25000000  0.86208899  1.0
  H  H4  1  0.55541291  0.75000000  0.65012845  1.0
  H  H5  1  0.05541291  0.75000000  0.84987155  1.0
  H  H6  1  0.44458709  0.25000000  0.34987155  1.0
  H  H7  1  0.94458709  0.25000000  0.15012845  1.0
  H  H8  1  0.77278419  0.75000000  0.67603700  1.0
  H  H9  1  0.27278419  0.75000000  0.82396300  1.0
  H  H10  1  0.22721581  0.25000000  0.32396300  1.0
  H  H11  1  0.72721581  0.25000000  0.17603700  1.0
  H  H12  1  0.79479237  0.45471641  0.07650027  1.0
  H  H13  1  0.79479237  0.04528359  0.07650027  1.0
  H  H14  1  0.29479237  0.45471641  0.42349973  1.0
  H  H15  1  0.29479237  0.04528359  0.42349973  1.0
  H  H16  1  0.20520763  0.95471641  0.92349973  1.0
  H  H17  1  0.20520763  0.54528359  0.92349973  1.0
  H  H18  1  0.70520763  0.95471641  0.57650027  1.0
  H  H19  1  0.70520763  0.54528359  0.57650027  1.0
  N  N20  1  0.68156623  0.75000000  0.61851441  1.0
  N  N21  1  0.18156623  0.75000000  0.88148559  1.0
  N  N22  1  0.31843377  0.25000000  0.38148559  1.0
  N  N23  1  0.81843377  0.25000000  0.11851441  1.0
  F  F24  1  0.89576891  0.75000000  0.76779100  1.0
  F  F25  1  0.39576891  0.75000000  0.73220900  1.0
  F  F26  1  0.10423109  0.25000000  0.23220900  1.0
  F  F27  1  0.60423109  0.25000000  0.26779100  1.0
  F  F28  1  0.71891059  0.75000000  0.01356273  1.0
  F  F29  1  0.21891059  0.75000000  0.48643727  1.0
  F  F30  1  0.28108941  0.25000000  0.98643727  1.0
  F  F31  1  0.78108941  0.25000000  0.51356273  1.0
