# generated using pymatgen
data_NbP2
_symmetry_space_group_name_H-M   'P 1'
_cell_length_a   7.11549882
_cell_length_b   7.11549882
_cell_length_c   7.11549882
_cell_angle_alpha   129.14024348
_cell_angle_beta   129.14024348
_cell_angle_gamma   74.78502053
_symmetry_Int_Tables_number   1
_chemical_formula_structural   NbP2
_chemical_formula_sum   'Nb4 P8'
_cell_volume   211.10726237
_cell_formula_units_Z   4
loop_
 _symmetry_equiv_pos_site_id
 _symmetry_equiv_pos_as_xyz
  1  'x, y, z'
loop_
 _atom_site_type_symbol
 _atom_site_label
 _atom_site_symmetry_multiplicity
 _atom_site_fract_x
 _atom_site_fract_y
 _atom_site_fract_z
 _atom_site_occupancy
  Nb  Nb0  1  0.37500000  0.12500000  0.25000000  1.0
  Nb  Nb1  1  0.87500000  0.12500000  0.75000000  1.0
  Nb  Nb2  1  0.87500000  1.12500000  1.25000000  1.0
  Nb  Nb3  1  0.87500000  0.62500000  0.75000000  1.0
  P  P4  1  1.17194986  0.35125958  0.82069028  1.0
  P  P5  1  1.21943070  0.89874042  1.32069028  1.0
  P  P6  1  0.53056930  0.35125958  0.17930972  1.0
  P  P7  1  0.57805014  0.89874042  0.67930972  1.0
  P  P8  1  0.64874042  0.46943070  0.82069028  1.0
  P  P9  1  0.10125958  0.42194986  0.32069028  1.0
  P  P10  1  0.64874042  0.82805014  1.17930972  1.0
  P  P11  1  0.10125958  0.78056930  0.67930972  1.0
