# generated using pymatgen
data_NbP2NCl12
_symmetry_space_group_name_H-M   'P 1'
_cell_length_a   8.48602840
_cell_length_b   8.48602840
_cell_length_c   16.13631637
_cell_angle_alpha   78.50216494
_cell_angle_beta   101.49783506
_cell_angle_gamma   113.47285515
_symmetry_Int_Tables_number   1
_chemical_formula_structural   NbP2NCl12
_chemical_formula_sum   'Nb2 P4 N2 Cl24'
_cell_volume   1035.13177888
_cell_formula_units_Z   2
loop_
 _symmetry_equiv_pos_site_id
 _symmetry_equiv_pos_as_xyz
  1  'x, y, z'
loop_
 _atom_site_type_symbol
 _atom_site_label
 _atom_site_symmetry_multiplicity
 _atom_site_fract_x
 _atom_site_fract_y
 _atom_site_fract_z
 _atom_site_occupancy
  Nb  Nb0  1  0.00000000  -0.00000000  0.50000000  1.0
  Nb  Nb1  1  0.00000000  0.00000000  0.00000000  1.0
  P  P2  1  0.43780081  -0.34457527  0.22255428  1.0
  P  P3  1  1.34457527  0.56219919  0.72255428  1.0
  P  P4  1  0.65542473  -0.56219919  0.27744572  1.0
  P  P5  1  1.56219919  0.34457527  0.77744572  1.0
  N  N6  1  0.59381062  -0.40618938  0.25000000  1.0
  N  N7  1  1.40618938  0.40618938  0.75000000  1.0
  Cl  Cl8  1  0.71257528  -0.20757979  0.97998758  1.0
  Cl  Cl9  1  1.20757979  0.28742472  0.47998758  1.0
  Cl  Cl10  1  0.79242021  -0.28742472  0.52001242  1.0
  Cl  Cl11  1  1.28742472  0.20757979  0.02001242  1.0
  Cl  Cl12  1  1.87444876  0.03387712  0.35579050  1.0
  Cl  Cl13  1  0.96612288  -0.87444876  0.85579050  1.0
  Cl  Cl14  1  1.03387712  0.87444876  0.14420950  1.0
  Cl  Cl15  1  0.12555124  -0.03387712  0.64420950  1.0
  Cl  Cl16  1  0.36625949  -0.29494938  0.32163707  1.0
  Cl  Cl17  1  1.29494938  0.63374051  0.82163707  1.0
  Cl  Cl18  1  0.70505062  -0.63374051  0.17836293  1.0
  Cl  Cl19  1  1.63374051  0.29494938  0.67836293  1.0
  Cl  Cl20  1  0.50642741  -0.12617521  0.14318500  1.0
  Cl  Cl21  1  1.12617521  0.49357259  0.64318500  1.0
  Cl  Cl22  1  0.87382479  -0.49357259  0.35681500  1.0
  Cl  Cl23  1  1.49357259  0.12617521  0.85681500  1.0
  Cl  Cl24  1  0.19091383  -0.10566836  0.45806948  1.0
  Cl  Cl25  1  1.10566836  0.80908617  0.95806948  1.0
  Cl  Cl26  1  0.89433164  -0.80908617  0.04193052  1.0
  Cl  Cl27  1  1.80908617  0.10566836  0.54193052  1.0
  Cl  Cl28  1  1.48629915  0.22698770  0.33574005  1.0
  Cl  Cl29  1  0.77301230  -0.48629915  0.83574005  1.0
  Cl  Cl30  1  1.22698770  0.48629915  0.16425995  1.0
  Cl  Cl31  1  0.51370085  -0.22698770  0.66425995  1.0
