# generated using pymatgen
data_Cu12PdN4
_symmetry_space_group_name_H-M   'P 1'
_cell_length_a   7.47462547
_cell_length_b   7.47462547
_cell_length_c   3.96087179
_cell_angle_alpha   90.00000000
_cell_angle_beta   90.00000000
_cell_angle_gamma   90.00000000
_symmetry_Int_Tables_number   1
_chemical_formula_structural   Cu12PdN4
_chemical_formula_sum   'Cu12 Pd1 N4'
_cell_volume   221.29400966
_cell_formula_units_Z   1
loop_
 _symmetry_equiv_pos_site_id
 _symmetry_equiv_pos_as_xyz
  1  'x, y, z'
loop_
 _atom_site_type_symbol
 _atom_site_label
 _atom_site_symmetry_multiplicity
 _atom_site_fract_x
 _atom_site_fract_y
 _atom_site_fract_z
 _atom_site_occupancy
  Cu  Cu0  1  0.50000000  0.24407763  -0.00000000  1.0
  Cu  Cu1  1  0.50000000  0.75592237  0.00000000  1.0
  Cu  Cu2  1  0.75592237  0.50000000  0.00000000  1.0
  Cu  Cu3  1  0.24407763  0.50000000  -0.00000000  1.0
  Cu  Cu4  1  0.00000000  0.24930029  -0.00000000  1.0
  Cu  Cu5  1  -0.00000000  0.75069971  0.00000000  1.0
  Cu  Cu6  1  0.75069971  0.00000000  0.00000000  1.0
  Cu  Cu7  1  0.24930029  0.00000000  -0.00000000  1.0
  Cu  Cu8  1  0.24755238  0.24755238  0.50000000  1.0
  Cu  Cu9  1  0.75244762  0.75244762  0.50000000  1.0
  Cu  Cu10  1  0.75244762  0.24755238  0.50000000  1.0
  Cu  Cu11  1  0.24755238  0.75244762  0.50000000  1.0
  Pd  Pd12  1  0.50000000  0.50000000  0.50000000  1.0
  N  N13  1  0.00000000  0.00000000  0.00000000  1.0
  N  N14  1  0.50000000  0.50000000  0.00000000  1.0
  N  N15  1  0.50000000  0.00000000  0.00000000  1.0
  N  N16  1  0.00000000  0.50000000  0.00000000  1.0
