# generated using pymatgen
data_K4CO4
_symmetry_space_group_name_H-M   'P 1'
_cell_length_a   6.33947116
_cell_length_b   6.33947116
_cell_length_c   6.33947116
_cell_angle_alpha   127.97529222
_cell_angle_beta   127.97529222
_cell_angle_gamma   76.66505713
_symmetry_Int_Tables_number   1
_chemical_formula_structural   K4CO4
_chemical_formula_sum   'K4 C1 O4'
_cell_volume   153.75808675
_cell_formula_units_Z   1
loop_
 _symmetry_equiv_pos_site_id
 _symmetry_equiv_pos_as_xyz
  1  'x, y, z'
loop_
 _atom_site_type_symbol
 _atom_site_label
 _atom_site_symmetry_multiplicity
 _atom_site_fract_x
 _atom_site_fract_y
 _atom_site_fract_z
 _atom_site_occupancy
  K  K0  1  0.84847332  0.43922418  1.00000000  1.0
  K  K1  1  0.43922418  0.84847332  1.00000000  1.0
  K  K2  1  1.15152668  1.15152668  1.59075086  1.0
  K  K3  1  0.56077582  0.56077582  0.40924914  1.0
  C  C4  1  0.00000000  0.00000000  0.00000000  1.0
  O  O5  1  0.76602123  1.06188767  1.00000000  1.0
  O  O6  1  1.06188767  0.76602123  1.00000000  1.0
  O  O7  1  0.23397877  0.23397877  0.29586644  1.0
  O  O8  1  0.93811233  0.93811233  1.70413356  1.0
