# generated using pymatgen
data_NaH6C2(N2O)3
_symmetry_space_group_name_H-M   'P 1'
_cell_length_a   7.94798709
_cell_length_b   7.94798709
_cell_length_c   7.36590738
_cell_angle_alpha   91.02938037
_cell_angle_beta   88.97061963
_cell_angle_gamma   54.57128940
_symmetry_Int_Tables_number   1
_chemical_formula_structural   NaH6C2(N2O)3
_chemical_formula_sum   'Na2 H12 C4 N12 O6'
_cell_volume   378.85915345
_cell_formula_units_Z   2
loop_
 _symmetry_equiv_pos_site_id
 _symmetry_equiv_pos_as_xyz
  1  'x, y, z'
loop_
 _atom_site_type_symbol
 _atom_site_label
 _atom_site_symmetry_multiplicity
 _atom_site_fract_x
 _atom_site_fract_y
 _atom_site_fract_z
 _atom_site_occupancy
  Na  Na0  1  0.75029759  0.75029759  0.50000000  1.0
  Na  Na1  1  1.24970241  0.24970241  0.50000000  1.0
  H  H2  1  1.31429526  -0.10081155  0.64543614  1.0
  H  H3  1  1.10081155  0.68570474  0.64543614  1.0
  H  H4  1  0.89918845  0.31429526  0.35456386  1.0
  H  H5  1  1.68570474  0.10081155  0.35456386  1.0
  H  H6  1  1.64622022  0.19352734  0.55326395  1.0
  H  H7  1  0.80647266  0.35377978  0.55326395  1.0
  H  H8  1  1.19352734  0.64622022  0.44673605  1.0
  H  H9  1  1.35377978  -0.19352734  0.44673605  1.0
  H  H10  1  1.54133214  0.34617684  0.80317600  1.0
  H  H11  1  0.65382316  0.45866786  0.80317600  1.0
  H  H12  1  1.34617684  0.54133214  0.19682400  1.0
  H  H13  1  1.45866786  -0.34617684  0.19682400  1.0
  C  C14  1  0.90837932  0.90837932  -0.00000000  1.0
  C  C15  1  1.09162068  0.09162068  -0.00000000  1.0
  C  C16  1  0.80551776  0.80551776  -0.00000000  1.0
  C  C17  1  1.19448224  0.19448224  -0.00000000  1.0
  N  N18  1  1.13209745  -0.03956119  0.85901350  1.0
  N  N19  1  1.03956119  0.86790255  0.85901350  1.0
  N  N20  1  0.96043881  0.13209745  0.14098650  1.0
  N  N21  1  1.86790255  0.03956119  0.14098650  1.0
  N  N22  1  1.27778053  0.21861962  0.85013124  1.0
  N  N23  1  0.78138038  0.72221947  0.85013124  1.0
  N  N24  1  1.21861962  0.27778053  0.14986876  1.0
  N  N25  1  1.72221947  -0.21861962  0.14986876  1.0
  N  N26  1  1.35363233  0.31943590  0.91063997  1.0
  N  N27  1  0.68056410  0.64636767  0.91063997  1.0
  N  N28  1  1.31943590  0.35363233  0.08936003  1.0
  N  N29  1  1.64636767  -0.31943590  0.08936003  1.0
  O  O30  1  1.61709090  0.11445734  0.47225451  1.0
  O  O31  1  0.88554266  0.38290910  0.47225451  1.0
  O  O32  1  1.11445734  0.61709090  0.52774549  1.0
  O  O33  1  1.38290910  -0.11445734  0.52774549  1.0
  O  O34  1  0.66360760  -0.66360760  0.75105222  1.0
  O  O35  1  0.33639240  -0.33639240  0.24894778  1.0
