# generated using pymatgen
data_Ga2Hg5Se8
_symmetry_space_group_name_H-M   'P 1'
_cell_length_a   8.43615513
_cell_length_b   8.43615513
_cell_length_c   8.43615513
_cell_angle_alpha   119.11528152
_cell_angle_beta   119.11528152
_cell_angle_gamma   91.53933209
_symmetry_Int_Tables_number   1
_chemical_formula_structural   Ga2Hg5Se8
_chemical_formula_sum   'Ga2 Hg5 Se8'
_cell_volume   430.04926324
_cell_formula_units_Z   1
loop_
 _symmetry_equiv_pos_site_id
 _symmetry_equiv_pos_as_xyz
  1  'x, y, z'
loop_
 _atom_site_type_symbol
 _atom_site_label
 _atom_site_symmetry_multiplicity
 _atom_site_fract_x
 _atom_site_fract_y
 _atom_site_fract_z
 _atom_site_occupancy
  Ga  Ga0  1  1.24717149  1.24717149  1.00000000  1.0
  Ga  Ga1  1  0.75282851  0.75282851  1.00000000  1.0
  Hg  Hg2  1  0.77271315  0.77271315  1.54542630  1.0
  Hg  Hg3  1  1.22728685  0.77271315  1.00000000  1.0
  Hg  Hg4  1  0.77271315  0.22728685  1.00000000  1.0
  Hg  Hg5  1  0.22728685  0.22728685  0.45457370  1.0
  Hg  Hg6  1  0.75000000  0.25000000  0.50000000  1.0
  Se  Se7  1  0.15148066  0.89713669  0.74565602  1.0
  Se  Se8  1  0.59417536  0.84851934  0.74565602  1.0
  Se  Se9  1  1.10286331  0.84851934  1.25434398  1.0
  Se  Se10  1  0.15148066  0.40582464  0.25434398  1.0
  Se  Se11  1  0.62559511  0.39091639  0.76532128  1.0
  Se  Se12  1  1.13972617  0.37440489  0.76532128  1.0
  Se  Se13  1  1.60908361  1.37440489  1.23467872  1.0
  Se  Se14  1  0.62559511  0.86027383  0.23467872  1.0
