# generated using pymatgen
data_BaBiO3
_symmetry_space_group_name_H-M   'P 1'
_cell_length_a   6.20952623
_cell_length_b   6.20952623
_cell_length_c   6.26575567
_cell_angle_alpha   60.01333692
_cell_angle_beta   119.98666308
_cell_angle_gamma   119.91290839
_symmetry_Int_Tables_number   1
_chemical_formula_structural   BaBiO3
_chemical_formula_sum   'Ba2 Bi2 O6'
_cell_volume   170.98108111
_cell_formula_units_Z   2
loop_
 _symmetry_equiv_pos_site_id
 _symmetry_equiv_pos_as_xyz
  1  'x, y, z'
loop_
 _atom_site_type_symbol
 _atom_site_label
 _atom_site_symmetry_multiplicity
 _atom_site_fract_x
 _atom_site_fract_y
 _atom_site_fract_z
 _atom_site_occupancy
  Ba  Ba0  1  0.75099870  -0.75099870  0.25951761  1.0
  Ba  Ba1  1  0.24900130  -0.24900130  0.74048239  1.0
  Bi  Bi2  1  0.50000000  -0.50000000  0.50000000  1.0
  Bi  Bi3  1  -0.00000000  -0.00000000  -0.00000000  1.0
  O  O4  1  0.70021549  -0.21341753  0.69660318  1.0
  O  O5  1  1.21341753  0.29978451  0.69660318  1.0
  O  O6  1  0.78658247  -0.29978451  0.30339682  1.0
  O  O7  1  1.29978451  0.21341753  0.30339682  1.0
  O  O8  1  0.74048294  -0.74048294  0.81772061  1.0
  O  O9  1  0.25951706  -0.25951706  0.18227939  1.0
