# generated using pymatgen
data_La5C2Cl9
_symmetry_space_group_name_H-M   'P 1'
_cell_length_a   8.70829284
_cell_length_b   12.26813473
_cell_length_c   8.77572569
_cell_angle_alpha   83.98779968
_cell_angle_beta   61.40306060
_cell_angle_gamma   85.42181769
_symmetry_Int_Tables_number   1
_chemical_formula_structural   La5C2Cl9
_chemical_formula_sum   'La10 C4 Cl18'
_cell_volume   818.17617951
_cell_formula_units_Z   2
loop_
 _symmetry_equiv_pos_site_id
 _symmetry_equiv_pos_as_xyz
  1  'x, y, z'
loop_
 _atom_site_type_symbol
 _atom_site_label
 _atom_site_symmetry_multiplicity
 _atom_site_fract_x
 _atom_site_fract_y
 _atom_site_fract_z
 _atom_site_occupancy
  La  La0  1  -0.88889919  -0.78094165  -0.90572095  1.0
  La  La1  1  -0.11110081  -0.21905835  -0.09427905  1.0
  La  La2  1  -0.72941174  -0.74246697  -0.42360135  1.0
  La  La3  1  -0.27058826  -0.25753303  -0.57639865  1.0
  La  La4  1  -0.63140493  -0.26854917  -0.76546785  1.0
  La  La5  1  -0.36859507  -0.73145083  -0.23453215  1.0
  La  La6  1  -0.39712294  -0.99755655  -0.79857649  1.0
  La  La7  1  -0.60287706  -0.00244345  -0.20142351  1.0
  La  La8  1  -0.29797601  -0.50233022  -0.81346897  1.0
  La  La9  1  -0.70202399  -0.49766978  -0.18653103  1.0
  C  C10  1  -0.66831643  -0.69073098  -0.19041551  1.0
  C  C11  1  -0.33168357  -0.30926902  -0.80958449  1.0
  C  C12  1  -0.64130323  -0.81040261  -0.19791355  1.0
  C  C13  1  -0.35869677  -0.18959739  -0.80208645  1.0
  Cl  Cl14  1  -0.99103234  -0.23081984  -0.48153519  1.0
  Cl  Cl15  1  -0.00896766  -0.76918016  -0.51846481  1.0
  Cl  Cl16  1  -0.95619804  -0.55495596  -0.83162734  1.0
  Cl  Cl17  1  -0.04380196  -0.44504404  -0.16837266  1.0
  Cl  Cl18  1  -0.90232171  -0.27684923  -0.90478538  1.0
  Cl  Cl19  1  -0.09767829  -0.72315077  -0.09521462  1.0
  Cl  Cl20  1  -0.71614719  -0.97532837  -0.45986356  1.0
  Cl  Cl21  1  -0.28385281  -0.02467163  -0.54013644  1.0
  Cl  Cl22  1  -0.71450601  -0.03395106  -0.82867756  1.0
  Cl  Cl23  1  -0.28549399  -0.96604894  -0.17132244  1.0
  Cl  Cl24  1  -0.67790173  -0.50638519  -0.54878754  1.0
  Cl  Cl25  1  -0.32209827  -0.49361481  -0.45121246  1.0
  Cl  Cl26  1  -0.57634129  -0.77387184  -0.84430867  1.0
  Cl  Cl27  1  -0.42365871  -0.22612816  -0.15569133  1.0
  Cl  Cl28  1  -0.34098229  -0.73796178  -0.62936684  1.0
  Cl  Cl29  1  -0.65901771  -0.26203822  -0.37063316  1.0
  Cl  Cl30  1  -0.50000000  -0.50000000  0.00000000  1.0
  Cl  Cl31  1  0.00000000  0.00000000  0.00000000  1.0
