# generated using pymatgen
data_K(MoO3)3
_symmetry_space_group_name_H-M   'P 1'
_cell_length_a   8.57872328
_cell_length_b   8.57872328
_cell_length_c   6.46394001
_cell_angle_alpha   87.47063540
_cell_angle_beta   92.52936460
_cell_angle_gamma   126.68704436
_symmetry_Int_Tables_number   1
_chemical_formula_structural   K(MoO3)3
_chemical_formula_sum   'K2 Mo6 O18'
_cell_volume   381.01190277
_cell_formula_units_Z   2
loop_
 _symmetry_equiv_pos_site_id
 _symmetry_equiv_pos_as_xyz
  1  'x, y, z'
loop_
 _atom_site_type_symbol
 _atom_site_label
 _atom_site_symmetry_multiplicity
 _atom_site_fract_x
 _atom_site_fract_y
 _atom_site_fract_z
 _atom_site_occupancy
  K  K0  1  0.69874422  0.30125578  0.33662567  1.0
  K  K1  1  0.30125578  -0.30125578  0.66337433  1.0
  Mo  Mo2  1  0.31737964  0.20248291  0.76552857  1.0
  Mo  Mo3  1  0.79751709  0.68262036  0.76552857  1.0
  Mo  Mo4  1  1.20248291  0.31737964  0.23447143  1.0
  Mo  Mo5  1  0.68262036  -0.20248291  0.23447143  1.0
  Mo  Mo6  1  0.87991330  0.12008670  0.86592930  1.0
  Mo  Mo7  1  0.12008670  -0.12008670  0.13407070  1.0
  O  O8  1  0.68264045  -0.15616269  0.91549429  1.0
  O  O9  1  1.15616269  0.31735955  0.91549429  1.0
  O  O10  1  0.84383731  0.68264045  0.08450571  1.0
  O  O11  1  0.31735955  0.15616269  0.08450571  1.0
  O  O12  1  0.42782096  0.10203063  0.69834180  1.0
  O  O13  1  0.89796937  0.57217904  0.69834180  1.0
  O  O14  1  1.10203063  0.42782096  0.30165820  1.0
  O  O15  1  0.57217904  -0.10203063  0.30165820  1.0
  O  O16  1  0.96194490  0.03805510  0.19526425  1.0
  O  O17  1  0.03805510  -0.03805510  0.80473575  1.0
  O  O18  1  0.85087146  0.14912854  0.60656073  1.0
  O  O19  1  0.14912854  -0.14912854  0.39343927  1.0
  O  O20  1  0.78299372  0.21700628  0.98719137  1.0
  O  O21  1  0.21700628  -0.21700628  0.01280863  1.0
  O  O22  1  0.53645937  0.46354063  0.79433359  1.0
  O  O23  1  0.46354063  -0.46354063  0.20566641  1.0
  O  O24  1  0.74181006  0.74181006  0.50000000  1.0
  O  O25  1  0.25818994  0.25818994  0.50000000  1.0
