# generated using pymatgen
data_H3CSN(ClO)2
_symmetry_space_group_name_H-M   'P 1'
_cell_length_a   6.67955688
_cell_length_b   9.73430171
_cell_length_c   10.02364845
_cell_angle_alpha   90.00000000
_cell_angle_beta   90.00000000
_cell_angle_gamma   90.00000000
_symmetry_Int_Tables_number   1
_chemical_formula_structural   H3CSN(ClO)2
_chemical_formula_sum   'H12 C4 S4 N4 Cl8 O8'
_cell_volume   651.74586078
_cell_formula_units_Z   4
loop_
 _symmetry_equiv_pos_site_id
 _symmetry_equiv_pos_as_xyz
  1  'x, y, z'
loop_
 _atom_site_type_symbol
 _atom_site_label
 _atom_site_symmetry_multiplicity
 _atom_site_fract_x
 _atom_site_fract_y
 _atom_site_fract_z
 _atom_site_occupancy
  H  H0  1  0.28645077  0.75000000  0.07791370  1.0
  H  H1  1  0.78645077  0.75000000  0.42208630  1.0
  H  H2  1  0.71354923  0.25000000  0.92208630  1.0
  H  H3  1  0.21354923  0.25000000  0.57791370  1.0
  H  H4  1  0.39543088  0.65659019  0.94051651  1.0
  H  H5  1  0.89543088  0.84340981  0.55948349  1.0
  H  H6  1  0.60456912  0.15659019  0.05948349  1.0
  H  H7  1  0.10456912  0.34340981  0.44051651  1.0
  H  H8  1  0.60456912  0.34340981  0.05948349  1.0
  H  H9  1  0.10456912  0.15659019  0.44051651  1.0
  H  H10  1  0.39543088  0.84340981  0.94051651  1.0
  H  H11  1  0.89543088  0.65659019  0.55948349  1.0
  C  C12  1  0.40364625  0.75000000  1.00116511  1.0
  C  C13  1  0.90364625  0.75000000  0.49883489  1.0
  C  C14  1  0.59635375  0.25000000  -0.00116511  1.0
  C  C15  1  0.09635375  0.25000000  0.50116511  1.0
  S  S16  1  0.63352962  0.75000000  0.09067125  1.0
  S  S17  1  0.13352962  0.75000000  0.40932875  1.0
  S  S18  1  0.36647038  0.25000000  0.90932875  1.0
  S  S19  1  0.86647038  0.25000000  0.59067125  1.0
  N  N20  1  0.83245089  0.75000000  0.97132864  1.0
  N  N21  1  0.33245089  0.75000000  0.52867136  1.0
  N  N22  1  0.16754911  0.25000000  0.02867136  1.0
  N  N23  1  0.66754911  0.25000000  0.47132864  1.0
  Cl  Cl24  1  0.81949000  0.60236560  0.87061988  1.0
  Cl  Cl25  1  0.31949000  0.89763440  0.62938012  1.0
  Cl  Cl26  1  0.18051000  0.10236560  0.12938012  1.0
  Cl  Cl27  1  0.68051000  0.39763440  0.37061988  1.0
  Cl  Cl28  1  0.18051000  0.39763440  0.12938012  1.0
  Cl  Cl29  1  0.68051000  0.10236560  0.37061988  1.0
  Cl  Cl30  1  0.81949000  0.89763440  0.87061988  1.0
  Cl  Cl31  1  0.31949000  0.60236560  0.62938012  1.0
  O  O32  1  0.66026973  0.62091703  0.16011789  1.0
  O  O33  1  0.16026973  0.87908297  0.33988211  1.0
  O  O34  1  0.33973027  0.12091703  0.83988211  1.0
  O  O35  1  0.83973027  0.37908297  0.66011789  1.0
  O  O36  1  0.33973027  0.37908297  0.83988211  1.0
  O  O37  1  0.83973027  0.12091703  0.66011789  1.0
  O  O38  1  0.66026973  0.87908297  0.16011789  1.0
  O  O39  1  0.16026973  0.62091703  0.33988211  1.0
