# generated using pymatgen
data_NaZnP2HO7
_symmetry_space_group_name_H-M   'P 1'
_cell_length_a   6.61945209
_cell_length_b   6.57788224
_cell_length_c   6.87345331
_cell_angle_alpha   95.68597680
_cell_angle_beta   113.90002068
_cell_angle_gamma   87.86113962
_symmetry_Int_Tables_number   1
_chemical_formula_structural   NaZnP2HO7
_chemical_formula_sum   'Na2 Zn2 P4 H2 O14'
_cell_volume   272.27373595
_cell_formula_units_Z   2
loop_
 _symmetry_equiv_pos_site_id
 _symmetry_equiv_pos_as_xyz
  1  'x, y, z'
loop_
 _atom_site_type_symbol
 _atom_site_label
 _atom_site_symmetry_multiplicity
 _atom_site_fract_x
 _atom_site_fract_y
 _atom_site_fract_z
 _atom_site_occupancy
  Na  Na0  1  -0.69118273  -0.83942145  0.26421433  1.0
  Na  Na1  1  -0.30881727  -0.16057855  0.73578567  1.0
  Zn  Zn2  1  -0.71728960  -0.35114585  0.86831757  1.0
  Zn  Zn3  1  -0.28271040  -0.64885415  0.13168243  1.0
  P  P4  1  -0.83936806  -0.37645657  0.36290697  1.0
  P  P5  1  -0.16063194  -0.62354343  0.63709303  1.0
  P  P6  1  -0.73398429  -0.85765569  0.78295488  1.0
  P  P7  1  -0.26601571  -0.14234431  0.21704512  1.0
  H  H8  1  -0.41811524  -0.78467401  0.70634809  1.0
  H  H9  1  -0.58188476  -0.21532599  0.29365191  1.0
  O  O10  1  -0.98036501  -0.79012222  0.62493623  1.0
  O  O11  1  -0.01963499  -0.20987778  0.37506377  1.0
  O  O12  1  -0.95469066  -0.57856979  0.25446097  1.0
  O  O13  1  -0.04530934  -0.42143021  0.74553903  1.0
  O  O14  1  -0.76181883  -0.03636565  0.89679993  1.0
  O  O15  1  -0.23818117  -0.96363435  0.10320007  1.0
  O  O16  1  -0.66524488  -0.37810137  0.59054421  1.0
  O  O17  1  -0.33475512  -0.62189863  0.40945579  1.0
  O  O18  1  -0.61258765  -0.90619724  0.63512636  1.0
  O  O19  1  -0.38741235  -0.09380276  0.36487364  1.0
  O  O20  1  -0.63199923  -0.66908929  0.94752767  1.0
  O  O21  1  -0.36800077  -0.33091071  0.05247233  1.0
  O  O22  1  -0.26447396  -0.70718867  0.78434285  1.0
  O  O23  1  -0.73552604  -0.29281133  0.21565715  1.0
