# generated using pymatgen
data_Hf3GeO8
_symmetry_space_group_name_H-M   'P 1'
_cell_length_a   6.34548333
_cell_length_b   6.34548333
_cell_length_c   6.34548333
_cell_angle_alpha   133.44834274
_cell_angle_beta   133.44834274
_cell_angle_gamma   67.95092471
_symmetry_Int_Tables_number   1
_chemical_formula_structural   Hf3GeO8
_chemical_formula_sum   'Hf3 Ge1 O8'
_cell_volume   132.34126633
_cell_formula_units_Z   1
loop_
 _symmetry_equiv_pos_site_id
 _symmetry_equiv_pos_as_xyz
  1  'x, y, z'
loop_
 _atom_site_type_symbol
 _atom_site_label
 _atom_site_symmetry_multiplicity
 _atom_site_fract_x
 _atom_site_fract_y
 _atom_site_fract_z
 _atom_site_occupancy
  Hf  Hf0  1  0.25000000  0.75000000  0.50000000  1.0
  Hf  Hf1  1  0.75000000  0.25000000  0.50000000  1.0
  Hf  Hf2  1  0.50000000  0.50000000  1.00000000  1.0
  Ge  Ge3  1  -0.00000000  -0.00000000  -0.00000000  1.0
  O  O4  1  0.53651535  1.14265181  1.00000000  1.0
  O  O5  1  0.85734819  0.85734819  1.39386354  1.0
  O  O6  1  0.46348465  0.46348465  0.60613646  1.0
  O  O7  1  1.14265181  0.53651535  1.00000000  1.0
  O  O8  1  0.30498983  0.87231687  1.00000000  1.0
  O  O9  1  1.12768313  1.12768313  1.43267296  1.0
  O  O10  1  0.69501017  0.69501017  0.56732704  1.0
  O  O11  1  0.87231687  0.30498983  1.00000000  1.0
