# generated using pymatgen
data_Ti(CrSe2)2
_symmetry_space_group_name_H-M   'P 1'
_cell_length_a   6.98790353
_cell_length_b   6.98790353
_cell_length_c   6.50375974
_cell_angle_alpha   62.59435624
_cell_angle_beta   117.40564376
_cell_angle_gamma   149.83668423
_symmetry_Int_Tables_number   1
_chemical_formula_structural   Ti(CrSe2)2
_chemical_formula_sum   'Ti1 Cr2 Se4'
_cell_volume   140.27653610
_cell_formula_units_Z   1
loop_
 _symmetry_equiv_pos_site_id
 _symmetry_equiv_pos_as_xyz
  1  'x, y, z'
loop_
 _atom_site_type_symbol
 _atom_site_label
 _atom_site_symmetry_multiplicity
 _atom_site_fract_x
 _atom_site_fract_y
 _atom_site_fract_z
 _atom_site_occupancy
  Ti  Ti0  1  0.00000000  0.00000000  0.00000000  1.0
  Cr  Cr1  1  0.74074188  -0.74074188  0.72377123  1.0
  Cr  Cr2  1  1.25925812  -0.25925812  0.27622877  1.0
  Se  Se3  1  0.87508213  -0.87508213  0.55119112  1.0
  Se  Se4  1  1.12491787  -0.12491787  0.44880888  1.0
  Se  Se5  1  0.63321682  -0.63321682  0.96971009  1.0
  Se  Se6  1  1.36678318  -0.36678318  0.03028991  1.0
