# generated using pymatgen
data_K2Sr(SeO4)2
_symmetry_space_group_name_H-M   'P 1'
_cell_length_a   7.91727363
_cell_length_b   7.91727363
_cell_length_c   7.91727363
_cell_angle_alpha   42.81614119
_cell_angle_beta   42.81614119
_cell_angle_gamma   42.81614119
_symmetry_Int_Tables_number   1
_chemical_formula_structural   K2Sr(SeO4)2
_chemical_formula_sum   'K2 Sr1 Se2 O8'
_cell_volume   207.70784206
_cell_formula_units_Z   1
loop_
 _symmetry_equiv_pos_site_id
 _symmetry_equiv_pos_as_xyz
  1  'x, y, z'
loop_
 _atom_site_type_symbol
 _atom_site_label
 _atom_site_symmetry_multiplicity
 _atom_site_fract_x
 _atom_site_fract_y
 _atom_site_fract_z
 _atom_site_occupancy
  K  K0  1  0.79996593  0.79996593  0.79996593  1.0
  K  K1  1  1.20003407  1.20003407  0.20003407  1.0
  Sr  Sr2  1  0.00000000  0.00000000  0.00000000  1.0
  Se  Se3  1  1.59997305  0.59997305  0.59997305  1.0
  Se  Se4  1  1.40002695  0.40002695  0.40002695  1.0
  O  O5  1  1.26738735  0.26738735  0.74156646  1.0
  O  O6  1  1.26738735  0.74156646  0.26738735  1.0
  O  O7  1  1.25843354  0.73261265  0.73261265  1.0
  O  O8  1  1.73261265  0.25843354  0.73261265  1.0
  O  O9  1  1.73261265  0.73261265  0.25843354  1.0
  O  O10  1  1.74156646  0.26738735  0.26738735  1.0
  O  O11  1  0.67700646  0.67700646  0.67700646  1.0
  O  O12  1  1.32299354  1.32299354  0.32299354  1.0
