# generated using pymatgen
data_AlPO4
_symmetry_space_group_name_H-M   'P 1'
_cell_length_a   9.48838823
_cell_length_b   9.48838823
_cell_length_c   9.48838823
_cell_angle_alpha   94.32737377
_cell_angle_beta   94.32737377
_cell_angle_gamma   94.32737377
_symmetry_Int_Tables_number   1
_chemical_formula_structural   AlPO4
_chemical_formula_sum   'Al6 P6 O24'
_cell_volume   846.53794578
_cell_formula_units_Z   6
loop_
 _symmetry_equiv_pos_site_id
 _symmetry_equiv_pos_as_xyz
  1  'x, y, z'
loop_
 _atom_site_type_symbol
 _atom_site_label
 _atom_site_symmetry_multiplicity
 _atom_site_fract_x
 _atom_site_fract_y
 _atom_site_fract_z
 _atom_site_occupancy
  Al  Al0  1  0.66741130  0.90063210  0.12452396  1.0
  Al  Al1  1  1.09936790  -0.12452396  0.33258870  1.0
  Al  Al2  1  0.87547604  0.33258870  0.09936790  1.0
  Al  Al3  1  1.33258870  0.09936790  -0.12452396  1.0
  Al  Al4  1  0.90063210  1.12452396  -0.33258870  1.0
  Al  Al5  1  1.12452396  0.66741130  -0.09936790  1.0
  P  P6  1  0.88991504  0.66687699  0.12297732  1.0
  P  P7  1  1.33312301  -0.12297732  0.11008496  1.0
  P  P8  1  0.87702268  0.11008496  0.33312301  1.0
  P  P9  1  1.11008496  0.33312301  -0.12297732  1.0
  P  P10  1  0.66687699  1.12297732  -0.11008496  1.0
  P  P11  1  1.12297732  0.88991504  -0.33312301  1.0
  O  O12  1  0.98710648  0.73043740  0.25403154  1.0
  O  O13  1  1.26956260  -0.25403154  0.01289352  1.0
  O  O14  1  0.74596846  0.01289352  0.26956260  1.0
  O  O15  1  1.01289352  0.26956260  -0.25403154  1.0
  O  O16  1  0.73043740  1.25403154  -0.01289352  1.0
  O  O17  1  1.25403154  0.98710648  -0.26956260  1.0
  O  O18  1  0.75326531  0.74413821  0.10912238  1.0
  O  O19  1  1.25586179  -0.10912238  0.24673469  1.0
  O  O20  1  0.89087762  0.24673469  0.25586179  1.0
  O  O21  1  1.24673469  0.25586179  -0.10912238  1.0
  O  O22  1  0.74413821  1.10912238  -0.24673469  1.0
  O  O23  1  1.10912238  0.75326531  -0.25586179  1.0
  O  O24  1  1.68059269  0.98618615  -0.03265970  1.0
  O  O25  1  1.01381385  0.03265970  -0.68059269  1.0
  O  O26  1  1.03265970  -0.68059269  0.01381385  1.0
  O  O27  1  0.31940731  0.01381385  0.03265970  1.0
  O  O28  1  0.98618615  0.96734030  0.68059269  1.0
  O  O29  1  0.96734030  1.68059269  -0.01381385  1.0
  O  O30  1  0.51018830  1.14276940  -0.15208257  1.0
  O  O31  1  0.85723060  0.15208257  0.48981170  1.0
  O  O32  1  1.15208257  0.48981170  -0.14276940  1.0
  O  O33  1  1.48981170  -0.14276940  0.15208257  1.0
  O  O34  1  1.14276940  0.84791743  -0.48981170  1.0
  O  O35  1  0.84791743  0.51018830  0.14276940  1.0
