# generated using pymatgen
data_GeO2
_symmetry_space_group_name_H-M   'P 1'
_cell_length_a   4.35701591
_cell_length_b   5.42325050
_cell_length_c   4.83529455
_cell_angle_alpha   90.00000000
_cell_angle_beta   90.00000000
_cell_angle_gamma   90.00000000
_symmetry_Int_Tables_number   1
_chemical_formula_structural   GeO2
_chemical_formula_sum   'Ge4 O8'
_cell_volume   114.25408735
_cell_formula_units_Z   4
loop_
 _symmetry_equiv_pos_site_id
 _symmetry_equiv_pos_as_xyz
  1  'x, y, z'
loop_
 _atom_site_type_symbol
 _atom_site_label
 _atom_site_symmetry_multiplicity
 _atom_site_fract_x
 _atom_site_fract_y
 _atom_site_fract_z
 _atom_site_occupancy
  Ge  Ge0  1  0.50000000  0.15805605  0.25000000  1.0
  Ge  Ge1  1  0.50000000  0.84194395  0.75000000  1.0
  Ge  Ge2  1  0.00000000  0.65805605  0.25000000  1.0
  Ge  Ge3  1  0.00000000  0.34194395  0.75000000  1.0
  O  O4  1  0.23247106  0.38758992  0.07831653  1.0
  O  O5  1  0.23247106  0.61241008  0.57831653  1.0
  O  O6  1  0.73247106  0.88758992  0.42168347  1.0
  O  O7  1  0.73247106  0.11241008  0.92168347  1.0
  O  O8  1  0.76752894  0.38758992  0.42168347  1.0
  O  O9  1  0.76752894  0.61241008  0.92168347  1.0
  O  O10  1  0.26752894  0.88758992  0.07831653  1.0
  O  O11  1  0.26752894  0.11241008  0.57831653  1.0
