# generated using pymatgen
data_FeP2(H4O5)2
_symmetry_space_group_name_H-M   'P 1'
_cell_length_a   5.44092300
_cell_length_b   10.07437580
_cell_length_c   8.74838361
_cell_angle_alpha   90.00000000
_cell_angle_beta   123.47249065
_cell_angle_gamma   90.00000000
_symmetry_Int_Tables_number   1
_chemical_formula_structural   FeP2(H4O5)2
_chemical_formula_sum   'Fe2 P4 H16 O20'
_cell_volume   400.00284260
_cell_formula_units_Z   2
loop_
 _symmetry_equiv_pos_site_id
 _symmetry_equiv_pos_as_xyz
  1  'x, y, z'
loop_
 _atom_site_type_symbol
 _atom_site_label
 _atom_site_symmetry_multiplicity
 _atom_site_fract_x
 _atom_site_fract_y
 _atom_site_fract_z
 _atom_site_occupancy
  Fe  Fe0  1  -0.00000000  0.50000000  0.50000000  1.0
  Fe  Fe1  1  0.00000000  0.00000000  0.00000000  1.0
  P  P2  1  0.91374559  0.71729595  0.15916177  1.0
  P  P3  1  0.91374559  0.78270405  0.65916177  1.0
  P  P4  1  0.08625441  0.21729595  0.34083823  1.0
  P  P5  1  0.08625441  0.28270405  0.84083823  1.0
  H  H6  1  0.87793185  0.22327667  0.49441715  1.0
  H  H7  1  0.87793185  0.27672333  0.99441715  1.0
  H  H8  1  0.12206815  0.72327667  0.00558285  1.0
  H  H9  1  0.12206815  0.77672333  0.50558285  1.0
  H  H10  1  0.56566704  0.88912596  0.40442019  1.0
  H  H11  1  0.56566704  0.61087404  0.90442019  1.0
  H  H12  1  0.43433296  0.38912596  0.09557981  1.0
  H  H13  1  0.43433296  0.11087404  0.59557981  1.0
  H  H14  1  0.58674120  0.04864054  0.26967785  1.0
  H  H15  1  0.58674120  0.45135946  0.76967785  1.0
  H  H16  1  0.41325880  0.54864054  0.23032215  1.0
  H  H17  1  0.41325880  0.95135946  0.73032215  1.0
  H  H18  1  0.40453767  0.42554610  0.33555947  1.0
  H  H19  1  0.40453767  0.07445390  0.83555947  1.0
  H  H20  1  0.59546233  0.92554610  0.16444053  1.0
  H  H21  1  0.59546233  0.57445390  0.66444053  1.0
  O  O22  1  0.97594286  0.17291197  0.14577409  1.0
  O  O23  1  0.97594286  0.32708803  0.64577409  1.0
  O  O24  1  0.02405714  0.67291197  0.35422591  1.0
  O  O25  1  0.02405714  0.82708803  0.85422591  1.0
  O  O26  1  0.85379346  0.16976028  0.38656592  1.0
  O  O27  1  0.85379346  0.33023972  0.88656592  1.0
  O  O28  1  0.14620654  0.66976028  0.11343408  1.0
  O  O29  1  0.14620654  0.83023972  0.61343408  1.0
  O  O30  1  0.86986301  0.86849778  0.12920698  1.0
  O  O31  1  0.86986301  0.63150222  0.62920698  1.0
  O  O32  1  0.13013699  0.36849778  0.37079302  1.0
  O  O33  1  0.13013699  0.13150222  0.87079302  1.0
  O  O34  1  0.52166209  0.46513874  0.29047386  1.0
  O  O35  1  0.52166209  0.03486126  0.79047386  1.0
  O  O36  1  0.47833791  0.96513874  0.20952614  1.0
  O  O37  1  0.47833791  0.53486126  0.70952614  1.0
  O  O38  1  0.38691456  0.14193923  0.47281614  1.0
  O  O39  1  0.38691456  0.35806077  0.97281614  1.0
  O  O40  1  0.61308544  0.64193923  0.02718386  1.0
  O  O41  1  0.61308544  0.85806077  0.52718386  1.0
