# generated using pymatgen
data_RhBr3
_symmetry_space_group_name_H-M   'P 1'
_cell_length_a   6.43039026
_cell_length_b   6.43039026
_cell_length_c   7.16849178
_cell_angle_alpha   82.17642181
_cell_angle_beta   97.82357819
_cell_angle_gamma   59.97133247
_symmetry_Int_Tables_number   1
_chemical_formula_structural   RhBr3
_chemical_formula_sum   'Rh2 Br6'
_cell_volume   246.92795478
_cell_formula_units_Z   2
loop_
 _symmetry_equiv_pos_site_id
 _symmetry_equiv_pos_as_xyz
  1  'x, y, z'
loop_
 _atom_site_type_symbol
 _atom_site_label
 _atom_site_symmetry_multiplicity
 _atom_site_fract_x
 _atom_site_fract_y
 _atom_site_fract_z
 _atom_site_occupancy
  Rh  Rh0  1  0.83333700  -0.16666300  0.00000000  1.0
  Rh  Rh1  1  1.16666300  0.16666300  0.00000000  1.0
  Br  Br2  1  0.43835009  -0.08307047  0.79649299  1.0
  Br  Br3  1  1.08307047  0.56164991  0.79649299  1.0
  Br  Br4  1  0.91692953  -0.56164991  0.20350701  1.0
  Br  Br5  1  1.56164991  0.08307047  0.20350701  1.0
  Br  Br6  1  0.79297505  -0.79297505  0.79659823  1.0
  Br  Br7  1  0.20702495  -0.20702495  0.20340177  1.0
