# generated using pymatgen
data_Cs3TaSe4
_symmetry_space_group_name_H-M   'P 1'
_cell_length_a   10.41583589
_cell_length_b   12.17325515
_cell_length_c   10.49447524
_cell_angle_alpha   90.00000000
_cell_angle_beta   90.00000000
_cell_angle_gamma   90.00000000
_symmetry_Int_Tables_number   1
_chemical_formula_structural   Cs3TaSe4
_chemical_formula_sum   'Cs12 Ta4 Se16'
_cell_volume   1330.64308237
_cell_formula_units_Z   4
loop_
 _symmetry_equiv_pos_site_id
 _symmetry_equiv_pos_as_xyz
  1  'x, y, z'
loop_
 _atom_site_type_symbol
 _atom_site_label
 _atom_site_symmetry_multiplicity
 _atom_site_fract_x
 _atom_site_fract_y
 _atom_site_fract_z
 _atom_site_occupancy
  Cs  Cs0  1  0.44955922  0.45705866  0.79177767  1.0
  Cs  Cs1  1  0.44955922  0.04294134  0.79177767  1.0
  Cs  Cs2  1  0.94955922  0.45705866  0.70822233  1.0
  Cs  Cs3  1  0.94955922  0.04294134  0.70822233  1.0
  Cs  Cs4  1  0.55044078  0.95705866  0.20822233  1.0
  Cs  Cs5  1  0.55044078  0.54294134  0.20822233  1.0
  Cs  Cs6  1  0.05044078  0.95705866  0.29177767  1.0
  Cs  Cs7  1  0.05044078  0.54294134  0.29177767  1.0
  Cs  Cs8  1  0.35815657  0.75000000  0.58503046  1.0
  Cs  Cs9  1  0.85815657  0.75000000  0.91496954  1.0
  Cs  Cs10  1  0.64184343  0.25000000  0.41496954  1.0
  Cs  Cs11  1  0.14184343  0.25000000  0.08503046  1.0
  Ta  Ta12  1  0.27983347  0.75000000  0.01629347  1.0
  Ta  Ta13  1  0.77983347  0.75000000  0.48370653  1.0
  Ta  Ta14  1  0.72016653  0.25000000  0.98370653  1.0
  Ta  Ta15  1  0.22016653  0.25000000  0.51629347  1.0
  Se  Se16  1  0.16684484  0.91368130  0.95147740  1.0
  Se  Se17  1  0.16684484  0.58631870  0.95147740  1.0
  Se  Se18  1  0.66684484  0.91368130  0.54852260  1.0
  Se  Se19  1  0.66684484  0.58631870  0.54852260  1.0
  Se  Se20  1  0.83315516  0.41368130  0.04852260  1.0
  Se  Se21  1  0.83315516  0.08631870  0.04852260  1.0
  Se  Se22  1  0.33315516  0.41368130  0.45147740  1.0
  Se  Se23  1  0.33315516  0.08631870  0.45147740  1.0
  Se  Se24  1  0.49342974  0.75000000  0.92539620  1.0
  Se  Se25  1  0.99342974  0.75000000  0.57460380  1.0
  Se  Se26  1  0.50657026  0.25000000  0.07460380  1.0
  Se  Se27  1  0.00657026  0.25000000  0.42539620  1.0
  Se  Se28  1  0.29685442  0.75000000  0.24580042  1.0
  Se  Se29  1  0.79685442  0.75000000  0.25419958  1.0
  Se  Se30  1  0.70314558  0.25000000  0.75419958  1.0
  Se  Se31  1  0.20314558  0.25000000  0.74580042  1.0
