# generated using pymatgen
data_K2PdC2
_symmetry_space_group_name_H-M   'P 1'
_cell_length_a   5.18125290
_cell_length_b   5.18125290
_cell_length_c   5.28327676
_cell_angle_alpha   90.00000000
_cell_angle_beta   90.00000000
_cell_angle_gamma   120.00000000
_symmetry_Int_Tables_number   1
_chemical_formula_structural   K2PdC2
_chemical_formula_sum   'K2 Pd1 C2'
_cell_volume   122.82975190
_cell_formula_units_Z   1
loop_
 _symmetry_equiv_pos_site_id
 _symmetry_equiv_pos_as_xyz
  1  'x, y, z'
loop_
 _atom_site_type_symbol
 _atom_site_label
 _atom_site_symmetry_multiplicity
 _atom_site_fract_x
 _atom_site_fract_y
 _atom_site_fract_z
 _atom_site_occupancy
  K  K0  1  0.66666667  0.33333333  0.72069559  1.0
  K  K1  1  0.33333333  0.66666667  0.27930441  1.0
  Pd  Pd2  1  0.00000000  0.00000000  0.00000000  1.0
  C  C3  1  0.00000000  0.00000000  0.62023299  1.0
  C  C4  1  0.00000000  0.00000000  0.37976701  1.0
