# generated using pymatgen
data_Mg(Co3P2)2
_symmetry_space_group_name_H-M   'P 1'
_cell_length_a   7.68155949
_cell_length_b   7.68155949
_cell_length_c   2.68169213
_cell_angle_alpha   90.00000000
_cell_angle_beta   90.00000000
_cell_angle_gamma   120.00000000
_symmetry_Int_Tables_number   1
_chemical_formula_structural   Mg(Co3P2)2
_chemical_formula_sum   'Mg1 Co6 P4'
_cell_volume   137.03715839
_cell_formula_units_Z   1
loop_
 _symmetry_equiv_pos_site_id
 _symmetry_equiv_pos_as_xyz
  1  'x, y, z'
loop_
 _atom_site_type_symbol
 _atom_site_label
 _atom_site_symmetry_multiplicity
 _atom_site_fract_x
 _atom_site_fract_y
 _atom_site_fract_z
 _atom_site_occupancy
  P  P0  1  0.81546584  0.18453416  -0.00000000  1.0
  P  P1  1  0.81546584  0.63093167  0.00000000  1.0
  P  P2  1  0.36906833  0.18453416  -0.00000000  1.0
  P  P3  1  0.33333333  0.66666667  0.00000000  1.0
  Mg  Mg4  1  -0.00000000  -0.00000000  -0.00000000  1.0
  Co  Co5  1  0.49812960  0.50187040  -0.00000000  1.0
  Co  Co6  1  0.49812960  -0.00374080  -0.00000000  1.0
  Co  Co7  1  1.00374080  0.50187040  -0.00000000  1.0
  Co  Co8  1  0.17435793  0.82564207  0.50000000  1.0
  Co  Co9  1  0.17435793  0.34871586  0.50000000  1.0
  Co  Co10  1  0.65128414  0.82564207  0.50000000  1.0
