# generated using pymatgen
data_Ta4CoTe4
_symmetry_space_group_name_H-M   'P 1'
_cell_length_a   10.91056322
_cell_length_b   18.92836905
_cell_length_c   4.79694642
_cell_angle_alpha   90.00000000
_cell_angle_beta   90.00000000
_cell_angle_gamma   90.00000000
_symmetry_Int_Tables_number   1
_chemical_formula_structural   Ta4CoTe4
_chemical_formula_sum   'Ta16 Co4 Te16'
_cell_volume   990.66138055
_cell_formula_units_Z   4
loop_
 _symmetry_equiv_pos_site_id
 _symmetry_equiv_pos_as_xyz
  1  'x, y, z'
loop_
 _atom_site_type_symbol
 _atom_site_label
 _atom_site_symmetry_multiplicity
 _atom_site_fract_x
 _atom_site_fract_y
 _atom_site_fract_z
 _atom_site_occupancy
  Ta  Ta0  1  0.43667294  0.61597419  0.50000000  1.0
  Ta  Ta1  1  0.93667294  0.88402581  0.50000000  1.0
  Ta  Ta2  1  0.56332706  0.38402581  0.50000000  1.0
  Ta  Ta3  1  0.06332706  0.11597419  0.50000000  1.0
  Ta  Ta4  1  0.20220240  0.96377630  0.50000000  1.0
  Ta  Ta5  1  0.70220240  0.53622370  0.50000000  1.0
  Ta  Ta6  1  0.79779760  0.03622370  0.50000000  1.0
  Ta  Ta7  1  0.29779760  0.46377630  0.50000000  1.0
  Ta  Ta8  1  0.31231234  0.55658587  0.00000000  1.0
  Ta  Ta9  1  0.81231234  0.94341413  0.00000000  1.0
  Ta  Ta10  1  0.68768766  0.44341413  0.00000000  1.0
  Ta  Ta11  1  0.18768766  0.05658587  0.00000000  1.0
  Ta  Ta12  1  0.09811401  0.89240120  0.00000000  1.0
  Ta  Ta13  1  0.59811401  0.60759880  0.00000000  1.0
  Ta  Ta14  1  0.90188599  0.10759880  0.00000000  1.0
  Ta  Ta15  1  0.40188599  0.39240120  0.00000000  1.0
  Co  Co16  1  0.50000000  0.50000000  0.74999241  1.0
  Co  Co17  1  0.50000000  0.50000000  0.25000759  1.0
  Co  Co18  1  0.00000000  0.00000000  0.74999241  1.0
  Co  Co19  1  0.00000000  0.00000000  0.25000759  1.0
  Te  Te20  1  0.16915949  0.81352707  0.50000000  1.0
  Te  Te21  1  0.66915949  0.68647293  0.50000000  1.0
  Te  Te22  1  0.83084051  0.18647293  0.50000000  1.0
  Te  Te23  1  0.33084051  0.31352707  0.50000000  1.0
  Te  Te24  1  0.17490261  0.59812712  0.50000000  1.0
  Te  Te25  1  0.67490261  0.90187288  0.50000000  1.0
  Te  Te26  1  0.82509739  0.40187288  0.50000000  1.0
  Te  Te27  1  0.32509739  0.09812712  0.50000000  1.0
  Te  Te28  1  0.39122583  0.70116678  0.00000000  1.0
  Te  Te29  1  0.89122583  0.79883322  0.00000000  1.0
  Te  Te30  1  0.60877417  0.29883322  0.00000000  1.0
  Te  Te31  1  0.10877417  0.20116678  0.00000000  1.0
  Te  Te32  1  0.34989976  0.93677240  0.00000000  1.0
  Te  Te33  1  0.84989976  0.56322761  0.00000000  1.0
  Te  Te34  1  0.65010024  0.06322760  0.00000000  1.0
  Te  Te35  1  0.15010024  0.43677240  0.00000000  1.0
