# generated using pymatgen
data_S5N6
_symmetry_space_group_name_H-M   'P 1'
_cell_length_a   7.71400523
_cell_length_b   7.71400523
_cell_length_c   7.81541360
_cell_angle_alpha   81.43054968
_cell_angle_beta   98.56945032
_cell_angle_gamma   77.39742968
_symmetry_Int_Tables_number   1
_chemical_formula_structural   S5N6
_chemical_formula_sum   'S10 N12'
_cell_volume   440.78030527
_cell_formula_units_Z   2
loop_
 _symmetry_equiv_pos_site_id
 _symmetry_equiv_pos_as_xyz
  1  'x, y, z'
loop_
 _atom_site_type_symbol
 _atom_site_label
 _atom_site_symmetry_multiplicity
 _atom_site_fract_x
 _atom_site_fract_y
 _atom_site_fract_z
 _atom_site_occupancy
  S  S0  1  1.78511245  0.05067483  0.18353288  1.0
  S  S1  1  0.94932517  -0.78511245  0.68353288  1.0
  S  S2  1  1.05067483  0.78511245  0.31646712  1.0
  S  S3  1  0.21488755  -0.05067483  0.81646712  1.0
  S  S4  1  0.59296442  -0.40703558  0.25000000  1.0
  S  S5  1  1.40703558  0.40703558  0.75000000  1.0
  S  S6  1  0.75047797  -0.18038113  0.49199139  1.0
  S  S7  1  1.18038113  0.24952203  0.99199139  1.0
  S  S8  1  0.81961887  -0.24952203  0.00800861  1.0
  S  S9  1  1.24952203  0.18038113  0.50800861  1.0
  N  N10  1  0.63606074  -0.33505407  0.42309577  1.0
  N  N11  1  1.33505407  0.36393926  0.92309577  1.0
  N  N12  1  0.66494593  -0.36393926  0.07690423  1.0
  N  N13  1  1.36393926  0.33505407  0.57690423  1.0
  N  N14  1  0.74198320  -0.03424481  1.00921369  1.0
  N  N15  1  1.03424481  0.25801680  0.50921369  1.0
  N  N16  1  0.96575519  -0.25801680  0.49078631  1.0
  N  N17  1  1.25801680  0.03424481  -0.00921369  1.0
  N  N18  1  1.68503644  0.00896797  0.34765917  1.0
  N  N19  1  0.99103203  -0.68503644  0.84765917  1.0
  N  N20  1  1.00896797  0.68503644  0.15234083  1.0
  N  N21  1  0.31496356  -0.00896797  0.65234083  1.0
