# generated using pymatgen
data_La3Ir2
_symmetry_space_group_name_H-M   'P 1'
_cell_length_a   7.78599973
_cell_length_b   7.78599973
_cell_length_c   7.78599973
_cell_angle_alpha   70.27856994
_cell_angle_beta   70.27856994
_cell_angle_gamma   70.27856995
_symmetry_Int_Tables_number   1
_chemical_formula_structural   La3Ir2
_chemical_formula_sum   'La9 Ir6'
_cell_volume   404.72244906
_cell_formula_units_Z   3
loop_
 _symmetry_equiv_pos_site_id
 _symmetry_equiv_pos_as_xyz
  1  'x, y, z'
loop_
 _atom_site_type_symbol
 _atom_site_label
 _atom_site_symmetry_multiplicity
 _atom_site_fract_x
 _atom_site_fract_y
 _atom_site_fract_z
 _atom_site_occupancy
  La  La0  1  0.84729765  0.60517454  -0.67234630  1.0
  La  La1  1  0.39482546  0.67234630  -0.84729765  1.0
  La  La2  1  0.67234630  0.15270235  -0.60517454  1.0
  La  La3  1  0.15270235  0.39482546  -0.32765370  1.0
  La  La4  1  0.60517454  0.32765370  -0.15270235  1.0
  La  La5  1  0.32765370  0.84729765  -0.39482546  1.0
  La  La6  1  0.80231375  0.80231375  -0.19768625  1.0
  La  La7  1  1.19768625  1.19768625  0.19768625  1.0
  La  La8  1  0.00000000  0.00000000  0.00000000  1.0
  Ir  Ir9  1  0.58902095  -0.04643738  0.17185850  1.0
  Ir  Ir10  1  1.04643738  -0.17185850  -0.58902095  1.0
  Ir  Ir11  1  0.82814150  -0.58902095  0.04643738  1.0
  Ir  Ir12  1  0.41097905  0.04643738  -0.17185850  1.0
  Ir  Ir13  1  0.95356262  0.17185850  -0.41097905  1.0
  Ir  Ir14  1  1.17185850  -0.41097905  -0.04643738  1.0
