# generated using pymatgen
data_GePb3O5
_symmetry_space_group_name_H-M   'P 1'
_cell_length_a   5.42863559
_cell_length_b   10.71999832
_cell_length_c   5.66387987
_cell_angle_alpha   90.00000000
_cell_angle_beta   93.59561700
_cell_angle_gamma   90.00000000
_symmetry_Int_Tables_number   1
_chemical_formula_structural   GePb3O5
_chemical_formula_sum   'Ge2 Pb6 O10'
_cell_volume   328.96046070
_cell_formula_units_Z   2
loop_
 _symmetry_equiv_pos_site_id
 _symmetry_equiv_pos_as_xyz
  1  'x, y, z'
loop_
 _atom_site_type_symbol
 _atom_site_label
 _atom_site_symmetry_multiplicity
 _atom_site_fract_x
 _atom_site_fract_y
 _atom_site_fract_z
 _atom_site_occupancy
  Ge  Ge0  1  0.96938126  0.07626443  0.55799784  1.0
  Ge  Ge1  1  0.03061874  0.57626443  0.44200216  1.0
  Pb  Pb2  1  0.51917877  0.35440593  0.49539575  1.0
  Pb  Pb3  1  0.48082123  0.85440593  0.50460425  1.0
  Pb  Pb4  1  0.49968539  0.58343687  0.98492301  1.0
  Pb  Pb5  1  0.50031461  0.08343687  0.01507699  1.0
  Pb  Pb6  1  0.02711950  0.33791998  0.93915736  1.0
  Pb  Pb7  1  0.97288050  0.83791998  0.06084264  1.0
  O  O8  1  0.92406029  0.23946235  0.53538033  1.0
  O  O9  1  0.07593971  0.73946235  0.46461967  1.0
  O  O10  1  0.82267294  -0.00516913  0.31114225  1.0
  O  O11  1  0.17732706  0.49483087  0.68885775  1.0
  O  O12  1  0.82812663  0.01564012  0.81268192  1.0
  O  O13  1  0.17187337  0.51564012  0.18731808  1.0
  O  O14  1  0.62752975  0.38986862  0.89246269  1.0
  O  O15  1  0.37247025  0.88986862  0.10753731  1.0
  O  O16  1  0.29167477  0.04207084  0.60201886  1.0
  O  O17  1  0.70832523  0.54207084  0.39798114  1.0
