# generated using pymatgen
data_SbSBr
_symmetry_space_group_name_H-M   'P 1'
_cell_length_a   8.60211674
_cell_length_b   3.99110745
_cell_length_c   10.72320472
_cell_angle_alpha   90.00000000
_cell_angle_beta   90.00000000
_cell_angle_gamma   90.00000000
_symmetry_Int_Tables_number   1
_chemical_formula_structural   SbSBr
_chemical_formula_sum   'Sb4 S4 Br4'
_cell_volume   368.14876586
_cell_formula_units_Z   4
loop_
 _symmetry_equiv_pos_site_id
 _symmetry_equiv_pos_as_xyz
  1  'x, y, z'
loop_
 _atom_site_type_symbol
 _atom_site_label
 _atom_site_symmetry_multiplicity
 _atom_site_fract_x
 _atom_site_fract_y
 _atom_site_fract_z
 _atom_site_occupancy
  Sb  Sb0  1  0.90074132  0.75000000  0.13032403  1.0
  Sb  Sb1  1  0.40074132  0.75000000  0.36967597  1.0
  Sb  Sb2  1  0.09925868  0.25000000  0.86967597  1.0
  Sb  Sb3  1  0.59925868  0.25000000  0.63032403  1.0
  S  S4  1  0.66429932  0.75000000  0.46880601  1.0
  S  S5  1  0.16429932  0.75000000  0.03119399  1.0
  S  S6  1  0.33570068  0.25000000  0.53119399  1.0
  S  S7  1  0.83570068  0.25000000  0.96880601  1.0
  Br  Br8  1  0.96096290  0.75000000  0.70081396  1.0
  Br  Br9  1  0.46096290  0.75000000  0.79918604  1.0
  Br  Br10  1  0.03903710  0.25000000  0.29918604  1.0
  Br  Br11  1  0.53903710  0.25000000  0.20081396  1.0
