# generated using pymatgen
data_NaV3(PO4)3
_symmetry_space_group_name_H-M   'P 1'
_cell_length_a   9.11702827
_cell_length_b   9.11702827
_cell_length_c   9.11702827
_cell_angle_alpha   86.18485400
_cell_angle_beta   108.62655853
_cell_angle_gamma   138.34315905
_symmetry_Int_Tables_number   1
_chemical_formula_structural   NaV3(PO4)3
_chemical_formula_sum   'Na2 V6 P6 O24'
_cell_volume   459.14545431
_cell_formula_units_Z   2
loop_
 _symmetry_equiv_pos_site_id
 _symmetry_equiv_pos_as_xyz
  1  'x, y, z'
loop_
 _atom_site_type_symbol
 _atom_site_label
 _atom_site_symmetry_multiplicity
 _atom_site_fract_x
 _atom_site_fract_y
 _atom_site_fract_z
 _atom_site_occupancy
  Na  Na0  1  1.59943521  1.34943521  1.25000000  1.0
  Na  Na1  1  1.40056479  0.65056479  0.75000000  1.0
  V  V2  1  0.00000000  0.11681885  0.11681885  1.0
  V  V3  1  0.50000000  0.11681885  0.61681885  1.0
  V  V4  1  0.50000000  0.88318115  0.38318115  1.0
  V  V5  1  1.00000000  0.88318115  0.88318115  1.0
  V  V6  1  1.00000000  1.00000000  0.50000000  1.0
  V  V7  1  1.00000000  0.50000000  1.00000000  1.0
  P  P8  1  1.00000000  0.67795642  0.67795642  1.0
  P  P9  1  0.50000000  0.67795642  0.17795642  1.0
  P  P10  1  0.50000000  0.32204358  0.82204358  1.0
  P  P11  1  0.00000000  0.32204358  0.32204358  1.0
  P  P12  1  1.08147966  0.83147966  1.25000000  1.0
  P  P13  1  0.91852034  0.16852034  0.75000000  1.0
  O  O14  1  1.06739903  1.19973016  0.35139453  1.0
  O  O15  1  0.65166437  0.28399550  0.85139453  1.0
  O  O16  1  0.65166437  0.80026984  0.36766887  1.0
  O  O17  1  1.06739903  0.71600450  0.86766887  1.0
  O  O18  1  1.34833563  1.19973016  0.63233113  1.0
  O  O19  1  0.93260097  0.28399550  1.13233113  1.0
  O  O20  1  0.93260097  0.80026984  0.64860547  1.0
  O  O21  1  1.34833563  0.71600450  1.14860547  1.0
  O  O22  1  0.34514802  0.42586714  0.14887228  1.0
  O  O23  1  1.22300515  0.80372427  0.64887228  1.0
  O  O24  1  0.22300515  0.57413286  0.41928088  1.0
  O  O25  1  1.34514802  1.19627573  0.91928088  1.0
  O  O26  1  0.77699485  0.42586714  0.58071912  1.0
  O  O27  1  1.65485198  0.80372427  1.08071912  1.0
  O  O28  1  0.65485198  0.57413286  0.85112772  1.0
  O  O29  1  1.77699485  1.19627573  1.35112772  1.0
  O  O30  1  1.11285826  0.98115070  1.13170755  1.0
  O  O31  1  0.65055685  0.01884930  0.63170755  1.0
  O  O32  1  1.34944315  0.98115070  1.36829245  1.0
  O  O33  1  0.88714174  0.01884930  0.86829245  1.0
  O  O34  1  1.05187435  0.39707144  0.84519709  1.0
  O  O35  1  0.94812565  0.79332275  1.34519709  1.0
  O  O36  1  0.94812565  0.60292856  1.15480291  1.0
  O  O37  1  1.05187435  1.20667725  1.65480291  1.0
