# generated using pymatgen
data_Sr2Cu6P5
_symmetry_space_group_name_H-M   'P 1'
_cell_length_a   12.71767733
_cell_length_b   12.71767733
_cell_length_c   12.71767733
_cell_angle_alpha   161.38552300
_cell_angle_beta   161.38552300
_cell_angle_gamma   26.44328787
_symmetry_Int_Tables_number   1
_chemical_formula_structural   Sr2Cu6P5
_chemical_formula_sum   'Sr2 Cu6 P5'
_cell_volume   209.50246098
_cell_formula_units_Z   1
loop_
 _symmetry_equiv_pos_site_id
 _symmetry_equiv_pos_as_xyz
  1  'x, y, z'
loop_
 _atom_site_type_symbol
 _atom_site_label
 _atom_site_symmetry_multiplicity
 _atom_site_fract_x
 _atom_site_fract_y
 _atom_site_fract_z
 _atom_site_occupancy
  Sr  Sr0  1  0.85102027  0.85102027  1.00000000  1.0
  Sr  Sr1  1  0.14897973  0.14897973  0.00000000  1.0
  Cu  Cu2  1  0.44778501  0.94778501  0.50000000  1.0
  Cu  Cu3  1  0.55221499  0.05221499  0.50000000  1.0
  Cu  Cu4  1  0.94778501  0.44778501  0.50000000  1.0
  Cu  Cu5  1  0.05221499  0.55221499  0.50000000  1.0
  Cu  Cu6  1  0.25000000  0.75000000  0.50000000  1.0
  Cu  Cu7  1  0.75000000  0.25000000  0.50000000  1.0
  P  P8  1  0.69832488  0.69832488  1.00000000  1.0
  P  P9  1  0.30167512  0.30167512  0.00000000  1.0
  P  P10  1  0.60369162  0.60369162  1.00000000  1.0
  P  P11  1  0.39630838  0.39630838  0.00000000  1.0
  P  P12  1  0.00000000  0.00000000  0.00000000  1.0
