# generated using pymatgen
data_NaAs
_symmetry_space_group_name_H-M   'P 1'
_cell_length_a   6.28542563
_cell_length_b   5.95798812
_cell_length_c   11.64684780
_cell_angle_alpha   90.00000000
_cell_angle_beta   116.78762971
_cell_angle_gamma   90.00000000
_symmetry_Int_Tables_number   1
_chemical_formula_structural   NaAs
_chemical_formula_sum   'Na8 As8'
_cell_volume   389.34989262
_cell_formula_units_Z   8
loop_
 _symmetry_equiv_pos_site_id
 _symmetry_equiv_pos_as_xyz
  1  'x, y, z'
loop_
 _atom_site_type_symbol
 _atom_site_label
 _atom_site_symmetry_multiplicity
 _atom_site_fract_x
 _atom_site_fract_y
 _atom_site_fract_z
 _atom_site_occupancy
  Na  Na0  1  0.71909578  0.39102789  0.33011919  1.0
  Na  Na1  1  0.71909578  0.10897211  0.83011919  1.0
  Na  Na2  1  0.28090422  0.89102789  0.16988081  1.0
  Na  Na3  1  0.28090422  0.60897211  0.66988081  1.0
  Na  Na4  1  0.26510634  0.16322381  0.46698130  1.0
  Na  Na5  1  0.26510634  0.33677619  0.96698130  1.0
  Na  Na6  1  0.73489366  0.66322381  0.03301870  1.0
  Na  Na7  1  0.73489366  0.83677619  0.53301870  1.0
  As  As8  1  0.81999299  0.89449050  0.28957236  1.0
  As  As9  1  0.81999299  0.60550950  0.78957236  1.0
  As  As10  1  0.18000701  0.39449050  0.21042764  1.0
  As  As11  1  0.18000701  0.10550950  0.71042764  1.0
  As  As12  1  0.81253731  0.16107897  0.11913014  1.0
  As  As13  1  0.81253731  0.33892103  0.61913014  1.0
  As  As14  1  0.18746269  0.66107897  0.38086986  1.0
  As  As15  1  0.18746269  0.83892103  0.88086986  1.0
