# generated using pymatgen
data_NaSbO3
_symmetry_space_group_name_H-M   'P 1'
_cell_length_a   7.35807280
_cell_length_b   7.35807280
_cell_length_c   7.35807280
_cell_angle_alpha   60.00000000
_cell_angle_beta   60.00000000
_cell_angle_gamma   60.00000000
_symmetry_Int_Tables_number   1
_chemical_formula_structural   NaSbO3
_chemical_formula_sum   'Na4 Sb4 O12'
_cell_volume   281.69377091
_cell_formula_units_Z   4
loop_
 _symmetry_equiv_pos_site_id
 _symmetry_equiv_pos_as_xyz
  1  'x, y, z'
loop_
 _atom_site_type_symbol
 _atom_site_label
 _atom_site_symmetry_multiplicity
 _atom_site_fract_x
 _atom_site_fract_y
 _atom_site_fract_z
 _atom_site_occupancy
  Na  Na0  1  1.12500000  0.62500000  0.62500000  1.0
  Na  Na1  1  0.62500000  1.12500000  -0.37500000  1.0
  Na  Na2  1  -0.37500000  0.62500000  1.12500000  1.0
  Na  Na3  1  -0.37500000  0.62500000  0.62500000  1.0
  Sb  Sb4  1  0.62500000  1.12500000  0.12500000  1.0
  Sb  Sb5  1  0.12500000  1.62500000  0.12500000  1.0
  Sb  Sb6  1  0.12500000  0.12500000  1.62500000  1.0
  Sb  Sb7  1  0.12500000  0.12500000  0.12500000  1.0
  O  O8  1  0.79691756  0.79691756  -0.79691756  1.0
  O  O9  1  0.20308244  1.20308244  -0.20308244  1.0
  O  O10  1  0.79691756  -0.79691756  0.79691756  1.0
  O  O11  1  0.20308244  -0.20308244  0.20308244  1.0
  O  O12  1  -0.79691756  0.79691756  0.79691756  1.0
  O  O13  1  -0.20308244  0.20308244  0.20308244  1.0
  O  O14  1  -0.54691756  0.45308244  1.04691756  1.0
  O  O15  1  1.04691756  1.04691756  -0.54691756  1.0
  O  O16  1  0.45308244  1.04691756  0.45308244  1.0
  O  O17  1  1.04691756  0.45308244  1.04691756  1.0
  O  O18  1  1.04691756  0.45308244  -0.54691756  1.0
  O  O19  1  0.45308244  1.04691756  0.04691756  1.0
