# generated using pymatgen
data_Lu2Al4CoGe2
_symmetry_space_group_name_H-M   'P 1'
_cell_length_a   10.06325254
_cell_length_b   10.06325254
_cell_length_c   10.06325254
_cell_angle_alpha   156.56437644
_cell_angle_beta   156.56437644
_cell_angle_gamma   33.38259524
_symmetry_Int_Tables_number   1
_chemical_formula_structural   Lu2Al4CoGe2
_chemical_formula_sum   'Lu2 Al4 Co1 Ge2'
_cell_volume   161.05131519
_cell_formula_units_Z   1
loop_
 _symmetry_equiv_pos_site_id
 _symmetry_equiv_pos_as_xyz
  1  'x, y, z'
loop_
 _atom_site_type_symbol
 _atom_site_label
 _atom_site_symmetry_multiplicity
 _atom_site_fract_x
 _atom_site_fract_y
 _atom_site_fract_z
 _atom_site_occupancy
  Lu  Lu0  1  0.81542913  0.81542913  1.00000000  1.0
  Lu  Lu1  1  0.18457087  0.18457087  -0.00000000  1.0
  Al  Al2  1  0.43324683  0.93324683  0.50000000  1.0
  Al  Al3  1  0.56675317  0.06675317  0.50000000  1.0
  Al  Al4  1  0.93324683  0.43324683  0.50000000  1.0
  Al  Al5  1  0.06675317  0.56675317  0.50000000  1.0
  Co  Co6  1  0.00000000  0.00000000  0.00000000  1.0
  Ge  Ge7  1  0.66630198  0.66630198  1.00000000  1.0
  Ge  Ge8  1  0.33369802  0.33369802  -0.00000000  1.0
