# generated using pymatgen
data_BaNb2O6
_symmetry_space_group_name_H-M   'P 1'
_cell_length_a   15.89067319
_cell_length_b   6.44245428
_cell_length_c   5.38441367
_cell_angle_alpha   90.00000000
_cell_angle_beta   90.00000000
_cell_angle_gamma   90.00000000
_symmetry_Int_Tables_number   1
_chemical_formula_structural   BaNb2O6
_chemical_formula_sum   'Ba4 Nb8 O24'
_cell_volume   551.22900224
_cell_formula_units_Z   4
loop_
 _symmetry_equiv_pos_site_id
 _symmetry_equiv_pos_as_xyz
  1  'x, y, z'
loop_
 _atom_site_type_symbol
 _atom_site_label
 _atom_site_symmetry_multiplicity
 _atom_site_fract_x
 _atom_site_fract_y
 _atom_site_fract_z
 _atom_site_occupancy
  Ba  Ba0  1  0.00000000  0.73450396  0.75000000  1.0
  Ba  Ba1  1  0.00000000  0.26549604  0.25000000  1.0
  Ba  Ba2  1  0.50000000  0.23450396  0.75000000  1.0
  Ba  Ba3  1  0.50000000  0.76549604  0.25000000  1.0
  Nb  Nb4  1  0.66994369  0.68152690  0.71856969  1.0
  Nb  Nb5  1  0.66994369  0.31847310  0.21856969  1.0
  Nb  Nb6  1  0.16994369  0.18152690  0.78143031  1.0
  Nb  Nb7  1  0.16994369  0.81847310  0.28143031  1.0
  Nb  Nb8  1  0.33005631  0.68152690  0.78143031  1.0
  Nb  Nb9  1  0.33005631  0.31847310  0.28143031  1.0
  Nb  Nb10  1  0.83005631  0.18152690  0.71856969  1.0
  Nb  Nb11  1  0.83005631  0.81847310  0.21856969  1.0
  O  O12  1  0.88773699  0.95755169  0.49311831  1.0
  O  O13  1  0.88773699  0.04244831  -0.00688169  1.0
  O  O14  1  0.38773699  0.45755169  1.00688169  1.0
  O  O15  1  0.38773699  0.54244831  0.50688169  1.0
  O  O16  1  0.11226301  0.95755169  1.00688169  1.0
  O  O17  1  0.11226301  0.04244831  0.50688169  1.0
  O  O18  1  0.61226301  0.45755169  0.49311831  1.0
  O  O19  1  0.61226301  0.54244831  -0.00688169  1.0
  O  O20  1  0.75173226  0.82573297  0.91885979  1.0
  O  O21  1  0.75173226  0.17426703  0.41885979  1.0
  O  O22  1  0.25173226  0.32573297  0.58114021  1.0
  O  O23  1  0.25173226  0.67426703  0.08114021  1.0
  O  O24  1  0.24826774  0.82573297  0.58114021  1.0
  O  O25  1  0.24826774  0.17426703  0.08114021  1.0
  O  O26  1  0.74826774  0.32573297  0.91885979  1.0
  O  O27  1  0.74826774  0.67426703  0.41885979  1.0
  O  O28  1  0.59399161  0.87803077  0.65018965  1.0
  O  O29  1  0.59399161  0.12196923  0.15018965  1.0
  O  O30  1  0.09399161  0.37803077  0.84981035  1.0
  O  O31  1  0.09399161  0.62196923  0.34981035  1.0
  O  O32  1  0.40600839  0.87803077  0.84981035  1.0
  O  O33  1  0.40600839  0.12196923  0.34981035  1.0
  O  O34  1  0.90600839  0.37803077  0.65018965  1.0
  O  O35  1  0.90600839  0.62196923  0.15018965  1.0
