# generated using pymatgen
data_NaTl
_symmetry_space_group_name_H-M   'P 1'
_cell_length_a   5.31747294
_cell_length_b   5.31747294
_cell_length_c   10.37184742
_cell_angle_alpha   90.00000000
_cell_angle_beta   90.00000000
_cell_angle_gamma   120.00000000
_symmetry_Int_Tables_number   1
_chemical_formula_structural   NaTl
_chemical_formula_sum   'Na4 Tl4'
_cell_volume   253.97871869
_cell_formula_units_Z   4
loop_
 _symmetry_equiv_pos_site_id
 _symmetry_equiv_pos_as_xyz
  1  'x, y, z'
loop_
 _atom_site_type_symbol
 _atom_site_label
 _atom_site_symmetry_multiplicity
 _atom_site_fract_x
 _atom_site_fract_y
 _atom_site_fract_z
 _atom_site_occupancy
  Na  Na0  1  0.33333333  0.66666667  0.42185641  1.0
  Na  Na1  1  0.66666667  0.33333333  0.57814359  1.0
  Na  Na2  1  0.66666667  0.33333333  0.92185641  1.0
  Na  Na3  1  0.33333333  0.66666667  0.07814359  1.0
  Tl  Tl4  1  0.00000000  0.00000000  0.25000000  1.0
  Tl  Tl5  1  0.00000000  0.00000000  0.75000000  1.0
  Tl  Tl6  1  0.33333333  0.66666667  0.75000000  1.0
  Tl  Tl7  1  0.66666667  0.33333333  0.25000000  1.0
