# generated using pymatgen
data_V2O3
_symmetry_space_group_name_H-M   'P 1'
_cell_length_a   5.53669157
_cell_length_b   5.53669157
_cell_length_c   5.53669157
_cell_angle_alpha   51.90574164
_cell_angle_beta   51.90574164
_cell_angle_gamma   51.90574164
_symmetry_Int_Tables_number   1
_chemical_formula_structural   V2O3
_chemical_formula_sum   'V4 O6'
_cell_volume   97.16989552
_cell_formula_units_Z   2
loop_
 _symmetry_equiv_pos_site_id
 _symmetry_equiv_pos_as_xyz
  1  'x, y, z'
loop_
 _atom_site_type_symbol
 _atom_site_label
 _atom_site_symmetry_multiplicity
 _atom_site_fract_x
 _atom_site_fract_y
 _atom_site_fract_z
 _atom_site_occupancy
  V  V0  1  0.84037366  -0.15962634  -0.15962634  1.0
  V  V1  1  0.34037366  0.34037366  0.34037366  1.0
  V  V2  1  0.65962634  0.65962634  -0.34037366  1.0
  V  V3  1  1.15962634  0.15962634  0.15962634  1.0
  O  O4  1  0.42563660  0.75000000  0.07436340  1.0
  O  O5  1  0.92563660  -0.42563660  0.25000000  1.0
  O  O6  1  0.25000000  0.92563660  -0.42563660  1.0
  O  O7  1  0.75000000  1.07436340  -0.57436340  1.0
  O  O8  1  0.57436340  0.25000000  -0.07436340  1.0
  O  O9  1  1.07436340  0.42563660  -0.25000000  1.0
