# generated using pymatgen
data_Te8IrI5
_symmetry_space_group_name_H-M   'P 1'
_cell_length_a   10.62481869
_cell_length_b   10.00472097
_cell_length_c   11.63769821
_cell_angle_alpha   111.30086197
_cell_angle_beta   101.26214014
_cell_angle_gamma   92.45537933
_symmetry_Int_Tables_number   1
_chemical_formula_structural   Te8IrI5
_chemical_formula_sum   'Te16 Ir2 I10'
_cell_volume   1121.56637530
_cell_formula_units_Z   2
loop_
 _symmetry_equiv_pos_site_id
 _symmetry_equiv_pos_as_xyz
  1  'x, y, z'
loop_
 _atom_site_type_symbol
 _atom_site_label
 _atom_site_symmetry_multiplicity
 _atom_site_fract_x
 _atom_site_fract_y
 _atom_site_fract_z
 _atom_site_occupancy
  Te  Te0  1  -0.67608450  -0.93883694  -0.56354815  1.0
  Te  Te1  1  -0.32391550  -0.06116306  -0.43645185  1.0
  Te  Te2  1  -0.51252025  -0.89740337  -0.32051146  1.0
  Te  Te3  1  -0.48747975  -0.10259663  -0.67948854  1.0
  Te  Te4  1  -0.43664902  -0.80467801  -0.72098833  1.0
  Te  Te5  1  -0.56335098  -0.19532199  -0.27901167  1.0
  Te  Te6  1  -0.79872227  -0.79069718  -0.82280337  1.0
  Te  Te7  1  -0.20127773  -0.20930282  -0.17719663  1.0
  Te  Te8  1  -0.80825267  -0.57250806  -0.47712030  1.0
  Te  Te9  1  -0.19174733  -0.42749194  -0.52287970  1.0
  Te  Te10  1  -0.35811335  -0.55387359  -0.77141818  1.0
  Te  Te11  1  -0.64188665  -0.44612641  -0.22858182  1.0
  Te  Te12  1  -0.55855963  -0.43319712  -0.62172288  1.0
  Te  Te13  1  -0.44144037  -0.56680288  -0.37827712  1.0
  Te  Te14  1  -0.76954569  -0.29204754  -0.50105751  1.0
  Te  Te15  1  -0.23045431  -0.70795246  -0.49894249  1.0
  Ir  Ir16  1  -0.62364852  -0.68936047  -0.59986813  1.0
  Ir  Ir17  1  -0.37635148  -0.31063953  -0.40013187  1.0
  I  I18  1  -0.00916996  -0.90585324  -0.74564305  1.0
  I  I19  1  -0.99083004  -0.09414676  -0.25435695  1.0
  I  I20  1  -0.85046736  -0.79842767  -0.35630187  1.0
  I  I21  1  -0.14953264  -0.20157233  -0.64369813  1.0
  I  I22  1  -0.61929859  -0.70714378  -0.98145829  1.0
  I  I23  1  -0.38070141  -0.29285622  -0.01854171  1.0
  I  I24  1  -0.92684759  -0.52130486  -0.79190831  1.0
  I  I25  1  -0.07315241  -0.47869514  -0.20809169  1.0
  I  I26  1  -0.71663331  -0.09421053  -0.91494218  1.0
  I  I27  1  -0.28336669  -0.90578947  -0.08505782  1.0
