# generated using pymatgen
data_TlP5
_symmetry_space_group_name_H-M   'P 1'
_cell_length_a   6.52460431
_cell_length_b   7.30968601
_cell_length_c   12.44496188
_cell_angle_alpha   90.00000000
_cell_angle_beta   90.00000000
_cell_angle_gamma   90.00000000
_symmetry_Int_Tables_number   1
_chemical_formula_structural   TlP5
_chemical_formula_sum   'Tl4 P20'
_cell_volume   593.53518840
_cell_formula_units_Z   4
loop_
 _symmetry_equiv_pos_site_id
 _symmetry_equiv_pos_as_xyz
  1  'x, y, z'
loop_
 _atom_site_type_symbol
 _atom_site_label
 _atom_site_symmetry_multiplicity
 _atom_site_fract_x
 _atom_site_fract_y
 _atom_site_fract_z
 _atom_site_occupancy
  Tl  Tl0  1  0.50000000  0.27890169  0.78339474  1.0
  Tl  Tl1  1  0.50000000  0.72109831  0.28339474  1.0
  Tl  Tl2  1  0.00000000  0.53606317  0.62607567  1.0
  Tl  Tl3  1  -0.00000000  0.46393683  0.12607567  1.0
  P  P4  1  0.74986277  0.73516674  0.89068638  1.0
  P  P5  1  0.74986277  0.26483326  0.39068638  1.0
  P  P6  1  0.25013723  0.73516674  0.89068638  1.0
  P  P7  1  0.25013723  0.26483326  0.39068638  1.0
  P  P8  1  0.75426727  0.91418877  0.04051345  1.0
  P  P9  1  0.75426727  0.08581123  0.54051345  1.0
  P  P10  1  0.24573273  0.91418877  0.04051345  1.0
  P  P11  1  0.24573273  0.08581123  0.54051345  1.0
  P  P12  1  0.50000000  0.88527482  0.51151647  1.0
  P  P13  1  0.50000000  0.11472518  0.01151647  1.0
  P  P14  1  0.50000000  0.86346505  0.79083872  1.0
  P  P15  1  0.50000000  0.13653495  0.29083872  1.0
  P  P16  1  0.50000000  0.69025531  0.64532487  1.0
  P  P17  1  0.50000000  0.30974469  0.14532487  1.0
  P  P18  1  0.00000000  0.88676628  0.49680313  1.0
  P  P19  1  0.00000000  0.11323372  -0.00319687  1.0
  P  P20  1  0.00000000  0.85045717  0.32463037  1.0
  P  P21  1  -0.00000000  0.14954283  0.82463037  1.0
  P  P22  1  -0.00000000  0.85662503  0.79231634  1.0
  P  P23  1  0.00000000  0.14337497  0.29231634  1.0
