# generated using pymatgen
data_NaYO2
_symmetry_space_group_name_H-M   'P 1'
_cell_length_a   7.42737714
_cell_length_b   7.42737714
_cell_length_c   5.98022672
_cell_angle_alpha   76.00945087
_cell_angle_beta   103.99054913
_cell_angle_gamma   53.37365202
_symmetry_Int_Tables_number   1
_chemical_formula_structural   NaYO2
_chemical_formula_sum   'Na4 Y4 O8'
_cell_volume   223.12824482
_cell_formula_units_Z   4
loop_
 _symmetry_equiv_pos_site_id
 _symmetry_equiv_pos_as_xyz
  1  'x, y, z'
loop_
 _atom_site_type_symbol
 _atom_site_label
 _atom_site_symmetry_multiplicity
 _atom_site_fract_x
 _atom_site_fract_y
 _atom_site_fract_z
 _atom_site_occupancy
  Na  Na0  1  0.94420679  0.94420679  0.75000000  1.0
  Na  Na1  1  1.05579321  0.05579321  0.25000000  1.0
  Na  Na2  1  1.18025418  0.18025418  0.75000000  1.0
  Na  Na3  1  0.81974582  0.81974582  0.25000000  1.0
  Y  Y4  1  0.69327786  0.69327786  0.75000000  1.0
  Y  Y5  1  1.30672214  0.30672214  0.25000000  1.0
  Y  Y6  1  1.43288248  0.43288248  0.75000000  1.0
  Y  Y7  1  0.56711752  0.56711752  0.25000000  1.0
  O  O8  1  1.35958128  -0.23250558  0.79556483  1.0
  O  O9  1  1.23250558  0.64041872  0.29556483  1.0
  O  O10  1  0.76749442  0.35958128  0.70443517  1.0
  O  O11  1  1.64041872  0.23250558  0.20443517  1.0
  O  O12  1  1.53973000  0.08402979  0.70629313  1.0
  O  O13  1  0.91597021  0.46027000  0.20629313  1.0
  O  O14  1  1.08402979  0.53973000  0.79370687  1.0
  O  O15  1  1.46027000  -0.08402979  0.29370687  1.0
