# generated using pymatgen
data_Ge
_symmetry_space_group_name_H-M   'P 1'
_cell_length_a   11.06905669
_cell_length_b   11.06905669
_cell_length_c   11.06905669
_cell_angle_alpha   60.00000000
_cell_angle_beta   60.00000000
_cell_angle_gamma   60.00000000
_symmetry_Int_Tables_number   1
_chemical_formula_structural   Ge
_chemical_formula_sum   Ge34
_cell_volume   958.99609241
_cell_formula_units_Z   34
loop_
 _symmetry_equiv_pos_site_id
 _symmetry_equiv_pos_as_xyz
  1  'x, y, z'
loop_
 _atom_site_type_symbol
 _atom_site_label
 _atom_site_symmetry_multiplicity
 _atom_site_fract_x
 _atom_site_fract_y
 _atom_site_fract_z
 _atom_site_occupancy
  Ge  Ge0  1  0.75000000  -0.25000000  0.75000000  1.0
  Ge  Ge1  1  0.50000000  0.50000000  -0.50000000  1.0
  Ge  Ge2  1  -0.13682001  0.86317999  0.41046004  1.0
  Ge  Ge3  1  0.86317999  -0.58953996  0.86317999  1.0
  Ge  Ge4  1  -0.58953996  0.86317999  0.86317999  1.0
  Ge  Ge5  1  0.86317999  -0.13682001  0.86317999  1.0
  Ge  Ge6  1  0.38682001  0.38682001  -0.16046004  1.0
  Ge  Ge7  1  0.38682001  -0.16046004  0.38682001  1.0
  Ge  Ge8  1  -0.16046004  0.38682001  0.38682001  1.0
  Ge  Ge9  1  0.38682001  0.38682001  0.38682001  1.0
  Ge  Ge10  1  0.49710862  -0.11528470  1.12106745  1.0
  Ge  Ge11  1  0.49710862  -0.50289138  1.12106745  1.0
  Ge  Ge12  1  0.88471530  -0.50289138  1.12106745  1.0
  Ge  Ge13  1  0.49710862  0.12106745  0.88471530  1.0
  Ge  Ge14  1  0.88471530  0.12106745  0.49710862  1.0
  Ge  Ge15  1  0.49710862  0.12106745  0.49710862  1.0
  Ge  Ge16  1  1.12106745  -0.50289138  0.49710862  1.0
  Ge  Ge17  1  1.12106745  -0.11528470  0.49710862  1.0
  Ge  Ge18  1  1.12106745  -0.50289138  0.88471530  1.0
  Ge  Ge19  1  0.88471530  -0.50289138  0.49710862  1.0
  Ge  Ge20  1  0.49710862  -0.50289138  0.88471530  1.0
  Ge  Ge21  1  0.49710862  -0.11528470  0.49710862  1.0
  Ge  Ge22  1  0.75289138  -0.63471530  1.12893255  1.0
  Ge  Ge23  1  0.75289138  -0.24710862  1.12893255  1.0
  Ge  Ge24  1  -0.63471530  0.75289138  1.12893255  1.0
  Ge  Ge25  1  -0.24710862  1.12893255  0.36528470  1.0
  Ge  Ge26  1  -0.63471530  1.12893255  0.75289138  1.0
  Ge  Ge27  1  0.75289138  0.12893255  0.75289138  1.0
  Ge  Ge28  1  1.12893255  -0.24710862  0.75289138  1.0
  Ge  Ge29  1  1.12893255  -0.63471530  0.75289138  1.0
  Ge  Ge30  1  0.12893255  0.75289138  0.36528470  1.0
  Ge  Ge31  1  -0.63471530  0.75289138  0.75289138  1.0
  Ge  Ge32  1  -0.24710862  0.75289138  0.36528470  1.0
  Ge  Ge33  1  0.75289138  -0.63471530  0.75289138  1.0
