# generated using pymatgen
data_Cs3Mo4P3O16
_symmetry_space_group_name_H-M   'P 1'
_cell_length_a   7.82451756
_cell_length_b   7.82451756
_cell_length_c   7.82451756
_cell_angle_alpha   90.00000000
_cell_angle_beta   90.00000000
_cell_angle_gamma   90.00000000
_symmetry_Int_Tables_number   1
_chemical_formula_structural   Cs3Mo4P3O16
_chemical_formula_sum   'Cs3 Mo4 P3 O16'
_cell_volume   479.04102573
_cell_formula_units_Z   1
loop_
 _symmetry_equiv_pos_site_id
 _symmetry_equiv_pos_as_xyz
  1  'x, y, z'
loop_
 _atom_site_type_symbol
 _atom_site_label
 _atom_site_symmetry_multiplicity
 _atom_site_fract_x
 _atom_site_fract_y
 _atom_site_fract_z
 _atom_site_occupancy
  Cs  Cs0  1  0.00000000  0.50000000  0.50000000  1.0
  Cs  Cs1  1  0.50000000  0.00000000  0.50000000  1.0
  Cs  Cs2  1  0.50000000  0.50000000  0.00000000  1.0
  Mo  Mo3  1  0.88282514  0.88282514  0.11717486  1.0
  Mo  Mo4  1  0.88282514  0.11717486  0.88282514  1.0
  Mo  Mo5  1  0.11717486  0.88282514  0.88282514  1.0
  Mo  Mo6  1  0.11717486  0.11717486  0.11717486  1.0
  P  P7  1  0.50000000  0.00000000  0.00000000  1.0
  P  P8  1  0.00000000  0.50000000  0.00000000  1.0
  P  P9  1  0.00000000  0.00000000  0.50000000  1.0
  O  O10  1  0.88284311  0.88284311  0.38766708  1.0
  O  O11  1  0.88284311  0.61233292  0.11715689  1.0
  O  O12  1  0.88284311  0.11715689  0.61233292  1.0
  O  O13  1  0.88284311  0.38766708  0.88284311  1.0
  O  O14  1  0.61233292  0.88284311  0.11715689  1.0
  O  O15  1  0.61233292  0.11715689  0.88284311  1.0
  O  O16  1  0.11715689  0.88284311  0.61233292  1.0
  O  O17  1  0.11715689  0.61233292  0.88284311  1.0
  O  O18  1  0.11715689  0.11715689  0.38766708  1.0
  O  O19  1  0.11715689  0.38766708  0.11715689  1.0
  O  O20  1  0.38766708  0.88284311  0.88284311  1.0
  O  O21  1  0.38766708  0.11715689  0.11715689  1.0
  O  O22  1  0.14165292  0.14165292  0.85834708  1.0
  O  O23  1  0.14165292  0.85834708  0.14165292  1.0
  O  O24  1  0.85834708  0.14165292  0.14165292  1.0
  O  O25  1  0.85834708  0.85834708  0.85834708  1.0
