# generated using pymatgen
data_HfBi
_symmetry_space_group_name_H-M   'P 1'
_cell_length_a   5.76799106
_cell_length_b   5.76799106
_cell_length_c   14.40851155
_cell_angle_alpha   90.00000000
_cell_angle_beta   90.00000000
_cell_angle_gamma   141.37769633
_symmetry_Int_Tables_number   1
_chemical_formula_structural   HfBi
_chemical_formula_sum   'Hf6 Bi6'
_cell_volume   299.21320090
_cell_formula_units_Z   6
loop_
 _symmetry_equiv_pos_site_id
 _symmetry_equiv_pos_as_xyz
  1  'x, y, z'
loop_
 _atom_site_type_symbol
 _atom_site_label
 _atom_site_symmetry_multiplicity
 _atom_site_fract_x
 _atom_site_fract_y
 _atom_site_fract_z
 _atom_site_occupancy
  Hf  Hf0  1  0.07165729  0.92834271  0.88894630  1.0
  Hf  Hf1  1  0.07165729  0.92834271  0.61105370  1.0
  Hf  Hf2  1  -0.07165729  0.07165729  0.38894630  1.0
  Hf  Hf3  1  -0.07165729  0.07165729  0.11105370  1.0
  Hf  Hf4  1  0.40531887  0.59468113  0.75000000  1.0
  Hf  Hf5  1  -0.40531887  0.40531887  0.25000000  1.0
  Bi  Bi6  1  0.35910570  0.64089430  0.94999955  1.0
  Bi  Bi7  1  0.35910570  0.64089430  0.55000045  1.0
  Bi  Bi8  1  -0.35910570  0.35910570  0.44999955  1.0
  Bi  Bi9  1  -0.35910570  0.35910570  0.05000045  1.0
  Bi  Bi10  1  -0.31160848  0.31160848  0.75000000  1.0
  Bi  Bi11  1  0.31160848  0.68839152  0.25000000  1.0
