# generated using pymatgen
data_AgHCO2
_symmetry_space_group_name_H-M   'P 1'
_cell_length_a   8.43752038
_cell_length_b   9.86701040
_cell_length_c   6.71988404
_cell_angle_alpha   90.00000000
_cell_angle_beta   90.00000000
_cell_angle_gamma   90.00000000
_symmetry_Int_Tables_number   1
_chemical_formula_structural   AgHCO2
_chemical_formula_sum   'Ag8 H8 C8 O16'
_cell_volume   559.45118718
_cell_formula_units_Z   8
loop_
 _symmetry_equiv_pos_site_id
 _symmetry_equiv_pos_as_xyz
  1  'x, y, z'
loop_
 _atom_site_type_symbol
 _atom_site_label
 _atom_site_symmetry_multiplicity
 _atom_site_fract_x
 _atom_site_fract_y
 _atom_site_fract_z
 _atom_site_occupancy
  Ag  Ag0  1  0.37624496  0.90645771  0.52122363  1.0
  Ag  Ag1  1  0.12375504  0.59354229  0.52122363  1.0
  Ag  Ag2  1  0.87624496  0.09354229  0.97877637  1.0
  Ag  Ag3  1  0.62375504  0.40645771  0.97877637  1.0
  Ag  Ag4  1  0.62375504  0.09354229  0.47877637  1.0
  Ag  Ag5  1  0.87624496  0.40645771  0.47877637  1.0
  Ag  Ag6  1  0.12375504  0.90645771  0.02122363  1.0
  Ag  Ag7  1  0.37624496  0.59354229  0.02122363  1.0
  H  H8  1  0.39647011  0.16350302  0.00984068  1.0
  H  H9  1  0.10352989  0.33649698  0.00984068  1.0
  H  H10  1  0.89647011  0.83649698  0.49015932  1.0
  H  H11  1  0.60352989  0.66350302  0.49015932  1.0
  H  H12  1  0.60352989  0.83649698  0.99015932  1.0
  H  H13  1  0.89647011  0.66350302  0.99015932  1.0
  H  H14  1  0.10352989  0.16350302  0.50984068  1.0
  H  H15  1  0.39647011  0.33649698  0.50984068  1.0
  C  C16  1  0.42775859  0.12076797  0.86259698  1.0
  C  C17  1  0.07224141  0.37923203  0.86259698  1.0
  C  C18  1  0.92775859  0.87923203  0.63740302  1.0
  C  C19  1  0.57224141  0.62076797  0.63740302  1.0
  C  C20  1  0.57224141  0.87923203  0.13740302  1.0
  C  C21  1  0.92775859  0.62076797  0.13740302  1.0
  C  C22  1  0.07224141  0.12076797  0.36259698  1.0
  C  C23  1  0.42775859  0.37923203  0.36259698  1.0
  O  O24  1  0.34700294  0.01967950  0.80601114  1.0
  O  O25  1  0.15299706  0.48032050  0.80601114  1.0
  O  O26  1  0.84700294  0.98032050  0.69398886  1.0
  O  O27  1  0.65299706  0.51967950  0.69398886  1.0
  O  O28  1  0.65299706  0.98032050  0.19398886  1.0
  O  O29  1  0.84700294  0.51967950  0.19398886  1.0
  O  O30  1  0.15299706  0.01967950  0.30601114  1.0
  O  O31  1  0.34700294  0.48032050  0.30601114  1.0
  O  O32  1  0.54054757  0.17882173  0.77128817  1.0
  O  O33  1  0.95945243  0.32117827  0.77128817  1.0
  O  O34  1  0.04054757  0.82117827  0.72871183  1.0
  O  O35  1  0.45945243  0.67882173  0.72871183  1.0
  O  O36  1  0.45945243  0.82117827  0.22871183  1.0
  O  O37  1  0.04054757  0.67882173  0.22871183  1.0
  O  O38  1  0.95945243  0.17882173  0.27128817  1.0
  O  O39  1  0.54054757  0.32117827  0.27128817  1.0
