# generated using pymatgen
data_Mn2GeS4
_symmetry_space_group_name_H-M   'P 1'
_cell_length_a   12.83027428
_cell_length_b   7.47183851
_cell_length_c   6.05746540
_cell_angle_alpha   90.00000000
_cell_angle_beta   90.00000000
_cell_angle_gamma   90.00000000
_symmetry_Int_Tables_number   1
_chemical_formula_structural   Mn2GeS4
_chemical_formula_sum   'Mn8 Ge4 S16'
_cell_volume   580.70338755
_cell_formula_units_Z   4
loop_
 _symmetry_equiv_pos_site_id
 _symmetry_equiv_pos_as_xyz
  1  'x, y, z'
loop_
 _atom_site_type_symbol
 _atom_site_label
 _atom_site_symmetry_multiplicity
 _atom_site_fract_x
 _atom_site_fract_y
 _atom_site_fract_z
 _atom_site_occupancy
  Mn  Mn0  1  0.76909319  0.25000000  0.50392591  1.0
  Mn  Mn1  1  0.26909319  0.25000000  -0.00392591  1.0
  Mn  Mn2  1  0.23090681  0.75000000  0.49607409  1.0
  Mn  Mn3  1  0.73090681  0.75000000  1.00392591  1.0
  Mn  Mn4  1  0.00000000  0.50000000  0.00000000  1.0
  Mn  Mn5  1  0.00000000  0.00000000  0.00000000  1.0
  Mn  Mn6  1  0.50000000  0.50000000  0.50000000  1.0
  Mn  Mn7  1  0.50000000  0.00000000  0.50000000  1.0
  Ge  Ge8  1  0.58934764  0.25000000  0.08368347  1.0
  Ge  Ge9  1  0.08934764  0.25000000  0.41631653  1.0
  Ge  Ge10  1  0.41065236  0.75000000  0.91631653  1.0
  Ge  Ge11  1  0.91065236  0.75000000  0.58368347  1.0
  S  S12  1  0.66761617  0.48399762  0.25094889  1.0
  S  S13  1  0.66761617  0.01600238  0.25094889  1.0
  S  S14  1  0.16761617  0.48399762  0.24905111  1.0
  S  S15  1  0.16761617  0.01600238  0.24905111  1.0
  S  S16  1  0.33238383  0.98399762  0.74905111  1.0
  S  S17  1  0.33238383  0.51600238  0.74905111  1.0
  S  S18  1  0.83238383  0.98399762  0.75094889  1.0
  S  S19  1  0.83238383  0.51600238  0.75094889  1.0
  S  S20  1  0.92997250  0.25000000  0.25665428  1.0
  S  S21  1  0.42997250  0.25000000  0.24334572  1.0
  S  S22  1  0.07002750  0.75000000  0.74334572  1.0
  S  S23  1  0.57002750  0.75000000  0.75665428  1.0
  S  S24  1  0.59278142  0.25000000  0.71637035  1.0
  S  S25  1  0.09278142  0.25000000  0.78362965  1.0
  S  S26  1  0.40721858  0.75000000  0.28362965  1.0
  S  S27  1  0.90721858  0.75000000  0.21637035  1.0
