# generated using pymatgen
data_Yb4Ge3(O3F2)3
_symmetry_space_group_name_H-M   'P 1'
_cell_length_a   9.25107628
_cell_length_b   9.25107628
_cell_length_c   7.12355509
_cell_angle_alpha   90.00000000
_cell_angle_beta   90.00000000
_cell_angle_gamma   71.74056490
_symmetry_Int_Tables_number   1
_chemical_formula_structural   Yb4Ge3(O3F2)3
_chemical_formula_sum   'Yb8 Ge6 O18 F12'
_cell_volume   578.95360210
_cell_formula_units_Z   2
loop_
 _symmetry_equiv_pos_site_id
 _symmetry_equiv_pos_as_xyz
  1  'x, y, z'
loop_
 _atom_site_type_symbol
 _atom_site_label
 _atom_site_symmetry_multiplicity
 _atom_site_fract_x
 _atom_site_fract_y
 _atom_site_fract_z
 _atom_site_occupancy
  Yb  Yb0  1  0.41919050  0.83699186  0.75000000  1.0
  Yb  Yb1  1  -0.16300814  1.41919050  0.25000000  1.0
  Yb  Yb2  1  -0.41919050  1.16300814  0.25000000  1.0
  Yb  Yb3  1  0.16300814  0.58080950  0.75000000  1.0
  Yb  Yb4  1  0.79235190  0.91771357  0.75000000  1.0
  Yb  Yb5  1  -0.08228643  1.79235190  0.25000000  1.0
  Yb  Yb6  1  -0.79235190  1.08228643  0.25000000  1.0
  Yb  Yb7  1  0.08228643  0.20764810  0.75000000  1.0
  Ge  Ge8  1  0.50000000  0.50000000  0.50000000  1.0
  Ge  Ge9  1  0.50000000  0.50000000  0.00000000  1.0
  Ge  Ge10  1  -0.53929740  1.22637673  0.75000000  1.0
  Ge  Ge11  1  0.22637673  0.46070260  0.25000000  1.0
  Ge  Ge12  1  0.53929740  0.77362327  0.25000000  1.0
  Ge  Ge13  1  -0.22637673  1.53929740  0.75000000  1.0
  O  O14  1  -0.46386777  1.28579162  0.54213630  1.0
  O  O15  1  0.28579162  0.53613223  0.45786370  1.0
  O  O16  1  -0.46386777  1.28579162  0.95786370  1.0
  O  O17  1  0.28579162  0.53613223  0.04213630  1.0
  O  O18  1  0.46386777  0.71420838  0.45786370  1.0
  O  O19  1  -0.28579162  1.46386777  0.54213630  1.0
  O  O20  1  0.46386777  0.71420838  0.04213630  1.0
  O  O21  1  -0.28579162  1.46386777  0.95786370  1.0
  O  O22  1  -0.46566461  1.02724732  0.75000000  1.0
  O  O23  1  0.02724732  0.53433539  0.25000000  1.0
  O  O24  1  0.46566461  0.97275268  0.25000000  1.0
  O  O25  1  -0.02724732  1.46566461  0.75000000  1.0
  O  O26  1  0.68400352  0.73691129  0.75000000  1.0
  O  O27  1  -0.26308871  1.68400352  0.25000000  1.0
  O  O28  1  -0.68400352  1.26308871  0.25000000  1.0
  O  O29  1  0.26308871  0.31599648  0.75000000  1.0
  O  O30  1  -0.44094512  1.44094512  0.25000000  1.0
  O  O31  1  0.44094512  0.55905488  0.75000000  1.0
  F  F32  1  0.74543791  0.96878009  0.43798075  1.0
  F  F33  1  -0.03121991  1.74543791  0.56201925  1.0
  F  F34  1  0.74543791  0.96878009  0.06201925  1.0
  F  F35  1  -0.03121991  1.74543791  0.93798075  1.0
  F  F36  1  -0.74543791  1.03121991  0.56201925  1.0
  F  F37  1  0.03121991  0.25456209  0.43798075  1.0
  F  F38  1  -0.74543791  1.03121991  0.93798075  1.0
  F  F39  1  0.03121991  0.25456209  0.06201925  1.0
  F  F40  1  -0.19462202  1.19462202  0.25000000  1.0
  F  F41  1  0.19462202  0.80537798  0.75000000  1.0
  F  F42  1  -0.09371277  1.09371277  0.75000000  1.0
  F  F43  1  0.09371277  0.90628723  0.25000000  1.0
