# generated using pymatgen
data_Ga2GeO5
_symmetry_space_group_name_H-M   'P 1'
_cell_length_a   8.22708127
_cell_length_b   8.40379513
_cell_length_c   5.91920213
_cell_angle_alpha   90.00000000
_cell_angle_beta   90.00000000
_cell_angle_gamma   90.00000000
_symmetry_Int_Tables_number   1
_chemical_formula_structural   Ga2GeO5
_chemical_formula_sum   'Ga8 Ge4 O20'
_cell_volume   409.24597297
_cell_formula_units_Z   4
loop_
 _symmetry_equiv_pos_site_id
 _symmetry_equiv_pos_as_xyz
  1  'x, y, z'
loop_
 _atom_site_type_symbol
 _atom_site_label
 _atom_site_symmetry_multiplicity
 _atom_site_fract_x
 _atom_site_fract_y
 _atom_site_fract_z
 _atom_site_occupancy
  Ga  Ga0  1  0.87010175  0.64062642  0.50000000  1.0
  Ga  Ga1  1  0.37010175  0.85937358  -0.00000000  1.0
  Ga  Ga2  1  0.12989825  0.35937358  0.50000000  1.0
  Ga  Ga3  1  0.62989825  0.14062642  -0.00000000  1.0
  Ga  Ga4  1  0.50000000  0.50000000  0.24363162  1.0
  Ga  Ga5  1  0.50000000  0.50000000  0.75636838  1.0
  Ga  Ga6  1  0.00000000  0.00000000  0.74363162  1.0
  Ga  Ga7  1  0.00000000  0.00000000  0.25636838  1.0
  Ge  Ge8  1  0.24642209  0.75029089  0.50000000  1.0
  Ge  Ge9  1  0.74642209  0.74970911  0.00000000  1.0
  Ge  Ge10  1  0.75357791  0.24970911  0.50000000  1.0
  Ge  Ge11  1  0.25357791  0.25029089  0.00000000  1.0
  O  O12  1  0.23037087  0.87246658  0.25654047  1.0
  O  O13  1  0.23037087  0.87246658  0.74345953  1.0
  O  O14  1  0.73037087  0.62753342  0.75654047  1.0
  O  O15  1  0.73037087  0.62753342  0.24345953  1.0
  O  O16  1  0.76962913  0.12753342  0.25654047  1.0
  O  O17  1  0.76962913  0.12753342  0.74345953  1.0
  O  O18  1  0.26962913  0.37246658  0.75654047  1.0
  O  O19  1  0.26962913  0.37246658  0.24345953  1.0
  O  O20  1  0.43109667  0.63739228  0.50000000  1.0
  O  O21  1  0.93109667  0.86260772  0.00000000  1.0
  O  O22  1  0.56890333  0.36260772  0.50000000  1.0
  O  O23  1  0.06890333  0.13739228  0.00000000  1.0
  O  O24  1  0.10021970  0.59778157  0.50000000  1.0
  O  O25  1  0.60021970  0.90221843  0.00000000  1.0
  O  O26  1  0.89978030  0.40221843  0.50000000  1.0
  O  O27  1  0.39978030  0.09778157  0.00000000  1.0
  O  O28  1  0.92720938  0.86370513  0.50000000  1.0
  O  O29  1  0.42720938  0.63629487  0.00000000  1.0
  O  O30  1  0.07279062  0.13629487  0.50000000  1.0
  O  O31  1  0.57279062  0.36370513  0.00000000  1.0
