# generated using pymatgen
data_CsHO
_symmetry_space_group_name_H-M   'P 1'
_cell_length_a   4.53972911
_cell_length_b   4.43509154
_cell_length_c   11.66111945
_cell_angle_alpha   90.00000000
_cell_angle_beta   90.00000000
_cell_angle_gamma   90.00000000
_symmetry_Int_Tables_number   1
_chemical_formula_structural   CsHO
_chemical_formula_sum   'Cs4 H4 O4'
_cell_volume   234.78631069
_cell_formula_units_Z   4
loop_
 _symmetry_equiv_pos_site_id
 _symmetry_equiv_pos_as_xyz
  1  'x, y, z'
loop_
 _atom_site_type_symbol
 _atom_site_label
 _atom_site_symmetry_multiplicity
 _atom_site_fract_x
 _atom_site_fract_y
 _atom_site_fract_z
 _atom_site_occupancy
  Cs  Cs0  1  0.75321952  0.75000000  0.61129714  1.0
  Cs  Cs1  1  0.25321952  0.75000000  0.88870286  1.0
  Cs  Cs2  1  0.24678048  0.25000000  0.38870286  1.0
  Cs  Cs3  1  0.74678048  0.25000000  0.11129714  1.0
  H  H4  1  0.64115065  0.75000000  0.28874171  1.0
  H  H5  1  0.14115065  0.75000000  0.21125829  1.0
  H  H6  1  0.35884935  0.25000000  0.71125829  1.0
  H  H7  1  0.85884935  0.25000000  0.78874171  1.0
  O  O8  1  0.79089073  0.75000000  0.34923213  1.0
  O  O9  1  0.29089073  0.75000000  0.15076787  1.0
  O  O10  1  0.20910927  0.25000000  0.65076787  1.0
  O  O11  1  0.70910927  0.25000000  0.84923213  1.0
