# generated using pymatgen
data_H5C2ClO
_symmetry_space_group_name_H-M   'P 1'
_cell_length_a   6.55588273
_cell_length_b   8.55982804
_cell_length_c   8.92614871
_cell_angle_alpha   90.00000000
_cell_angle_beta   110.77853206
_cell_angle_gamma   90.00000000
_symmetry_Int_Tables_number   1
_chemical_formula_structural   H5C2ClO
_chemical_formula_sum   'H20 C8 Cl4 O4'
_cell_volume   468.33082685
_cell_formula_units_Z   4
loop_
 _symmetry_equiv_pos_site_id
 _symmetry_equiv_pos_as_xyz
  1  'x, y, z'
loop_
 _atom_site_type_symbol
 _atom_site_label
 _atom_site_symmetry_multiplicity
 _atom_site_fract_x
 _atom_site_fract_y
 _atom_site_fract_z
 _atom_site_occupancy
  H  H0  1  0.49070536  0.71510504  0.18237549  1.0
  H  H1  1  0.49070536  0.78489496  0.68237549  1.0
  H  H2  1  0.50929464  0.28489496  0.81762451  1.0
  H  H3  1  0.50929464  0.21510504  0.31762451  1.0
  H  H4  1  0.60304879  0.85265755  0.07484866  1.0
  H  H5  1  0.60304879  0.64734245  0.57484866  1.0
  H  H6  1  0.39695121  0.14734245  0.92515134  1.0
  H  H7  1  0.39695121  0.35265755  0.42515134  1.0
  H  H8  1  0.15239385  0.77576308  0.19816099  1.0
  H  H9  1  0.15239385  0.72423692  0.69816099  1.0
  H  H10  1  0.84760615  0.22423692  0.80183901  1.0
  H  H11  1  0.84760615  0.27576308  0.30183901  1.0
  H  H12  1  0.27705958  0.93317935  0.33341025  1.0
  H  H13  1  0.27705958  0.56682065  0.83341025  1.0
  H  H14  1  0.72294042  0.06682065  0.66658975  1.0
  H  H15  1  0.72294042  0.43317935  0.16658975  1.0
  H  H16  1  0.05246236  0.97198158  0.15188230  1.0
  H  H17  1  0.05246236  0.52801842  0.65188230  1.0
  H  H18  1  0.94753764  0.02801842  0.84811770  1.0
  H  H19  1  0.94753764  0.47198158  0.34811770  1.0
  C  C20  1  0.52257337  0.83784337  0.16221349  1.0
  C  C21  1  0.52257337  0.66215663  0.66221349  1.0
  C  C22  1  0.47742663  0.16215663  0.83778651  1.0
  C  C23  1  0.47742663  0.33784337  0.33778651  1.0
  C  C24  1  0.19790607  0.90009393  0.20686972  1.0
  C  C25  1  0.19790607  0.59990607  0.70686972  1.0
  C  C26  1  0.80209393  0.09990607  0.79313028  1.0
  C  C27  1  0.80209393  0.40009393  0.29313028  1.0
  Cl  Cl28  1  0.73409642  0.89787492  0.35768297  1.0
  Cl  Cl29  1  0.73409642  0.60212508  0.85768297  1.0
  Cl  Cl30  1  0.26590358  0.10212508  0.64231703  1.0
  Cl  Cl31  1  0.26590358  0.39787492  0.14231703  1.0
  O  O32  1  0.34074549  0.93044189  0.11933223  1.0
  O  O33  1  0.34074549  0.56955811  0.61933223  1.0
  O  O34  1  0.65925451  0.06955811  0.88066777  1.0
  O  O35  1  0.65925451  0.43044189  0.38066777  1.0
