# generated using pymatgen
data_FeCo2(CN)6
_symmetry_space_group_name_H-M   'P 1'
_cell_length_a   6.95508855
_cell_length_b   6.95508855
_cell_length_c   6.95508855
_cell_angle_alpha   60.00000000
_cell_angle_beta   60.00000000
_cell_angle_gamma   60.00000000
_symmetry_Int_Tables_number   1
_chemical_formula_structural   FeCo2(CN)6
_chemical_formula_sum   'Fe1 Co2 C6 N6'
_cell_volume   237.89920639
_cell_formula_units_Z   1
loop_
 _symmetry_equiv_pos_site_id
 _symmetry_equiv_pos_as_xyz
  1  'x, y, z'
loop_
 _atom_site_type_symbol
 _atom_site_label
 _atom_site_symmetry_multiplicity
 _atom_site_fract_x
 _atom_site_fract_y
 _atom_site_fract_z
 _atom_site_occupancy
  C  C0  1  -0.19065431  0.19065431  0.80934569  1.0
  C  C1  1  -0.19065431  0.80934569  0.19065431  1.0
  C  C2  1  -0.80934569  0.80934569  0.80934569  1.0
  C  C3  1  0.19065431  -0.19065431  0.19065431  1.0
  C  C4  1  0.19065431  1.19065431  -0.19065431  1.0
  C  C5  1  -0.19065431  0.19065431  0.19065431  1.0
  N  N6  1  -0.30986996  0.30986996  0.69013004  1.0
  N  N7  1  -0.30986996  0.69013004  0.30986996  1.0
  N  N8  1  -0.69013004  0.69013004  0.69013004  1.0
  N  N9  1  0.30986996  -0.30986996  0.30986996  1.0
  N  N10  1  0.30986996  1.30986996  -0.30986996  1.0
  N  N11  1  -0.30986996  0.30986996  0.30986996  1.0
  Fe  Fe12  1  0.00000000  0.00000000  0.00000000  1.0
  Co  Co13  1  -0.50000000  0.50000000  0.50000000  1.0
  Co  Co14  1  0.75000000  0.75000000  -0.25000000  1.0
