# generated using pymatgen
data_TaCl4F
_symmetry_space_group_name_H-M   'P 1'
_cell_length_a   10.34015272
_cell_length_b   10.34015272
_cell_length_c   10.34015272
_cell_angle_alpha   99.88144808
_cell_angle_beta   99.88144808
_cell_angle_gamma   131.05473885
_symmetry_Int_Tables_number   1
_chemical_formula_structural   TaCl4F
_chemical_formula_sum   'Ta4 Cl16 F4'
_cell_volume   758.78211855
_cell_formula_units_Z   4
loop_
 _symmetry_equiv_pos_site_id
 _symmetry_equiv_pos_as_xyz
  1  'x, y, z'
loop_
 _atom_site_type_symbol
 _atom_site_label
 _atom_site_symmetry_multiplicity
 _atom_site_fract_x
 _atom_site_fract_y
 _atom_site_fract_z
 _atom_site_occupancy
  Ta  Ta0  1  0.54569414  0.30864456  0.32638908  1.0
  Ta  Ta1  1  0.78069494  0.45430586  0.76295042  1.0
  Ta  Ta2  1  0.98225548  1.21930506  1.67361092  1.0
  Ta  Ta3  1  0.69135544  1.01774452  1.23704958  1.0
  Cl  Cl4  1  0.66197732  0.57477951  0.79489653  1.0
  Cl  Cl5  1  1.13291921  0.33802268  0.91280219  1.0
  Cl  Cl6  1  0.77988298  0.86708079  1.20510347  1.0
  Cl  Cl7  1  0.42522049  1.22011702  1.08719781  1.0
  Cl  Cl8  1  1.70236920  1.95349375  1.66817419  1.0
  Cl  Cl9  1  0.96580499  1.29763080  1.25112455  1.0
  Cl  Cl10  1  1.28531956  1.03419501  0.33182581  1.0
  Cl  Cl11  1  1.04650625  0.71468044  0.74887545  1.0
  Cl  Cl12  1  1.47364753  1.46845815  1.39246016  1.0
  Cl  Cl13  1  0.91881263  1.52635247  0.99481062  1.0
  Cl  Cl14  1  1.07599799  1.08118737  0.60753984  1.0
  Cl  Cl15  1  1.53154185  0.92400201  1.00518938  1.0
  Cl  Cl16  1  1.21065433  1.49017438  1.64375537  1.0
  Cl  Cl17  1  1.43310104  1.78934567  1.27952005  1.0
  Cl  Cl18  1  0.84641901  0.56689896  0.35624463  1.0
  Cl  Cl19  1  1.50982562  1.15358099  0.72047995  1.0
  F  F20  1  0.66845584  0.36952526  0.54086714  1.0
  F  F21  1  0.87241130  0.33154416  0.70106942  1.0
  F  F22  1  0.82865812  1.12758870  1.45913286  1.0
  F  F23  1  0.63047474  1.17134188  1.29893058  1.0
