# generated using pymatgen
data_HfCr2
_symmetry_space_group_name_H-M   'P 1'
_cell_length_a   5.02529139
_cell_length_b   5.02529139
_cell_length_c   16.30638199
_cell_angle_alpha   90.00000000
_cell_angle_beta   90.00000000
_cell_angle_gamma   120.00000000
_symmetry_Int_Tables_number   1
_chemical_formula_structural   HfCr2
_chemical_formula_sum   'Hf8 Cr16'
_cell_volume   356.62414459
_cell_formula_units_Z   8
loop_
 _symmetry_equiv_pos_site_id
 _symmetry_equiv_pos_as_xyz
  1  'x, y, z'
loop_
 _atom_site_type_symbol
 _atom_site_label
 _atom_site_symmetry_multiplicity
 _atom_site_fract_x
 _atom_site_fract_y
 _atom_site_fract_z
 _atom_site_occupancy
  Hf  Hf0  1  0.33333333  0.66666667  0.84382602  1.0
  Hf  Hf1  1  0.33333333  0.66666667  0.65617398  1.0
  Hf  Hf2  1  0.66666667  0.33333333  0.34382602  1.0
  Hf  Hf3  1  0.66666667  0.33333333  0.15617398  1.0
  Hf  Hf4  1  0.00000000  0.00000000  0.40552993  1.0
  Hf  Hf5  1  0.00000000  0.00000000  0.09447007  1.0
  Hf  Hf6  1  0.00000000  0.00000000  0.90552993  1.0
  Hf  Hf7  1  0.00000000  0.00000000  0.59447007  1.0
  Cr  Cr8  1  0.16479154  0.83520846  0.25000000  1.0
  Cr  Cr9  1  0.16479154  0.32958307  0.25000000  1.0
  Cr  Cr10  1  0.83520846  0.16479154  0.75000000  1.0
  Cr  Cr11  1  0.83520846  0.67041693  0.75000000  1.0
  Cr  Cr12  1  0.67041693  0.83520846  0.25000000  1.0
  Cr  Cr13  1  0.32958307  0.16479154  0.75000000  1.0
  Cr  Cr14  1  0.50000000  0.50000000  0.50000000  1.0
  Cr  Cr15  1  0.50000000  0.50000000  0.00000000  1.0
  Cr  Cr16  1  0.50000000  0.00000000  0.50000000  1.0
  Cr  Cr17  1  0.50000000  0.00000000  0.00000000  1.0
  Cr  Cr18  1  -0.00000000  0.50000000  0.50000000  1.0
  Cr  Cr19  1  -0.00000000  0.50000000  0.00000000  1.0
  Cr  Cr20  1  0.33333333  0.66666667  0.37653923  1.0
  Cr  Cr21  1  0.33333333  0.66666667  0.12346077  1.0
  Cr  Cr22  1  0.66666667  0.33333333  0.87653923  1.0
  Cr  Cr23  1  0.66666667  0.33333333  0.62346077  1.0
