# generated using pymatgen
data_PBr2N
_symmetry_space_group_name_H-M   'P 1'
_cell_length_a   12.44925567
_cell_length_b   12.44925567
_cell_length_c   6.85031415
_cell_angle_alpha   90.00000000
_cell_angle_beta   90.00000000
_cell_angle_gamma   90.00000000
_symmetry_Int_Tables_number   1
_chemical_formula_structural   PBr2N
_chemical_formula_sum   'P8 Br16 N8'
_cell_volume   1061.68886042
_cell_formula_units_Z   8
loop_
 _symmetry_equiv_pos_site_id
 _symmetry_equiv_pos_as_xyz
  1  'x, y, z'
loop_
 _atom_site_type_symbol
 _atom_site_label
 _atom_site_symmetry_multiplicity
 _atom_site_fract_x
 _atom_site_fract_y
 _atom_site_fract_z
 _atom_site_occupancy
  P  P0  1  0.15734762  0.96102695  0.95634103  1.0
  P  P1  1  0.84265238  0.03897305  0.95634103  1.0
  P  P2  1  0.46102695  0.34265238  0.45634103  1.0
  P  P3  1  0.53897305  0.65734762  0.45634103  1.0
  P  P4  1  0.34265238  0.53897305  0.54365897  1.0
  P  P5  1  0.65734762  0.46102695  0.54365897  1.0
  P  P6  1  0.03897305  0.15734762  0.04365897  1.0
  P  P7  1  0.96102695  0.84265238  0.04365897  1.0
  Br  Br8  1  0.19692227  0.90535975  0.65876731  1.0
  Br  Br9  1  0.80307773  0.09464025  0.65876731  1.0
  Br  Br10  1  0.40535975  0.30307773  0.15876731  1.0
  Br  Br11  1  0.59464025  0.69692227  0.15876731  1.0
  Br  Br12  1  0.30307773  0.59464025  0.84123269  1.0
  Br  Br13  1  0.69692227  0.40535975  0.84123269  1.0
  Br  Br14  1  0.09464025  0.19692227  0.34123269  1.0
  Br  Br15  1  0.90535975  0.80307773  0.34123269  1.0
  Br  Br16  1  0.31295160  0.95405409  0.11179484  1.0
  Br  Br17  1  0.68704840  0.04594591  0.11179484  1.0
  Br  Br18  1  0.45405409  0.18704840  0.61179484  1.0
  Br  Br19  1  0.54594591  0.81295160  0.61179484  1.0
  Br  Br20  1  0.18704840  0.54594591  0.38820516  1.0
  Br  Br21  1  0.81295160  0.45405409  0.38820516  1.0
  Br  Br22  1  0.04594591  0.31295160  0.88820516  1.0
  Br  Br23  1  0.95405409  0.68704840  0.88820516  1.0
  N  N24  1  0.08298418  0.87809908  0.07041475  1.0
  N  N25  1  0.91701582  0.12190092  0.07041475  1.0
  N  N26  1  0.37809908  0.41701582  0.57041475  1.0
  N  N27  1  0.62190092  0.58298418  0.57041475  1.0
  N  N28  1  0.41701582  0.62190092  0.42958525  1.0
  N  N29  1  0.58298418  0.37809908  0.42958525  1.0
  N  N30  1  0.12190092  0.08298418  0.92958525  1.0
  N  N31  1  0.87809908  0.91701582  0.92958525  1.0
