# generated using pymatgen
data_LaNbTeO6
_symmetry_space_group_name_H-M   'P 1'
_cell_length_a   7.49133197
_cell_length_b   6.84233945
_cell_length_c   10.92988931
_cell_angle_alpha   102.79708883
_cell_angle_beta   100.05370527
_cell_angle_gamma   89.57928664
_symmetry_Int_Tables_number   1
_chemical_formula_structural   LaNbTeO6
_chemical_formula_sum   'La4 Nb4 Te4 O24'
_cell_volume   537.65516967
_cell_formula_units_Z   4
loop_
 _symmetry_equiv_pos_site_id
 _symmetry_equiv_pos_as_xyz
  1  'x, y, z'
loop_
 _atom_site_type_symbol
 _atom_site_label
 _atom_site_symmetry_multiplicity
 _atom_site_fract_x
 _atom_site_fract_y
 _atom_site_fract_z
 _atom_site_occupancy
  La  La0  1  0.86135323  0.76376718  -0.49370297  1.0
  La  La1  1  0.13864677  0.23623282  -0.50629703  1.0
  La  La2  1  0.71355071  0.67136856  -0.15446479  1.0
  La  La3  1  0.28644929  0.32863144  -0.84553521  1.0
  Nb  Nb4  1  0.04003645  0.82474027  -0.80084371  1.0
  Nb  Nb5  1  0.95996355  0.17525973  -0.19915629  1.0
  Nb  Nb6  1  0.54633550  0.81720983  -0.80248403  1.0
  Nb  Nb7  1  0.45366450  0.18279017  -0.19751597  1.0
  Te  Te8  1  0.37341291  0.73415482  -0.49499891  1.0
  Te  Te9  1  0.62658709  0.26584518  -0.50500109  1.0
  Te  Te10  1  0.79985913  0.32414301  -0.79969851  1.0
  Te  Te11  1  0.20014087  0.67585699  -0.20030149  1.0
  O  O12  1  0.49351122  0.90807482  -0.22475519  1.0
  O  O13  1  0.50648878  0.09192518  -0.77524481  1.0
  O  O14  1  0.89755836  0.89344236  -0.25530879  1.0
  O  O15  1  0.10244164  0.10655764  -0.74469121  1.0
  O  O16  1  0.81516125  0.85015679  -0.72235483  1.0
  O  O17  1  0.18483875  0.14984321  -0.27764517  1.0
  O  O18  1  0.14650134  0.85138892  -0.57352437  1.0
  O  O19  1  0.85349866  0.14861108  -0.42647563  1.0
  O  O20  1  0.55047209  0.82222966  -0.58970432  1.0
  O  O21  1  0.44952791  0.17777034  -0.41029568  1.0
  O  O22  1  0.94525687  0.81312456  -0.96402116  1.0
  O  O23  1  0.05474313  0.18687544  -0.03597884  1.0
  O  O24  1  0.56743898  0.76381652  -0.96786085  1.0
  O  O25  1  0.43256102  0.23618348  -0.03213915  1.0
  O  O26  1  0.28743744  0.71825188  -0.81745290  1.0
  O  O27  1  0.71256256  0.28174812  -0.18254710  1.0
  O  O28  1  0.67177805  0.54443088  -0.40298260  1.0
  O  O29  1  0.32822195  0.45556912  -0.59701740  1.0
  O  O30  1  0.99061238  0.50551303  -0.81698546  1.0
  O  O31  1  0.00938762  0.49448697  -0.18301454  1.0
  O  O32  1  0.59481707  0.50056456  -0.79599282  1.0
  O  O33  1  0.40518293  0.49943544  -0.20400718  1.0
  O  O34  1  0.86560942  0.39494355  -0.61085210  1.0
  O  O35  1  0.13439058  0.60505645  -0.38914790  1.0
