# generated using pymatgen
data_HfGe2
_symmetry_space_group_name_H-M   'P 1'
_cell_length_a   7.71903300
_cell_length_b   7.71903300
_cell_length_c   3.78907741
_cell_angle_alpha   90.00000000
_cell_angle_beta   90.00000000
_cell_angle_gamma   151.23978083
_symmetry_Int_Tables_number   1
_chemical_formula_structural   HfGe2
_chemical_formula_sum   'Hf2 Ge4'
_cell_volume   108.62639579
_cell_formula_units_Z   2
loop_
 _symmetry_equiv_pos_site_id
 _symmetry_equiv_pos_as_xyz
  1  'x, y, z'
loop_
 _atom_site_type_symbol
 _atom_site_label
 _atom_site_symmetry_multiplicity
 _atom_site_fract_x
 _atom_site_fract_y
 _atom_site_fract_z
 _atom_site_occupancy
  Hf  Hf0  1  0.39526118  0.60473882  0.75000000  1.0
  Hf  Hf1  1  -0.39526118  0.39526118  0.25000000  1.0
  Ge  Ge2  1  0.06115538  0.93884462  0.75000000  1.0
  Ge  Ge3  1  -0.06115538  0.06115538  0.25000000  1.0
  Ge  Ge4  1  -0.24971844  0.24971844  0.75000000  1.0
  Ge  Ge5  1  0.24971844  0.75028156  0.25000000  1.0
