# generated using pymatgen
data_SrZrSe3
_symmetry_space_group_name_H-M   'P 1'
_cell_length_a   9.06250207
_cell_length_b   3.98642357
_cell_length_c   14.61662087
_cell_angle_alpha   90.00000000
_cell_angle_beta   90.00000000
_cell_angle_gamma   90.00000000
_symmetry_Int_Tables_number   1
_chemical_formula_structural   SrZrSe3
_chemical_formula_sum   'Sr4 Zr4 Se12'
_cell_volume   528.05425098
_cell_formula_units_Z   4
loop_
 _symmetry_equiv_pos_site_id
 _symmetry_equiv_pos_as_xyz
  1  'x, y, z'
loop_
 _atom_site_type_symbol
 _atom_site_label
 _atom_site_symmetry_multiplicity
 _atom_site_fract_x
 _atom_site_fract_y
 _atom_site_fract_z
 _atom_site_occupancy
  Sr  Sr0  1  0.55808167  0.75000000  0.67854798  1.0
  Sr  Sr1  1  0.05808167  0.75000000  0.82145202  1.0
  Sr  Sr2  1  0.44191833  0.25000000  0.32145202  1.0
  Sr  Sr3  1  0.94191833  0.25000000  0.17854798  1.0
  Zr  Zr4  1  0.82929984  0.75000000  0.44339389  1.0
  Zr  Zr5  1  0.32929984  0.75000000  0.05660611  1.0
  Zr  Zr6  1  0.17070016  0.25000000  0.55660611  1.0
  Zr  Zr7  1  0.67070016  0.25000000  0.94339389  1.0
  Se  Se8  1  0.98293553  0.75000000  0.60718505  1.0
  Se  Se9  1  0.48293553  0.75000000  0.89281495  1.0
  Se  Se10  1  0.01706447  0.25000000  0.39281495  1.0
  Se  Se11  1  0.51706447  0.25000000  0.10718505  1.0
  Se  Se12  1  0.83939394  0.75000000  0.01441427  1.0
  Se  Se13  1  0.33939394  0.75000000  0.48558573  1.0
  Se  Se14  1  0.16060606  0.25000000  0.98558573  1.0
  Se  Se15  1  0.66060606  0.25000000  0.51441427  1.0
  Se  Se16  1  0.71055383  0.75000000  0.28162928  1.0
  Se  Se17  1  0.21055383  0.75000000  0.21837072  1.0
  Se  Se18  1  0.28944617  0.25000000  0.71837072  1.0
  Se  Se19  1  0.78944617  0.25000000  0.78162928  1.0
