# generated using pymatgen
data_Na5Co2O5
_symmetry_space_group_name_H-M   'P 1'
_cell_length_a   8.51603544
_cell_length_b   8.51603544
_cell_length_c   11.41191390
_cell_angle_alpha   77.52930807
_cell_angle_beta   102.47069193
_cell_angle_gamma   122.15905691
_symmetry_Int_Tables_number   1
_chemical_formula_structural   Na5Co2O5
_chemical_formula_sum   'Na20 Co8 O20'
_cell_volume   678.98850090
_cell_formula_units_Z   4
loop_
 _symmetry_equiv_pos_site_id
 _symmetry_equiv_pos_as_xyz
  1  'x, y, z'
loop_
 _atom_site_type_symbol
 _atom_site_label
 _atom_site_symmetry_multiplicity
 _atom_site_fract_x
 _atom_site_fract_y
 _atom_site_fract_z
 _atom_site_occupancy
  Na  Na0  1  0.87916035  -0.09453117  0.87882726  1.0
  Na  Na1  1  1.09453117  0.12083965  0.37882726  1.0
  Na  Na2  1  0.90546883  0.87916035  0.62117274  1.0
  Na  Na3  1  0.12083965  0.09453117  0.12117274  1.0
  Na  Na4  1  0.48608385  -0.29651084  0.68886938  1.0
  Na  Na5  1  1.29651084  0.51391615  0.18886938  1.0
  Na  Na6  1  0.70348916  0.48608385  0.81113062  1.0
  Na  Na7  1  0.51391615  0.29651084  0.31113062  1.0
  Na  Na8  1  0.49692375  -0.17120707  0.95636362  1.0
  Na  Na9  1  1.17120707  0.50307625  0.45636362  1.0
  Na  Na10  1  0.82879293  0.49692375  0.54363638  1.0
  Na  Na11  1  0.50307625  0.17120707  0.04363638  1.0
  Na  Na12  1  0.70619995  0.09738503  0.47883150  1.0
  Na  Na13  1  0.90261497  0.29380005  0.97883150  1.0
  Na  Na14  1  1.09738503  0.70619995  0.02116850  1.0
  Na  Na15  1  0.29380005  -0.09738503  0.52116850  1.0
  Na  Na16  1  0.27943569  0.06936886  0.78667758  1.0
  Na  Na17  1  0.93063114  0.72056431  0.28667758  1.0
  Na  Na18  1  1.06936886  0.27943569  0.71332242  1.0
  Na  Na19  1  0.72056431  -0.06936886  0.21332242  1.0
  Co  Co20  1  0.64431479  0.11521044  0.72927694  1.0
  Co  Co21  1  0.88478956  0.35568521  0.22927694  1.0
  Co  Co22  1  1.11521044  0.64431479  0.77072306  1.0
  Co  Co23  1  0.35568521  -0.11521044  0.27072306  1.0
  Co  Co24  1  1.32615779  0.41813158  0.94645255  1.0
  Co  Co25  1  0.58186842  -0.32615779  0.44645255  1.0
  Co  Co26  1  0.41813158  0.32615779  0.55354745  1.0
  Co  Co27  1  0.67384221  0.58186842  0.05354745  1.0
  O  O28  1  0.56215186  -0.39437691  0.88835568  1.0
  O  O29  1  1.39437691  0.43784814  0.38835568  1.0
  O  O30  1  0.60562309  0.56215186  0.61164432  1.0
  O  O31  1  0.43784814  0.39437691  0.11164432  1.0
  O  O32  1  0.76383901  0.01674952  0.69104911  1.0
  O  O33  1  0.98325048  0.23616099  0.19104911  1.0
  O  O34  1  1.01674952  0.76383901  0.80895089  1.0
  O  O35  1  0.23616099  -0.01674952  0.30895089  1.0
  O  O36  1  0.59582802  0.14822493  0.86434523  1.0
  O  O37  1  0.85177507  0.40417198  0.36434523  1.0
  O  O38  1  1.14822493  0.59582802  0.63565477  1.0
  O  O39  1  0.40417198  -0.14822493  0.13565477  1.0
  O  O40  1  0.54628690  0.19607600  0.57205177  1.0
  O  O41  1  0.80392400  0.45371310  0.07205177  1.0
  O  O42  1  1.19607600  0.54628690  0.92794823  1.0
  O  O43  1  0.45371310  -0.19607600  0.42794823  1.0
  O  O44  1  0.17924528  0.17895145  0.90933361  1.0
  O  O45  1  0.82104855  0.82075472  0.40933361  1.0
  O  O46  1  1.17895145  0.17924528  0.59066639  1.0
  O  O47  1  0.82075472  -0.17895145  0.09066639  1.0
