# generated using pymatgen
data_Nb2CoS4
_symmetry_space_group_name_H-M   'P 1'
_cell_length_a   9.98893507
_cell_length_b   3.30635784
_cell_length_c   13.34044434
_cell_angle_alpha   90.00000000
_cell_angle_beta   90.00000000
_cell_angle_gamma   90.00000000
_symmetry_Int_Tables_number   1
_chemical_formula_structural   Nb2CoS4
_chemical_formula_sum   'Nb8 Co4 S16'
_cell_volume   440.59477269
_cell_formula_units_Z   4
loop_
 _symmetry_equiv_pos_site_id
 _symmetry_equiv_pos_as_xyz
  1  'x, y, z'
loop_
 _atom_site_type_symbol
 _atom_site_label
 _atom_site_symmetry_multiplicity
 _atom_site_fract_x
 _atom_site_fract_y
 _atom_site_fract_z
 _atom_site_occupancy
  Nb  Nb0  1  0.86055992  0.75000000  0.40521989  1.0
  Nb  Nb1  1  0.36055992  0.75000000  0.09478011  1.0
  Nb  Nb2  1  0.13944008  0.25000000  0.59478011  1.0
  Nb  Nb3  1  0.63944008  0.25000000  0.90521989  1.0
  Nb  Nb4  1  0.51144088  0.75000000  0.59473801  1.0
  Nb  Nb5  1  1.01144088  0.75000000  0.90526199  1.0
  Nb  Nb6  1  0.48855912  0.25000000  0.40526199  1.0
  Nb  Nb7  1  -0.01144088  0.25000000  0.09473801  1.0
  Co  Co8  1  0.77005078  0.75000000  0.18079836  1.0
  Co  Co9  1  0.27005078  0.75000000  0.31920164  1.0
  Co  Co10  1  0.22994922  0.25000000  0.81920164  1.0
  Co  Co11  1  0.72994922  0.25000000  0.68079836  1.0
  S  S12  1  0.94772934  0.75000000  0.58526265  1.0
  S  S13  1  0.44772934  0.75000000  0.91473735  1.0
  S  S14  1  0.05227066  0.25000000  0.41473735  1.0
  S  S15  1  0.55227066  0.25000000  0.08526265  1.0
  S  S16  1  0.80190883  0.75000000  0.01320313  1.0
  S  S17  1  0.30190883  0.75000000  0.48679687  1.0
  S  S18  1  0.19809117  0.25000000  0.98679687  1.0
  S  S19  1  0.69809117  0.25000000  0.51320313  1.0
  S  S20  1  0.62665802  0.75000000  0.75567503  1.0
  S  S21  1  0.12665802  0.75000000  0.74432497  1.0
  S  S22  1  0.37334198  0.25000000  0.24432497  1.0
  S  S23  1  0.87334198  0.25000000  0.25567503  1.0
  S  S24  1  0.63177902  0.75000000  0.31788332  1.0
  S  S25  1  0.13177902  0.75000000  0.18211668  1.0
  S  S26  1  0.36822098  0.25000000  0.68211668  1.0
  S  S27  1  0.86822098  0.25000000  0.81788332  1.0
