# generated using pymatgen
data_MgWO6
_symmetry_space_group_name_H-M   'P 1'
_cell_length_a   5.90553258
_cell_length_b   10.61322898
_cell_length_c   8.49931527
_cell_angle_alpha   90.00000000
_cell_angle_beta   106.78340274
_cell_angle_gamma   90.00000000
_symmetry_Int_Tables_number   1
_chemical_formula_structural   MgWO6
_chemical_formula_sum   'Mg4 W4 O24'
_cell_volume   510.01788995
_cell_formula_units_Z   4
loop_
 _symmetry_equiv_pos_site_id
 _symmetry_equiv_pos_as_xyz
  1  'x, y, z'
loop_
 _atom_site_type_symbol
 _atom_site_label
 _atom_site_symmetry_multiplicity
 _atom_site_fract_x
 _atom_site_fract_y
 _atom_site_fract_z
 _atom_site_occupancy
  W  W0  1  0.81650836  0.21685416  0.45267301  1.0
  W  W1  1  0.81650836  0.28314584  0.95267301  1.0
  W  W2  1  0.18349164  0.71685416  0.04732699  1.0
  W  W3  1  0.18349164  0.78314584  0.54732699  1.0
  Mg  Mg4  1  0.93632506  0.50311388  0.30388034  1.0
  Mg  Mg5  1  0.93632506  -0.00311388  0.80388034  1.0
  Mg  Mg6  1  0.06367494  1.00311388  0.19611966  1.0
  Mg  Mg7  1  0.06367494  0.49688612  0.69611966  1.0
  O  O8  1  0.82425305  0.35937192  0.14113201  1.0
  O  O9  1  0.82425305  0.14062808  0.64113201  1.0
  O  O10  1  0.17574695  0.85937192  0.35886799  1.0
  O  O11  1  0.17574695  0.64062808  0.85886799  1.0
  O  O12  1  0.99491253  0.12761596  0.35390711  1.0
  O  O13  1  0.99491253  0.37238404  0.85390711  1.0
  O  O14  1  0.00508747  0.62761596  0.14609289  1.0
  O  O15  1  0.00508747  0.87238404  0.64609289  1.0
  O  O16  1  0.93235288  0.12281111  -0.00518646  1.0
  O  O17  1  0.93235288  0.37718889  0.49481354  1.0
  O  O18  1  0.06764712  0.62281111  0.50518646  1.0
  O  O19  1  0.06764712  0.87718889  1.00518646  1.0
  O  O20  1  0.41764822  0.05260215  0.20152109  1.0
  O  O21  1  0.41764822  0.44739785  0.70152109  1.0
  O  O22  1  0.58235178  0.55260215  0.29847891  1.0
  O  O23  1  0.58235178  0.94739785  0.79847891  1.0
  O  O24  1  0.72068214  0.96681052  0.23872724  1.0
  O  O25  1  0.72068214  0.53318948  0.73872724  1.0
  O  O26  1  0.27931786  0.46681052  0.26127276  1.0
  O  O27  1  0.27931786  0.03318948  0.76127276  1.0
  O  O28  1  0.51536834  0.22374984  0.32769554  1.0
  O  O29  1  0.51536834  0.27625016  0.82769554  1.0
  O  O30  1  0.48463166  0.72374984  0.17230446  1.0
  O  O31  1  0.48463166  0.77625016  0.67230446  1.0
