# generated using pymatgen
data_LiGe
_symmetry_space_group_name_H-M   'P 1'
_cell_length_a   12.00018535
_cell_length_b   12.00018535
_cell_length_c   12.00018535
_cell_angle_alpha   160.49773165
_cell_angle_beta   160.49773165
_cell_angle_gamma   27.71689106
_symmetry_Int_Tables_number   1
_chemical_formula_structural   LiGe
_chemical_formula_sum   'Li6 Ge6'
_cell_volume   192.51385843
_cell_formula_units_Z   6
loop_
 _symmetry_equiv_pos_site_id
 _symmetry_equiv_pos_as_xyz
  1  'x, y, z'
loop_
 _atom_site_type_symbol
 _atom_site_label
 _atom_site_symmetry_multiplicity
 _atom_site_fract_x
 _atom_site_fract_y
 _atom_site_fract_z
 _atom_site_occupancy
  Li  Li0  1  1.25000000  0.75000000  0.50000000  1.0
  Li  Li1  1  0.50000000  0.50000000  1.00000000  1.0
  Li  Li2  1  0.66309724  0.66309724  -0.00000000  1.0
  Li  Li3  1  1.41309724  0.91309724  0.50000000  1.0
  Li  Li4  1  0.08690276  0.58690276  0.50000000  1.0
  Li  Li5  1  1.33690276  1.33690276  1.00000000  1.0
  Ge  Ge6  1  0.00000000  0.00000000  0.00000000  1.0
  Ge  Ge7  1  0.75000000  1.25000000  0.50000000  1.0
  Ge  Ge8  1  0.82739587  0.82739587  0.00000000  1.0
  Ge  Ge9  1  0.57739587  0.07739587  0.50000000  1.0
  Ge  Ge10  1  0.92260413  1.42260413  0.50000000  1.0
  Ge  Ge11  1  1.17260413  1.17260413  1.00000000  1.0
