# generated using pymatgen
data_MgSiP2
_symmetry_space_group_name_H-M   'P 1'
_cell_length_a   6.53504632
_cell_length_b   6.53504632
_cell_length_c   6.53504632
_cell_angle_alpha   127.77805450
_cell_angle_beta   127.77805450
_cell_angle_gamma   76.98484774
_symmetry_Int_Tables_number   1
_chemical_formula_structural   MgSiP2
_chemical_formula_sum   'Mg2 Si2 P4'
_cell_volume   169.24691990
_cell_formula_units_Z   2
loop_
 _symmetry_equiv_pos_site_id
 _symmetry_equiv_pos_as_xyz
  1  'x, y, z'
loop_
 _atom_site_type_symbol
 _atom_site_label
 _atom_site_symmetry_multiplicity
 _atom_site_fract_x
 _atom_site_fract_y
 _atom_site_fract_z
 _atom_site_occupancy
  Mg  Mg0  1  0.25000000  0.75000000  0.50000000  1.0
  Mg  Mg1  1  0.50000000  0.50000000  -0.00000000  1.0
  Si  Si2  1  0.75000000  0.25000000  0.50000000  1.0
  Si  Si3  1  1.00000000  1.00000000  1.00000000  1.0
  P  P4  1  1.08316183  1.12500000  1.45816183  1.0
  P  P5  1  1.37500000  0.91683817  1.04183817  1.0
  P  P6  1  0.87500000  1.33316183  0.95816183  1.0
  P  P7  1  0.66683817  0.62500000  0.54183817  1.0
