# generated using pymatgen
data_CaZn11
_symmetry_space_group_name_H-M   'P 1'
_cell_length_a   8.28678390
_cell_length_b   8.28678390
_cell_length_c   8.28678390
_cell_angle_alpha   99.77896398
_cell_angle_beta   99.77896398
_cell_angle_gamma   131.32310786
_symmetry_Int_Tables_number   1
_chemical_formula_structural   CaZn11
_chemical_formula_sum   'Ca2 Zn22'
_cell_volume   389.38179752
_cell_formula_units_Z   2
loop_
 _symmetry_equiv_pos_site_id
 _symmetry_equiv_pos_as_xyz
  1  'x, y, z'
loop_
 _atom_site_type_symbol
 _atom_site_label
 _atom_site_symmetry_multiplicity
 _atom_site_fract_x
 _atom_site_fract_y
 _atom_site_fract_z
 _atom_site_occupancy
  Ca  Ca0  1  0.50000000  0.50000000  1.00000000  1.0
  Ca  Ca1  1  0.25000000  0.75000000  0.50000000  1.0
  Zn  Zn2  1  1.00804852  0.68124741  1.08406924  1.0
  Zn  Zn3  1  1.59717818  1.68124741  1.67319890  1.0
  Zn  Zn4  1  1.43124741  1.25804852  1.58406924  1.0
  Zn  Zn5  1  0.67397928  0.25804852  0.82680110  1.0
  Zn  Zn6  1  1.00804852  0.92397928  1.32680110  1.0
  Zn  Zn7  1  1.59717818  0.92397928  0.91593076  1.0
  Zn  Zn8  1  1.43124741  0.84717818  1.17319890  1.0
  Zn  Zn9  1  0.67397928  0.84717818  1.41593076  1.0
  Zn  Zn10  1  1.74195148  1.56875259  1.41593076  1.0
  Zn  Zn11  1  1.15282182  0.56875259  0.82680110  1.0
  Zn  Zn12  1  1.31875259  0.99195148  0.91593076  1.0
  Zn  Zn13  1  1.07602072  0.99195148  1.67319890  1.0
  Zn  Zn14  1  1.74195148  1.32602072  1.17319890  1.0
  Zn  Zn15  1  1.15282182  1.32602072  1.58406924  1.0
  Zn  Zn16  1  1.31875259  1.40282182  1.32680110  1.0
  Zn  Zn17  1  1.07602072  0.40282182  1.08406924  1.0
  Zn  Zn18  1  0.87500000  0.62500000  0.75000000  1.0
  Zn  Zn19  1  1.37500000  1.12500000  1.25000000  1.0
  Zn  Zn20  1  0.87500000  0.12500000  0.75000000  1.0
  Zn  Zn21  1  0.87500000  1.12500000  0.25000000  1.0
  Zn  Zn22  1  0.75000000  1.25000000  0.50000000  1.0
  Zn  Zn23  1  1.00000000  1.00000000  1.00000000  1.0
