# generated using pymatgen
data_CrH14N4Cl3O
_symmetry_space_group_name_H-M   'P 1'
_cell_length_a   6.69440396
_cell_length_b   10.98040520
_cell_length_c   6.71013091
_cell_angle_alpha   90.00000000
_cell_angle_beta   92.67565163
_cell_angle_gamma   90.00000000
_symmetry_Int_Tables_number   1
_chemical_formula_structural   CrH14N4Cl3O
_chemical_formula_sum   'Cr2 H28 N8 Cl6 O2'
_cell_volume   492.70565886
_cell_formula_units_Z   2
loop_
 _symmetry_equiv_pos_site_id
 _symmetry_equiv_pos_as_xyz
  1  'x, y, z'
loop_
 _atom_site_type_symbol
 _atom_site_label
 _atom_site_symmetry_multiplicity
 _atom_site_fract_x
 _atom_site_fract_y
 _atom_site_fract_z
 _atom_site_occupancy
  Cr  Cr0  1  0.65705781  0.25000000  0.71899466  1.0
  Cr  Cr1  1  0.34294219  0.75000000  0.28100534  1.0
  H  H2  1  0.88980553  0.32522306  0.43813891  1.0
  H  H3  1  0.88980553  0.17477694  0.43813891  1.0
  H  H4  1  0.11019447  0.82522306  0.56186109  1.0
  H  H5  1  0.11019447  0.67477694  0.56186109  1.0
  H  H6  1  0.84538500  0.32380884  0.04913509  1.0
  H  H7  1  0.84538500  0.17619116  0.04913509  1.0
  H  H8  1  0.15461500  0.82380884  0.95086491  1.0
  H  H9  1  0.15461500  0.67619116  0.95086491  1.0
  H  H10  1  0.76766298  0.47562194  0.82307714  1.0
  H  H11  1  0.76766298  0.02437806  0.82307714  1.0
  H  H12  1  0.23233702  0.97562194  0.17692286  1.0
  H  H13  1  0.23233702  0.52437806  0.17692286  1.0
  H  H14  1  0.70830591  0.47222204  0.58140193  1.0
  H  H15  1  0.70830591  0.02777796  0.58140193  1.0
  H  H16  1  0.29169409  0.97222204  0.41859807  1.0
  H  H17  1  0.29169409  0.52777796  0.41859807  1.0
  H  H18  1  0.52902783  0.47830917  0.74228937  1.0
  H  H19  1  0.52902783  0.02169083  0.74228937  1.0
  H  H20  1  0.47097217  0.97830917  0.25771063  1.0
  H  H21  1  0.47097217  0.52169083  0.25771063  1.0
  H  H22  1  0.32736040  0.32552768  0.88407642  1.0
  H  H23  1  0.32736040  0.17447232  0.88407642  1.0
  H  H24  1  0.67263960  0.82552768  0.11592358  1.0
  H  H25  1  0.67263960  0.67447232  0.11592358  1.0
  H  H26  1  1.03336817  0.25000000  0.60382857  1.0
  H  H27  1  -0.03336817  0.75000000  0.39617143  1.0
  H  H28  1  0.45674146  0.25000000  0.06067865  1.0
  H  H29  1  0.54325854  0.75000000  0.93932135  1.0
  N  N30  1  0.66703547  0.44056241  0.71774573  1.0
  N  N31  1  0.66703547  0.05943759  0.71774573  1.0
  N  N32  1  0.33296453  0.94056241  0.28225427  1.0
  N  N33  1  0.33296453  0.55943759  0.28225427  1.0
  N  N34  1  0.89571575  0.25000000  0.53065046  1.0
  N  N35  1  0.10428425  0.75000000  0.46934954  1.0
  N  N36  1  0.41632890  0.25000000  0.91097534  1.0
  N  N37  1  0.58367110  0.75000000  0.08902466  1.0
  Cl  Cl38  1  0.81294144  0.47976467  0.21288557  1.0
  Cl  Cl39  1  0.81294144  0.02023533  0.21288557  1.0
  Cl  Cl40  1  0.18705856  0.97976467  0.78711443  1.0
  Cl  Cl41  1  0.18705856  0.52023533  0.78711443  1.0
  Cl  Cl42  1  0.42893844  0.25000000  0.45041054  1.0
  Cl  Cl43  1  0.57106156  0.75000000  0.54958946  1.0
  O  O44  1  0.85357851  0.25000000  0.96102440  1.0
  O  O45  1  0.14642149  0.75000000  0.03897560  1.0
