# generated using pymatgen
data_KHf2(PO4)3
_symmetry_space_group_name_H-M   'P 1'
_cell_length_a   9.48821965
_cell_length_b   9.48821965
_cell_length_c   9.48821965
_cell_angle_alpha   55.27745173
_cell_angle_beta   55.27745173
_cell_angle_gamma   55.27745173
_symmetry_Int_Tables_number   1
_chemical_formula_structural   KHf2(PO4)3
_chemical_formula_sum   'K2 Hf4 P6 O24'
_cell_volume   537.71197396
_cell_formula_units_Z   2
loop_
 _symmetry_equiv_pos_site_id
 _symmetry_equiv_pos_as_xyz
  1  'x, y, z'
loop_
 _atom_site_type_symbol
 _atom_site_label
 _atom_site_symmetry_multiplicity
 _atom_site_fract_x
 _atom_site_fract_y
 _atom_site_fract_z
 _atom_site_occupancy
  K  K0  1  1.00000000  -0.00000000  -0.00000000  1.0
  K  K1  1  0.50000000  0.50000000  0.50000000  1.0
  Hf  Hf2  1  0.85075476  -0.14924524  -0.14924524  1.0
  Hf  Hf3  1  0.35075476  0.35075476  0.35075476  1.0
  Hf  Hf4  1  0.64924524  0.64924524  -0.35075476  1.0
  Hf  Hf5  1  1.14924524  0.14924524  0.14924524  1.0
  P  P6  1  0.46343151  0.75000000  0.03656849  1.0
  P  P7  1  0.96343151  -0.46343151  0.25000000  1.0
  P  P8  1  0.25000000  0.96343151  -0.46343151  1.0
  P  P9  1  0.75000000  1.03656849  -0.53656849  1.0
  P  P10  1  0.53656849  0.25000000  -0.03656849  1.0
  P  P11  1  1.03656849  0.46343151  -0.25000000  1.0
  O  O12  1  0.75890583  1.01098150  -0.36508197  1.0
  O  O13  1  1.25890583  0.13491803  -0.48901850  1.0
  O  O14  1  0.86508197  0.48901850  -0.25890583  1.0
  O  O15  1  0.36508197  0.24109417  -0.01098150  1.0
  O  O16  1  0.98901850  0.36508197  -0.75890583  1.0
  O  O17  1  0.48901850  0.74109417  -0.13491803  1.0
  O  O18  1  0.24109417  0.98901850  -0.63491803  1.0
  O  O19  1  0.74109417  0.86508197  -0.51098150  1.0
  O  O20  1  0.63491803  0.75890583  0.01098150  1.0
  O  O21  1  1.13491803  -0.48901850  0.25890583  1.0
  O  O22  1  0.51098150  0.25890583  0.13491803  1.0
  O  O23  1  1.01098150  0.63491803  -0.24109417  1.0
  O  O24  1  0.70615011  0.07604154  -0.06980512  1.0
  O  O25  1  1.20615011  0.43019488  -0.42395846  1.0
  O  O26  1  0.56980512  0.42395846  -0.20615011  1.0
  O  O27  1  1.06980512  0.29384989  -0.07604154  1.0
  O  O28  1  0.92395846  0.06980512  0.29384989  1.0
  O  O29  1  0.42395846  0.79384989  -0.43019488  1.0
  O  O30  1  1.29384989  -0.07604154  0.06980512  1.0
  O  O31  1  0.79384989  0.56980512  -0.57604154  1.0
  O  O32  1  0.93019488  -0.29384989  0.07604154  1.0
  O  O33  1  0.43019488  0.57604154  0.20615011  1.0
  O  O34  1  0.57604154  1.20615011  -0.56980512  1.0
  O  O35  1  1.07604154  -0.06980512  -0.29384989  1.0
