# generated using pymatgen
data_Al(PO3)3
_symmetry_space_group_name_H-M   'P 1'
_cell_length_a   6.17278605
_cell_length_b   15.33726530
_cell_length_c   8.32240144
_cell_angle_alpha   90.00000000
_cell_angle_beta   105.02402523
_cell_angle_gamma   90.00000000
_symmetry_Int_Tables_number   1
_chemical_formula_structural   Al(PO3)3
_chemical_formula_sum   'Al4 P12 O36'
_cell_volume   760.97914753
_cell_formula_units_Z   4
loop_
 _symmetry_equiv_pos_site_id
 _symmetry_equiv_pos_as_xyz
  1  'x, y, z'
loop_
 _atom_site_type_symbol
 _atom_site_label
 _atom_site_symmetry_multiplicity
 _atom_site_fract_x
 _atom_site_fract_y
 _atom_site_fract_z
 _atom_site_occupancy
  Al  Al0  1  0.88468723  0.36252390  0.12485922  1.0
  Al  Al1  1  0.88468723  0.13747610  0.62485922  1.0
  Al  Al2  1  0.11531277  0.86252390  0.37514078  1.0
  Al  Al3  1  0.11531277  0.63747610  0.87514078  1.0
  P  P4  1  0.85474459  0.04408165  0.28185009  1.0
  P  P5  1  0.85474459  0.45591835  0.78185009  1.0
  P  P6  1  0.14525541  0.54408165  0.21814991  1.0
  P  P7  1  0.14525541  0.95591835  0.71814991  1.0
  P  P8  1  0.79790425  0.33645852  0.48377438  1.0
  P  P9  1  0.79790425  0.16354148  0.98377438  1.0
  P  P10  1  0.20209575  0.83645852  0.01622562  1.0
  P  P11  1  0.20209575  0.66354148  0.51622562  1.0
  P  P12  1  0.41521560  0.38731518  0.21231281  1.0
  P  P13  1  0.41521560  0.11268482  0.71231281  1.0
  P  P14  1  0.58478440  0.88731518  0.28768719  1.0
  P  P15  1  0.58478440  0.61268482  0.78768719  1.0
  O  O16  1  0.94515563  0.48468876  0.16317920  1.0
  O  O17  1  0.94515563  0.01531124  0.66317920  1.0
  O  O18  1  0.05484437  0.98468876  0.33682080  1.0
  O  O19  1  0.05484437  0.51531124  0.83682080  1.0
  O  O20  1  0.93354109  0.34517980  0.35857712  1.0
  O  O21  1  0.93354109  0.15482020  0.85857712  1.0
  O  O22  1  0.06645891  0.84517980  0.14142288  1.0
  O  O23  1  0.06645891  0.65482020  0.64142288  1.0
  O  O24  1  0.85199161  0.07775798  0.09895539  1.0
  O  O25  1  0.85199161  0.42224202  0.59895539  1.0
  O  O26  1  0.14800839  0.57775798  0.40104461  1.0
  O  O27  1  0.14800839  0.92224202  0.90104461  1.0
  O  O28  1  0.83416531  0.12011246  0.39112684  1.0
  O  O29  1  0.83416531  0.37988754  0.89112684  1.0
  O  O30  1  0.16583469  0.62011246  0.10887316  1.0
  O  O31  1  0.16583469  0.87988754  0.60887316  1.0
  O  O32  1  0.82409781  0.24269357  0.09181708  1.0
  O  O33  1  0.82409781  0.25730643  0.59181708  1.0
  O  O34  1  0.17590219  0.74269357  0.40818292  1.0
  O  O35  1  0.17590219  0.75730643  0.90818292  1.0
  O  O36  1  0.80580404  0.84210078  0.35304805  1.0
  O  O37  1  0.80580404  0.65789922  0.85304805  1.0
  O  O38  1  0.19419596  0.34210078  0.14695195  1.0
  O  O39  1  0.19419596  0.15789922  0.64695195  1.0
  O  O40  1  0.57703877  0.38534645  0.10515062  1.0
  O  O41  1  0.57703877  0.11465355  0.60515062  1.0
  O  O42  1  0.42296123  0.88534645  0.39484938  1.0
  O  O43  1  0.42296123  0.61465355  0.89484938  1.0
  O  O44  1  0.53259207  0.34752781  0.39425391  1.0
  O  O45  1  0.53259207  0.15247219  0.89425391  1.0
  O  O46  1  0.46740793  0.84752781  0.10574609  1.0
  O  O47  1  0.46740793  0.65247219  0.60574609  1.0
  O  O48  1  0.37543691  0.48793469  0.25669669  1.0
  O  O49  1  0.37543691  0.01206531  0.75669669  1.0
  O  O50  1  0.62456309  0.98793469  0.24330331  1.0
  O  O51  1  0.62456309  0.51206531  0.74330331  1.0
