# generated using pymatgen
data_SmHf3F15
_symmetry_space_group_name_H-M   'P 1'
_cell_length_a   8.09120233
_cell_length_b   8.09120233
_cell_length_c   8.09120233
_cell_angle_alpha   100.00719240
_cell_angle_beta   100.00719240
_cell_angle_gamma   100.00719240
_symmetry_Int_Tables_number   1
_chemical_formula_structural   SmHf3F15
_chemical_formula_sum   'Sm2 Hf6 F30'
_cell_volume   502.22531798
_cell_formula_units_Z   2
loop_
 _symmetry_equiv_pos_site_id
 _symmetry_equiv_pos_as_xyz
  1  'x, y, z'
loop_
 _atom_site_type_symbol
 _atom_site_label
 _atom_site_symmetry_multiplicity
 _atom_site_fract_x
 _atom_site_fract_y
 _atom_site_fract_z
 _atom_site_occupancy
  Sm  Sm0  1  0.25000000  0.25000000  0.25000000  1.0
  Sm  Sm1  1  0.75000000  0.75000000  0.75000000  1.0
  Hf  Hf2  1  0.67569395  1.25000000  -0.17569395  1.0
  Hf  Hf3  1  1.17569395  0.32430605  -0.25000000  1.0
  Hf  Hf4  1  0.75000000  0.17569395  0.32430605  1.0
  Hf  Hf5  1  1.25000000  0.82430605  -0.32430605  1.0
  Hf  Hf6  1  1.32430605  -0.25000000  0.17569395  1.0
  Hf  Hf7  1  0.82430605  0.67569395  0.25000000  1.0
  F  F8  1  1.30861608  -0.46135156  0.29127253  1.0
  F  F9  1  0.80861608  0.79127253  0.03864844  1.0
  F  F10  1  1.20872747  -0.03864844  0.19138392  1.0
  F  F11  1  0.70872747  0.69138392  0.46135156  1.0
  F  F12  1  1.46135156  0.70872747  -0.30861608  1.0
  F  F13  1  0.96135156  0.19138392  0.20872747  1.0
  F  F14  1  0.69138392  1.46135156  -0.29127253  1.0
  F  F15  1  1.19138392  0.20872747  -0.03864844  1.0
  F  F16  1  1.29127253  0.30861608  -0.46135156  1.0
  F  F17  1  0.79127253  1.03864844  -0.19138392  1.0
  F  F18  1  1.03864844  0.80861608  -0.20872747  1.0
  F  F19  1  0.53864844  0.29127253  0.30861608  1.0
  F  F20  1  1.16180566  0.55696924  -0.33544891  1.0
  F  F21  1  0.66180566  0.16455109  0.05696924  1.0
  F  F22  1  0.83544891  0.94303076  0.33819434  1.0
  F  F23  1  1.33544891  -0.16180566  0.44303076  1.0
  F  F24  1  1.44303076  0.33544891  -0.16180566  1.0
  F  F25  1  0.94303076  1.33819434  -0.16455109  1.0
  F  F26  1  0.83819434  0.44303076  0.33544891  1.0
  F  F27  1  1.33819434  0.83544891  -0.05696924  1.0
  F  F28  1  0.66455109  1.16180566  -0.44303076  1.0
  F  F29  1  1.16455109  0.05696924  -0.33819434  1.0
  F  F30  1  1.05696924  -0.33819434  0.16455109  1.0
  F  F31  1  0.55696924  0.66455109  0.16180566  1.0
  F  F32  1  0.96877785  0.25000000  0.53122215  1.0
  F  F33  1  0.46877785  1.03122215  -0.25000000  1.0
  F  F34  1  0.75000000  0.46877785  0.03122215  1.0
  F  F35  1  1.25000000  0.53122215  -0.03122215  1.0
  F  F36  1  1.03122215  0.75000000  -0.53122215  1.0
  F  F37  1  1.53122215  -0.03122215  0.25000000  1.0
