# generated using pymatgen
data_Sr4FeMoO6
_symmetry_space_group_name_H-M   'P 1'
_cell_length_a   5.66043804
_cell_length_b   5.66043804
_cell_length_c   7.56823427
_cell_angle_alpha   90.00000000
_cell_angle_beta   90.00000000
_cell_angle_gamma   90.00000000
_symmetry_Int_Tables_number   1
_chemical_formula_structural   Sr4FeMoO6
_chemical_formula_sum   'Sr4 Fe1 Mo1 O6'
_cell_volume   242.49045533
_cell_formula_units_Z   1
loop_
 _symmetry_equiv_pos_site_id
 _symmetry_equiv_pos_as_xyz
  1  'x, y, z'
loop_
 _atom_site_type_symbol
 _atom_site_label
 _atom_site_symmetry_multiplicity
 _atom_site_fract_x
 _atom_site_fract_y
 _atom_site_fract_z
 _atom_site_occupancy
  O  O0  1  0.00000000  0.00000000  0.74376042  1.0
  O  O1  1  0.00000000  0.00000000  0.25623958  1.0
  O  O2  1  0.76236946  0.76236946  0.00000000  1.0
  O  O3  1  0.76236946  0.23763054  -0.00000000  1.0
  O  O4  1  0.23763054  0.76236946  -0.00000000  1.0
  O  O5  1  0.23763054  0.23763054  0.00000000  1.0
  Sr  Sr6  1  0.00000000  0.50000000  0.79748391  1.0
  Sr  Sr7  1  0.00000000  0.50000000  0.20251609  1.0
  Sr  Sr8  1  0.50000000  0.00000000  0.79748391  1.0
  Sr  Sr9  1  0.50000000  0.00000000  0.20251609  1.0
  Mo  Mo10  1  0.00000000  0.00000000  0.50000000  1.0
  Fe  Fe11  1  0.00000000  0.00000000  0.00000000  1.0
