# generated using pymatgen
data_FeSiO4
_symmetry_space_group_name_H-M   'P 1'
_cell_length_a   12.09870600
_cell_length_b   6.00938721
_cell_length_c   5.54838886
_cell_angle_alpha   90.00000000
_cell_angle_beta   90.00000000
_cell_angle_gamma   90.00000000
_symmetry_Int_Tables_number   1
_chemical_formula_structural   FeSiO4
_chemical_formula_sum   'Fe4 Si4 O16'
_cell_volume   403.40010117
_cell_formula_units_Z   4
loop_
 _symmetry_equiv_pos_site_id
 _symmetry_equiv_pos_as_xyz
  1  'x, y, z'
loop_
 _atom_site_type_symbol
 _atom_site_label
 _atom_site_symmetry_multiplicity
 _atom_site_fract_x
 _atom_site_fract_y
 _atom_site_fract_z
 _atom_site_occupancy
  Fe  Fe0  1  0.41717006  0.25000000  0.69985951  1.0
  Fe  Fe1  1  0.58282994  0.75000000  0.30014049  1.0
  Fe  Fe2  1  0.08282994  0.75000000  0.19985951  1.0
  Fe  Fe3  1  0.91717006  0.25000000  0.80014049  1.0
  Si  Si4  1  0.55677507  0.25000000  0.21328921  1.0
  Si  Si5  1  0.44322493  0.75000000  0.78671079  1.0
  Si  Si6  1  0.94322493  0.75000000  0.71328921  1.0
  Si  Si7  1  0.05677507  0.25000000  0.28671079  1.0
  O  O8  1  0.63336641  0.02859080  0.26857268  1.0
  O  O9  1  0.36663359  0.97140920  0.73142732  1.0
  O  O10  1  0.86663359  0.97140920  0.76857268  1.0
  O  O11  1  0.13336641  0.02859080  0.23142732  1.0
  O  O12  1  0.36663359  0.52859080  0.73142732  1.0
  O  O13  1  0.63336641  0.47140920  0.26857268  1.0
  O  O14  1  0.13336641  0.47140920  0.23142732  1.0
  O  O15  1  0.86663359  0.52859080  0.76857268  1.0
  O  O16  1  0.44507791  0.25000000  0.37946967  1.0
  O  O17  1  0.55492209  0.75000000  0.62053033  1.0
  O  O18  1  0.05492209  0.75000000  0.87946967  1.0
  O  O19  1  0.94507791  0.25000000  0.12053033  1.0
  O  O20  1  0.52055376  0.25000000  0.92732399  1.0
  O  O21  1  0.47944624  0.75000000  0.07267601  1.0
  O  O22  1  0.97944624  0.75000000  0.42732399  1.0
  O  O23  1  0.02055376  0.25000000  0.57267601  1.0
