# generated using pymatgen
data_SiBi2O5
_symmetry_space_group_name_H-M   'P 1'
_cell_length_a   8.21065453
_cell_length_b   8.21065453
_cell_length_c   5.42093667
_cell_angle_alpha   90.00000000
_cell_angle_beta   90.00000000
_cell_angle_gamma   39.63476964
_symmetry_Int_Tables_number   1
_chemical_formula_structural   SiBi2O5
_chemical_formula_sum   'Si2 Bi4 O10'
_cell_volume   233.11846587
_cell_formula_units_Z   2
loop_
 _symmetry_equiv_pos_site_id
 _symmetry_equiv_pos_as_xyz
  1  'x, y, z'
loop_
 _atom_site_type_symbol
 _atom_site_label
 _atom_site_symmetry_multiplicity
 _atom_site_fract_x
 _atom_site_fract_y
 _atom_site_fract_z
 _atom_site_occupancy
  Si  Si0  1  -0.17631845  0.17631845  0.18806612  1.0
  Si  Si1  1  -0.82368155  0.82368155  0.68806612  1.0
  Bi  Bi2  1  -0.55172979  0.88424894  0.26632366  1.0
  Bi  Bi3  1  -0.11575106  0.44827021  0.76632366  1.0
  Bi  Bi4  1  0.11575106  0.55172979  0.26632366  1.0
  Bi  Bi5  1  -0.44827021  1.11575106  0.76632366  1.0
  O  O6  1  -0.41522271  1.23452265  0.16786091  1.0
  O  O7  1  0.23452265  0.58477729  0.66786091  1.0
  O  O8  1  -0.23452265  0.41522271  0.16786091  1.0
  O  O9  1  -0.58477729  0.76547735  0.66786091  1.0
  O  O10  1  -0.73690591  1.23657528  0.48771162  1.0
  O  O11  1  0.23657528  0.26309409  0.98771162  1.0
  O  O12  1  -0.23657528  0.73690591  0.48771162  1.0
  O  O13  1  -0.26309409  0.76342472  0.98771162  1.0
  O  O14  1  -0.02219490  0.02219490  0.45314150  1.0
  O  O15  1  -0.97780510  0.97780510  -0.04685850  1.0
