# generated using pymatgen
data_CCl2
_symmetry_space_group_name_H-M   'P 1'
_cell_length_a   12.29246855
_cell_length_b   6.75629259
_cell_length_c   13.50428746
_cell_angle_alpha   90.00000000
_cell_angle_beta   115.29815036
_cell_angle_gamma   90.00000000
_symmetry_Int_Tables_number   1
_chemical_formula_structural   CCl2
_chemical_formula_sum   'C12 Cl24'
_cell_volume   1013.99063081
_cell_formula_units_Z   12
loop_
 _symmetry_equiv_pos_site_id
 _symmetry_equiv_pos_as_xyz
  1  'x, y, z'
loop_
 _atom_site_type_symbol
 _atom_site_label
 _atom_site_symmetry_multiplicity
 _atom_site_fract_x
 _atom_site_fract_y
 _atom_site_fract_z
 _atom_site_occupancy
  C  C0  1  0.81915699  0.33245580  0.01566195  1.0
  C  C1  1  0.81915699  0.16754420  0.51566195  1.0
  C  C2  1  0.18084301  0.83245580  0.48433805  1.0
  C  C3  1  0.18084301  0.66754420  0.98433805  1.0
  C  C4  1  0.74973402  0.96969272  0.49633780  1.0
  C  C5  1  0.74973402  0.53030728  0.99633780  1.0
  C  C6  1  0.25026598  0.46969272  0.00366220  1.0
  C  C7  1  0.25026598  0.03030728  0.50366220  1.0
  C  C8  1  0.68395147  0.16760283  0.49043251  1.0
  C  C9  1  0.68395147  0.33239717  0.99043251  1.0
  C  C10  1  0.31604853  0.66760283  0.00956749  1.0
  C  C11  1  0.31604853  0.83239717  0.50956749  1.0
  Cl  Cl12  1  0.92456851  0.27376584  0.14819394  1.0
  Cl  Cl13  1  0.92456851  0.22623416  0.64819394  1.0
  Cl  Cl14  1  0.07543149  0.77376584  0.35180606  1.0
  Cl  Cl15  1  0.07543149  0.72623416  0.85180606  1.0
  Cl  Cl16  1  0.86235248  0.25241246  0.41565062  1.0
  Cl  Cl17  1  0.86235248  0.24758754  0.91565062  1.0
  Cl  Cl18  1  0.13764752  0.75241246  0.08434938  1.0
  Cl  Cl19  1  0.13764752  0.74758754  0.58434938  1.0
  Cl  Cl20  1  0.71750159  0.83910332  0.37527172  1.0
  Cl  Cl21  1  0.71750159  0.66089668  0.87527172  1.0
  Cl  Cl22  1  0.28249841  0.33910332  0.12472828  1.0
  Cl  Cl23  1  0.28249841  0.16089668  0.62472828  1.0
  Cl  Cl24  1  0.64229357  0.27398148  0.09543464  1.0
  Cl  Cl25  1  0.64229357  0.22601852  0.59543464  1.0
  Cl  Cl26  1  0.35770643  0.77398148  0.40456536  1.0
  Cl  Cl27  1  0.35770643  0.72601852  0.90456536  1.0
  Cl  Cl28  1  0.57970262  0.25281021  0.36280247  1.0
  Cl  Cl29  1  0.57970262  0.24718979  0.86280247  1.0
  Cl  Cl30  1  0.42029738  0.75281021  0.13719753  1.0
  Cl  Cl31  1  0.42029738  0.74718979  0.63719753  1.0
  Cl  Cl32  1  0.22079515  0.18801816  0.39245570  1.0
  Cl  Cl33  1  0.22079515  0.31198184  0.89245570  1.0
  Cl  Cl34  1  0.77920485  0.68801816  0.10754430  1.0
  Cl  Cl35  1  0.77920485  0.81198184  0.60754430  1.0
