# generated using pymatgen
data_Pb2CCl2O3
_symmetry_space_group_name_H-M   'P 1'
_cell_length_a   8.27171441
_cell_length_b   8.27171441
_cell_length_c   9.04368259
_cell_angle_alpha   90.00000000
_cell_angle_beta   90.00000000
_cell_angle_gamma   90.00000000
_symmetry_Int_Tables_number   1
_chemical_formula_structural   Pb2CCl2O3
_chemical_formula_sum   'Pb8 C4 Cl8 O12'
_cell_volume   618.78015205
_cell_formula_units_Z   4
loop_
 _symmetry_equiv_pos_site_id
 _symmetry_equiv_pos_as_xyz
  1  'x, y, z'
loop_
 _atom_site_type_symbol
 _atom_site_label
 _atom_site_symmetry_multiplicity
 _atom_site_fract_x
 _atom_site_fract_y
 _atom_site_fract_z
 _atom_site_occupancy
  Pb  Pb0  1  0.83151562  0.66848438  0.74081533  1.0
  Pb  Pb1  1  0.83151562  0.66848438  0.25918467  1.0
  Pb  Pb2  1  0.33151562  0.83151562  0.74081533  1.0
  Pb  Pb3  1  0.33151562  0.83151562  0.25918467  1.0
  Pb  Pb4  1  0.16848438  0.33151562  0.74081533  1.0
  Pb  Pb5  1  0.16848438  0.33151562  0.25918467  1.0
  Pb  Pb6  1  0.66848438  0.16848438  0.74081533  1.0
  Pb  Pb7  1  0.66848438  0.16848438  0.25918467  1.0
  C  C8  1  0.32254903  0.17745097  0.00000000  1.0
  C  C9  1  0.82254903  0.32254903  0.00000000  1.0
  C  C10  1  0.67745097  0.82254903  0.00000000  1.0
  C  C11  1  0.17745097  0.67745097  0.00000000  1.0
  Cl  Cl12  1  0.35237597  0.14762403  0.50000000  1.0
  Cl  Cl13  1  0.85237597  0.35237597  0.50000000  1.0
  Cl  Cl14  1  0.64762403  0.85237597  0.50000000  1.0
  Cl  Cl15  1  0.14762403  0.64762403  0.50000000  1.0
  Cl  Cl16  1  0.50000000  0.50000000  0.75052353  1.0
  Cl  Cl17  1  0.50000000  0.50000000  0.24947647  1.0
  Cl  Cl18  1  0.00000000  0.00000000  0.75052353  1.0
  Cl  Cl19  1  0.00000000  0.00000000  0.24947647  1.0
  O  O20  1  0.37233167  0.12766833  0.87266926  1.0
  O  O21  1  0.37233167  0.12766833  0.12733074  1.0
  O  O22  1  0.87233167  0.37233167  0.87266926  1.0
  O  O23  1  0.87233167  0.37233167  0.12733074  1.0
  O  O24  1  0.62766833  0.87233167  0.87266926  1.0
  O  O25  1  0.62766833  0.87233167  0.12733074  1.0
  O  O26  1  0.12766833  0.62766833  0.87266926  1.0
  O  O27  1  0.12766833  0.62766833  0.12733074  1.0
  O  O28  1  0.78969744  0.71030256  0.00000000  1.0
  O  O29  1  0.28969744  0.78969744  0.00000000  1.0
  O  O30  1  0.21030256  0.28969744  0.00000000  1.0
  O  O31  1  0.71030256  0.21030256  0.00000000  1.0
