# generated using pymatgen
data_CaCdPt
_symmetry_space_group_name_H-M   'P 1'
_cell_length_a   7.32658989
_cell_length_b   4.29443146
_cell_length_c   8.63231870
_cell_angle_alpha   90.00000000
_cell_angle_beta   90.00000000
_cell_angle_gamma   90.00000000
_symmetry_Int_Tables_number   1
_chemical_formula_structural   CaCdPt
_chemical_formula_sum   'Ca4 Cd4 Pt4'
_cell_volume   271.60328866
_cell_formula_units_Z   4
loop_
 _symmetry_equiv_pos_site_id
 _symmetry_equiv_pos_as_xyz
  1  'x, y, z'
loop_
 _atom_site_type_symbol
 _atom_site_label
 _atom_site_symmetry_multiplicity
 _atom_site_fract_x
 _atom_site_fract_y
 _atom_site_fract_z
 _atom_site_occupancy
  Ca  Ca0  1  0.96474702  0.75000000  0.67732617  1.0
  Ca  Ca1  1  0.46474702  0.75000000  0.82267383  1.0
  Ca  Ca2  1  0.03525298  0.25000000  0.32267383  1.0
  Ca  Ca3  1  0.53525298  0.25000000  0.17732617  1.0
  Cd  Cd4  1  0.85795734  0.75000000  0.06358494  1.0
  Cd  Cd5  1  0.35795734  0.75000000  0.43641506  1.0
  Cd  Cd6  1  0.14204266  0.25000000  0.93641506  1.0
  Cd  Cd7  1  0.64204266  0.25000000  0.56358494  1.0
  Pt  Pt8  1  0.74258852  0.75000000  0.37123577  1.0
  Pt  Pt9  1  0.24258852  0.75000000  0.12876423  1.0
  Pt  Pt10  1  0.25741148  0.25000000  0.62876423  1.0
  Pt  Pt11  1  0.75741148  0.25000000  0.87123577  1.0
