# generated using pymatgen
data_Bi2O3
_symmetry_space_group_name_H-M   'P 1'
_cell_length_a   7.91649311
_cell_length_b   7.91649311
_cell_length_c   6.18738779
_cell_angle_alpha   90.00000000
_cell_angle_beta   90.00000000
_cell_angle_gamma   120.00000000
_symmetry_Int_Tables_number   1
_chemical_formula_structural   Bi2O3
_chemical_formula_sum   'Bi8 O12'
_cell_volume   335.81774729
_cell_formula_units_Z   4
loop_
 _symmetry_equiv_pos_site_id
 _symmetry_equiv_pos_as_xyz
  1  'x, y, z'
loop_
 _atom_site_type_symbol
 _atom_site_label
 _atom_site_symmetry_multiplicity
 _atom_site_fract_x
 _atom_site_fract_y
 _atom_site_fract_z
 _atom_site_occupancy
  Bi  Bi0  1  0.80115742  0.66163128  0.00134890  1.0
  Bi  Bi1  1  0.66163128  0.80115742  0.50134890  1.0
  Bi  Bi2  1  0.86047386  0.19884258  0.00134890  1.0
  Bi  Bi3  1  0.33836872  0.13952614  0.00134890  1.0
  Bi  Bi4  1  0.19884258  0.86047386  0.50134890  1.0
  Bi  Bi5  1  0.13952614  0.33836872  0.50134890  1.0
  Bi  Bi6  1  0.33333333  0.66666667  -0.00128524  1.0
  Bi  Bi7  1  0.66666667  0.33333333  0.49871476  1.0
  O  O8  1  0.11483126  0.86357688  0.12192582  1.0
  O  O9  1  0.86357688  0.11483126  0.62192582  1.0
  O  O10  1  0.74874562  0.88516874  0.12192582  1.0
  O  O11  1  0.13642312  0.25125438  0.12192582  1.0
  O  O12  1  0.88516874  0.74874562  0.62192582  1.0
  O  O13  1  0.25125438  0.13642312  0.62192582  1.0
  O  O14  1  0.59099720  0.50998387  0.30115369  1.0
  O  O15  1  0.50998387  0.59099720  0.80115369  1.0
  O  O16  1  0.91898667  0.40900280  0.30115369  1.0
  O  O17  1  0.49001613  0.08101333  0.30115369  1.0
  O  O18  1  0.40900280  0.91898667  0.80115369  1.0
  O  O19  1  0.08101333  0.49001613  0.80115369  1.0
