# generated using pymatgen
data_ZnSb
_symmetry_space_group_name_H-M   'P 1'
_cell_length_a   6.28151389
_cell_length_b   7.81670194
_cell_length_c   8.21802474
_cell_angle_alpha   90.00000000
_cell_angle_beta   90.00000000
_cell_angle_gamma   90.00000000
_symmetry_Int_Tables_number   1
_chemical_formula_structural   ZnSb
_chemical_formula_sum   'Zn8 Sb8'
_cell_volume   403.51094618
_cell_formula_units_Z   8
loop_
 _symmetry_equiv_pos_site_id
 _symmetry_equiv_pos_as_xyz
  1  'x, y, z'
loop_
 _atom_site_type_symbol
 _atom_site_label
 _atom_site_symmetry_multiplicity
 _atom_site_fract_x
 _atom_site_fract_y
 _atom_site_fract_z
 _atom_site_occupancy
  Zn  Zn0  1  0.45902028  0.89344060  0.62720851  1.0
  Zn  Zn1  1  0.45902028  0.60655940  0.12720851  1.0
  Zn  Zn2  1  0.95902028  0.89344060  0.87279149  1.0
  Zn  Zn3  1  0.95902028  0.60655940  0.37279149  1.0
  Zn  Zn4  1  0.54097972  0.39344060  0.87279149  1.0
  Zn  Zn5  1  0.54097972  0.10655940  0.37279149  1.0
  Zn  Zn6  1  0.04097972  0.39344060  0.62720851  1.0
  Zn  Zn7  1  0.04097972  0.10655940  0.12720851  1.0
  Sb  Sb8  1  0.14162761  0.58303261  0.89060485  1.0
  Sb  Sb9  1  0.14162761  0.91696739  0.39060485  1.0
  Sb  Sb10  1  0.64162761  0.58303261  0.60939515  1.0
  Sb  Sb11  1  0.64162761  0.91696739  0.10939515  1.0
  Sb  Sb12  1  0.85837239  0.08303261  0.60939515  1.0
  Sb  Sb13  1  0.85837239  0.41696739  0.10939515  1.0
  Sb  Sb14  1  0.35837239  0.08303261  0.89060485  1.0
  Sb  Sb15  1  0.35837239  0.41696739  0.39060485  1.0
