# generated using pymatgen
data_CsV2I3O13
_symmetry_space_group_name_H-M   'P 1'
_cell_length_a   9.72465882
_cell_length_b   9.72465882
_cell_length_c   9.72465882
_cell_angle_alpha   88.06352909
_cell_angle_beta   112.49935871
_cell_angle_gamma   130.62596759
_symmetry_Int_Tables_number   1
_chemical_formula_structural   CsV2I3O13
_chemical_formula_sum   'Cs2 V4 I6 O26'
_cell_volume   613.69316385
_cell_formula_units_Z   2
loop_
 _symmetry_equiv_pos_site_id
 _symmetry_equiv_pos_as_xyz
  1  'x, y, z'
loop_
 _atom_site_type_symbol
 _atom_site_label
 _atom_site_symmetry_multiplicity
 _atom_site_fract_x
 _atom_site_fract_y
 _atom_site_fract_z
 _atom_site_occupancy
  Cs  Cs0  1  0.64962527  0.79547069  1.35415459  1.0
  Cs  Cs1  1  0.44131610  0.29547069  0.64584541  1.0
  V  V2  1  1.03164681  0.92449587  0.85060372  1.0
  V  V3  1  1.07389215  1.42449587  1.39284906  1.0
  V  V4  1  1.03164681  0.68104309  0.60715094  1.0
  V  V5  1  1.07389215  1.18104309  1.14939628  1.0
  I  I6  1  1.03778119  1.27736298  1.74976795  1.0
  I  I7  1  1.52759503  1.77736298  1.73958179  1.0
  I  I8  1  1.03778119  0.78801324  0.26041821  1.0
  I  I9  1  0.52759503  0.28801324  0.25023205  1.0
  I  I10  1  0.59427717  1.07342069  1.02085648  1.0
  I  I11  1  1.05256421  0.57342069  0.97914352  1.0
  O  O12  1  0.75291982  1.06807430  1.64782635  1.0
  O  O13  1  1.42024796  1.56807430  1.81515449  1.0
  O  O14  1  0.75291982  0.60509347  0.18484551  1.0
  O  O15  1  0.42024796  0.10509347  0.35217365  1.0
  O  O16  1  1.12623403  1.14095142  1.77416025  1.0
  O  O17  1  1.36679117  1.64095142  1.51471739  1.0
  O  O18  1  1.12623403  0.85207379  0.48528261  1.0
  O  O19  1  0.36679117  0.35207379  0.22583975  1.0
  O  O20  1  0.76946075  1.24932364  1.23230330  1.0
  O  O21  1  1.01702034  0.74932364  0.97986290  1.0
  O  O22  1  0.76946075  1.03715744  1.02013710  1.0
  O  O23  1  1.01702034  0.53715744  0.76769670  1.0
  O  O24  1  1.04859428  1.27034670  1.48132002  1.0
  O  O25  1  0.78902668  0.77034670  0.72175242  1.0
  O  O26  1  1.04859428  1.06727426  1.27824758  1.0
  O  O27  1  0.78902668  0.56727426  0.51867998  1.0
  O  O28  1  1.10149893  1.64151175  1.25305827  1.0
  O  O29  1  0.38845347  1.14151175  1.04001281  1.0
  O  O30  1  1.10149893  0.34844066  0.95998719  1.0
  O  O31  1  1.38845347  0.84844066  0.74694173  1.0
  O  O32  1  1.11431388  1.37561605  1.23869783  1.0
  O  O33  1  1.13691822  0.87561605  0.76130217  1.0
  O  O34  1  0.43273436  0.85511135  1.07762301  1.0
  O  O35  1  0.77748834  0.35511135  0.92237699  1.0
  O  O36  1  0.01881862  0.01881862  0.00000000  1.0
  O  O37  1  1.01881862  0.51881862  0.50000000  1.0
