# generated using pymatgen
data_Nb7Fe3B8
_symmetry_space_group_name_H-M   'P 1'
_cell_length_a   8.34722717
_cell_length_b   8.34722717
_cell_length_c   3.29354790
_cell_angle_alpha   90.00000000
_cell_angle_beta   90.00000000
_cell_angle_gamma   120.00000000
_symmetry_Int_Tables_number   1
_chemical_formula_structural   Nb7Fe3B8
_chemical_formula_sum   'Nb7 Fe3 B8'
_cell_volume   198.73716087
_cell_formula_units_Z   1
loop_
 _symmetry_equiv_pos_site_id
 _symmetry_equiv_pos_as_xyz
  1  'x, y, z'
loop_
 _atom_site_type_symbol
 _atom_site_label
 _atom_site_symmetry_multiplicity
 _atom_site_fract_x
 _atom_site_fract_y
 _atom_site_fract_z
 _atom_site_occupancy
  Nb  Nb0  1  0.00000000  0.00000000  0.00000000  1.0
  Nb  Nb1  1  0.78772296  0.21227704  0.00000000  1.0
  Nb  Nb2  1  0.78772296  0.57544591  0.00000000  1.0
  Nb  Nb3  1  0.42455409  0.21227704  0.00000000  1.0
  Nb  Nb4  1  0.21227704  0.78772296  0.00000000  1.0
  Nb  Nb5  1  0.57544591  0.78772296  0.00000000  1.0
  Nb  Nb6  1  0.21227704  0.42455409  0.00000000  1.0
  Fe  Fe7  1  0.50000000  0.50000000  0.50000000  1.0
  Fe  Fe8  1  0.50000000  0.00000000  0.50000000  1.0
  Fe  Fe9  1  0.00000000  0.50000000  0.50000000  1.0
  B  B10  1  0.66666667  0.33333333  0.50000000  1.0
  B  B11  1  0.33333333  0.66666667  0.50000000  1.0
  B  B12  1  0.78180257  0.78180257  0.50000000  1.0
  B  B13  1  0.21819743  0.00000000  0.50000000  1.0
  B  B14  1  -0.00000000  0.21819743  0.50000000  1.0
  B  B15  1  0.21819743  0.21819743  0.50000000  1.0
  B  B16  1  0.78180257  0.00000000  0.50000000  1.0
  B  B17  1  0.00000000  0.78180257  0.50000000  1.0
