# generated using pymatgen
data_NaSr2AlP3
_symmetry_space_group_name_H-M   'P 1'
_cell_length_a   8.12793108
_cell_length_b   8.12793108
_cell_length_c   11.58085994
_cell_angle_alpha   76.04210288
_cell_angle_beta   103.95789712
_cell_angle_gamma   112.06826814
_symmetry_Int_Tables_number   1
_chemical_formula_structural   NaSr2AlP3
_chemical_formula_sum   'Na4 Sr8 Al4 P12'
_cell_volume   678.36975054
_cell_formula_units_Z   4
loop_
 _symmetry_equiv_pos_site_id
 _symmetry_equiv_pos_as_xyz
  1  'x, y, z'
loop_
 _atom_site_type_symbol
 _atom_site_label
 _atom_site_symmetry_multiplicity
 _atom_site_fract_x
 _atom_site_fract_y
 _atom_site_fract_z
 _atom_site_occupancy
  Na  Na0  1  0.64623949  -0.64623949  0.73488294  1.0
  Na  Na1  1  0.35376051  -0.35376051  0.26511706  1.0
  Na  Na2  1  0.69656660  -0.30343340  0.50000000  1.0
  Na  Na3  1  1.30343340  0.30343340  0.50000000  1.0
  Sr  Sr4  1  0.74975312  -0.19088666  0.81340554  1.0
  Sr  Sr5  1  1.19088666  0.25024688  0.81340554  1.0
  Sr  Sr6  1  0.80911334  -0.25024688  0.18659446  1.0
  Sr  Sr7  1  1.25024688  0.19088666  0.18659446  1.0
  Sr  Sr8  1  1.50000000  -0.00000000  0.50000000  1.0
  Sr  Sr9  1  1.00000000  -0.50000000  0.50000000  1.0
  Sr  Sr10  1  1.50000000  -0.00000000  0.00000000  1.0
  Sr  Sr11  1  1.00000000  -0.50000000  0.00000000  1.0
  Al  Al12  1  0.90920045  -0.90920045  0.38245951  1.0
  Al  Al13  1  0.09079955  -0.09079955  0.61754049  1.0
  Al  Al14  1  0.30336151  -0.30336151  0.76777035  1.0
  Al  Al15  1  0.69663849  -0.69663849  0.23222965  1.0
  P  P16  1  1.38874138  0.02043462  0.72845875  1.0
  P  P17  1  0.97956538  -0.38874138  0.72845875  1.0
  P  P18  1  1.02043462  0.38874138  0.27154125  1.0
  P  P19  1  0.61125862  -0.02043462  0.27154125  1.0
  P  P20  1  0.91230898  -0.91230898  0.98689314  1.0
  P  P21  1  0.08769102  -0.08769102  0.01310686  1.0
  P  P22  1  0.91014204  -0.91014204  0.59431465  1.0
  P  P23  1  0.08985796  -0.08985796  0.40568535  1.0
  P  P24  1  0.58664629  -0.58664629  1.01197121  1.0
  P  P25  1  0.41335371  -0.41335371  -0.01197121  1.0
  P  P26  1  0.41045604  -0.41045604  0.63806611  1.0
  P  P27  1  0.58954396  -0.58954396  0.36193389  1.0
