# generated using pymatgen
data_NbSiIr
_symmetry_space_group_name_H-M   'P 1'
_cell_length_a   6.45048831
_cell_length_b   3.81052921
_cell_length_c   7.32314869
_cell_angle_alpha   90.00000000
_cell_angle_beta   90.00000000
_cell_angle_gamma   90.00000000
_symmetry_Int_Tables_number   1
_chemical_formula_structural   NbSiIr
_chemical_formula_sum   'Nb4 Si4 Ir4'
_cell_volume   180.00134059
_cell_formula_units_Z   4
loop_
 _symmetry_equiv_pos_site_id
 _symmetry_equiv_pos_as_xyz
  1  'x, y, z'
loop_
 _atom_site_type_symbol
 _atom_site_label
 _atom_site_symmetry_multiplicity
 _atom_site_fract_x
 _atom_site_fract_y
 _atom_site_fract_z
 _atom_site_occupancy
  Nb  Nb0  1  0.97574821  0.75000000  0.67244571  1.0
  Nb  Nb1  1  0.47574821  0.75000000  0.82755429  1.0
  Nb  Nb2  1  0.02425179  0.25000000  0.32755429  1.0
  Nb  Nb3  1  0.52425179  0.25000000  0.17244571  1.0
  Si  Si4  1  0.73101713  0.75000000  0.37550943  1.0
  Si  Si5  1  0.23101713  0.75000000  0.12449057  1.0
  Si  Si6  1  0.26898287  0.25000000  0.62449057  1.0
  Si  Si7  1  0.76898287  0.25000000  0.87550943  1.0
  Ir  Ir8  1  0.85429418  0.75000000  0.06334833  1.0
  Ir  Ir9  1  0.35429418  0.75000000  0.43665167  1.0
  Ir  Ir10  1  0.14570582  0.25000000  0.93665167  1.0
  Ir  Ir11  1  0.64570582  0.25000000  0.56334833  1.0
