# generated using pymatgen
data_Na2H2Pd
_symmetry_space_group_name_H-M   'P 1'
_cell_length_a   6.22197679
_cell_length_b   6.22197679
_cell_length_c   6.22197679
_cell_angle_alpha   146.39806909
_cell_angle_beta   146.39806909
_cell_angle_gamma   48.25587363
_symmetry_Int_Tables_number   1
_chemical_formula_structural   Na2H2Pd
_chemical_formula_sum   'Na2 H2 Pd1'
_cell_volume   73.46525296
_cell_formula_units_Z   1
loop_
 _symmetry_equiv_pos_site_id
 _symmetry_equiv_pos_as_xyz
  1  'x, y, z'
loop_
 _atom_site_type_symbol
 _atom_site_label
 _atom_site_symmetry_multiplicity
 _atom_site_fract_x
 _atom_site_fract_y
 _atom_site_fract_z
 _atom_site_occupancy
  Na  Na0  1  0.64008248  0.64008248  1.00000000  1.0
  Na  Na1  1  0.35991752  0.35991752  -0.00000000  1.0
  H  H2  1  0.85085554  0.85085554  1.00000000  1.0
  H  H3  1  0.14914446  0.14914446  -0.00000000  1.0
  Pd  Pd4  1  0.00000000  0.00000000  0.00000000  1.0
