# generated using pymatgen
data_NaZr2Te2As
_symmetry_space_group_name_H-M   'P 1'
_cell_length_a   11.16370052
_cell_length_b   11.16370052
_cell_length_c   11.16370052
_cell_angle_alpha   20.75889834
_cell_angle_beta   20.75889834
_cell_angle_gamma   20.75889834
_symmetry_Int_Tables_number   1
_chemical_formula_structural   NaZr2Te2As
_chemical_formula_sum   'Na1 Zr2 Te2 As1'
_cell_volume   153.02237996
_cell_formula_units_Z   1
loop_
 _symmetry_equiv_pos_site_id
 _symmetry_equiv_pos_as_xyz
  1  'x, y, z'
loop_
 _atom_site_type_symbol
 _atom_site_label
 _atom_site_symmetry_multiplicity
 _atom_site_fract_x
 _atom_site_fract_y
 _atom_site_fract_z
 _atom_site_occupancy
  Na  Na0  1  0.00000000  0.00000000  0.00000000  1.0
  Zr  Zr1  1  0.87590155  0.87590155  0.87590155  1.0
  Zr  Zr2  1  1.12409845  1.12409845  0.12409845  1.0
  Te  Te3  1  0.73396016  0.73396016  0.73396016  1.0
  Te  Te4  1  1.26603984  1.26603984  0.26603984  1.0
  As  As5  1  1.50000000  0.50000000  0.50000000  1.0
