# generated using pymatgen
data_Ba6Mg23
_symmetry_space_group_name_H-M   'P 1'
_cell_length_a   10.75010408
_cell_length_b   10.75010408
_cell_length_c   10.75010408
_cell_angle_alpha   60.00000000
_cell_angle_beta   60.00000000
_cell_angle_gamma   60.00000000
_symmetry_Int_Tables_number   1
_chemical_formula_structural   Ba6Mg23
_chemical_formula_sum   'Ba6 Mg23'
_cell_volume   878.46205924
_cell_formula_units_Z   1
loop_
 _symmetry_equiv_pos_site_id
 _symmetry_equiv_pos_as_xyz
  1  'x, y, z'
loop_
 _atom_site_type_symbol
 _atom_site_label
 _atom_site_symmetry_multiplicity
 _atom_site_fract_x
 _atom_site_fract_y
 _atom_site_fract_z
 _atom_site_occupancy
  Ba  Ba0  1  -0.71207794  0.71207794  0.71207794  1.0
  Ba  Ba1  1  -0.28792206  0.28792206  0.71207794  1.0
  Ba  Ba2  1  0.71207794  0.71207794  -0.71207794  1.0
  Ba  Ba3  1  0.28792206  1.28792206  -0.28792206  1.0
  Ba  Ba4  1  0.28792206  -0.28792206  1.28792206  1.0
  Ba  Ba5  1  -0.28792206  0.28792206  0.28792206  1.0
  Mg  Mg6  1  0.87733830  0.87733830  -0.12266170  1.0
  Mg  Mg7  1  1.12266170  0.12266170  0.63201491  1.0
  Mg  Mg8  1  1.12266170  0.63201491  0.12266170  1.0
  Mg  Mg9  1  0.36798509  0.87733830  -0.12266170  1.0
  Mg  Mg10  1  1.63201491  0.12266170  0.12266170  1.0
  Mg  Mg11  1  0.87733830  0.36798509  -0.12266170  1.0
  Mg  Mg12  1  0.87733830  0.87733830  -0.63201491  1.0
  Mg  Mg13  1  1.12266170  0.12266170  0.12266170  1.0
  Mg  Mg14  1  0.67670961  0.67670961  -0.32329039  1.0
  Mg  Mg15  1  1.32329039  0.32329039  0.03012884  1.0
  Mg  Mg16  1  1.32329039  0.03012884  0.32329039  1.0
  Mg  Mg17  1  0.96987116  0.67670961  -0.32329039  1.0
  Mg  Mg18  1  1.03012884  0.32329039  0.32329039  1.0
  Mg  Mg19  1  0.67670961  0.96987116  -0.32329039  1.0
  Mg  Mg20  1  0.67670961  0.67670961  -0.03012884  1.0
  Mg  Mg21  1  1.32329039  0.32329039  0.32329039  1.0
  Mg  Mg22  1  1.50000000  0.00000000  0.00000000  1.0
  Mg  Mg23  1  1.00000000  0.50000000  -0.50000000  1.0
  Mg  Mg24  1  0.00000000  1.50000000  0.00000000  1.0
  Mg  Mg25  1  0.50000000  1.00000000  -0.50000000  1.0
  Mg  Mg26  1  0.00000000  0.00000000  0.50000000  1.0
  Mg  Mg27  1  0.50000000  -0.50000000  1.00000000  1.0
  Mg  Mg28  1  0.00000000  0.00000000  0.00000000  1.0
