# generated using pymatgen
data_NiMoO4
_symmetry_space_group_name_H-M   'P 1'
_cell_length_a   6.52496770
_cell_length_b   6.52496770
_cell_length_c   7.70218090
_cell_angle_alpha   72.56891979
_cell_angle_beta   107.43108021
_cell_angle_gamma   95.05747371
_symmetry_Int_Tables_number   1
_chemical_formula_structural   NiMoO4
_chemical_formula_sum   'Ni4 Mo4 O16'
_cell_volume   298.49532349
_cell_formula_units_Z   4
loop_
 _symmetry_equiv_pos_site_id
 _symmetry_equiv_pos_as_xyz
  1  'x, y, z'
loop_
 _atom_site_type_symbol
 _atom_site_label
 _atom_site_symmetry_multiplicity
 _atom_site_fract_x
 _atom_site_fract_y
 _atom_site_fract_z
 _atom_site_occupancy
  Ni  Ni0  1  0.81372340  0.81372340  0.50000000  1.0
  Ni  Ni1  1  0.18627660  0.18627660  0.50000000  1.0
  Ni  Ni2  1  1.18629492  -0.18629492  0.84329403  1.0
  Ni  Ni3  1  0.81370508  0.18629492  0.15670597  1.0
  Mo  Mo4  1  0.78053369  0.78053369  -0.00000000  1.0
  Mo  Mo5  1  0.21946631  0.21946631  0.00000000  1.0
  Mo  Mo6  1  0.78009639  0.21990361  0.63833738  1.0
  Mo  Mo7  1  1.21990361  -0.21990361  0.36166262  1.0
  O  O8  1  1.50312938  -0.18369105  0.91875243  1.0
  O  O9  1  1.18369105  -0.50312938  0.91875243  1.0
  O  O10  1  0.81630895  0.50312938  0.08124757  1.0
  O  O11  1  0.49687062  0.18369105  0.08124757  1.0
  O  O12  1  0.50288359  0.18424044  0.57599101  1.0
  O  O13  1  0.81575956  0.49711641  0.57599101  1.0
  O  O14  1  1.18424044  -0.49711641  0.42400899  1.0
  O  O15  1  1.49711641  -0.18424044  0.42400899  1.0
  O  O16  1  0.84610480  0.15389520  0.91128103  1.0
  O  O17  1  1.15389520  -0.15389520  0.08871897  1.0
  O  O18  1  0.85117334  0.14882666  0.43894185  1.0
  O  O19  1  1.14882666  -0.14882666  0.56105815  1.0
  O  O20  1  1.84977333  -0.15212787  0.76302613  1.0
  O  O21  1  1.15212787  -0.84977333  0.76302613  1.0
  O  O22  1  0.84787213  0.84977333  0.23697387  1.0
  O  O23  1  0.15022667  0.15212787  0.23697387  1.0
