# generated using pymatgen
data_BC2N
_symmetry_space_group_name_H-M   'P 1'
_cell_length_a   4.84233424
_cell_length_b   4.84233424
_cell_length_c   4.82904467
_cell_angle_alpha   62.68022092
_cell_angle_beta   117.31977908
_cell_angle_gamma   118.20222829
_symmetry_Int_Tables_number   1
_chemical_formula_structural   BC2N
_chemical_formula_sum   'B2 C4 N2'
_cell_volume   84.31619205
_cell_formula_units_Z   2
loop_
 _symmetry_equiv_pos_site_id
 _symmetry_equiv_pos_as_xyz
  1  'x, y, z'
loop_
 _atom_site_type_symbol
 _atom_site_label
 _atom_site_symmetry_multiplicity
 _atom_site_fract_x
 _atom_site_fract_y
 _atom_site_fract_z
 _atom_site_occupancy
  B  B0  1  0.95594815  0.53400594  0.04671527  1.0
  B  B1  1  0.46599406  0.04405185  0.04671527  1.0
  C  C2  1  -0.04527324  0.04527324  0.53455913  1.0
  C  C3  1  0.28958657  0.21731084  0.69732709  1.0
  C  C4  1  0.78268916  -0.28958657  0.69732709  1.0
  C  C5  1  0.29885099  -0.29885099  0.22237396  1.0
  N  N6  1  0.79631040  0.20368960  0.21831100  1.0
  N  N7  1  0.45589391  -0.45589391  0.53667119  1.0
