# generated using pymatgen
data_GdO2
_symmetry_space_group_name_H-M   'P 1'
_cell_length_a   3.87229689
_cell_length_b   3.87217088
_cell_length_c   5.48471345
_cell_angle_alpha   90.00000000
_cell_angle_beta   89.99537410
_cell_angle_gamma   90.00000000
_symmetry_Int_Tables_number   1
_chemical_formula_structural   GdO2
_chemical_formula_sum   'Gd2 O4'
_cell_volume   82.23886427
_cell_formula_units_Z   2
loop_
 _symmetry_equiv_pos_site_id
 _symmetry_equiv_pos_as_xyz
  1  'x, y, z'
loop_
 _atom_site_type_symbol
 _atom_site_label
 _atom_site_symmetry_multiplicity
 _atom_site_fract_x
 _atom_site_fract_y
 _atom_site_fract_z
 _atom_site_occupancy
  Gd  Gd0  1  0.24999296  0.25000000  0.75000711  1.0
  Gd  Gd1  1  0.75000704  0.75000000  0.24999289  1.0
  O  O2  1  0.74999759  0.25000000  0.49993470  1.0
  O  O3  1  0.25000241  0.75000000  0.50006530  1.0
  O  O4  1  0.74999097  0.25000000  0.99993077  1.0
  O  O5  1  0.25000903  0.75000000  0.00006923  1.0
