# generated using pymatgen
data_YbZn2
_symmetry_space_group_name_H-M   'P 1'
_cell_length_a   5.65373951
_cell_length_b   5.65373951
_cell_length_c   5.65373951
_cell_angle_alpha   133.17628744
_cell_angle_beta   101.74267695
_cell_angle_gamma   96.44434427
_symmetry_Int_Tables_number   1
_chemical_formula_structural   YbZn2
_chemical_formula_sum   'Yb2 Zn4'
_cell_volume   120.76299808
_cell_formula_units_Z   2
loop_
 _symmetry_equiv_pos_site_id
 _symmetry_equiv_pos_as_xyz
  1  'x, y, z'
loop_
 _atom_site_type_symbol
 _atom_site_label
 _atom_site_symmetry_multiplicity
 _atom_site_fract_x
 _atom_site_fract_y
 _atom_site_fract_z
 _atom_site_occupancy
  Yb  Yb0  1  1.70520645  1.45520645  1.25000000  1.0
  Yb  Yb1  1  0.29479355  0.54479355  0.75000000  1.0
  Zn  Zn2  1  1.28232752  0.83525359  1.44707393  1.0
  Zn  Zn3  1  1.11182034  0.16474641  0.94707393  1.0
  Zn  Zn4  1  0.71767248  1.16474641  0.55292607  1.0
  Zn  Zn5  1  0.88817966  0.83525359  0.05292607  1.0
