# generated using pymatgen
data_RbHgC3(NO)3
_symmetry_space_group_name_H-M   'P 1'
_cell_length_a   10.71758807
_cell_length_b   4.26096345
_cell_length_c   18.34587817
_cell_angle_alpha   90.00000000
_cell_angle_beta   90.00000000
_cell_angle_gamma   90.00000000
_symmetry_Int_Tables_number   1
_chemical_formula_structural   RbHgC3(NO)3
_chemical_formula_sum   'Rb4 Hg4 C12 N12 O12'
_cell_volume   837.80582492
_cell_formula_units_Z   4
loop_
 _symmetry_equiv_pos_site_id
 _symmetry_equiv_pos_as_xyz
  1  'x, y, z'
loop_
 _atom_site_type_symbol
 _atom_site_label
 _atom_site_symmetry_multiplicity
 _atom_site_fract_x
 _atom_site_fract_y
 _atom_site_fract_z
 _atom_site_occupancy
  Rb  Rb0  1  0.92281620  0.75000000  0.83765142  1.0
  Rb  Rb1  1  0.42281620  0.75000000  0.66234858  1.0
  Rb  Rb2  1  0.07718380  0.25000000  0.16234858  1.0
  Rb  Rb3  1  0.57718380  0.25000000  0.33765142  1.0
  Hg  Hg4  1  0.84222592  0.75000000  0.46459273  1.0
  Hg  Hg5  1  0.34222592  0.75000000  0.03540727  1.0
  Hg  Hg6  1  0.15777408  0.25000000  0.53540727  1.0
  Hg  Hg7  1  0.65777408  0.25000000  0.96459273  1.0
  C  C8  1  0.86824945  0.75000000  0.62520331  1.0
  C  C9  1  0.36824945  0.75000000  0.87479669  1.0
  C  C10  1  0.13175055  0.25000000  0.37479669  1.0
  C  C11  1  0.63175055  0.25000000  0.12520331  1.0
  C  C12  1  0.87151451  0.75000000  0.03237379  1.0
  C  C13  1  0.37151451  0.75000000  0.46762621  1.0
  C  C14  1  0.12848549  0.25000000  0.96762621  1.0
  C  C15  1  0.62848549  0.25000000  0.53237379  1.0
  C  C16  1  0.87607399  0.75000000  0.30513744  1.0
  C  C17  1  0.37607399  0.75000000  0.19486256  1.0
  C  C18  1  0.12392601  0.25000000  0.69486256  1.0
  C  C19  1  0.62392601  0.25000000  0.80513744  1.0
  N  N20  1  0.29219259  0.75000000  0.51413464  1.0
  N  N21  1  0.79219259  0.75000000  0.98586536  1.0
  N  N22  1  0.70780741  0.25000000  0.48586536  1.0
  N  N23  1  0.20780741  0.25000000  0.01413464  1.0
  N  N24  1  0.79906484  0.75000000  0.35345222  1.0
  N  N25  1  0.29906484  0.75000000  0.14654778  1.0
  N  N26  1  0.20093516  0.25000000  0.64654778  1.0
  N  N27  1  0.70093516  0.25000000  0.85345222  1.0
  N  N28  1  0.92282443  0.75000000  0.56740219  1.0
  N  N29  1  0.42282443  0.75000000  0.93259781  1.0
  N  N30  1  0.07717557  0.25000000  0.43259781  1.0
  N  N31  1  0.57717557  0.25000000  0.06740219  1.0
  O  O32  1  0.82241667  0.75000000  0.68459316  1.0
  O  O33  1  0.32241667  0.75000000  0.81540684  1.0
  O  O34  1  0.17758333  0.25000000  0.31540684  1.0
  O  O35  1  0.67758333  0.25000000  0.18459316  1.0
  O  O36  1  0.95200641  0.75000000  0.07867669  1.0
  O  O37  1  0.45200641  0.75000000  0.42132331  1.0
  O  O38  1  0.04799359  0.25000000  0.92132331  1.0
  O  O39  1  0.54799359  0.25000000  0.57867669  1.0
  O  O40  1  0.94593801  0.75000000  0.25440569  1.0
  O  O41  1  0.44593801  0.75000000  0.24559431  1.0
  O  O42  1  0.05406199  0.25000000  0.74559431  1.0
  O  O43  1  0.55406199  0.25000000  0.75440569  1.0
