# generated using pymatgen
data_Li2WO4
_symmetry_space_group_name_H-M   'P 1'
_cell_length_a   5.78473670
_cell_length_b   5.78473670
_cell_length_c   5.06562055
_cell_angle_alpha   88.71395563
_cell_angle_beta   91.28604437
_cell_angle_gamma   117.75897321
_symmetry_Int_Tables_number   1
_chemical_formula_structural   Li2WO4
_chemical_formula_sum   'Li4 W2 O8'
_cell_volume   149.95189474
_cell_formula_units_Z   2
loop_
 _symmetry_equiv_pos_site_id
 _symmetry_equiv_pos_as_xyz
  1  'x, y, z'
loop_
 _atom_site_type_symbol
 _atom_site_label
 _atom_site_symmetry_multiplicity
 _atom_site_fract_x
 _atom_site_fract_y
 _atom_site_fract_z
 _atom_site_occupancy
  Li  Li0  1  1.54371614  0.15505555  0.26198436  1.0
  Li  Li1  1  0.84494445  -0.54371614  0.76198436  1.0
  Li  Li2  1  1.15505555  0.54371614  0.23801564  1.0
  Li  Li3  1  0.45628386  -0.15505555  0.73801564  1.0
  W  W4  1  0.82997230  -0.17002770  0.25000000  1.0
  W  W5  1  1.17002770  0.17002770  0.75000000  1.0
  O  O6  1  1.79318563  0.00335911  0.93503685  1.0
  O  O7  1  0.99664089  -0.79318563  0.43503685  1.0
  O  O8  1  1.00335911  0.79318563  0.56496315  1.0
  O  O9  1  0.20681437  -0.00335911  0.06496315  1.0
  O  O10  1  0.51611732  -0.22783371  0.37269759  1.0
  O  O11  1  1.22783371  0.48388268  0.87269759  1.0
  O  O12  1  0.77216629  -0.48388268  0.12730241  1.0
  O  O13  1  1.48388268  0.22783371  0.62730241  1.0
