# generated using pymatgen
data_HN3
_symmetry_space_group_name_H-M   'P 1'
_cell_length_a   8.36089122
_cell_length_b   8.36089122
_cell_length_c   7.32298396
_cell_angle_alpha   71.30646439
_cell_angle_beta   108.69353561
_cell_angle_gamma   89.89804189
_symmetry_Int_Tables_number   1
_chemical_formula_structural   HN3
_chemical_formula_sum   'H8 N24'
_cell_volume   456.19812110
_cell_formula_units_Z   8
loop_
 _symmetry_equiv_pos_site_id
 _symmetry_equiv_pos_as_xyz
  1  'x, y, z'
loop_
 _atom_site_type_symbol
 _atom_site_label
 _atom_site_symmetry_multiplicity
 _atom_site_fract_x
 _atom_site_fract_y
 _atom_site_fract_z
 _atom_site_occupancy
  H  H0  1  0.73439349  -0.05389425  -0.01030817  1.0
  H  H1  1  1.05389425  0.26560651  0.48969183  1.0
  H  H2  1  0.99571344  0.60538274  0.99465788  1.0
  H  H3  1  0.39461726  0.00428656  0.49465788  1.0
  H  H4  1  0.09474429  -0.03558482  0.49213911  1.0
  H  H5  1  1.03558482  0.90525571  0.99213911  1.0
  H  H6  1  1.35497689  0.30118146  0.50130758  1.0
  H  H7  1  0.69881854  -0.35497689  1.00130758  1.0
  N  N8  1  1.45377448  0.22243154  0.50446634  1.0
  N  N9  1  0.77756846  -0.45377448  1.00446634  1.0
  N  N10  1  0.63708762  -0.13183139  -0.00981592  1.0
  N  N11  1  1.13183139  0.36291238  0.49018408  1.0
  N  N12  1  1.09425702  0.68226261  0.99603800  1.0
  N  N13  1  0.31773739  -0.09425702  0.49603800  1.0
  N  N14  1  0.99521865  -0.95687108  0.48733386  1.0
  N  N15  1  1.95687108  0.00478135  0.98733386  1.0
  N  N16  1  0.50926822  -0.06834425  1.00058510  1.0
  N  N17  1  1.06834425  0.49073178  0.50058510  1.0
  N  N18  1  0.86466361  -0.02434384  0.48570652  1.0
  N  N19  1  1.02434384  0.13533639  0.98570652  1.0
  N  N20  1  1.22340918  0.61569861  0.99197414  1.0
  N  N21  1  0.38430139  -0.22340918  0.49197414  1.0
  N  N22  1  0.38314328  -0.02506248  1.00900410  1.0
  N  N23  1  1.02506248  0.61685672  0.50900410  1.0
  N  N24  1  1.58288263  0.29011990  0.49862180  1.0
  N  N25  1  0.70988010  -0.58288263  -0.00137820  1.0
  N  N26  1  0.71030816  -0.66319512  0.49452860  1.0
  N  N27  1  1.66319512  0.28969184  -0.00547140  1.0
  N  N28  1  0.73623890  -0.07109231  0.48370384  1.0
  N  N29  1  1.07109231  0.26376110  -0.01629616  1.0
  N  N30  1  1.35053542  0.56931796  0.98865723  1.0
  N  N31  1  0.43068204  -0.35053542  0.48865723  1.0
