# generated using pymatgen
data_Eu2P4O13
_symmetry_space_group_name_H-M   'P 1'
_cell_length_a   9.64060689
_cell_length_b   9.64060689
_cell_length_c   8.80830035
_cell_angle_alpha   90.00000000
_cell_angle_beta   90.00000000
_cell_angle_gamma   135.61222577
_symmetry_Int_Tables_number   1
_chemical_formula_structural   Eu2P4O13
_chemical_formula_sum   'Eu4 P8 O26'
_cell_volume   572.65799878
_cell_formula_units_Z   2
loop_
 _symmetry_equiv_pos_site_id
 _symmetry_equiv_pos_as_xyz
  1  'x, y, z'
loop_
 _atom_site_type_symbol
 _atom_site_label
 _atom_site_symmetry_multiplicity
 _atom_site_fract_x
 _atom_site_fract_y
 _atom_site_fract_z
 _atom_site_occupancy
  Eu  Eu0  1  0.10326055  1.39447903  0.35552639  1.0
  Eu  Eu1  1  -0.60552097  1.10326055  0.64447361  1.0
  Eu  Eu2  1  -0.39447903  0.89673945  0.14447361  1.0
  Eu  Eu3  1  -0.10326055  1.60552097  0.85552639  1.0
  P  P4  1  0.09928485  1.41910057  -0.00025380  1.0
  P  P5  1  -0.58089943  1.09928485  1.00025380  1.0
  P  P6  1  -0.41910057  0.90071515  0.50025380  1.0
  P  P7  1  -0.09928485  1.58089943  0.49974620  1.0
  P  P8  1  -0.14539296  1.72668211  0.23080384  1.0
  P  P9  1  -0.27331789  0.85460704  0.76919616  1.0
  P  P10  1  -0.72668211  1.14539296  0.26919616  1.0
  P  P11  1  0.14539296  1.27331789  0.73080384  1.0
  O  O12  1  0.26214913  1.57646544  0.11485040  1.0
  O  O13  1  -0.42353456  1.26214913  0.88514960  1.0
  O  O14  1  -0.57646544  0.73785087  0.38514960  1.0
  O  O15  1  -0.26214913  1.42353456  0.61485040  1.0
  O  O16  1  -0.03102849  1.51455026  0.39452028  1.0
  O  O17  1  -0.48544974  0.96897151  0.60547972  1.0
  O  O18  1  -0.51455026  1.03102849  0.10547972  1.0
  O  O19  1  0.03102849  1.48544974  0.89452028  1.0
  O  O20  1  -0.17471912  1.59871299  0.10782019  1.0
  O  O21  1  -0.40128701  0.82528088  0.89217981  1.0
  O  O22  1  -0.59871299  1.17471912  0.39217981  1.0
  O  O23  1  0.17471912  1.40128701  0.60782019  1.0
  O  O24  1  -0.20459292  1.62512068  0.39544574  1.0
  O  O25  1  -0.37487932  0.79540708  0.60455426  1.0
  O  O26  1  -0.62512068  1.20459292  0.10455426  1.0
  O  O27  1  0.20459292  1.37487932  0.89544574  1.0
  O  O28  1  -0.06775284  1.23305931  0.09604952  1.0
  O  O29  1  -0.76694069  0.93224716  0.90395048  1.0
  O  O30  1  -0.23305931  1.06775284  0.40395048  1.0
  O  O31  1  0.06775284  1.76694069  0.59604952  1.0
  O  O32  1  -0.90986693  0.90986693  0.25000000  1.0
  O  O33  1  -0.09013307  1.09013307  0.75000000  1.0
  O  O34  1  0.20795223  1.24658875  0.28887946  1.0
  O  O35  1  -0.75341125  1.20795223  0.71112054  1.0
  O  O36  1  -0.24658875  0.79204777  0.21112054  1.0
  O  O37  1  -0.20795223  1.75341125  0.78887946  1.0
