# generated using pymatgen
data_CuP2H12N2(O4F)2
_symmetry_space_group_name_H-M   'P 1'
_cell_length_a   7.34714945
_cell_length_b   7.34714945
_cell_length_c   7.60985723
_cell_angle_alpha   68.32956381
_cell_angle_beta   111.67043619
_cell_angle_gamma   138.13554514
_symmetry_Int_Tables_number   1
_chemical_formula_structural   CuP2H12N2(O4F)2
_chemical_formula_sum   'Cu1 P2 H12 N2 O8 F2'
_cell_volume   251.81003499
_cell_formula_units_Z   1
loop_
 _symmetry_equiv_pos_site_id
 _symmetry_equiv_pos_as_xyz
  1  'x, y, z'
loop_
 _atom_site_type_symbol
 _atom_site_label
 _atom_site_symmetry_multiplicity
 _atom_site_fract_x
 _atom_site_fract_y
 _atom_site_fract_z
 _atom_site_occupancy
  Cu  Cu0  1  0.50000000  0.50000000  -0.00000000  1.0
  P  P1  1  0.86924738  -0.86924738  0.78487220  1.0
  P  P2  1  1.13075262  -0.13075262  0.21512780  1.0
  H  H3  1  1.62314310  -0.32281627  0.64758078  1.0
  H  H4  1  1.32281627  -0.62314310  0.64758078  1.0
  H  H5  1  0.67718373  -0.37685690  0.35241922  1.0
  H  H6  1  1.37685690  0.32281627  0.35241922  1.0
  H  H7  1  1.30040964  0.01527560  0.80911374  1.0
  H  H8  1  0.98472440  -0.30040964  0.80911374  1.0
  H  H9  1  1.01527560  -0.69959036  0.19088626  1.0
  H  H10  1  1.69959036  -0.01527560  0.19088626  1.0
  H  H11  1  0.86339772  -0.86339772  0.39048297  1.0
  H  H12  1  1.13660228  -0.13660228  0.60951703  1.0
  H  H13  1  0.74946718  -0.74946718  0.18777815  1.0
  H  H14  1  1.25053282  -0.25053282  0.81222185  1.0
  N  N15  1  0.83170982  -0.83170982  0.24030874  1.0
  N  N16  1  1.16829018  -0.16829018  0.75969126  1.0
  O  O17  1  1.63906838  -0.12459185  0.90499054  1.0
  O  O18  1  1.12459185  -0.63906838  0.90499054  1.0
  O  O19  1  0.87540815  -0.36093162  0.09500946  1.0
  O  O20  1  1.36093162  0.12459185  0.09500946  1.0
  O  O21  1  0.92466911  -0.92466911  0.64567479  1.0
  O  O22  1  1.07533089  -0.07533089  0.35432521  1.0
  O  O23  1  0.51720428  -0.51720428  0.70410200  1.0
  O  O24  1  1.48279572  -0.48279572  0.29589800  1.0
  F  F25  1  0.74324581  -0.74324581  0.65071229  1.0
  F  F26  1  1.25675419  -0.25675419  0.34928771  1.0
