# generated using pymatgen
data_Y5(Ge5Rh2)2
_symmetry_space_group_name_H-M   'P 1'
_cell_length_a   13.06148466
_cell_length_b   13.06148466
_cell_length_c   4.30706525
_cell_angle_alpha   90.00000000
_cell_angle_beta   90.00000000
_cell_angle_gamma   90.00000000
_symmetry_Int_Tables_number   1
_chemical_formula_structural   Y5(Ge5Rh2)2
_chemical_formula_sum   'Y10 Ge20 Rh8'
_cell_volume   734.79558922
_cell_formula_units_Z   2
loop_
 _symmetry_equiv_pos_site_id
 _symmetry_equiv_pos_as_xyz
  1  'x, y, z'
loop_
 _atom_site_type_symbol
 _atom_site_label
 _atom_site_symmetry_multiplicity
 _atom_site_fract_x
 _atom_site_fract_y
 _atom_site_fract_z
 _atom_site_occupancy
  Y  Y0  1  0.32504949  0.17495051  0.50000000  1.0
  Y  Y1  1  0.82504949  0.32504949  0.50000000  1.0
  Y  Y2  1  0.67495051  0.82504949  0.50000000  1.0
  Y  Y3  1  0.17495051  0.67495051  0.50000000  1.0
  Y  Y4  1  0.88730537  0.61269463  0.50000000  1.0
  Y  Y5  1  0.38730537  0.88730537  0.50000000  1.0
  Y  Y6  1  0.11269463  0.38730537  0.50000000  1.0
  Y  Y7  1  0.61269463  0.11269463  0.50000000  1.0
  Y  Y8  1  0.50000000  0.50000000  0.00000000  1.0
  Y  Y9  1  0.00000000  0.00000000  0.00000000  1.0
  Ge  Ge10  1  0.34145501  0.50239486  0.50000000  1.0
  Ge  Ge11  1  0.84145501  0.99760514  0.50000000  1.0
  Ge  Ge12  1  0.49760514  0.34145501  0.50000000  1.0
  Ge  Ge13  1  0.99760514  0.15854499  0.50000000  1.0
  Ge  Ge14  1  0.65854499  0.49760514  0.50000000  1.0
  Ge  Ge15  1  0.15854499  0.00239486  0.50000000  1.0
  Ge  Ge16  1  0.50239486  0.65854499  0.50000000  1.0
  Ge  Ge17  1  0.00239486  0.84145501  0.50000000  1.0
  Ge  Ge18  1  0.33862570  0.70008423  0.00000000  1.0
  Ge  Ge19  1  0.83862570  0.79991577  0.00000000  1.0
  Ge  Ge20  1  0.29991577  0.33862570  0.00000000  1.0
  Ge  Ge21  1  0.79991577  0.16137430  0.00000000  1.0
  Ge  Ge22  1  0.66137430  0.29991577  0.00000000  1.0
  Ge  Ge23  1  0.16137430  0.20008423  0.00000000  1.0
  Ge  Ge24  1  0.70008423  0.66137430  0.00000000  1.0
  Ge  Ge25  1  0.20008423  0.83862570  0.00000000  1.0
  Ge  Ge26  1  0.43279862  0.06720138  0.00000000  1.0
  Ge  Ge27  1  0.93279862  0.43279862  0.00000000  1.0
  Ge  Ge28  1  0.56720138  0.93279862  0.00000000  1.0
  Ge  Ge29  1  0.06720138  0.56720138  0.00000000  1.0
  Rh  Rh30  1  0.25460121  0.52139713  0.00000000  1.0
  Rh  Rh31  1  0.75460121  0.97860287  0.00000000  1.0
  Rh  Rh32  1  0.47860287  0.25460121  0.00000000  1.0
  Rh  Rh33  1  0.97860287  0.24539879  0.00000000  1.0
  Rh  Rh34  1  0.74539879  0.47860287  0.00000000  1.0
  Rh  Rh35  1  0.24539879  0.02139713  0.00000000  1.0
  Rh  Rh36  1  0.52139713  0.74539879  0.00000000  1.0
  Rh  Rh37  1  0.02139713  0.75460121  0.00000000  1.0
