# generated using pymatgen
data_Sm2Pd2Pb
_symmetry_space_group_name_H-M   'P 1'
_cell_length_a   7.92668294
_cell_length_b   7.92668294
_cell_length_c   3.89762354
_cell_angle_alpha   90.00000000
_cell_angle_beta   90.00000000
_cell_angle_gamma   90.00000000
_symmetry_Int_Tables_number   1
_chemical_formula_structural   Sm2Pd2Pb
_chemical_formula_sum   'Sm4 Pd4 Pb2'
_cell_volume   244.89666124
_cell_formula_units_Z   2
loop_
 _symmetry_equiv_pos_site_id
 _symmetry_equiv_pos_as_xyz
  1  'x, y, z'
loop_
 _atom_site_type_symbol
 _atom_site_label
 _atom_site_symmetry_multiplicity
 _atom_site_fract_x
 _atom_site_fract_y
 _atom_site_fract_z
 _atom_site_occupancy
  Sm  Sm0  1  0.32337394  0.17662606  0.50000000  1.0
  Sm  Sm1  1  0.82337394  0.32337394  0.50000000  1.0
  Sm  Sm2  1  0.67662606  0.82337394  0.50000000  1.0
  Sm  Sm3  1  0.17662606  0.67662606  0.50000000  1.0
  Pd  Pd4  1  0.87535790  0.62464210  0.00000000  1.0
  Pd  Pd5  1  0.37535790  0.87535790  0.00000000  1.0
  Pd  Pd6  1  0.12464210  0.37535790  0.00000000  1.0
  Pd  Pd7  1  0.62464210  0.12464210  0.00000000  1.0
  Pb  Pb8  1  0.50000000  0.50000000  0.00000000  1.0
  Pb  Pb9  1  0.00000000  0.00000000  0.00000000  1.0
