# generated using pymatgen
data_LiMnHSO5
_symmetry_space_group_name_H-M   'P 1'
_cell_length_a   9.96036322
_cell_length_b   5.56748202
_cell_length_c   7.68064512
_cell_angle_alpha   90.00000000
_cell_angle_beta   110.88656453
_cell_angle_gamma   90.00000000
_symmetry_Int_Tables_number   1
_chemical_formula_structural   LiMnHSO5
_chemical_formula_sum   'Li4 Mn4 H4 S4 O20'
_cell_volume   397.93534578
_cell_formula_units_Z   4
loop_
 _symmetry_equiv_pos_site_id
 _symmetry_equiv_pos_as_xyz
  1  'x, y, z'
loop_
 _atom_site_type_symbol
 _atom_site_label
 _atom_site_symmetry_multiplicity
 _atom_site_fract_x
 _atom_site_fract_y
 _atom_site_fract_z
 _atom_site_occupancy
  Li  Li0  1  0.58457675  0.93904167  0.80570431  1.0
  Li  Li1  1  0.58457675  0.56095833  0.30570431  1.0
  Li  Li2  1  0.41542325  0.43904167  0.69429569  1.0
  Li  Li3  1  0.41542325  0.06095833  0.19429569  1.0
  O  O4  1  0.84722943  0.44691486  0.96467986  1.0
  O  O5  1  0.84722943  0.05308514  0.46467986  1.0
  O  O6  1  0.15277057  0.94691486  0.53532014  1.0
  O  O7  1  0.15277057  0.55308514  0.03532014  1.0
  O  O8  1  0.73577917  0.95309378  0.69217500  1.0
  O  O9  1  0.73577917  0.54690622  0.19217500  1.0
  O  O10  1  0.26422083  0.45309378  0.80782500  1.0
  O  O11  1  0.26422083  0.04690622  0.30782500  1.0
  O  O12  1  0.59634100  0.58474800  0.85984024  1.0
  O  O13  1  0.59634100  0.91525200  0.35984024  1.0
  O  O14  1  0.40365900  0.08474800  0.64015976  1.0
  O  O15  1  0.40365900  0.41525200  0.14015976  1.0
  O  O16  1  0.34000172  0.81300751  1.00053444  1.0
  O  O17  1  0.34000172  0.68699249  0.50053444  1.0
  O  O18  1  0.65999828  0.31300751  0.49946556  1.0
  O  O19  1  0.65999828  0.18699249  -0.00053444  1.0
  O  O20  1  0.92483011  0.56618722  0.62347171  1.0
  O  O21  1  0.92483011  0.93381278  0.12347171  1.0
  O  O22  1  0.07516989  0.06618722  0.87652829  1.0
  O  O23  1  0.07516989  0.43381278  0.37652829  1.0
  Mn  Mn24  1  0.93946365  0.76801456  0.86782768  1.0
  Mn  Mn25  1  0.93946365  0.73198544  0.36782768  1.0
  Mn  Mn26  1  0.06053635  0.26801456  0.63217232  1.0
  Mn  Mn27  1  0.06053635  0.23198544  0.13217232  1.0
  S  S28  1  0.29146927  0.56024218  0.99705619  1.0
  S  S29  1  0.29146927  0.93975782  0.49705619  1.0
  S  S30  1  0.70853073  0.06024218  0.50294381  1.0
  S  S31  1  0.70853073  0.43975782  0.00294381  1.0
  H  H32  1  0.82917143  0.49152882  0.58899363  1.0
  H  H33  1  0.82917143  0.00847118  0.08899363  1.0
  H  H34  1  0.17082857  0.99152882  0.91100637  1.0
  H  H35  1  0.17082857  0.50847118  0.41100637  1.0
