# generated using pymatgen
data_NbCo2B
_symmetry_space_group_name_H-M   'P 1'
_cell_length_a   9.15712903
_cell_length_b   6.38100476
_cell_length_c   6.25209977
_cell_angle_alpha   90.00000000
_cell_angle_beta   109.53346254
_cell_angle_gamma   90.00000000
_symmetry_Int_Tables_number   1
_chemical_formula_structural   NbCo2B
_chemical_formula_sum   'Nb8 Co16 B8'
_cell_volume   344.29518675
_cell_formula_units_Z   8
loop_
 _symmetry_equiv_pos_site_id
 _symmetry_equiv_pos_as_xyz
  1  'x, y, z'
loop_
 _atom_site_type_symbol
 _atom_site_label
 _atom_site_symmetry_multiplicity
 _atom_site_fract_x
 _atom_site_fract_y
 _atom_site_fract_z
 _atom_site_occupancy
  Nb  Nb0  1  0.93551504  0.26728189  0.46753474  1.0
  Nb  Nb1  1  0.93551504  0.23271811  0.96753474  1.0
  Nb  Nb2  1  0.06448496  0.76728189  0.03246526  1.0
  Nb  Nb3  1  0.06448496  0.73271811  0.53246526  1.0
  Nb  Nb4  1  0.43551623  0.23271011  0.46757171  1.0
  Nb  Nb5  1  0.43551623  0.26728989  0.96757171  1.0
  Nb  Nb6  1  0.56448377  0.73271011  0.03242829  1.0
  Nb  Nb7  1  0.56448377  0.76728989  0.53242829  1.0
  Co  Co8  1  0.86193682  0.94078593  0.20759312  1.0
  Co  Co9  1  0.86193682  0.55921407  0.70759312  1.0
  Co  Co10  1  0.13806318  0.44078593  0.29240688  1.0
  Co  Co11  1  0.13806318  0.05921407  0.79240688  1.0
  Co  Co12  1  0.65128914  0.44602009  0.35227911  1.0
  Co  Co13  1  0.65128914  0.05397991  0.85227911  1.0
  Co  Co14  1  0.34871086  0.94602009  0.14772089  1.0
  Co  Co15  1  0.34871086  0.55397991  0.64772089  1.0
  Co  Co16  1  0.63807822  0.05920496  0.29236936  1.0
  Co  Co17  1  0.63807822  0.44079504  0.79236936  1.0
  Co  Co18  1  0.36192178  0.55920496  0.20763064  1.0
  Co  Co19  1  0.36192178  0.94079504  0.70763064  1.0
  Co  Co20  1  0.15128140  0.05400547  0.35231896  1.0
  Co  Co21  1  0.15128140  0.44599453  0.85231896  1.0
  Co  Co22  1  0.84871860  0.55400547  0.14768104  1.0
  Co  Co23  1  0.84871860  0.94599453  0.64768104  1.0
  B  B24  1  0.78194909  0.71955648  0.39365768  1.0
  B  B25  1  0.78194909  0.78044352  0.89365768  1.0
  B  B26  1  0.21805091  0.21955648  0.10634232  1.0
  B  B27  1  0.21805091  0.28044352  0.60634232  1.0
  B  B28  1  0.71802756  0.28050054  0.10628188  1.0
  B  B29  1  0.71802756  0.21949946  0.60628188  1.0
  B  B30  1  0.28197244  0.78050054  0.39371812  1.0
  B  B31  1  0.28197244  0.71949946  0.89371812  1.0
