# generated using pymatgen
data_MgH2(SeO3)2
_symmetry_space_group_name_H-M   'P 1'
_cell_length_a   5.64839000
_cell_length_b   5.30217630
_cell_length_c   10.73946470
_cell_angle_alpha   90.00000000
_cell_angle_beta   120.94548081
_cell_angle_gamma   90.00000000
_symmetry_Int_Tables_number   1
_chemical_formula_structural   MgH2(SeO3)2
_chemical_formula_sum   'Mg2 H4 Se4 O12'
_cell_volume   275.85134558
_cell_formula_units_Z   2
loop_
 _symmetry_equiv_pos_site_id
 _symmetry_equiv_pos_as_xyz
  1  'x, y, z'
loop_
 _atom_site_type_symbol
 _atom_site_label
 _atom_site_symmetry_multiplicity
 _atom_site_fract_x
 _atom_site_fract_y
 _atom_site_fract_z
 _atom_site_occupancy
  Mg  Mg0  1  0.00000000  0.50000000  0.50000000  1.0
  Mg  Mg1  1  0.00000000  0.00000000  0.00000000  1.0
  H  H2  1  0.70044534  0.96015359  0.47007850  1.0
  H  H3  1  0.70044534  0.53984641  0.97007850  1.0
  H  H4  1  0.29955466  0.46015359  0.02992150  1.0
  H  H5  1  0.29955466  0.03984641  0.52992150  1.0
  Se  Se6  1  0.68334132  0.18079269  0.16512215  1.0
  Se  Se7  1  0.68334132  0.31920731  0.66512215  1.0
  Se  Se8  1  0.31665868  0.68079269  0.33487785  1.0
  Se  Se9  1  0.31665868  0.81920731  0.83487785  1.0
  O  O10  1  0.83815244  0.41868016  0.28265643  1.0
  O  O11  1  0.83815244  0.08131984  0.78265643  1.0
  O  O12  1  0.16184756  0.91868016  0.21734357  1.0
  O  O13  1  0.16184756  0.58131984  0.71734357  1.0
  O  O14  1  0.74454449  0.25048315  0.02814881  1.0
  O  O15  1  0.74454449  0.24951685  0.52814881  1.0
  O  O16  1  0.25545551  0.75048315  0.47185119  1.0
  O  O17  1  0.25545551  0.74951685  0.97185119  1.0
  O  O18  1  0.68078072  0.78399851  0.42773552  1.0
  O  O19  1  0.68078072  0.71600149  0.92773552  1.0
  O  O20  1  0.31921928  0.28399851  0.07226448  1.0
  O  O21  1  0.31921928  0.21600149  0.57226448  1.0
