# generated using pymatgen
data_Tl2SnTe5
_symmetry_space_group_name_H-M   'P 1'
_cell_length_a   9.75115654
_cell_length_b   9.75115654
_cell_length_c   9.75115654
_cell_angle_alpha   128.12244900
_cell_angle_beta   128.12244900
_cell_angle_gamma   76.42674945
_symmetry_Int_Tables_number   1
_chemical_formula_structural   Tl2SnTe5
_chemical_formula_sum   'Tl4 Sn2 Te10'
_cell_volume   557.53277424
_cell_formula_units_Z   2
loop_
 _symmetry_equiv_pos_site_id
 _symmetry_equiv_pos_as_xyz
  1  'x, y, z'
loop_
 _atom_site_type_symbol
 _atom_site_label
 _atom_site_symmetry_multiplicity
 _atom_site_fract_x
 _atom_site_fract_y
 _atom_site_fract_z
 _atom_site_occupancy
  Tl  Tl0  1  0.00000000  0.00000000  0.00000000  1.0
  Tl  Tl1  1  0.50000000  0.50000000  1.00000000  1.0
  Tl  Tl2  1  0.75000000  0.75000000  1.00000000  1.0
  Tl  Tl3  1  0.25000000  0.25000000  -0.00000000  1.0
  Sn  Sn4  1  0.25000000  0.75000000  0.50000000  1.0
  Sn  Sn5  1  0.75000000  0.25000000  0.50000000  1.0
  Te  Te6  1  1.18093389  0.68093389  1.13177050  1.0
  Te  Te7  1  0.45083661  0.95083661  1.13177050  1.0
  Te  Te8  1  1.04916339  1.18093389  1.50000000  1.0
  Te  Te9  1  0.31906611  0.45083661  0.50000000  1.0
  Te  Te10  1  0.68093389  0.54916339  0.50000000  1.0
  Te  Te11  1  0.95083661  0.81906611  1.50000000  1.0
  Te  Te12  1  0.54916339  1.04916339  0.86822950  1.0
  Te  Te13  1  0.81906611  0.31906611  0.86822950  1.0
  Te  Te14  1  0.50000000  0.00000000  0.50000000  1.0
  Te  Te15  1  -0.00000000  0.50000000  0.50000000  1.0
