# generated using pymatgen
data_Sc13Ir4
_symmetry_space_group_name_H-M   'P 1'
_cell_length_a   11.97418311
_cell_length_b   11.97418311
_cell_length_c   11.97418311
_cell_angle_alpha   60.00000000
_cell_angle_beta   60.00000000
_cell_angle_gamma   60.00000000
_symmetry_Int_Tables_number   1
_chemical_formula_structural   Sc13Ir4
_chemical_formula_sum   'Sc26 Ir8'
_cell_volume   1214.01118264
_cell_formula_units_Z   2
loop_
 _symmetry_equiv_pos_site_id
 _symmetry_equiv_pos_as_xyz
  1  'x, y, z'
loop_
 _atom_site_type_symbol
 _atom_site_label
 _atom_site_symmetry_multiplicity
 _atom_site_fract_x
 _atom_site_fract_y
 _atom_site_fract_z
 _atom_site_occupancy
  Sc  Sc0  1  0.92761780  -0.53974852  0.68451292  1.0
  Sc  Sc1  1  -0.07238220  0.68451292  0.46025148  1.0
  Sc  Sc2  1  -0.21025148  0.32238220  0.32238220  1.0
  Sc  Sc3  1  0.56548708  0.32238220  0.32238220  1.0
  Sc  Sc4  1  -0.53974852  0.92761780  0.68451292  1.0
  Sc  Sc5  1  0.92761780  -0.07238220  0.68451292  1.0
  Sc  Sc6  1  0.92761780  -0.31548708  0.92761780  1.0
  Sc  Sc7  1  -0.53974852  0.68451292  0.92761780  1.0
  Sc  Sc8  1  0.32238220  -0.21025148  0.32238220  1.0
  Sc  Sc9  1  0.32238220  0.32238220  -0.21025148  1.0
  Sc  Sc10  1  0.56548708  0.32238220  -0.21025148  1.0
  Sc  Sc11  1  0.56548708  -0.21025148  0.32238220  1.0
  Sc  Sc12  1  0.68451292  -0.07238220  0.92761780  1.0
  Sc  Sc13  1  -0.53974852  0.92761780  0.92761780  1.0
  Sc  Sc14  1  0.32238220  0.56548708  -0.21025148  1.0
  Sc  Sc15  1  0.32238220  -0.21025148  0.56548708  1.0
  Sc  Sc16  1  -0.31548708  0.92761780  0.46025148  1.0
  Sc  Sc17  1  0.68451292  -0.53974852  0.92761780  1.0
  Sc  Sc18  1  0.92761780  -0.53974852  0.92761780  1.0
  Sc  Sc19  1  -0.07238220  0.92761780  0.46025148  1.0
  Sc  Sc20  1  0.32238220  0.56548708  0.32238220  1.0
  Sc  Sc21  1  -0.21025148  0.56548708  0.32238220  1.0
  Sc  Sc22  1  -0.21025148  0.32238220  0.56548708  1.0
  Sc  Sc23  1  0.32238220  0.32238220  0.56548708  1.0
  Sc  Sc24  1  0.50000000  0.50000000  -0.50000000  1.0
  Sc  Sc25  1  0.75000000  -0.25000000  0.75000000  1.0
  Ir  Ir26  1  0.66583988  -0.33416012  1.00248036  1.0
  Ir  Ir27  1  0.66583988  0.00248036  0.66583988  1.0
  Ir  Ir28  1  0.58416012  -0.41583988  0.58416012  1.0
  Ir  Ir29  1  1.24751964  -0.41583988  0.58416012  1.0
  Ir  Ir30  1  1.00248036  -0.33416012  0.66583988  1.0
  Ir  Ir31  1  0.66583988  -0.33416012  0.66583988  1.0
  Ir  Ir32  1  0.58416012  0.24751964  0.58416012  1.0
  Ir  Ir33  1  0.58416012  -0.41583988  1.24751964  1.0
