# generated using pymatgen
data_CaTiO3
_symmetry_space_group_name_H-M   'P 1'
_cell_length_a   5.49485048
_cell_length_b   7.67946541
_cell_length_c   5.39644011
_cell_angle_alpha   90.00000000
_cell_angle_beta   90.00000000
_cell_angle_gamma   90.00000000
_symmetry_Int_Tables_number   1
_chemical_formula_structural   CaTiO3
_chemical_formula_sum   'Ca4 Ti4 O12'
_cell_volume   227.71635828
_cell_formula_units_Z   4
loop_
 _symmetry_equiv_pos_site_id
 _symmetry_equiv_pos_as_xyz
  1  'x, y, z'
loop_
 _atom_site_type_symbol
 _atom_site_label
 _atom_site_symmetry_multiplicity
 _atom_site_fract_x
 _atom_site_fract_y
 _atom_site_fract_z
 _atom_site_occupancy
  Ca  Ca0  1  0.04269950  0.75000000  0.50908385  1.0
  Ca  Ca1  1  0.54269950  0.75000000  0.99091615  1.0
  Ca  Ca2  1  0.95730050  0.25000000  0.49091615  1.0
  Ca  Ca3  1  0.45730050  0.25000000  0.00908385  1.0
  Ti  Ti4  1  0.50000000  0.00000000  0.50000000  1.0
  Ti  Ti5  1  0.50000000  0.50000000  0.50000000  1.0
  Ti  Ti6  1  0.00000000  0.00000000  0.00000000  1.0
  Ti  Ti7  1  0.00000000  0.50000000  0.00000000  1.0
  O  O8  1  0.28995238  0.95944181  0.79050918  1.0
  O  O9  1  0.28995238  0.54055819  0.79050918  1.0
  O  O10  1  0.78995238  0.95944181  0.70949082  1.0
  O  O11  1  0.78995238  0.54055819  0.70949082  1.0
  O  O12  1  0.71004762  0.45944181  0.20949082  1.0
  O  O13  1  0.71004762  0.04055819  0.20949082  1.0
  O  O14  1  0.21004762  0.45944181  0.29050918  1.0
  O  O15  1  0.21004762  0.04055819  0.29050918  1.0
  O  O16  1  0.98043913  0.75000000  0.07728643  1.0
  O  O17  1  0.48043913  0.75000000  0.42271357  1.0
  O  O18  1  0.01956087  0.25000000  0.92271357  1.0
  O  O19  1  0.51956087  0.25000000  0.57728643  1.0
