# generated using pymatgen
data_Lu3Sb5O12
_symmetry_space_group_name_H-M   'P 1'
_cell_length_a   9.35459154
_cell_length_b   9.35459154
_cell_length_c   9.35459154
_cell_angle_alpha   109.47122063
_cell_angle_beta   109.47122063
_cell_angle_gamma   109.47122063
_symmetry_Int_Tables_number   1
_chemical_formula_structural   Lu3Sb5O12
_chemical_formula_sum   'Lu6 Sb10 O24'
_cell_volume   630.16255945
_cell_formula_units_Z   2
loop_
 _symmetry_equiv_pos_site_id
 _symmetry_equiv_pos_as_xyz
  1  'x, y, z'
loop_
 _atom_site_type_symbol
 _atom_site_label
 _atom_site_symmetry_multiplicity
 _atom_site_fract_x
 _atom_site_fract_y
 _atom_site_fract_z
 _atom_site_occupancy
  Lu  Lu0  1  0.25000000  0.75000000  0.50000000  1.0
  Lu  Lu1  1  0.75000000  0.25000000  0.50000000  1.0
  Lu  Lu2  1  0.25000000  0.50000000  0.75000000  1.0
  Lu  Lu3  1  0.50000000  0.25000000  0.75000000  1.0
  Lu  Lu4  1  0.75000000  0.50000000  0.25000000  1.0
  Lu  Lu5  1  0.50000000  0.75000000  0.25000000  1.0
  Sb  Sb6  1  0.71648378  0.71648378  0.00000000  1.0
  Sb  Sb7  1  0.71648378  -0.00000000  0.71648378  1.0
  Sb  Sb8  1  0.00000000  0.71648378  0.71648378  1.0
  Sb  Sb9  1  0.28351622  -0.00000000  0.28351622  1.0
  Sb  Sb10  1  0.00000000  0.28351622  0.28351622  1.0
  Sb  Sb11  1  0.28351622  0.28351622  0.00000000  1.0
  Sb  Sb12  1  0.51741583  0.51741583  0.51741583  1.0
  Sb  Sb13  1  1.00000000  1.00000000  0.48258417  1.0
  Sb  Sb14  1  1.00000000  0.48258417  1.00000000  1.0
  Sb  Sb15  1  0.48258417  1.00000000  1.00000000  1.0
  O  O16  1  0.79577580  0.49914936  0.49914936  1.0
  O  O17  1  0.49914936  0.79577580  0.49914936  1.0
  O  O18  1  1.00000000  1.29662644  0.50085064  1.0
  O  O19  1  1.29662644  1.00000000  0.50085064  1.0
  O  O20  1  0.49914936  0.49914936  0.79577580  1.0
  O  O21  1  0.70337356  0.70337356  0.20422420  1.0
  O  O22  1  1.00000000  0.50085064  1.29662644  1.0
  O  O23  1  0.70337356  0.20422420  0.70337356  1.0
  O  O24  1  0.20422420  0.70337356  0.70337356  1.0
  O  O25  1  0.50085064  1.00000000  1.29662644  1.0
  O  O26  1  1.29662644  0.50085064  1.00000000  1.0
  O  O27  1  0.50085064  1.29662644  1.00000000  1.0
  O  O28  1  0.27831064  0.48153663  0.48153663  1.0
  O  O29  1  0.48153663  0.27831064  0.48153663  1.0
  O  O30  1  1.00000000  0.79677401  1.51846337  1.0
  O  O31  1  0.79677401  1.00000000  1.51846337  1.0
  O  O32  1  0.48153663  0.48153663  0.27831064  1.0
  O  O33  1  1.20322599  1.20322599  0.72168936  1.0
  O  O34  1  1.00000000  1.51846337  0.79677401  1.0
  O  O35  1  1.20322599  0.72168936  1.20322599  1.0
  O  O36  1  0.72168936  1.20322599  1.20322599  1.0
  O  O37  1  1.51846337  1.00000000  0.79677401  1.0
  O  O38  1  0.79677401  1.51846337  1.00000000  1.0
  O  O39  1  1.51846337  0.79677401  1.00000000  1.0
