# generated using pymatgen
data_NbZn2
_symmetry_space_group_name_H-M   'P 1'
_cell_length_a   5.05760852
_cell_length_b   5.05760852
_cell_length_c   16.32659709
_cell_angle_alpha   90.00000000
_cell_angle_beta   90.00000000
_cell_angle_gamma   120.00000000
_symmetry_Int_Tables_number   1
_chemical_formula_structural   NbZn2
_chemical_formula_sum   'Nb8 Zn16'
_cell_volume   361.67353205
_cell_formula_units_Z   8
loop_
 _symmetry_equiv_pos_site_id
 _symmetry_equiv_pos_as_xyz
  1  'x, y, z'
loop_
 _atom_site_type_symbol
 _atom_site_label
 _atom_site_symmetry_multiplicity
 _atom_site_fract_x
 _atom_site_fract_y
 _atom_site_fract_z
 _atom_site_occupancy
  Nb  Nb0  1  0.33333333  0.66666667  0.84316665  1.0
  Nb  Nb1  1  0.33333333  0.66666667  0.65683335  1.0
  Nb  Nb2  1  0.66666667  0.33333333  0.34316665  1.0
  Nb  Nb3  1  0.66666667  0.33333333  0.15683335  1.0
  Nb  Nb4  1  0.00000000  0.00000000  0.40937474  1.0
  Nb  Nb5  1  0.00000000  0.00000000  0.09062526  1.0
  Nb  Nb6  1  0.00000000  0.00000000  0.90937474  1.0
  Nb  Nb7  1  0.00000000  0.00000000  0.59062526  1.0
  Zn  Zn8  1  0.50000000  0.50000000  0.50000000  1.0
  Zn  Zn9  1  0.50000000  0.50000000  0.00000000  1.0
  Zn  Zn10  1  0.50000000  0.00000000  0.50000000  1.0
  Zn  Zn11  1  0.50000000  0.00000000  0.00000000  1.0
  Zn  Zn12  1  0.00000000  0.50000000  0.50000000  1.0
  Zn  Zn13  1  0.00000000  0.50000000  0.00000000  1.0
  Zn  Zn14  1  0.16049414  0.83950586  0.25000000  1.0
  Zn  Zn15  1  0.16049414  0.32098828  0.25000000  1.0
  Zn  Zn16  1  0.83950586  0.16049414  0.75000000  1.0
  Zn  Zn17  1  0.83950586  0.67901172  0.75000000  1.0
  Zn  Zn18  1  0.67901172  0.83950586  0.25000000  1.0
  Zn  Zn19  1  0.32098828  0.16049414  0.75000000  1.0
  Zn  Zn20  1  0.33333333  0.66666667  0.37315150  1.0
  Zn  Zn21  1  0.33333333  0.66666667  0.12684850  1.0
  Zn  Zn22  1  0.66666667  0.33333333  0.87315150  1.0
  Zn  Zn23  1  0.66666667  0.33333333  0.62684850  1.0
