# generated using pymatgen
data_K2NaZn2H5(C2O7)2
_symmetry_space_group_name_H-M   'P 1'
_cell_length_a   5.20604279
_cell_length_b   11.28380004
_cell_length_c   11.70565502
_cell_angle_alpha   90.00000000
_cell_angle_beta   113.86756721
_cell_angle_gamma   90.00000000
_symmetry_Int_Tables_number   1
_chemical_formula_structural   K2NaZn2H5(C2O7)2
_chemical_formula_sum   'K4 Na2 Zn4 H10 C8 O28'
_cell_volume   628.83186300
_cell_formula_units_Z   2
loop_
 _symmetry_equiv_pos_site_id
 _symmetry_equiv_pos_as_xyz
  1  'x, y, z'
loop_
 _atom_site_type_symbol
 _atom_site_label
 _atom_site_symmetry_multiplicity
 _atom_site_fract_x
 _atom_site_fract_y
 _atom_site_fract_z
 _atom_site_occupancy
  K  K0  1  0.03664852  0.66649825  0.08066569  1.0
  K  K1  1  0.03664852  0.83350175  0.58066569  1.0
  K  K2  1  0.96335148  0.16649825  0.41933431  1.0
  K  K3  1  0.96335148  0.33350175  0.91933431  1.0
  Na  Na4  1  0.00000000  0.00000000  0.00000000  1.0
  Na  Na5  1  0.00000000  0.50000000  0.50000000  1.0
  Zn  Zn6  1  0.67519070  0.89407935  0.20577159  1.0
  Zn  Zn7  1  0.67519070  0.60592065  0.70577159  1.0
  Zn  Zn8  1  0.32480930  0.39407935  0.29422841  1.0
  Zn  Zn9  1  0.32480930  0.10592065  0.79422841  1.0
  H  H10  1  0.05148938  0.19893554  0.17521094  1.0
  H  H11  1  0.05148938  0.30106446  0.67521094  1.0
  H  H12  1  0.94851062  0.69893554  0.32478906  1.0
  H  H13  1  0.94851062  0.80106446  0.82478906  1.0
  H  H14  1  0.62463368  0.67031668  0.27735231  1.0
  H  H15  1  0.62463368  0.82968332  0.77735231  1.0
  H  H16  1  0.37536632  0.17031668  0.22264769  1.0
  H  H17  1  0.37536632  0.32968332  0.72264769  1.0
  H  H18  1  0.50000000  0.00000000  0.50000000  1.0
  H  H19  1  0.50000000  0.50000000  -0.00000000  1.0
  C  C20  1  0.29095458  0.92890365  0.31944183  1.0
  C  C21  1  0.29095458  0.57109635  0.81944183  1.0
  C  C22  1  0.70904542  0.42890365  0.18055817  1.0
  C  C23  1  0.70904542  0.07109635  0.68055817  1.0
  C  C24  1  0.42508848  0.62998255  0.43585251  1.0
  C  C25  1  0.42508848  0.87001745  0.93585251  1.0
  C  C26  1  0.57491152  0.12998255  0.06414749  1.0
  C  C27  1  0.57491152  0.37001745  0.56414749  1.0
  O  O28  1  0.05992556  0.94065386  0.33417483  1.0
  O  O29  1  0.05992556  0.55934614  0.83417483  1.0
  O  O30  1  0.94007444  0.44065386  0.16582517  1.0
  O  O31  1  0.94007444  0.05934614  0.66582517  1.0
  O  O32  1  0.20994113  0.67060012  0.45020743  1.0
  O  O33  1  0.20994113  0.82939988  0.95020743  1.0
  O  O34  1  0.79005887  0.17060012  0.04979257  1.0
  O  O35  1  0.79005887  0.32939988  0.54979257  1.0
  O  O36  1  0.29600510  0.89091939  0.21637121  1.0
  O  O37  1  0.29600510  0.60908061  0.71637121  1.0
  O  O38  1  0.70399490  0.39091939  0.28362879  1.0
  O  O39  1  0.70399490  0.10908061  0.78362879  1.0
  O  O40  1  0.41202455  0.59816378  0.32702769  1.0
  O  O41  1  0.41202455  0.90183622  0.82702769  1.0
  O  O42  1  0.58797545  0.09816378  0.17297231  1.0
  O  O43  1  0.58797545  0.40183622  0.67297231  1.0
  O  O44  1  0.52974906  0.95641206  0.41143766  1.0
  O  O45  1  0.52974906  0.54358794  0.91143766  1.0
  O  O46  1  0.47025094  0.45641206  0.08856234  1.0
  O  O47  1  0.47025094  0.04358794  0.58856234  1.0
  O  O48  1  0.66555274  0.88150022  0.03289288  1.0
  O  O49  1  0.66555274  0.61849978  0.53289288  1.0
  O  O50  1  0.33444726  0.38150022  0.46710712  1.0
  O  O51  1  0.33444726  0.11849978  0.96710712  1.0
  O  O52  1  0.76080256  0.71349685  0.25122680  1.0
  O  O53  1  0.76080256  0.78650315  0.75122680  1.0
  O  O54  1  0.23919744  0.21349685  0.24877320  1.0
  O  O55  1  0.23919744  0.28650315  0.74877320  1.0
