# generated using pymatgen
data_Re3S4O9
_symmetry_space_group_name_H-M   'P 1'
_cell_length_a   10.29269036
_cell_length_b   10.29269036
_cell_length_c   10.29269036
_cell_angle_alpha   109.10767052
_cell_angle_beta   109.10767052
_cell_angle_gamma   109.10767052
_symmetry_Int_Tables_number   1
_chemical_formula_structural   Re3S4O9
_chemical_formula_sum   'Re6 S8 O18'
_cell_volume   850.50265867
_cell_formula_units_Z   2
loop_
 _symmetry_equiv_pos_site_id
 _symmetry_equiv_pos_as_xyz
  1  'x, y, z'
loop_
 _atom_site_type_symbol
 _atom_site_label
 _atom_site_symmetry_multiplicity
 _atom_site_fract_x
 _atom_site_fract_y
 _atom_site_fract_z
 _atom_site_occupancy
  Re  Re0  1  1.56788278  0.56788278  -0.22183605  1.0
  Re  Re1  1  1.56788278  -0.22183605  0.56788278  1.0
  Re  Re2  1  1.22183605  0.43211722  -0.56788278  1.0
  Re  Re3  1  0.43211722  1.22183605  -0.56788278  1.0
  Re  Re4  1  0.43211722  0.43211722  0.22183605  1.0
  Re  Re5  1  0.77816395  0.56788278  0.56788278  1.0
  S  S6  1  1.32734839  0.32734839  -0.41055956  1.0
  S  S7  1  1.32734839  -0.41055956  0.32734839  1.0
  S  S8  1  1.41055956  0.67265161  -0.32734839  1.0
  S  S9  1  0.67265161  1.41055956  -0.32734839  1.0
  S  S10  1  0.67265161  0.67265161  0.41055956  1.0
  S  S11  1  0.58944044  0.32734839  0.32734839  1.0
  S  S12  1  0.75768980  0.75768980  0.75768980  1.0
  S  S13  1  0.24231020  0.24231020  0.24231020  1.0
  O  O14  1  0.38437580  0.38437580  0.03279145  1.0
  O  O15  1  0.38437580  1.03279145  -0.61562420  1.0
  O  O16  1  0.96720855  0.61562420  0.61562420  1.0
  O  O17  1  1.61562420  -0.03279145  0.61562420  1.0
  O  O18  1  1.61562420  0.61562420  -0.03279145  1.0
  O  O19  1  1.03279145  0.38437580  -0.61562420  1.0
  O  O20  1  0.57175582  0.97578403  0.10394214  1.0
  O  O21  1  0.57175582  1.10394214  -0.02421597  1.0
  O  O22  1  0.89605786  0.02421597  0.42824418  1.0
  O  O23  1  0.89605786  0.42824418  0.02421597  1.0
  O  O24  1  1.02421597  -0.10394214  0.42824418  1.0
  O  O25  1  1.02421597  0.42824418  -0.10394214  1.0
  O  O26  1  1.42824418  0.02421597  -0.10394214  1.0
  O  O27  1  1.42824418  -0.10394214  0.02421597  1.0
  O  O28  1  1.10394214  0.57175582  -0.02421597  1.0
  O  O29  1  1.10394214  0.97578403  -0.42824418  1.0
  O  O30  1  0.97578403  0.57175582  0.10394214  1.0
  O  O31  1  0.97578403  1.10394214  -0.42824418  1.0
