# generated using pymatgen
data_Ag5Hg4P8Cl5
_symmetry_space_group_name_H-M   'P 1'
_cell_length_a   9.18764273
_cell_length_b   9.18764273
_cell_length_c   6.35632503
_cell_angle_alpha   79.10575226
_cell_angle_beta   100.89424774
_cell_angle_gamma   105.41517034
_symmetry_Int_Tables_number   1
_chemical_formula_structural   Ag5Hg4P8Cl5
_chemical_formula_sum   'Ag5 Hg4 P8 Cl5'
_cell_volume   502.44425161
_cell_formula_units_Z   1
loop_
 _symmetry_equiv_pos_site_id
 _symmetry_equiv_pos_as_xyz
  1  'x, y, z'
loop_
 _atom_site_type_symbol
 _atom_site_label
 _atom_site_symmetry_multiplicity
 _atom_site_fract_x
 _atom_site_fract_y
 _atom_site_fract_z
 _atom_site_occupancy
  Ag  Ag0  1  0.70848685  -0.70848685  0.94483282  1.0
  Ag  Ag1  1  0.29151315  -0.29151315  0.05516718  1.0
  Ag  Ag2  1  0.64531796  -0.35468204  -0.00000000  1.0
  Ag  Ag3  1  1.35468204  0.35468204  -0.00000000  1.0
  Ag  Ag4  1  0.00000000  0.00000000  0.00000000  1.0
  Hg  Hg5  1  0.67545071  -0.01811612  0.46968746  1.0
  Hg  Hg6  1  1.01811612  0.32454929  0.46968746  1.0
  Hg  Hg7  1  0.98188388  -0.32454929  0.53031254  1.0
  Hg  Hg8  1  1.32454929  0.01811612  0.53031254  1.0
  P  P9  1  0.59847411  -0.29591776  0.60014859  1.0
  P  P10  1  1.29591776  0.40152589  0.60014859  1.0
  P  P11  1  0.70408224  -0.40152589  0.39985141  1.0
  P  P12  1  1.40152589  0.29591776  0.39985141  1.0
  P  P13  1  0.74157515  -0.74157515  0.34073716  1.0
  P  P14  1  0.25842485  -0.25842485  0.65926284  1.0
  P  P15  1  0.64280573  -0.64280573  0.55510090  1.0
  P  P16  1  0.35719427  -0.35719427  0.44489910  1.0
  Cl  Cl17  1  0.69774777  -0.02578614  0.97432225  1.0
  Cl  Cl18  1  1.02578614  0.30225223  0.97432225  1.0
  Cl  Cl19  1  0.97421386  -0.30225223  0.02567775  1.0
  Cl  Cl20  1  1.30225223  0.02578614  0.02567775  1.0
  Cl  Cl21  1  0.00000000  -0.00000000  0.50000000  1.0
