# generated using pymatgen
data_Mn2Co3Ge
_symmetry_space_group_name_H-M   'P 1'
_cell_length_a   4.78193030
_cell_length_b   4.78193030
_cell_length_c   7.67058004
_cell_angle_alpha   90.00000000
_cell_angle_beta   90.00000000
_cell_angle_gamma   120.00000000
_symmetry_Int_Tables_number   1
_chemical_formula_structural   Mn2Co3Ge
_chemical_formula_sum   'Mn4 Co6 Ge2'
_cell_volume   151.90264003
_cell_formula_units_Z   2
loop_
 _symmetry_equiv_pos_site_id
 _symmetry_equiv_pos_as_xyz
  1  'x, y, z'
loop_
 _atom_site_type_symbol
 _atom_site_label
 _atom_site_symmetry_multiplicity
 _atom_site_fract_x
 _atom_site_fract_y
 _atom_site_fract_z
 _atom_site_occupancy
  Mn  Mn0  1  0.33333333  0.66666667  0.93405587  1.0
  Mn  Mn1  1  0.33333333  0.66666667  0.56594413  1.0
  Mn  Mn2  1  0.66666667  0.33333333  0.43405587  1.0
  Mn  Mn3  1  0.66666667  0.33333333  0.06594413  1.0
  Co  Co4  1  0.17324179  0.82675821  0.25000000  1.0
  Co  Co5  1  0.17324179  0.34648357  0.25000000  1.0
  Co  Co6  1  0.82675821  0.17324179  0.75000000  1.0
  Co  Co7  1  0.82675821  0.65351643  0.75000000  1.0
  Co  Co8  1  0.65351643  0.82675821  0.25000000  1.0
  Co  Co9  1  0.34648357  0.17324179  0.75000000  1.0
  Ge  Ge10  1  0.00000000  0.00000000  0.50000000  1.0
  Ge  Ge11  1  0.00000000  0.00000000  0.00000000  1.0
