# generated using pymatgen
data_K7TaAs4
_symmetry_space_group_name_H-M   'P 1'
_cell_length_a   10.32762802
_cell_length_b   9.25189662
_cell_length_c   8.41832086
_cell_angle_alpha   90.00000000
_cell_angle_beta   90.00000000
_cell_angle_gamma   90.00000000
_symmetry_Int_Tables_number   1
_chemical_formula_structural   K7TaAs4
_chemical_formula_sum   'K14 Ta2 As8'
_cell_volume   804.37179382
_cell_formula_units_Z   2
loop_
 _symmetry_equiv_pos_site_id
 _symmetry_equiv_pos_as_xyz
  1  'x, y, z'
loop_
 _atom_site_type_symbol
 _atom_site_label
 _atom_site_symmetry_multiplicity
 _atom_site_fract_x
 _atom_site_fract_y
 _atom_site_fract_z
 _atom_site_occupancy
  K  K0  1  0.21607023  0.16640783  0.45085479  1.0
  K  K1  1  0.71607023  0.83359217  0.95085479  1.0
  K  K2  1  0.78392977  0.16640783  0.45085479  1.0
  K  K3  1  0.28392977  0.83359217  0.95085479  1.0
  K  K4  1  0.21118711  0.53402759  0.28859279  1.0
  K  K5  1  0.71118711  0.46597241  0.78859279  1.0
  K  K6  1  0.78881289  0.53402759  0.28859279  1.0
  K  K7  1  0.28881289  0.46597241  0.78859279  1.0
  K  K8  1  0.50000000  0.10747307  0.76966771  1.0
  K  K9  1  0.00000000  0.89252693  0.26966771  1.0
  K  K10  1  0.50000000  0.65909388  0.49782235  1.0
  K  K11  1  0.00000000  0.34090612  -0.00217765  1.0
  K  K12  1  0.50000000  0.96519272  0.28534210  1.0
  K  K13  1  0.00000000  0.03480728  0.78534210  1.0
  Ta  Ta14  1  0.50000000  0.32547070  0.16165343  1.0
  Ta  Ta15  1  0.00000000  0.67452930  0.66165343  1.0
  As  As16  1  0.29740542  0.19325137  0.06631308  1.0
  As  As17  1  0.79740542  0.80674863  0.56631308  1.0
  As  As18  1  0.70259458  0.19325137  0.06631308  1.0
  As  As19  1  0.20259458  0.80674863  0.56631308  1.0
  As  As20  1  0.50000000  0.31565108  0.45901902  1.0
  As  As21  1  0.00000000  0.68434892  0.95901902  1.0
  As  As22  1  0.50000000  0.58870461  0.08277408  1.0
  As  As23  1  0.00000000  0.41129539  0.58277408  1.0
