# generated using pymatgen
data_NbSbF10
_symmetry_space_group_name_H-M   'P 1'
_cell_length_a   10.50582605
_cell_length_b   7.60230338
_cell_length_c   5.85582820
_cell_angle_alpha   81.55881352
_cell_angle_beta   74.92558297
_cell_angle_gamma   89.69740353
_symmetry_Int_Tables_number   1
_chemical_formula_structural   NbSbF10
_chemical_formula_sum   'Nb2 Sb2 F20'
_cell_volume   446.44492048
_cell_formula_units_Z   2
loop_
 _symmetry_equiv_pos_site_id
 _symmetry_equiv_pos_as_xyz
  1  'x, y, z'
loop_
 _atom_site_type_symbol
 _atom_site_label
 _atom_site_symmetry_multiplicity
 _atom_site_fract_x
 _atom_site_fract_y
 _atom_site_fract_z
 _atom_site_occupancy
  Nb  Nb0  1  -0.22638542  -0.88662526  -0.65168280  1.0
  Nb  Nb1  1  -0.77361458  -0.11337474  -0.34831720  1.0
  Sb  Sb2  1  -0.69753553  -0.74421184  -0.95322594  1.0
  Sb  Sb3  1  -0.30246447  -0.25578816  -0.04677406  1.0
  F  F4  1  -0.16186110  -0.76596060  -0.95580160  1.0
  F  F5  1  -0.83813890  -0.23403940  -0.04419840  1.0
  F  F6  1  -0.48884881  -0.25353760  -0.96610684  1.0
  F  F7  1  -0.51115119  -0.74646240  -0.03389316  1.0
  F  F8  1  -0.88214183  -0.79530748  -0.87141496  1.0
  F  F9  1  -0.11785817  -0.20469252  -0.12858504  1.0
  F  F10  1  -0.29667084  -0.43679487  -0.79047557  1.0
  F  F11  1  -0.70332916  -0.56320513  -0.20952443  1.0
  F  F12  1  -0.70989282  -0.59368843  -0.71921270  1.0
  F  F13  1  -0.29010718  -0.40631157  -0.28078730  1.0
  F  F14  1  -0.69131379  -0.95685621  -0.70117296  1.0
  F  F15  1  -0.30868621  -0.04314379  -0.29882704  1.0
  F  F16  1  -0.40079352  -0.82043316  -0.58090970  1.0
  F  F17  1  -0.59920648  -0.17956684  -0.41909030  1.0
  F  F18  1  -0.84565646  -0.26306807  -0.50297201  1.0
  F  F19  1  -0.15434354  -0.73693193  -0.49702799  1.0
  F  F20  1  -0.89082394  -0.92878085  -0.34179056  1.0
  F  F21  1  -0.10917606  -0.07121915  -0.65820944  1.0
  F  F22  1  -0.68395562  -0.92907185  -0.17523585  1.0
  F  F23  1  -0.31604438  -0.07092815  -0.82476415  1.0
