# generated using pymatgen
data_La6Cd4Pd13
_symmetry_space_group_name_H-M   'P 1'
_cell_length_a   8.63040233
_cell_length_b   8.63040233
_cell_length_c   8.63040233
_cell_angle_alpha   109.47122063
_cell_angle_beta   109.47122063
_cell_angle_gamma   109.47122063
_symmetry_Int_Tables_number   1
_chemical_formula_structural   La6Cd4Pd13
_chemical_formula_sum   'La6 Cd4 Pd13'
_cell_volume   494.84733465
_cell_formula_units_Z   1
loop_
 _symmetry_equiv_pos_site_id
 _symmetry_equiv_pos_as_xyz
  1  'x, y, z'
loop_
 _atom_site_type_symbol
 _atom_site_label
 _atom_site_symmetry_multiplicity
 _atom_site_fract_x
 _atom_site_fract_y
 _atom_site_fract_z
 _atom_site_occupancy
  La  La0  1  0.00000000  0.69602641  0.69602641  1.0
  La  La1  1  0.69602641  -0.00000000  0.69602641  1.0
  La  La2  1  0.69602641  0.69602641  -0.00000000  1.0
  La  La3  1  0.30397359  0.30397359  -0.00000000  1.0
  La  La4  1  0.30397359  -0.00000000  0.30397359  1.0
  La  La5  1  0.00000000  0.30397359  0.30397359  1.0
  Cd  Cd6  1  0.50000000  0.50000000  0.50000000  1.0
  Cd  Cd7  1  1.00000000  1.00000000  0.50000000  1.0
  Cd  Cd8  1  1.00000000  1.50000000  1.00000000  1.0
  Cd  Cd9  1  1.50000000  1.00000000  1.00000000  1.0
  Pd  Pd10  1  0.31620323  0.65810161  0.65810161  1.0
  Pd  Pd11  1  1.00000000  1.34189839  0.65810161  1.0
  Pd  Pd12  1  1.00000000  0.65810161  0.34189839  1.0
  Pd  Pd13  1  1.68379677  1.34189839  1.34189839  1.0
  Pd  Pd14  1  0.65810161  0.31620323  0.65810161  1.0
  Pd  Pd15  1  1.34189839  1.00000000  0.65810161  1.0
  Pd  Pd16  1  0.65810161  0.65810161  0.31620323  1.0
  Pd  Pd17  1  1.34189839  0.65810161  1.00000000  1.0
  Pd  Pd18  1  0.65810161  1.00000000  0.34189839  1.0
  Pd  Pd19  1  1.34189839  1.68379677  1.34189839  1.0
  Pd  Pd20  1  0.65810161  1.34189839  1.00000000  1.0
  Pd  Pd21  1  0.34189839  0.34189839  0.68379677  1.0
  Pd  Pd22  1  0.00000000  0.00000000  0.00000000  1.0
