# generated using pymatgen
data_PS
_symmetry_space_group_name_H-M   'P 1'
_cell_length_a   7.31034477
_cell_length_b   7.31034477
_cell_length_c   9.66616001
_cell_angle_alpha   80.37763757
_cell_angle_beta   99.62236243
_cell_angle_gamma   96.48902204
_symmetry_Int_Tables_number   1
_chemical_formula_structural   PS
_chemical_formula_sum   'P8 S8'
_cell_volume   500.21074760
_cell_formula_units_Z   8
loop_
 _symmetry_equiv_pos_site_id
 _symmetry_equiv_pos_as_xyz
  1  'x, y, z'
loop_
 _atom_site_type_symbol
 _atom_site_label
 _atom_site_symmetry_multiplicity
 _atom_site_fract_x
 _atom_site_fract_y
 _atom_site_fract_z
 _atom_site_occupancy
  P  P0  1  1.79243451  -0.19395742  0.58096852  1.0
  P  P1  1  1.19395742  -0.79243451  0.08096852  1.0
  P  P2  1  0.80604258  0.79243451  0.91903148  1.0
  P  P3  1  0.20756549  0.19395742  0.41903148  1.0
  P  P4  1  1.48639808  -0.23587340  0.64551162  1.0
  P  P5  1  1.23587340  -0.48639808  0.14551162  1.0
  P  P6  1  0.76412660  0.48639808  0.85448838  1.0
  P  P7  1  0.51360192  0.23587340  0.35448838  1.0
  S  S8  1  1.53878124  -0.11487640  0.83493726  1.0
  S  S9  1  1.11487640  -0.53878124  0.33493726  1.0
  S  S10  1  0.88512360  0.53878124  0.66506274  1.0
  S  S11  1  0.46121876  0.11487640  0.16506274  1.0
  S  S12  1  0.94061108  0.94061108  0.75000000  1.0
  S  S13  1  0.05938892  0.05938892  0.25000000  1.0
  S  S14  1  0.48369151  0.48369151  0.75000000  1.0
  S  S15  1  0.51630849  0.51630849  0.25000000  1.0
