# generated using pymatgen
data_N2
_symmetry_space_group_name_H-M   'P 1'
_cell_length_a   8.53966199
_cell_length_b   5.36454061
_cell_length_c   4.50751013
_cell_angle_alpha   90.00000000
_cell_angle_beta   90.00000000
_cell_angle_gamma   90.00000000
_symmetry_Int_Tables_number   1
_chemical_formula_structural   N2
_chemical_formula_sum   N8
_cell_volume   206.49518529
_cell_formula_units_Z   4
loop_
 _symmetry_equiv_pos_site_id
 _symmetry_equiv_pos_as_xyz
  1  'x, y, z'
loop_
 _atom_site_type_symbol
 _atom_site_label
 _atom_site_symmetry_multiplicity
 _atom_site_fract_x
 _atom_site_fract_y
 _atom_site_fract_z
 _atom_site_occupancy
  N  N0  1  0.87500003  0.35299146  0.25000996  1.0
  N  N1  1  0.37500003  0.14700854  0.24999004  1.0
  N  N2  1  0.12499997  0.85299146  0.74999004  1.0
  N  N3  1  0.62499997  0.64700854  0.75000996  1.0
  N  N4  1  0.12499997  0.64700854  0.74999004  1.0
  N  N5  1  0.62499997  0.85299146  0.75000996  1.0
  N  N6  1  0.87500003  0.14700854  0.25000996  1.0
  N  N7  1  0.37500003  0.35299146  0.24999004  1.0
