# generated using pymatgen
data_NiAsSe
_symmetry_space_group_name_H-M   'P 1'
_cell_length_a   5.88077043
_cell_length_b   5.88077043
_cell_length_c   5.88077043
_cell_angle_alpha   90.00000000
_cell_angle_beta   90.00000000
_cell_angle_gamma   90.00000000
_symmetry_Int_Tables_number   1
_chemical_formula_structural   NiAsSe
_chemical_formula_sum   'Ni4 As4 Se4'
_cell_volume   203.37739396
_cell_formula_units_Z   4
loop_
 _symmetry_equiv_pos_site_id
 _symmetry_equiv_pos_as_xyz
  1  'x, y, z'
loop_
 _atom_site_type_symbol
 _atom_site_label
 _atom_site_symmetry_multiplicity
 _atom_site_fract_x
 _atom_site_fract_y
 _atom_site_fract_z
 _atom_site_occupancy
  Ni  Ni0  1  0.49728288  0.99728288  0.50271712  1.0
  Ni  Ni1  1  0.99728288  0.50271712  0.49728288  1.0
  Ni  Ni2  1  0.50271712  0.49728288  0.99728288  1.0
  Ni  Ni3  1  0.00271712  0.00271712  0.00271712  1.0
  As  As4  1  0.87674242  0.37674242  0.12325758  1.0
  As  As5  1  0.37674242  0.12325758  0.87674242  1.0
  As  As6  1  0.12325758  0.87674242  0.37674242  1.0
  As  As7  1  0.62325758  0.62325758  0.62325758  1.0
  Se  Se8  1  0.12177639  0.62177639  0.87822361  1.0
  Se  Se9  1  0.62177639  0.87822361  0.12177639  1.0
  Se  Se10  1  0.87822361  0.12177639  0.62177639  1.0
  Se  Se11  1  0.37822361  0.37822361  0.37822361  1.0
