# generated using pymatgen
data_CaAl2Si(HO2)4
_symmetry_space_group_name_H-M   'P 1'
_cell_length_a   12.23762064
_cell_length_b   12.23762064
_cell_length_c   12.23762064
_cell_angle_alpha   156.42118572
_cell_angle_beta   156.42118572
_cell_angle_gamma   33.58962849
_symmetry_Int_Tables_number   1
_chemical_formula_structural   CaAl2Si(HO2)4
_chemical_formula_sum   'Ca2 Al4 Si2 H8 O16'
_cell_volume   292.96824075
_cell_formula_units_Z   2
loop_
 _symmetry_equiv_pos_site_id
 _symmetry_equiv_pos_as_xyz
  1  'x, y, z'
loop_
 _atom_site_type_symbol
 _atom_site_label
 _atom_site_symmetry_multiplicity
 _atom_site_fract_x
 _atom_site_fract_y
 _atom_site_fract_z
 _atom_site_occupancy
  Ca  Ca0  1  0.25000000  0.75000000  0.50000000  1.0
  Ca  Ca1  1  0.50000000  0.50000000  0.00000000  1.0
  Al  Al2  1  0.40972003  0.90972003  0.50000000  1.0
  Al  Al3  1  0.65972003  0.65972003  1.00000000  1.0
  Al  Al4  1  0.34027997  0.34027997  0.00000000  1.0
  Al  Al5  1  1.09027997  0.59027997  0.50000000  1.0
  Si  Si6  1  0.75000000  0.25000000  0.50000000  1.0
  Si  Si7  1  1.00000000  1.00000000  1.00000000  1.0
  H  H8  1  0.78873080  1.22075098  1.19200381  1.0
  H  H9  1  1.02874717  0.59672699  0.80799619  1.0
  H  H10  1  0.34672699  1.03873080  1.06797982  1.0
  H  H11  1  0.97075098  0.27874717  0.93202018  1.0
  H  H12  1  0.96126920  1.02924902  1.30799619  1.0
  H  H13  1  0.72125283  0.65327301  0.69200381  1.0
  H  H14  1  1.40327301  1.21126920  1.43202018  1.0
  H  H15  1  0.77924902  0.97125283  0.56797982  1.0
  O  O16  1  0.84351827  0.96684714  1.38684920  1.0
  O  O17  1  0.57999794  0.45666908  0.61315080  1.0
  O  O18  1  1.20666908  1.09351827  1.37667114  1.0
  O  O19  1  0.71684714  0.82999794  0.62332886  1.0
  O  O20  1  0.90648173  1.28315286  1.11315080  1.0
  O  O21  1  1.17000206  0.79333092  0.88684920  1.0
  O  O22  1  0.54333092  1.15648173  1.12332886  1.0
  O  O23  1  1.03315286  0.42000206  0.87667114  1.0
  O  O24  1  0.59219491  1.23390444  1.01589801  1.0
  O  O25  1  1.21800642  0.57629690  0.98410199  1.0
  O  O26  1  0.32629690  0.84219491  0.85829048  1.0
  O  O27  1  0.98390444  0.46800642  1.14170952  1.0
  O  O28  1  1.15780509  1.01609556  1.48410199  1.0
  O  O29  1  0.53199358  0.67370310  0.51589801  1.0
  O  O30  1  1.42370310  1.40780509  1.64170952  1.0
  O  O31  1  0.76609556  0.78199358  0.35829048  1.0
