# generated using pymatgen
data_TaBOs
_symmetry_space_group_name_H-M   'P 1'
_cell_length_a   9.08745020
_cell_length_b   15.80022547
_cell_length_c   3.09998648
_cell_angle_alpha   90.00000000
_cell_angle_beta   90.00000000
_cell_angle_gamma   90.00000000
_symmetry_Int_Tables_number   1
_chemical_formula_structural   TaBOs
_chemical_formula_sum   'Ta12 B12 Os12'
_cell_volume   445.10772150
_cell_formula_units_Z   12
loop_
 _symmetry_equiv_pos_site_id
 _symmetry_equiv_pos_as_xyz
  1  'x, y, z'
loop_
 _atom_site_type_symbol
 _atom_site_label
 _atom_site_symmetry_multiplicity
 _atom_site_fract_x
 _atom_site_fract_y
 _atom_site_fract_z
 _atom_site_occupancy
  Ta  Ta0  1  0.31071630  0.79805039  0.50000000  1.0
  Ta  Ta1  1  0.81071630  0.70194961  0.50000000  1.0
  Ta  Ta2  1  0.68928370  0.20194961  0.50000000  1.0
  Ta  Ta3  1  0.18928370  0.29805039  0.50000000  1.0
  Ta  Ta4  1  0.20124160  0.50466494  0.50000000  1.0
  Ta  Ta5  1  0.70124160  0.99533506  0.50000000  1.0
  Ta  Ta6  1  0.79875840  0.49533506  0.50000000  1.0
  Ta  Ta7  1  0.29875840  0.00466494  0.50000000  1.0
  Ta  Ta8  1  0.01535562  0.90652813  0.50000000  1.0
  Ta  Ta9  1  0.51535562  0.59347187  0.50000000  1.0
  Ta  Ta10  1  0.98464438  0.09347187  0.50000000  1.0
  Ta  Ta11  1  0.48464438  0.40652813  0.50000000  1.0
  B  B12  1  0.10873934  0.66751008  0.50000000  1.0
  B  B13  1  0.60873934  0.83248992  0.50000000  1.0
  B  B14  1  0.89126066  0.33248992  0.50000000  1.0
  B  B15  1  0.39126066  0.16751008  0.50000000  1.0
  B  B16  1  0.39518689  0.50252992  0.00000000  1.0
  B  B17  1  0.89518689  0.99747008  0.00000000  1.0
  B  B18  1  0.60481311  0.49747008  0.00000000  1.0
  B  B19  1  0.10481311  0.00252992  0.00000000  1.0
  B  B20  1  0.21434116  0.90254632  0.00000000  1.0
  B  B21  1  0.71434116  0.59745368  0.00000000  1.0
  B  B22  1  0.78565884  0.09745368  0.00000000  1.0
  B  B23  1  0.28565884  0.40254632  0.00000000  1.0
  Os  Os24  1  0.48357866  0.90634083  0.00000000  1.0
  Os  Os25  1  0.98357866  0.59365917  0.00000000  1.0
  Os  Os26  1  0.51642134  0.09365917  0.00000000  1.0
  Os  Os27  1  0.01642134  0.40634083  0.00000000  1.0
  Os  Os28  1  0.28019276  0.64507948  0.00000000  1.0
  Os  Os29  1  0.78019276  0.85492052  0.00000000  1.0
  Os  Os30  1  0.71980725  0.35492052  0.00000000  1.0
  Os  Os31  1  0.21980725  0.14507948  0.00000000  1.0
  Os  Os32  1  0.05929982  0.76519460  0.00000000  1.0
  Os  Os33  1  0.55929982  0.73480540  0.00000000  1.0
  Os  Os34  1  0.94070018  0.23480540  0.00000000  1.0
  Os  Os35  1  0.44070018  0.26519460  0.00000000  1.0
