# generated using pymatgen
data_TaVO5
_symmetry_space_group_name_H-M   'P 1'
_cell_length_a   11.99539556
_cell_length_b   5.59059044
_cell_length_c   7.03255116
_cell_angle_alpha   90.00000000
_cell_angle_beta   90.00000000
_cell_angle_gamma   90.00000000
_symmetry_Int_Tables_number   1
_chemical_formula_structural   TaVO5
_chemical_formula_sum   'Ta4 V4 O20'
_cell_volume   471.61233078
_cell_formula_units_Z   4
loop_
 _symmetry_equiv_pos_site_id
 _symmetry_equiv_pos_as_xyz
  1  'x, y, z'
loop_
 _atom_site_type_symbol
 _atom_site_label
 _atom_site_symmetry_multiplicity
 _atom_site_fract_x
 _atom_site_fract_y
 _atom_site_fract_z
 _atom_site_occupancy
  Ta  Ta0  1  0.44099567  0.75000000  0.65752516  1.0
  Ta  Ta1  1  0.94099567  0.75000000  0.84247484  1.0
  Ta  Ta2  1  0.55900433  0.25000000  0.34247484  1.0
  Ta  Ta3  1  0.05900433  0.25000000  0.15752516  1.0
  V  V4  1  0.65425762  0.75000000  0.03008762  1.0
  V  V5  1  0.15425762  0.75000000  0.46991238  1.0
  V  V6  1  0.34574238  0.25000000  0.96991238  1.0
  V  V7  1  0.84574238  0.25000000  0.53008762  1.0
  O  O8  1  0.37568536  0.49903786  0.84120669  1.0
  O  O9  1  0.37568536  0.00096214  0.84120669  1.0
  O  O10  1  0.87568536  0.49903786  0.65879331  1.0
  O  O11  1  0.87568536  0.00096214  0.65879331  1.0
  O  O12  1  0.62431464  0.99903786  0.15879331  1.0
  O  O13  1  0.62431464  0.50096214  0.15879331  1.0
  O  O14  1  0.12431464  0.99903786  0.34120669  1.0
  O  O15  1  0.12431464  0.50096214  0.34120669  1.0
  O  O16  1  0.29487999  0.75000000  0.52927436  1.0
  O  O17  1  0.79487999  0.75000000  0.97072564  1.0
  O  O18  1  0.70512001  0.25000000  0.47072564  1.0
  O  O19  1  0.20512001  0.25000000  0.02927436  1.0
  O  O20  1  0.07550944  0.75000000  0.67518392  1.0
  O  O21  1  0.57550944  0.75000000  0.82481608  1.0
  O  O22  1  0.92449056  0.25000000  0.32481608  1.0
  O  O23  1  0.42449056  0.25000000  0.17518392  1.0
  O  O24  1  0.50000000  0.00000000  0.50000000  1.0
  O  O25  1  0.50000000  0.50000000  0.50000000  1.0
  O  O26  1  0.00000000  0.00000000  0.00000000  1.0
  O  O27  1  0.00000000  0.50000000  0.00000000  1.0
