# generated using pymatgen
data_CaSO4
_symmetry_space_group_name_H-M   'P 1'
_cell_length_a   7.05783023
_cell_length_b   7.05783023
_cell_length_c   6.36061455
_cell_angle_alpha   90.00000000
_cell_angle_beta   90.00000000
_cell_angle_gamma   120.00000000
_symmetry_Int_Tables_number   1
_chemical_formula_structural   CaSO4
_chemical_formula_sum   'Ca3 S3 O12'
_cell_volume   274.39242973
_cell_formula_units_Z   3
loop_
 _symmetry_equiv_pos_site_id
 _symmetry_equiv_pos_as_xyz
  1  'x, y, z'
loop_
 _atom_site_type_symbol
 _atom_site_label
 _atom_site_symmetry_multiplicity
 _atom_site_fract_x
 _atom_site_fract_y
 _atom_site_fract_z
 _atom_site_occupancy
  Ca  Ca0  1  0.50000000  0.50000000  0.33333333  1.0
  Ca  Ca1  1  0.50000000  -0.00000000  -0.00000000  1.0
  Ca  Ca2  1  0.00000000  0.50000000  0.66666667  1.0
  S  S3  1  0.50000000  0.50000000  0.83333333  1.0
  S  S4  1  0.50000000  -0.00000000  0.50000000  1.0
  S  S5  1  0.00000000  0.50000000  0.16666667  1.0
  O  O6  1  0.31076548  0.86387445  0.64165274  1.0
  O  O7  1  0.31076548  0.44689103  0.69168060  1.0
  O  O8  1  0.86387445  0.31076548  0.02501393  1.0
  O  O9  1  0.86387445  0.55310897  0.30831940  1.0
  O  O10  1  0.55310897  0.86387445  0.35834726  1.0
  O  O11  1  0.55310897  0.68923452  0.97498607  1.0
  O  O12  1  0.13612555  0.68923452  0.02501393  1.0
  O  O13  1  0.13612555  0.44689103  0.30831940  1.0
  O  O14  1  0.68923452  0.55310897  0.69168060  1.0
  O  O15  1  0.68923452  0.13612555  0.64165274  1.0
  O  O16  1  0.44689103  0.31076548  0.97498607  1.0
  O  O17  1  0.44689103  0.13612555  0.35834726  1.0
