# generated using pymatgen
data_H3OF
_symmetry_space_group_name_H-M   'P 1'
_cell_length_a   6.90652495
_cell_length_b   4.15909627
_cell_length_c   6.50112863
_cell_angle_alpha   90.00000000
_cell_angle_beta   90.00000000
_cell_angle_gamma   90.00000000
_symmetry_Int_Tables_number   1
_chemical_formula_structural   H3OF
_chemical_formula_sum   'H12 O4 F4'
_cell_volume   186.74428355
_cell_formula_units_Z   4
loop_
 _symmetry_equiv_pos_site_id
 _symmetry_equiv_pos_as_xyz
  1  'x, y, z'
loop_
 _atom_site_type_symbol
 _atom_site_label
 _atom_site_symmetry_multiplicity
 _atom_site_fract_x
 _atom_site_fract_y
 _atom_site_fract_z
 _atom_site_occupancy
  H  H0  1  0.86298371  0.95498765  0.22668100  1.0
  H  H1  1  0.86298371  0.54501235  0.22668100  1.0
  H  H2  1  0.36298371  0.95498765  0.27331900  1.0
  H  H3  1  0.36298371  0.54501235  0.27331900  1.0
  H  H4  1  0.13701629  0.45498765  0.77331900  1.0
  H  H5  1  0.13701629  0.04501235  0.77331900  1.0
  H  H6  1  0.63701629  0.45498765  0.72668100  1.0
  H  H7  1  0.63701629  0.04501235  0.72668100  1.0
  H  H8  1  0.79651693  0.75000000  0.43986768  1.0
  H  H9  1  0.29651693  0.75000000  0.06013232  1.0
  H  H10  1  0.20348307  0.25000000  0.56013232  1.0
  H  H11  1  0.70348307  0.25000000  0.93986768  1.0
  O  O12  1  0.88816204  0.75000000  0.31337822  1.0
  O  O13  1  0.38816204  0.75000000  0.18662178  1.0
  O  O14  1  0.11183796  0.25000000  0.68662178  1.0
  O  O15  1  0.61183796  0.25000000  0.81337822  1.0
  F  F16  1  0.67152440  0.75000000  0.61647202  1.0
  F  F17  1  0.17152440  0.75000000  0.88352798  1.0
  F  F18  1  0.32847560  0.25000000  0.38352798  1.0
  F  F19  1  0.82847560  0.25000000  0.11647202  1.0
