# generated using pymatgen
data_LiCS(OF)3
_symmetry_space_group_name_H-M   'P 1'
_cell_length_a   10.80751670
_cell_length_b   5.17128700
_cell_length_c   9.71951340
_cell_angle_alpha   90.00000000
_cell_angle_beta   90.69429546
_cell_angle_gamma   90.00000000
_symmetry_Int_Tables_number   1
_chemical_formula_structural   LiCS(OF)3
_chemical_formula_sum   'Li4 C4 S4 O12 F12'
_cell_volume   543.17177268
_cell_formula_units_Z   4
loop_
 _symmetry_equiv_pos_site_id
 _symmetry_equiv_pos_as_xyz
  1  'x, y, z'
loop_
 _atom_site_type_symbol
 _atom_site_label
 _atom_site_symmetry_multiplicity
 _atom_site_fract_x
 _atom_site_fract_y
 _atom_site_fract_z
 _atom_site_occupancy
  Li  Li0  1  0.40461581  0.88927251  0.91217625  1.0
  Li  Li1  1  0.40461581  0.61072749  0.41217625  1.0
  Li  Li2  1  0.59538419  0.38927251  0.58782375  1.0
  Li  Li3  1  0.59538419  0.11072749  0.08782375  1.0
  C  C4  1  0.82619438  0.74811426  0.89509104  1.0
  C  C5  1  0.82619438  0.75188574  0.39509104  1.0
  C  C6  1  0.17380562  0.24811426  0.60490896  1.0
  C  C7  1  0.17380562  0.25188574  0.10490896  1.0
  S  S8  1  0.66667209  0.60764845  0.90509415  1.0
  S  S9  1  0.66667209  0.89235155  0.40509415  1.0
  S  S10  1  0.33332791  0.10764845  0.59490585  1.0
  S  S11  1  0.33332791  0.39235155  0.09490585  1.0
  O  O12  1  0.63956643  0.50993845  0.76718075  1.0
  O  O13  1  0.63956643  -0.00993845  0.26718075  1.0
  O  O14  1  0.36043357  1.00993845  0.73281925  1.0
  O  O15  1  0.36043357  0.49006155  0.23281925  1.0
  O  O16  1  0.58896108  0.83234109  0.94301418  1.0
  O  O17  1  0.58896108  0.66765891  0.44301418  1.0
  O  O18  1  0.41103892  0.33234109  0.55698582  1.0
  O  O19  1  0.41103892  0.16765891  0.05698582  1.0
  O  O20  1  0.32331480  0.58820311  0.98701585  1.0
  O  O21  1  0.32331480  0.91179689  0.48701585  1.0
  O  O22  1  0.67668520  0.08820311  0.51298415  1.0
  O  O23  1  0.67668520  0.41179689  0.01298415  1.0
  F  F24  1  0.90794929  0.56076221  0.86436685  1.0
  F  F25  1  0.90794929  0.93923779  0.36436685  1.0
  F  F26  1  0.09205071  0.06076221  0.63563315  1.0
  F  F27  1  0.09205071  0.43923779  0.13563315  1.0
  F  F28  1  0.85800129  0.64521232  0.51755573  1.0
  F  F29  1  0.85800129  0.85478768  0.01755573  1.0
  F  F30  1  0.14199871  0.14521232  0.98244427  1.0
  F  F31  1  0.14199871  0.35478768  0.48244427  1.0
  F  F32  1  0.82942132  0.93254609  0.79728272  1.0
  F  F33  1  0.82942132  0.56745391  0.29728272  1.0
  F  F34  1  0.17057868  0.43254609  0.70271728  1.0
  F  F35  1  0.17057868  0.06745391  0.20271728  1.0
