# generated using pymatgen
data_LiAlSiO4
_symmetry_space_group_name_H-M   'P 1'
_cell_length_a   8.43691506
_cell_length_b   8.43691506
_cell_length_c   8.43691506
_cell_angle_alpha   107.84978649
_cell_angle_beta   107.84978649
_cell_angle_gamma   107.84978649
_symmetry_Int_Tables_number   1
_chemical_formula_structural   LiAlSiO4
_chemical_formula_sum   'Li6 Al6 Si6 O24'
_cell_volume   488.08800017
_cell_formula_units_Z   6
loop_
 _symmetry_equiv_pos_site_id
 _symmetry_equiv_pos_as_xyz
  1  'x, y, z'
loop_
 _atom_site_type_symbol
 _atom_site_label
 _atom_site_symmetry_multiplicity
 _atom_site_fract_x
 _atom_site_fract_y
 _atom_site_fract_z
 _atom_site_occupancy
  Li  Li0  1  0.51978042  1.29743695  -0.30531798  1.0
  Li  Li1  1  1.29743695  0.69468202  -0.48021958  1.0
  Li  Li2  1  0.69468202  0.51978042  0.29743695  1.0
  Li  Li3  1  0.81113754  0.98132684  0.21184026  1.0
  Li  Li4  1  0.98132684  1.21184026  -0.18886246  1.0
  Li  Li5  1  1.21184026  0.81113754  -0.01867316  1.0
  Al  Al6  1  1.13854822  0.32585226  -0.45653415  1.0
  Al  Al7  1  1.32585226  -0.45653415  0.13854822  1.0
  Al  Al8  1  0.54346585  0.13854822  0.32585226  1.0
  Al  Al9  1  1.03218559  0.85429685  -0.37852126  1.0
  Al  Al10  1  0.85429685  0.62147874  0.03218559  1.0
  Al  Al11  1  0.62147874  1.03218559  -0.14570315  1.0
  Si  Si12  1  1.17994665  -0.03750346  0.36833227  1.0
  Si  Si13  1  0.96249654  0.36833227  0.17994665  1.0
  Si  Si14  1  1.36833227  0.17994665  -0.03750346  1.0
  Si  Si15  1  1.65331484  -0.11734413  0.47374126  1.0
  Si  Si16  1  0.88265587  0.47374126  0.65331484  1.0
  Si  Si17  1  1.47374126  0.65331484  -0.11734413  1.0
  O  O18  1  0.39616055  1.10219170  -0.56472582  1.0
  O  O19  1  1.10219170  0.43527418  -0.60383945  1.0
  O  O20  1  0.43527418  0.39616055  0.10219170  1.0
  O  O21  1  1.07951005  -0.18646816  0.14649179  1.0
  O  O22  1  0.81353184  0.14649179  0.07951005  1.0
  O  O23  1  1.14649179  0.07951005  -0.18646816  1.0
  O  O24  1  1.44341901  -0.29050687  0.37613350  1.0
  O  O25  1  0.70949313  0.37613350  0.44341901  1.0
  O  O26  1  1.37613350  0.44341901  -0.29050687  1.0
  O  O27  1  1.06885750  0.09021040  -0.59766267  1.0
  O  O28  1  1.09021040  -0.59766267  0.06885750  1.0
  O  O29  1  0.40233733  0.06885750  0.09021040  1.0
  O  O30  1  1.16555998  -0.15190508  0.49419003  1.0
  O  O31  1  0.84809492  0.49419003  0.16555998  1.0
  O  O32  1  1.49419003  0.16555998  -0.15190508  1.0
  O  O33  1  0.66165647  0.99989415  -0.65007840  1.0
  O  O34  1  0.99989415  0.34992160  -0.33834353  1.0
  O  O35  1  0.34992160  0.66165647  -0.00010585  1.0
  O  O36  1  0.80082748  0.79277880  0.47309018  1.0
  O  O37  1  0.79277880  1.47309018  -0.19917252  1.0
  O  O38  1  1.47309018  0.80082748  -0.20722120  1.0
  O  O39  1  0.71199943  1.02240413  -0.31104712  1.0
  O  O40  1  1.02240413  0.68895288  -0.28800057  1.0
  O  O41  1  0.68895288  0.71199943  0.02240413  1.0
