# generated using pymatgen
data_K2Pd(CN)4
_symmetry_space_group_name_H-M   'P 1'
_cell_length_a   4.43427599
_cell_length_b   7.82615182
_cell_length_c   13.69466718
_cell_angle_alpha   90.00000000
_cell_angle_beta   90.96751685
_cell_angle_gamma   90.00000000
_symmetry_Int_Tables_number   1
_chemical_formula_structural   K2Pd(CN)4
_chemical_formula_sum   'K4 Pd2 C8 N8'
_cell_volume   475.18262119
_cell_formula_units_Z   2
loop_
 _symmetry_equiv_pos_site_id
 _symmetry_equiv_pos_as_xyz
  1  'x, y, z'
loop_
 _atom_site_type_symbol
 _atom_site_label
 _atom_site_symmetry_multiplicity
 _atom_site_fract_x
 _atom_site_fract_y
 _atom_site_fract_z
 _atom_site_occupancy
  K  K0  1  0.71594032  0.54505301  0.84482101  1.0
  K  K1  1  0.71594032  0.95494699  0.34482101  1.0
  K  K2  1  0.28405968  0.04505301  0.65517899  1.0
  K  K3  1  0.28405968  0.45494699  0.15517899  1.0
  Pd  Pd4  1  0.00000000  0.00000000  0.00000000  1.0
  Pd  Pd5  1  -0.00000000  0.50000000  0.50000000  1.0
  C  C6  1  0.84141072  0.37841012  0.61577277  1.0
  C  C7  1  0.84141072  0.12158988  0.11577277  1.0
  C  C8  1  0.15858928  0.87841012  0.88422723  1.0
  C  C9  1  0.15858928  0.62158988  0.38422723  1.0
  C  C10  1  0.84998807  0.72197129  0.55058669  1.0
  C  C11  1  0.84998807  0.77802871  0.05058669  1.0
  C  C12  1  0.15001193  0.22197129  0.94941331  1.0
  C  C13  1  0.15001193  0.27802871  0.44941331  1.0
  N  N14  1  0.75221632  0.30230718  0.68323028  1.0
  N  N15  1  0.75221632  0.19769282  0.18323028  1.0
  N  N16  1  0.24778368  0.80230718  0.81676972  1.0
  N  N17  1  0.24778368  0.69769282  0.31676972  1.0
  N  N18  1  0.76477146  0.85511845  0.57794014  1.0
  N  N19  1  0.76477146  0.64488155  0.07794014  1.0
  N  N20  1  0.23522854  0.35511845  0.92205986  1.0
  N  N21  1  0.23522854  0.14488155  0.42205986  1.0
