# generated using pymatgen
data_Ba3AlSb3
_symmetry_space_group_name_H-M   'P 1'
_cell_length_a   11.28458011
_cell_length_b   11.28458011
_cell_length_c   14.22731673
_cell_angle_alpha   90.00000000
_cell_angle_beta   90.00000000
_cell_angle_gamma   37.52774102
_symmetry_Int_Tables_number   1
_chemical_formula_structural   Ba3AlSb3
_chemical_formula_sum   'Ba12 Al4 Sb12'
_cell_volume   1103.60797887
_cell_formula_units_Z   4
loop_
 _symmetry_equiv_pos_site_id
 _symmetry_equiv_pos_as_xyz
  1  'x, y, z'
loop_
 _atom_site_type_symbol
 _atom_site_label
 _atom_site_symmetry_multiplicity
 _atom_site_fract_x
 _atom_site_fract_y
 _atom_site_fract_z
 _atom_site_occupancy
  Ba  Ba0  1  0.12916665  0.52178169  0.87115865  1.0
  Ba  Ba1  1  -0.37083335  1.02178169  0.62884135  1.0
  Ba  Ba2  1  -0.47821831  1.12916665  0.12884135  1.0
  Ba  Ba3  1  0.02178169  0.62916665  0.37115865  1.0
  Ba  Ba4  1  -0.52178169  0.87083335  0.87115865  1.0
  Ba  Ba5  1  -0.02178169  0.37083335  0.62884135  1.0
  Ba  Ba6  1  -0.12916665  0.47821831  0.12884135  1.0
  Ba  Ba7  1  -0.62916665  0.97821831  0.37115865  1.0
  Ba  Ba8  1  -0.81410425  0.81410425  0.64684488  1.0
  Ba  Ba9  1  -0.31410425  0.31410425  0.85315512  1.0
  Ba  Ba10  1  -0.18589575  0.18589575  0.35315512  1.0
  Ba  Ba11  1  -0.68589575  0.68589575  0.14684488  1.0
  Al  Al12  1  -0.08519136  0.91480864  0.00000000  1.0
  Al  Al13  1  0.41480864  0.41480864  0.50000000  1.0
  Al  Al14  1  0.08519136  0.08519136  0.00000000  1.0
  Al  Al15  1  -0.41480864  0.58519136  0.50000000  1.0
  Sb  Sb16  1  -0.04204199  0.36002498  0.88015744  1.0
  Sb  Sb17  1  -0.54204199  0.86002498  0.61984256  1.0
  Sb  Sb18  1  -0.63997502  0.95795801  0.11984256  1.0
  Sb  Sb19  1  -0.13997502  0.45795801  0.38015744  1.0
  Sb  Sb20  1  -0.36002498  1.04204199  0.88015744  1.0
  Sb  Sb21  1  0.13997502  0.54204199  0.61984256  1.0
  Sb  Sb22  1  0.04204199  0.63997502  0.11984256  1.0
  Sb  Sb23  1  -0.45795801  1.13997502  0.38015744  1.0
  Sb  Sb24  1  -0.79665390  0.79665390  0.89800947  1.0
  Sb  Sb25  1  -0.29665390  0.29665390  0.60199053  1.0
  Sb  Sb26  1  -0.20334610  0.20334610  0.10199053  1.0
  Sb  Sb27  1  -0.70334610  0.70334610  0.39800947  1.0
