# generated using pymatgen
data_TlGaSe2
_symmetry_space_group_name_H-M   'P 1'
_cell_length_a   6.66155069
_cell_length_b   6.66155069
_cell_length_c   6.66155069
_cell_angle_alpha   103.90087559
_cell_angle_beta   103.90087559
_cell_angle_gamma   121.29967374
_symmetry_Int_Tables_number   1
_chemical_formula_structural   TlGaSe2
_chemical_formula_sum   'Tl2 Ga2 Se4'
_cell_volume   220.16893724
_cell_formula_units_Z   2
loop_
 _symmetry_equiv_pos_site_id
 _symmetry_equiv_pos_as_xyz
  1  'x, y, z'
loop_
 _atom_site_type_symbol
 _atom_site_label
 _atom_site_symmetry_multiplicity
 _atom_site_fract_x
 _atom_site_fract_y
 _atom_site_fract_z
 _atom_site_occupancy
  Tl  Tl0  1  0.25000000  0.25000000  -0.00000000  1.0
  Tl  Tl1  1  0.75000000  0.75000000  -0.00000000  1.0
  Ga  Ga2  1  0.75000000  1.25000000  0.50000000  1.0
  Ga  Ga3  1  0.25000000  0.75000000  0.50000000  1.0
  Se  Se4  1  0.84058068  0.34058068  1.18116137  1.0
  Se  Se5  1  0.65941932  0.84058068  0.50000000  1.0
  Se  Se6  1  1.34058068  1.15941932  1.50000000  1.0
  Se  Se7  1  0.15941932  0.65941932  0.81883863  1.0
