# generated using pymatgen
data_Li4Ge9O20
_symmetry_space_group_name_H-M   'P 1'
_cell_length_a   7.48414527
_cell_length_b   7.48414527
_cell_length_c   7.59446267
_cell_angle_alpha   89.43038053
_cell_angle_beta   90.56961947
_cell_angle_gamma   114.91810042
_symmetry_Int_Tables_number   1
_chemical_formula_structural   Li4Ge9O20
_chemical_formula_sum   'Li4 Ge9 O20'
_cell_volume   385.75886698
_cell_formula_units_Z   1
loop_
 _symmetry_equiv_pos_site_id
 _symmetry_equiv_pos_as_xyz
  1  'x, y, z'
loop_
 _atom_site_type_symbol
 _atom_site_label
 _atom_site_symmetry_multiplicity
 _atom_site_fract_x
 _atom_site_fract_y
 _atom_site_fract_z
 _atom_site_occupancy
  Li  Li0  1  0.43315603  -0.16954033  0.87487190  1.0
  Li  Li1  1  0.83045967  -0.56684397  0.12512810  1.0
  Li  Li2  1  1.04832532  0.04832532  0.50000000  1.0
  Li  Li3  1  1.43615527  0.43615527  0.50000000  1.0
  Ge  Ge4  1  1.25315482  0.44424999  0.17036993  1.0
  Ge  Ge5  1  1.44424999  0.25315482  0.82963007  1.0
  Ge  Ge6  1  1.11643731  0.41929670  0.79149197  1.0
  Ge  Ge7  1  1.41929670  0.11643731  0.20850803  1.0
  Ge  Ge8  1  1.16116256  0.68684245  0.45237622  1.0
  Ge  Ge9  1  1.68684245  0.16116256  0.54762378  1.0
  Ge  Ge10  1  0.84928428  -0.35242211  0.73988811  1.0
  Ge  Ge11  1  0.64757789  -0.15071572  0.26011189  1.0
  Ge  Ge12  1  -0.00211660  -0.00211660  -0.00000000  1.0
  O  O13  1  1.22926933  0.24358837  0.71409342  1.0
  O  O14  1  1.24358837  0.22926933  0.28590658  1.0
  O  O15  1  1.32486628  0.54862768  0.95667073  1.0
  O  O16  1  1.54862768  0.32486628  0.04332927  1.0
  O  O17  1  1.00762668  0.24137151  1.00256458  1.0
  O  O18  1  1.24137151  0.00762668  -0.00256458  1.0
  O  O19  1  1.27301538  0.62080249  0.63276958  1.0
  O  O20  1  1.62080249  0.27301538  0.36723042  1.0
  O  O21  1  0.92632193  -0.68204141  0.61621675  1.0
  O  O22  1  0.31795859  -0.07367807  0.38378325  1.0
  O  O23  1  1.07652853  0.51846160  0.27091738  1.0
  O  O24  1  1.51846160  0.07652853  0.72908262  1.0
  O  O25  1  0.97515570  -0.44033646  0.89001116  1.0
  O  O26  1  0.55966354  -0.02484430  0.10998884  1.0
  O  O27  1  0.96157821  -0.26466564  0.53205025  1.0
  O  O28  1  0.73533436  -0.03842179  0.46794975  1.0
  O  O29  1  0.60734308  -0.52809880  0.69869212  1.0
  O  O30  1  0.47190120  -0.39265692  0.30130788  1.0
  O  O31  1  0.84679180  -0.12949195  0.81898158  1.0
  O  O32  1  0.87050805  -0.15320820  0.18101842  1.0
