# generated using pymatgen
data_GdIn2Cl5
_symmetry_space_group_name_H-M   'P 1'
_cell_length_a   12.95852685
_cell_length_b   8.64639065
_cell_length_c   8.35279042
_cell_angle_alpha   90.00000000
_cell_angle_beta   90.00000000
_cell_angle_gamma   90.00000000
_symmetry_Int_Tables_number   1
_chemical_formula_structural   GdIn2Cl5
_chemical_formula_sum   'Gd4 In8 Cl20'
_cell_volume   935.88410432
_cell_formula_units_Z   4
loop_
 _symmetry_equiv_pos_site_id
 _symmetry_equiv_pos_as_xyz
  1  'x, y, z'
loop_
 _atom_site_type_symbol
 _atom_site_label
 _atom_site_symmetry_multiplicity
 _atom_site_fract_x
 _atom_site_fract_y
 _atom_site_fract_z
 _atom_site_occupancy
  Gd  Gd0  1  0.99546400  0.25000000  0.42635081  1.0
  Gd  Gd1  1  0.49546400  0.25000000  0.07364919  1.0
  Gd  Gd2  1  0.00453600  0.75000000  0.57364919  1.0
  Gd  Gd3  1  0.50453600  0.75000000  0.92635081  1.0
  In  In4  1  0.67136917  0.99366524  0.43637720  1.0
  In  In5  1  0.67136917  0.50633476  0.43637720  1.0
  In  In6  1  0.17136917  0.99366524  0.06362280  1.0
  In  In7  1  0.17136917  0.50633476  0.06362280  1.0
  In  In8  1  0.32863083  0.49366524  0.56362280  1.0
  In  In9  1  0.32863083  0.00633476  0.56362280  1.0
  In  In10  1  0.82863083  0.49366524  0.93637720  1.0
  In  In11  1  0.82863083  0.00633476  0.93637720  1.0
  Cl  Cl12  1  0.81473423  0.25000000  0.59205796  1.0
  Cl  Cl13  1  0.31473423  0.25000000  0.90794204  1.0
  Cl  Cl14  1  0.18526577  0.75000000  0.40794204  1.0
  Cl  Cl15  1  0.68526577  0.75000000  0.09205796  1.0
  Cl  Cl16  1  0.93274118  0.95396520  0.33699399  1.0
  Cl  Cl17  1  0.93274118  0.54603480  0.33699399  1.0
  Cl  Cl18  1  0.43274118  0.95396520  0.16300601  1.0
  Cl  Cl19  1  0.43274118  0.54603480  0.16300601  1.0
  Cl  Cl20  1  0.06725882  0.45396520  0.66300601  1.0
  Cl  Cl21  1  0.06725882  0.04603480  0.66300601  1.0
  Cl  Cl22  1  0.56725882  0.45396520  0.83699399  1.0
  Cl  Cl23  1  0.56725882  0.04603480  0.83699399  1.0
  Cl  Cl24  1  0.99331032  0.25000000  0.09366588  1.0
  Cl  Cl25  1  0.49331032  0.25000000  0.40633412  1.0
  Cl  Cl26  1  0.00668968  0.75000000  0.90633412  1.0
  Cl  Cl27  1  0.50668968  0.75000000  0.59366588  1.0
  Cl  Cl28  1  0.69927422  0.25000000  0.15161650  1.0
  Cl  Cl29  1  0.19927422  0.25000000  0.34838350  1.0
  Cl  Cl30  1  0.30072578  0.75000000  0.84838350  1.0
  Cl  Cl31  1  0.80072578  0.75000000  0.65161650  1.0
