# generated using pymatgen
data_Gd2(Al3Ir)3
_symmetry_space_group_name_H-M   'P 1'
_cell_length_a   7.56422132
_cell_length_b   7.56422132
_cell_length_c   9.51426358
_cell_angle_alpha   90.00000000
_cell_angle_beta   90.00000000
_cell_angle_gamma   60.52600921
_symmetry_Int_Tables_number   1
_chemical_formula_structural   Gd2(Al3Ir)3
_chemical_formula_sum   'Gd4 Al18 Ir6'
_cell_volume   473.92747899
_cell_formula_units_Z   2
loop_
 _symmetry_equiv_pos_site_id
 _symmetry_equiv_pos_as_xyz
  1  'x, y, z'
loop_
 _atom_site_type_symbol
 _atom_site_label
 _atom_site_symmetry_multiplicity
 _atom_site_fract_x
 _atom_site_fract_y
 _atom_site_fract_z
 _atom_site_occupancy
  Gd  Gd0  1  -0.00471982  1.32861144  0.25000000  1.0
  Gd  Gd1  1  0.32861144  0.99528018  0.75000000  1.0
  Gd  Gd2  1  -0.32861144  1.00471982  0.25000000  1.0
  Gd  Gd3  1  0.00471982  0.67138856  0.75000000  1.0
  Al  Al4  1  0.00147998  0.66459518  0.42567669  1.0
  Al  Al5  1  0.00147998  0.66459518  0.07432331  1.0
  Al  Al6  1  -0.33540482  1.00147998  0.92567669  1.0
  Al  Al7  1  -0.33540482  1.00147998  0.57432331  1.0
  Al  Al8  1  0.33540482  0.99852002  0.42567669  1.0
  Al  Al9  1  0.33540482  0.99852002  0.07432331  1.0
  Al  Al10  1  -0.00147998  1.33540482  0.92567669  1.0
  Al  Al11  1  -0.00147998  1.33540482  0.57432331  1.0
  Al  Al12  1  0.33969421  0.45183900  0.25000000  1.0
  Al  Al13  1  -0.54816100  1.33969421  0.75000000  1.0
  Al  Al14  1  0.54816100  0.66030579  0.25000000  1.0
  Al  Al15  1  -0.33969421  1.54816100  0.75000000  1.0
  Al  Al16  1  0.33352634  0.66647366  0.94980625  1.0
  Al  Al17  1  0.33352634  0.66647366  0.55019375  1.0
  Al  Al18  1  -0.33352634  1.33352634  0.44980625  1.0
  Al  Al19  1  -0.33352634  1.33352634  0.05019375  1.0
  Al  Al20  1  0.12968796  0.87031204  0.25000000  1.0
  Al  Al21  1  -0.12968796  1.12968796  0.75000000  1.0
  Ir  Ir22  1  0.67159482  0.67159482  0.50000000  1.0
  Ir  Ir23  1  0.67159482  0.67159482  0.00000000  1.0
  Ir  Ir24  1  0.32840518  0.32840518  0.50000000  1.0
  Ir  Ir25  1  0.32840518  0.32840518  0.00000000  1.0
  Ir  Ir26  1  0.00000000  0.00000000  0.50000000  1.0
  Ir  Ir27  1  0.00000000  0.00000000  0.00000000  1.0
