# generated using pymatgen
data_Ag2Te(H2O3)2
_symmetry_space_group_name_H-M   'P 1'
_cell_length_a   10.53361229
_cell_length_b   5.68268515
_cell_length_c   9.99833627
_cell_angle_alpha   79.19506525
_cell_angle_beta   31.99982920
_cell_angle_gamma   68.80510555
_symmetry_Int_Tables_number   1
_chemical_formula_structural   Ag2Te(H2O3)2
_chemical_formula_sum   'Ag4 Te2 H8 O12'
_cell_volume   286.97200773
_cell_formula_units_Z   2
loop_
 _symmetry_equiv_pos_site_id
 _symmetry_equiv_pos_as_xyz
  1  'x, y, z'
loop_
 _atom_site_type_symbol
 _atom_site_label
 _atom_site_symmetry_multiplicity
 _atom_site_fract_x
 _atom_site_fract_y
 _atom_site_fract_z
 _atom_site_occupancy
  Ag  Ag0  1  0.62814053  0.42206808  0.52771263  1.0
  Ag  Ag1  1  0.72228737  -0.17207876  0.62185947  1.0
  Ag  Ag2  1  1.42206808  -0.37185947  0.42207876  1.0
  Ag  Ag3  1  0.82792124  -0.27771263  0.82793192  1.0
  Te  Te4  1  0.99628443  -0.00371557  0.00371557  1.0
  Te  Te5  1  1.24628443  0.24628443  0.25371557  1.0
  H  H6  1  1.19328481  0.19669557  0.56848341  1.0
  H  H7  1  1.68151659  0.20846379  0.05671519  1.0
  H  H8  1  1.19669557  0.19328481  0.04153621  1.0
  H  H9  1  1.20846379  0.68151659  0.05330443  1.0
  H  H10  1  1.55044036  -0.01524785  0.46921023  1.0
  H  H11  1  0.78078977  0.25440274  0.69955964  1.0
  H  H12  1  0.98475215  0.55044036  -0.00440274  1.0
  H  H13  1  1.25440274  -0.21921023  0.26524785  1.0
  O  O14  1  0.13915158  0.34441724  1.53218823  1.0
  O  O15  1  0.71781177  0.26575705  1.11084842  1.0
  O  O16  1  0.34441724  0.13915158  0.98424295  1.0
  O  O17  1  0.26575705  0.71781177  0.90558276  1.0
  O  O18  1  0.86863845  0.30873895  0.53869924  1.0
  O  O19  1  0.71130076  -0.03392335  0.38136155  1.0
  O  O20  1  1.30873895  -0.13136155  0.28392335  1.0
  O  O21  1  0.96607665  -0.28869924  0.94126105  1.0
  O  O22  1  1.28015421  -0.00296635  0.63324542  1.0
  O  O23  1  0.61675458  0.16043328  0.96984579  1.0
  O  O24  1  0.99703365  0.28015421  0.08956672  1.0
  O  O25  1  0.16043328  0.61675458  1.25296635  1.0
