# generated using pymatgen
data_NbBiO4
_symmetry_space_group_name_H-M   'P 1'
_cell_length_a   5.57204159
_cell_length_b   8.03355681
_cell_length_c   7.75022349
_cell_angle_alpha   101.59932672
_cell_angle_beta   92.69200388
_cell_angle_gamma   90.15479517
_symmetry_Int_Tables_number   1
_chemical_formula_structural   NbBiO4
_chemical_formula_sum   'Nb4 Bi4 O16'
_cell_volume   339.43944196
_cell_formula_units_Z   4
loop_
 _symmetry_equiv_pos_site_id
 _symmetry_equiv_pos_as_xyz
  1  'x, y, z'
loop_
 _atom_site_type_symbol
 _atom_site_label
 _atom_site_symmetry_multiplicity
 _atom_site_fract_x
 _atom_site_fract_y
 _atom_site_fract_z
 _atom_site_occupancy
  Nb  Nb0  1  -0.25354362  -0.32284957  -0.17140919  1.0
  Nb  Nb1  1  -0.74645638  -0.67715043  -0.82859081  1.0
  Nb  Nb2  1  -0.27715077  -0.82281618  -0.15459735  1.0
  Nb  Nb3  1  -0.72284923  -0.17718382  -0.84540265  1.0
  Bi  Bi4  1  -0.26590393  -0.87220222  -0.62159437  1.0
  Bi  Bi5  1  -0.73409607  -0.12779778  -0.37840563  1.0
  Bi  Bi6  1  -0.78642641  -0.62761982  -0.33609568  1.0
  Bi  Bi7  1  -0.21357359  -0.37238018  -0.66390432  1.0
  O  O8  1  -0.03621501  -0.85599761  -0.34121121  1.0
  O  O9  1  -0.96378499  -0.14400239  -0.65878879  1.0
  O  O10  1  -0.06222519  -0.78494865  -0.95528123  1.0
  O  O11  1  -0.93777481  -0.21505135  -0.04471877  1.0
  O  O12  1  -0.05711959  -0.32017836  -0.39067084  1.0
  O  O13  1  -0.94288041  -0.67982164  -0.60932916  1.0
  O  O14  1  -0.19137766  -0.54823057  -0.17045714  1.0
  O  O15  1  -0.80862234  -0.45176943  -0.82954286  1.0
  O  O16  1  -0.34824409  -0.05164163  -0.17719444  1.0
  O  O17  1  -0.65175591  -0.94835837  -0.82280556  1.0
  O  O18  1  -0.50281061  -0.82067049  -0.39363420  1.0
  O  O19  1  -0.49718939  -0.17932951  -0.60636580  1.0
  O  O20  1  -0.53822695  -0.36139222  -0.32396342  1.0
  O  O21  1  -0.46177305  -0.63860778  -0.67603658  1.0
  O  O22  1  -0.57845376  -0.72328834  -0.05265091  1.0
  O  O23  1  -0.42154624  -0.27671166  -0.94734909  1.0
