# generated using pymatgen
data_Ba2Mg3H10
_symmetry_space_group_name_H-M   'P 1'
_cell_length_a   9.45006217
_cell_length_b   9.45006217
_cell_length_c   7.88829062
_cell_angle_alpha   69.31533760
_cell_angle_beta   110.68466240
_cell_angle_gamma   143.94634330
_symmetry_Int_Tables_number   1
_chemical_formula_structural   Ba2Mg3H10
_chemical_formula_sum   'Ba4 Mg6 H20'
_cell_volume   384.93591703
_cell_formula_units_Z   2
loop_
 _symmetry_equiv_pos_site_id
 _symmetry_equiv_pos_as_xyz
  1  'x, y, z'
loop_
 _atom_site_type_symbol
 _atom_site_label
 _atom_site_symmetry_multiplicity
 _atom_site_fract_x
 _atom_site_fract_y
 _atom_site_fract_z
 _atom_site_occupancy
  Ba  Ba0  1  0.71499855  -0.71499855  0.30508586  1.0
  Ba  Ba1  1  1.28500145  -0.28500145  0.69491414  1.0
  Ba  Ba2  1  0.61506306  -0.61506306  0.72417691  1.0
  Ba  Ba3  1  1.38493694  -0.38493694  0.27582309  1.0
  Mg  Mg4  1  0.92668688  -0.92668688  0.55553148  1.0
  Mg  Mg5  1  1.07331312  -0.07331312  0.44446852  1.0
  Mg  Mg6  1  0.82682155  -0.82682155  0.98811385  1.0
  Mg  Mg7  1  1.17317845  -0.17317845  0.01188615  1.0
  Mg  Mg8  1  0.74511460  0.74511460  -0.00000000  1.0
  Mg  Mg9  1  0.25488540  0.25488540  0.00000000  1.0
  H  H10  1  0.86505424  -0.86505424  0.25483322  1.0
  H  H11  1  1.13494576  -0.13494576  0.74516678  1.0
  H  H12  1  1.62858624  -0.15166347  0.98255086  1.0
  H  H13  1  1.15166347  -0.62858624  0.98255086  1.0
  H  H14  1  0.84833653  -0.37141376  0.01744914  1.0
  H  H15  1  1.37141376  0.15166347  0.01744914  1.0
  H  H16  1  1.61229564  -0.08594328  0.51395918  1.0
  H  H17  1  1.08594328  -0.61229564  0.51395918  1.0
  H  H18  1  0.91405672  -0.38770436  0.48604082  1.0
  H  H19  1  1.38770436  0.08594328  0.48604082  1.0
  H  H20  1  0.97701307  -0.97701307  0.82313779  1.0
  H  H21  1  1.02298693  -0.02298693  0.17686221  1.0
  H  H22  1  0.76729701  -0.76729701  0.72737135  1.0
  H  H23  1  1.23270299  -0.23270299  0.27262865  1.0
  H  H24  1  1.47742773  -0.47742773  0.81906402  1.0
  H  H25  1  0.52257227  -0.52257227  0.18093598  1.0
  H  H26  1  0.78010459  0.78010459  0.50000000  1.0
  H  H27  1  0.21989541  0.21989541  0.50000000  1.0
  H  H28  1  1.50000000  -0.00000000  -0.00000000  1.0
  H  H29  1  1.00000000  -0.50000000  -0.00000000  1.0
