# generated using pymatgen
data_LuCu4Ni
_symmetry_space_group_name_H-M   'P 1'
_cell_length_a   4.91029624
_cell_length_b   4.91029624
_cell_length_c   4.91029624
_cell_angle_alpha   60.00000000
_cell_angle_beta   60.00000000
_cell_angle_gamma   60.00000000
_symmetry_Int_Tables_number   1
_chemical_formula_structural   LuCu4Ni
_chemical_formula_sum   'Lu1 Cu4 Ni1'
_cell_volume   83.71592601
_cell_formula_units_Z   1
loop_
 _symmetry_equiv_pos_site_id
 _symmetry_equiv_pos_as_xyz
  1  'x, y, z'
loop_
 _atom_site_type_symbol
 _atom_site_label
 _atom_site_symmetry_multiplicity
 _atom_site_fract_x
 _atom_site_fract_y
 _atom_site_fract_z
 _atom_site_occupancy
  Lu  Lu0  1  0.00000000  0.00000000  0.00000000  1.0
  Cu  Cu1  1  0.37595740  1.37595740  0.37595740  1.0
  Cu  Cu2  1  -0.12787219  0.37595740  0.37595740  1.0
  Cu  Cu3  1  0.37595740  1.37595740  -0.12787219  1.0
  Cu  Cu4  1  0.37595740  -0.12787219  0.37595740  1.0
  Ni  Ni5  1  0.75000000  0.75000000  -0.25000000  1.0
