# generated using pymatgen
data_ScB2Ir5
_symmetry_space_group_name_H-M   'P 1'
_cell_length_a   2.87488765
_cell_length_b   8.65988245
_cell_length_c   5.21433304
_cell_angle_alpha   90.00000000
_cell_angle_beta   105.99112767
_cell_angle_gamma   90.00000000
_symmetry_Int_Tables_number   1
_chemical_formula_structural   ScB2Ir5
_chemical_formula_sum   'Sc1 B2 Ir5'
_cell_volume   124.79366962
_cell_formula_units_Z   1
loop_
 _symmetry_equiv_pos_site_id
 _symmetry_equiv_pos_as_xyz
  1  'x, y, z'
loop_
 _atom_site_type_symbol
 _atom_site_label
 _atom_site_symmetry_multiplicity
 _atom_site_fract_x
 _atom_site_fract_y
 _atom_site_fract_z
 _atom_site_occupancy
  Sc  Sc0  1  0.50000000  0.50000000  0.00000000  1.0
  B  B1  1  0.50000000  0.18421532  0.00000000  1.0
  B  B2  1  0.50000000  0.81578468  0.00000000  1.0
  Ir  Ir3  1  -0.13972848  0.27728735  0.71961731  1.0
  Ir  Ir4  1  -0.13972848  0.72271265  0.71961731  1.0
  Ir  Ir5  1  0.13972848  0.27728735  0.28038269  1.0
  Ir  Ir6  1  0.13972848  0.72271265  0.28038269  1.0
  Ir  Ir7  1  0.00000000  0.00000000  0.00000000  1.0
