# generated using pymatgen
data_YB7Mo3
_symmetry_space_group_name_H-M   'P 1'
_cell_length_a   11.03196559
_cell_length_b   3.10166828
_cell_length_c   12.86298306
_cell_angle_alpha   90.00000000
_cell_angle_beta   90.00000000
_cell_angle_gamma   90.00000000
_symmetry_Int_Tables_number   1
_chemical_formula_structural   YB7Mo3
_chemical_formula_sum   'Y4 B28 Mo12'
_cell_volume   440.13909378
_cell_formula_units_Z   4
loop_
 _symmetry_equiv_pos_site_id
 _symmetry_equiv_pos_as_xyz
  1  'x, y, z'
loop_
 _atom_site_type_symbol
 _atom_site_label
 _atom_site_symmetry_multiplicity
 _atom_site_fract_x
 _atom_site_fract_y
 _atom_site_fract_z
 _atom_site_occupancy
  Y  Y0  1  0.55156066  0.75000000  0.69202896  1.0
  Y  Y1  1  0.05156066  0.75000000  0.80797104  1.0
  Y  Y2  1  0.44843934  0.25000000  0.30797104  1.0
  Y  Y3  1  0.94843934  0.25000000  0.19202896  1.0
  B  B4  1  0.98941230  0.75000000  0.36296555  1.0
  B  B5  1  0.48941230  0.75000000  0.13703445  1.0
  B  B6  1  0.01058770  0.25000000  0.63703445  1.0
  B  B7  1  0.51058770  0.25000000  0.86296555  1.0
  B  B8  1  0.96248543  0.75000000  0.01797801  1.0
  B  B9  1  0.46248543  0.75000000  0.48202199  1.0
  B  B10  1  0.03751457  0.25000000  0.98202199  1.0
  B  B11  1  0.53751457  0.25000000  0.51797801  1.0
  B  B12  1  0.93220136  0.75000000  0.61577495  1.0
  B  B13  1  0.43220136  0.75000000  0.88422505  1.0
  B  B14  1  0.06779864  0.25000000  0.38422505  1.0
  B  B15  1  0.56779864  0.25000000  0.11577495  1.0
  B  B16  1  0.83378726  0.75000000  0.33324880  1.0
  B  B17  1  0.33378726  0.75000000  0.16675120  1.0
  B  B18  1  0.16621274  0.25000000  0.66675120  1.0
  B  B19  1  0.66621274  0.25000000  0.83324880  1.0
  B  B20  1  0.81369032  0.75000000  0.06671366  1.0
  B  B21  1  0.31369032  0.75000000  0.43328634  1.0
  B  B22  1  0.18630968  0.25000000  0.93328634  1.0
  B  B23  1  0.68630968  0.25000000  0.56671366  1.0
  B  B24  1  0.76946141  0.75000000  0.58179544  1.0
  B  B25  1  0.26946141  0.75000000  0.91820456  1.0
  B  B26  1  0.23053859  0.25000000  0.41820456  1.0
  B  B27  1  0.73053859  0.25000000  0.08179544  1.0
  B  B28  1  0.75053022  0.75000000  0.82659899  1.0
  B  B29  1  0.25053022  0.75000000  0.67340101  1.0
  B  B30  1  0.24946978  0.25000000  0.17340101  1.0
  B  B31  1  0.74946978  0.25000000  0.32659899  1.0
  Mo  Mo32  1  0.68430869  0.75000000  0.20201370  1.0
  Mo  Mo33  1  0.18430869  0.75000000  0.29798630  1.0
  Mo  Mo34  1  0.31569131  0.25000000  0.79798630  1.0
  Mo  Mo35  1  0.81569131  0.25000000  0.70201370  1.0
  Mo  Mo36  1  0.65983923  0.75000000  0.43600189  1.0
  Mo  Mo37  1  0.15983923  0.75000000  0.06399811  1.0
  Mo  Mo38  1  0.34016077  0.25000000  0.56399811  1.0
  Mo  Mo39  1  0.84016077  0.25000000  0.93600189  1.0
  Mo  Mo40  1  0.11780470  0.75000000  0.52679725  1.0
  Mo  Mo41  1  0.61780470  0.75000000  0.97320275  1.0
  Mo  Mo42  1  0.88219530  0.25000000  0.47320275  1.0
  Mo  Mo43  1  0.38219530  0.25000000  0.02679725  1.0
