# generated using pymatgen
data_Sc2Mn7
_symmetry_space_group_name_H-M   'P 1'
_cell_length_a   6.93283263
_cell_length_b   6.93283263
_cell_length_c   5.42550109
_cell_angle_alpha   90.00000000
_cell_angle_beta   90.00000000
_cell_angle_gamma   114.55763117
_symmetry_Int_Tables_number   1
_chemical_formula_structural   Sc2Mn7
_chemical_formula_sum   'Sc4 Mn14'
_cell_volume   237.18370651
_cell_formula_units_Z   2
loop_
 _symmetry_equiv_pos_site_id
 _symmetry_equiv_pos_as_xyz
  1  'x, y, z'
loop_
 _atom_site_type_symbol
 _atom_site_label
 _atom_site_symmetry_multiplicity
 _atom_site_fract_x
 _atom_site_fract_y
 _atom_site_fract_z
 _atom_site_occupancy
  Sc  Sc0  1  -0.35087540  0.35087540  0.49999712  1.0
  Sc  Sc1  1  0.35087540  0.64912460  0.50000288  1.0
  Sc  Sc2  1  0.35087540  0.64912460  0.99999712  1.0
  Sc  Sc3  1  -0.35087540  0.35087540  0.00000288  1.0
  Mn  Mn4  1  -0.00000000  -0.00000000  0.50000000  1.0
  Mn  Mn5  1  -0.00000000  -0.00000000  -0.00000000  1.0
  Mn  Mn6  1  0.72648067  0.72646457  0.25000000  1.0
  Mn  Mn7  1  0.00744858  0.67231848  0.25000000  1.0
  Mn  Mn8  1  -0.00741582  0.32767602  0.25000000  1.0
  Mn  Mn9  1  0.67232398  1.00741582  0.25000000  1.0
  Mn  Mn10  1  0.27353543  0.27351933  0.25000000  1.0
  Mn  Mn11  1  0.32768152  0.99255142  0.25000000  1.0
  Mn  Mn12  1  0.27351933  1.27353543  0.75000000  1.0
  Mn  Mn13  1  0.99255142  1.32768152  0.75000000  1.0
  Mn  Mn14  1  0.00741582  0.67232398  0.75000000  1.0
  Mn  Mn15  1  0.32767602  0.99258418  0.75000000  1.0
  Mn  Mn16  1  -0.27353543  0.72648067  0.75000000  1.0
  Mn  Mn17  1  -0.32768152  0.00744858  0.75000000  1.0
