# generated using pymatgen
data_TiSiRh
_symmetry_space_group_name_H-M   'P 1'
_cell_length_a   6.27533122
_cell_length_b   3.82881695
_cell_length_c   7.26469481
_cell_angle_alpha   90.00000000
_cell_angle_beta   90.00000000
_cell_angle_gamma   90.00000000
_symmetry_Int_Tables_number   1
_chemical_formula_structural   TiSiRh
_chemical_formula_sum   'Ti4 Si4 Rh4'
_cell_volume   174.54950935
_cell_formula_units_Z   4
loop_
 _symmetry_equiv_pos_site_id
 _symmetry_equiv_pos_as_xyz
  1  'x, y, z'
loop_
 _atom_site_type_symbol
 _atom_site_label
 _atom_site_symmetry_multiplicity
 _atom_site_fract_x
 _atom_site_fract_y
 _atom_site_fract_z
 _atom_site_occupancy
  Ti  Ti0  1  0.97587566  0.75000000  0.68317299  1.0
  Ti  Ti1  1  0.47587566  0.75000000  0.81682701  1.0
  Ti  Ti2  1  0.02412434  0.25000000  0.31682701  1.0
  Ti  Ti3  1  0.52412434  0.25000000  0.18317299  1.0
  Si  Si4  1  0.73159372  0.75000000  0.37892952  1.0
  Si  Si5  1  0.23159372  0.75000000  0.12107048  1.0
  Si  Si6  1  0.26840628  0.25000000  0.62107048  1.0
  Si  Si7  1  0.76840628  0.25000000  0.87892952  1.0
  Rh  Rh8  1  0.84765037  0.75000000  0.06369981  1.0
  Rh  Rh9  1  0.34765037  0.75000000  0.43630019  1.0
  Rh  Rh10  1  0.15234963  0.25000000  0.93630019  1.0
  Rh  Rh11  1  0.65234963  0.25000000  0.56369981  1.0
