# generated using pymatgen
data_In5Cu14Sb
_symmetry_space_group_name_H-M   'P 1'
_cell_length_a   9.17954632
_cell_length_b   6.81466960
_cell_length_c   10.16230458
_cell_angle_alpha   96.59191967
_cell_angle_beta   106.07591970
_cell_angle_gamma   90.19451678
_symmetry_Int_Tables_number   1
_chemical_formula_structural   In5Cu14Sb
_chemical_formula_sum   'In10 Cu28 Sb2'
_cell_volume   606.39911779
_cell_formula_units_Z   2
loop_
 _symmetry_equiv_pos_site_id
 _symmetry_equiv_pos_as_xyz
  1  'x, y, z'
loop_
 _atom_site_type_symbol
 _atom_site_label
 _atom_site_symmetry_multiplicity
 _atom_site_fract_x
 _atom_site_fract_y
 _atom_site_fract_z
 _atom_site_occupancy
  In  In0  1  -0.26677613  -0.14256338  -0.68158785  1.0
  In  In1  1  -0.73322387  -0.85743662  -0.31841215  1.0
  In  In2  1  -0.46938751  -0.20643229  -0.44242008  1.0
  In  In3  1  -0.53061249  -0.79356771  -0.55757992  1.0
  In  In4  1  -0.63838579  -0.52138358  -0.87654209  1.0
  In  In5  1  -0.36161421  -0.47861642  -0.12345791  1.0
  In  In6  1  -0.16696389  -0.67623692  -0.60686520  1.0
  In  In7  1  -0.83303611  -0.32376308  -0.39313480  1.0
  In  In8  1  -0.28265332  -0.92062672  -0.98229695  1.0
  In  In9  1  -0.71734668  -0.07937328  -0.01770305  1.0
  Cu  Cu10  1  -0.76511594  -0.06833173  -0.58437801  1.0
  Cu  Cu11  1  -0.23488406  -0.93166827  -0.41562199  1.0
  Cu  Cu12  1  -0.24180367  -0.13284096  -0.21304611  1.0
  Cu  Cu13  1  -0.75819633  -0.86715904  -0.78695389  1.0
  Cu  Cu14  1  -0.57341270  -0.15648538  -0.72770439  1.0
  Cu  Cu15  1  -0.42658730  -0.84351462  -0.27229561  1.0
  Cu  Cu16  1  -0.44898234  -0.23145832  -0.93576647  1.0
  Cu  Cu17  1  -0.55101766  -0.76854168  -0.06423353  1.0
  Cu  Cu18  1  -0.85741522  -0.23914591  -0.83325180  1.0
  Cu  Cu19  1  -0.14258478  -0.76085409  -0.16674820  1.0
  Cu  Cu20  1  -0.15214063  -0.27019744  -0.91218882  1.0
  Cu  Cu21  1  -0.84785937  -0.72980256  -0.08781118  1.0
  Cu  Cu22  1  -0.14438799  -0.30146061  -0.43669822  1.0
  Cu  Cu23  1  -0.85561201  -0.69853939  -0.56330178  1.0
  Cu  Cu24  1  -0.99707552  -0.32919383  -0.65498735  1.0
  Cu  Cu25  1  -0.00292448  -0.67080617  -0.34501265  1.0
  Cu  Cu26  1  -0.41385354  -0.47118432  -0.63440822  1.0
  Cu  Cu27  1  -0.58614646  -0.52881568  -0.36559178  1.0
  Cu  Cu28  1  -0.31611759  -0.54372219  -0.85143437  1.0
  Cu  Cu29  1  -0.68388241  -0.45627781  -0.14856563  1.0
  Cu  Cu30  1  -0.29613001  -0.56521505  -0.37205189  1.0
  Cu  Cu31  1  -0.70386999  -0.43478495  -0.62794811  1.0
  Cu  Cu32  1  -0.45995203  -0.84690977  -0.80423661  1.0
  Cu  Cu33  1  -0.54004797  -0.15309023  -0.19576339  1.0
  Cu  Cu34  1  -0.01790414  -0.97181193  -0.74944653  1.0
  Cu  Cu35  1  -0.98209586  -0.02818807  -0.25055347  1.0
  Cu  Cu36  1  -0.00000000  -0.00000000  -0.50000000  1.0
  Cu  Cu37  1  0.00000000  0.00000000  0.00000000  1.0
  Sb  Sb38  1  -0.01614119  -0.38372174  -0.14721160  1.0
  Sb  Sb39  1  -0.98385881  -0.61627826  -0.85278840  1.0
