# generated using pymatgen
data_CsCoCl3O2
_symmetry_space_group_name_H-M   'P 1'
_cell_length_a   9.28530830
_cell_length_b   6.71666968
_cell_length_c   12.32807008
_cell_angle_alpha   90.00000000
_cell_angle_beta   90.00000000
_cell_angle_gamma   90.00000000
_symmetry_Int_Tables_number   1
_chemical_formula_structural   CsCoCl3O2
_chemical_formula_sum   'Cs4 Co4 Cl12 O8'
_cell_volume   768.85671780
_cell_formula_units_Z   4
loop_
 _symmetry_equiv_pos_site_id
 _symmetry_equiv_pos_as_xyz
  1  'x, y, z'
loop_
 _atom_site_type_symbol
 _atom_site_label
 _atom_site_symmetry_multiplicity
 _atom_site_fract_x
 _atom_site_fract_y
 _atom_site_fract_z
 _atom_site_occupancy
  Cl  Cl0  1  0.92075607  0.76070075  0.13475339  1.0
  Cl  Cl1  1  0.92075607  0.23929925  0.63475339  1.0
  Cl  Cl2  1  0.42075607  0.76070075  0.86524661  1.0
  Cl  Cl3  1  0.42075607  0.23929925  0.36524661  1.0
  Cl  Cl4  1  0.07924393  0.76070075  0.36524661  1.0
  Cl  Cl5  1  0.07924393  0.23929925  0.86524661  1.0
  Cl  Cl6  1  0.57924393  0.76070075  0.63475339  1.0
  Cl  Cl7  1  0.57924393  0.23929925  0.13475339  1.0
  Cl  Cl8  1  0.75000000  0.00000000  0.34934330  1.0
  Cl  Cl9  1  0.75000000  0.00000000  0.84934330  1.0
  Cl  Cl10  1  0.25000000  0.00000000  0.65065670  1.0
  Cl  Cl11  1  0.25000000  0.00000000  0.15065670  1.0
  O  O12  1  0.55452779  0.82764358  0.16082563  1.0
  O  O13  1  0.55452779  0.17235642  0.66082563  1.0
  O  O14  1  0.05452779  0.82764358  0.83917437  1.0
  O  O15  1  0.05452779  0.17235642  0.33917437  1.0
  O  O16  1  0.44547221  0.82764358  0.33917437  1.0
  O  O17  1  0.44547221  0.17235642  0.83917437  1.0
  O  O18  1  0.94547221  0.82764358  0.66082563  1.0
  O  O19  1  0.94547221  0.17235642  0.16082563  1.0
  Cs  Cs20  1  0.75000000  0.50000000  0.40237412  1.0
  Cs  Cs21  1  0.75000000  0.50000000  0.90237412  1.0
  Cs  Cs22  1  0.25000000  0.50000000  0.59762588  1.0
  Cs  Cs23  1  0.25000000  0.50000000  0.09762588  1.0
  Co  Co24  1  0.00000000  0.99742265  0.25000000  1.0
  Co  Co25  1  0.00000000  0.00257735  0.75000000  1.0
  Co  Co26  1  0.50000000  0.99742265  0.75000000  1.0
  Co  Co27  1  0.50000000  0.00257735  0.25000000  1.0
