# generated using pymatgen
data_Cs5GeP3
_symmetry_space_group_name_H-M   'P 1'
_cell_length_a   14.57745480
_cell_length_b   5.99860504
_cell_length_c   16.21862234
_cell_angle_alpha   90.00000000
_cell_angle_beta   90.00000000
_cell_angle_gamma   90.00000000
_symmetry_Int_Tables_number   1
_chemical_formula_structural   Cs5GeP3
_chemical_formula_sum   'Cs20 Ge4 P12'
_cell_volume   1418.22759944
_cell_formula_units_Z   4
loop_
 _symmetry_equiv_pos_site_id
 _symmetry_equiv_pos_as_xyz
  1  'x, y, z'
loop_
 _atom_site_type_symbol
 _atom_site_label
 _atom_site_symmetry_multiplicity
 _atom_site_fract_x
 _atom_site_fract_y
 _atom_site_fract_z
 _atom_site_occupancy
  Cs  Cs0  1  0.96767486  0.75000000  0.86720749  1.0
  Cs  Cs1  1  0.46767486  0.75000000  0.63279251  1.0
  Cs  Cs2  1  0.03232514  0.25000000  0.13279251  1.0
  Cs  Cs3  1  0.53232514  0.25000000  0.36720749  1.0
  Cs  Cs4  1  0.94093877  0.75000000  0.54854556  1.0
  Cs  Cs5  1  0.44093877  0.75000000  0.95145444  1.0
  Cs  Cs6  1  0.05906123  0.25000000  0.45145444  1.0
  Cs  Cs7  1  0.55906123  0.25000000  0.04854556  1.0
  Cs  Cs8  1  0.89152705  0.75000000  0.30931607  1.0
  Cs  Cs9  1  0.39152705  0.75000000  0.19068393  1.0
  Cs  Cs10  1  0.10847295  0.25000000  0.69068393  1.0
  Cs  Cs11  1  0.60847295  0.25000000  0.80931607  1.0
  Cs  Cs12  1  0.73753963  0.75000000  0.71012489  1.0
  Cs  Cs13  1  0.23753963  0.75000000  0.78987511  1.0
  Cs  Cs14  1  0.26246037  0.25000000  0.28987511  1.0
  Cs  Cs15  1  0.76246037  0.25000000  0.21012489  1.0
  Cs  Cs16  1  0.65720789  0.75000000  0.44749004  1.0
  Cs  Cs17  1  0.15720789  0.75000000  0.05250996  1.0
  Cs  Cs18  1  0.34279211  0.25000000  0.55250996  1.0
  Cs  Cs19  1  0.84279211  0.25000000  0.94749004  1.0
  Ge  Ge20  1  0.73825019  0.75000000  0.06096298  1.0
  Ge  Ge21  1  0.23825019  0.75000000  0.43903702  1.0
  Ge  Ge22  1  0.26174981  0.25000000  0.93903702  1.0
  Ge  Ge23  1  0.76174981  0.25000000  0.56096298  1.0
  P  P24  1  0.89319541  0.75000000  0.08746043  1.0
  P  P25  1  0.39319541  0.75000000  0.41253957  1.0
  P  P26  1  0.10680459  0.25000000  0.91253957  1.0
  P  P27  1  0.60680459  0.25000000  0.58746043  1.0
  P  P28  1  0.69476401  0.75000000  0.92495175  1.0
  P  P29  1  0.19476401  0.75000000  0.57504825  1.0
  P  P30  1  0.30523599  0.25000000  0.07504825  1.0
  P  P31  1  0.80523599  0.25000000  0.42495175  1.0
  P  P32  1  0.63171270  0.75000000  0.16449731  1.0
  P  P33  1  0.13171270  0.75000000  0.33550269  1.0
  P  P34  1  0.36828730  0.25000000  0.83550269  1.0
  P  P35  1  0.86828730  0.25000000  0.66449731  1.0
