# generated using pymatgen
data_NaVH2I2O9
_symmetry_space_group_name_H-M   'P 1'
_cell_length_a   9.12142522
_cell_length_b   5.25467328
_cell_length_c   9.14824480
_cell_angle_alpha   90.00000000
_cell_angle_beta   110.07933332
_cell_angle_gamma   90.00000000
_symmetry_Int_Tables_number   1
_chemical_formula_structural   NaVH2I2O9
_chemical_formula_sum   'Na2 V2 H4 I4 O18'
_cell_volume   411.82496819
_cell_formula_units_Z   2
loop_
 _symmetry_equiv_pos_site_id
 _symmetry_equiv_pos_as_xyz
  1  'x, y, z'
loop_
 _atom_site_type_symbol
 _atom_site_label
 _atom_site_symmetry_multiplicity
 _atom_site_fract_x
 _atom_site_fract_y
 _atom_site_fract_z
 _atom_site_occupancy
  Na  Na0  1  0.95896524  0.46116032  0.18094938  1.0
  Na  Na1  1  0.04103477  0.96116032  0.81905062  1.0
  V  V2  1  0.72967504  -0.00508245  0.88524025  1.0
  V  V3  1  0.27032496  0.49491755  0.11475975  1.0
  H  H4  1  0.87568339  0.16509736  0.41836088  1.0
  H  H5  1  0.12431661  0.66509736  0.58163912  1.0
  H  H6  1  0.03556175  0.48786312  0.66212337  1.0
  H  H7  1  0.96443825  0.98786312  0.33787663  1.0
  I  I8  1  0.67494631  0.40665105  0.56304525  1.0
  I  I9  1  0.32505369  0.90665105  0.43695475  1.0
  I  I10  1  0.38123862  0.31746011  0.81465553  1.0
  I  I11  1  0.61876138  0.81746011  0.18534447  1.0
  O  O12  1  0.87673861  0.11241062  0.31479760  1.0
  O  O13  1  0.12326139  0.61241062  0.68520240  1.0
  O  O14  1  0.88507102  0.16387438  0.96944564  1.0
  O  O15  1  0.11492898  0.66387438  0.03055436  1.0
  O  O16  1  0.87895897  0.27657182  0.61504141  1.0
  O  O17  1  0.12104103  0.77657182  0.38495859  1.0
  O  O18  1  0.77653467  0.78787525  0.77237384  1.0
  O  O19  1  0.22346533  0.28787525  0.22762616  1.0
  O  O20  1  0.61148565  0.24591984  0.72970418  1.0
  O  O21  1  0.38851435  0.74591984  0.27029582  1.0
  O  O22  1  0.56856692  0.15911287  0.41729211  1.0
  O  O23  1  0.43143308  0.65911287  0.58270789  1.0
  O  O24  1  0.53111292  0.06085630  0.93326884  1.0
  O  O25  1  0.46888708  0.56085630  0.06673116  1.0
  O  O26  1  0.25577791  0.25200852  0.94368965  1.0
  O  O27  1  0.74422209  0.75200852  0.05631035  1.0
  O  O28  1  0.25996473  0.10712088  0.65349092  1.0
  O  O29  1  0.74003527  0.60712088  0.34650908  1.0
