# generated using pymatgen
data_Ca3Si(ClO2)2
_symmetry_space_group_name_H-M   'P 1'
_cell_length_a   9.91405153
_cell_length_b   6.85243609
_cell_length_c   10.94694748
_cell_angle_alpha   90.00000000
_cell_angle_beta   105.92076959
_cell_angle_gamma   90.00000000
_symmetry_Int_Tables_number   1
_chemical_formula_structural   Ca3Si(ClO2)2
_chemical_formula_sum   'Ca12 Si4 Cl8 O16'
_cell_volume   715.15897732
_cell_formula_units_Z   4
loop_
 _symmetry_equiv_pos_site_id
 _symmetry_equiv_pos_as_xyz
  1  'x, y, z'
loop_
 _atom_site_type_symbol
 _atom_site_label
 _atom_site_symmetry_multiplicity
 _atom_site_fract_x
 _atom_site_fract_y
 _atom_site_fract_z
 _atom_site_occupancy
  Ca  Ca0  1  0.92404456  0.46551271  0.22774413  1.0
  Ca  Ca1  1  0.92404456  0.03448729  0.72774413  1.0
  Ca  Ca2  1  0.07595544  0.96551271  0.27225587  1.0
  Ca  Ca3  1  0.07595544  0.53448729  0.77225587  1.0
  Ca  Ca4  1  0.80054086  0.74072277  0.45342237  1.0
  Ca  Ca5  1  0.80054086  0.75927723  0.95342237  1.0
  Ca  Ca6  1  0.19945914  0.24072277  0.04657763  1.0
  Ca  Ca7  1  0.19945914  0.25927723  0.54657763  1.0
  Ca  Ca8  1  0.57729461  0.21559305  0.39034362  1.0
  Ca  Ca9  1  0.57729461  0.28440695  0.89034362  1.0
  Ca  Ca10  1  0.42270539  0.71559305  0.10965638  1.0
  Ca  Ca11  1  0.42270539  0.78440695  0.60965638  1.0
  Si  Si12  1  0.88329876  0.25048477  0.47090264  1.0
  Si  Si13  1  0.88329876  0.24951523  0.97090264  1.0
  Si  Si14  1  0.11670124  0.75048477  0.02909736  1.0
  Si  Si15  1  0.11670124  0.74951523  0.52909736  1.0
  Cl  Cl16  1  0.51141985  0.30294735  0.12623339  1.0
  Cl  Cl17  1  0.51141985  0.19705265  0.62623339  1.0
  Cl  Cl18  1  0.48858015  0.80294735  0.37376661  1.0
  Cl  Cl19  1  0.48858015  0.69705265  0.87376661  1.0
  Cl  Cl20  1  0.28896961  0.31409176  0.31993796  1.0
  Cl  Cl21  1  0.28896961  0.18590824  0.81993796  1.0
  Cl  Cl22  1  0.71103039  0.81409176  0.18006204  1.0
  Cl  Cl23  1  0.71103039  0.68590824  0.68006204  1.0
  O  O24  1  0.98945057  0.19762851  0.11155500  1.0
  O  O25  1  0.98945057  0.30237149  0.61155500  1.0
  O  O26  1  0.01054943  0.69762851  0.38844500  1.0
  O  O27  1  0.01054943  0.80237149  0.88844500  1.0
  O  O28  1  0.98643227  0.20947017  0.37869376  1.0
  O  O29  1  0.98643227  0.29052983  0.87869376  1.0
  O  O30  1  0.01356773  0.70947017  0.12130624  1.0
  O  O31  1  0.01356773  0.79052983  0.62130624  1.0
  O  O32  1  0.78360249  0.06674338  0.49223505  1.0
  O  O33  1  0.78360249  0.43325662  0.99223505  1.0
  O  O34  1  0.21639751  0.56674338  0.00776495  1.0
  O  O35  1  0.21639751  0.93325662  0.50776495  1.0
  O  O36  1  0.76717792  0.41759385  0.40103231  1.0
  O  O37  1  0.76717792  0.08240615  0.90103231  1.0
  O  O38  1  0.23282208  0.91759385  0.09896769  1.0
  O  O39  1  0.23282208  0.58240615  0.59896769  1.0
