# generated using pymatgen
data_MgSiAs2
_symmetry_space_group_name_H-M   'P 1'
_cell_length_a   6.85740803
_cell_length_b   6.85740803
_cell_length_c   6.85740803
_cell_angle_alpha   128.43362632
_cell_angle_beta   128.43362632
_cell_angle_gamma   75.92361611
_symmetry_Int_Tables_number   1
_chemical_formula_structural   MgSiAs2
_chemical_formula_sum   'Mg2 Si2 As4'
_cell_volume   192.40241591
_cell_formula_units_Z   2
loop_
 _symmetry_equiv_pos_site_id
 _symmetry_equiv_pos_as_xyz
  1  'x, y, z'
loop_
 _atom_site_type_symbol
 _atom_site_label
 _atom_site_symmetry_multiplicity
 _atom_site_fract_x
 _atom_site_fract_y
 _atom_site_fract_z
 _atom_site_occupancy
  Mg  Mg0  1  0.25000000  0.75000000  0.50000000  1.0
  Mg  Mg1  1  0.50000000  0.50000000  0.00000000  1.0
  Si  Si2  1  0.75000000  0.25000000  0.50000000  1.0
  Si  Si3  1  1.00000000  1.00000000  1.00000000  1.0
  As  As4  1  1.08985536  1.12500000  1.46485536  1.0
  As  As5  1  1.37500000  0.91014464  1.03514464  1.0
  As  As6  1  0.87500000  1.33985536  0.96485536  1.0
  As  As7  1  0.66014464  0.62500000  0.53514464  1.0
