# generated using pymatgen
data_Gd5Sb2Pt
_symmetry_space_group_name_H-M   'P 1'
_cell_length_a   12.37767242
_cell_length_b   9.04744494
_cell_length_c   8.07226842
_cell_angle_alpha   90.00000000
_cell_angle_beta   90.00000000
_cell_angle_gamma   90.00000000
_symmetry_Int_Tables_number   1
_chemical_formula_structural   Gd5Sb2Pt
_chemical_formula_sum   'Gd20 Sb8 Pt4'
_cell_volume   903.98355098
_cell_formula_units_Z   4
loop_
 _symmetry_equiv_pos_site_id
 _symmetry_equiv_pos_as_xyz
  1  'x, y, z'
loop_
 _atom_site_type_symbol
 _atom_site_label
 _atom_site_symmetry_multiplicity
 _atom_site_fract_x
 _atom_site_fract_y
 _atom_site_fract_z
 _atom_site_occupancy
  Gd  Gd0  1  1.00031653  0.25000000  0.45397056  1.0
  Gd  Gd1  1  0.50031653  0.25000000  0.04602944  1.0
  Gd  Gd2  1  -0.00031653  0.75000000  0.54602944  1.0
  Gd  Gd3  1  0.49968347  0.75000000  0.95397056  1.0
  Gd  Gd4  1  0.93030052  0.95465179  0.18375994  1.0
  Gd  Gd5  1  0.93030052  0.54534821  0.18375994  1.0
  Gd  Gd6  1  0.43030052  0.95465179  0.31624006  1.0
  Gd  Gd7  1  0.43030052  0.54534821  0.31624006  1.0
  Gd  Gd8  1  0.06969948  0.45465179  0.81624006  1.0
  Gd  Gd9  1  0.06969948  0.04534821  0.81624006  1.0
  Gd  Gd10  1  0.56969948  0.45465179  0.68375994  1.0
  Gd  Gd11  1  0.56969948  0.04534821  0.68375994  1.0
  Gd  Gd12  1  0.80172210  0.25000000  0.86556828  1.0
  Gd  Gd13  1  0.30172210  0.25000000  0.63443172  1.0
  Gd  Gd14  1  0.19827790  0.75000000  0.13443172  1.0
  Gd  Gd15  1  0.69827790  0.75000000  0.36556828  1.0
  Gd  Gd16  1  0.71333299  0.25000000  0.33598664  1.0
  Gd  Gd17  1  0.21333299  0.25000000  0.16401336  1.0
  Gd  Gd18  1  0.28666701  0.75000000  0.66401336  1.0
  Gd  Gd19  1  0.78666701  0.75000000  0.83598664  1.0
  Sb  Sb20  1  0.67255404  0.50771375  0.06654332  1.0
  Sb  Sb21  1  0.67255404  0.99228625  0.06654332  1.0
  Sb  Sb22  1  0.17255404  0.50771375  0.43345668  1.0
  Sb  Sb23  1  0.17255404  0.99228625  0.43345668  1.0
  Sb  Sb24  1  0.32744596  0.00771375  0.93345668  1.0
  Sb  Sb25  1  0.32744596  0.49228625  0.93345668  1.0
  Sb  Sb26  1  0.82744596  0.00771375  0.56654332  1.0
  Sb  Sb27  1  0.82744596  0.49228625  0.56654332  1.0
  Pt  Pt28  1  0.98712987  0.25000000  0.07923950  1.0
  Pt  Pt29  1  0.48712987  0.25000000  0.42076050  1.0
  Pt  Pt30  1  0.01287013  0.75000000  0.92076050  1.0
  Pt  Pt31  1  0.51287013  0.75000000  0.57923950  1.0
