# generated using pymatgen
data_SnMoH6(CO2)2
_symmetry_space_group_name_H-M   'P 1'
_cell_length_a   13.28297666
_cell_length_b   7.38778713
_cell_length_c   7.61692436
_cell_angle_alpha   90.00000000
_cell_angle_beta   90.00000000
_cell_angle_gamma   90.00000000
_symmetry_Int_Tables_number   1
_chemical_formula_structural   SnMoH6(CO2)2
_chemical_formula_sum   'Sn4 Mo4 H24 C8 O16'
_cell_volume   747.46252840
_cell_formula_units_Z   4
loop_
 _symmetry_equiv_pos_site_id
 _symmetry_equiv_pos_as_xyz
  1  'x, y, z'
loop_
 _atom_site_type_symbol
 _atom_site_label
 _atom_site_symmetry_multiplicity
 _atom_site_fract_x
 _atom_site_fract_y
 _atom_site_fract_z
 _atom_site_occupancy
  Sn  Sn0  1  0.36492257  0.75000000  0.71838339  1.0
  Sn  Sn1  1  0.86492257  0.75000000  0.78161661  1.0
  Sn  Sn2  1  0.63507743  0.25000000  0.28161661  1.0
  Sn  Sn3  1  0.13507743  0.25000000  0.21838339  1.0
  Mo  Mo4  1  0.38312792  0.25000000  0.55964542  1.0
  Mo  Mo5  1  0.88312792  0.25000000  0.94035458  1.0
  Mo  Mo6  1  0.61687208  0.75000000  0.44035458  1.0
  Mo  Mo7  1  0.11687208  0.75000000  0.05964542  1.0
  H  H8  1  0.52495569  0.75000000  0.93307319  1.0
  H  H9  1  0.02495569  0.75000000  0.56692681  1.0
  H  H10  1  0.47504431  0.25000000  0.06692681  1.0
  H  H11  1  0.97504431  0.25000000  0.43307319  1.0
  H  H12  1  0.42318027  0.87177288  0.03426381  1.0
  H  H13  1  0.92318027  0.62822712  0.46573619  1.0
  H  H14  1  0.57681973  0.37177288  0.96573619  1.0
  H  H15  1  0.07681973  0.12822712  0.53426381  1.0
  H  H16  1  0.57681973  0.12822712  0.96573619  1.0
  H  H17  1  0.07681973  0.37177288  0.53426381  1.0
  H  H18  1  0.42318027  0.62822712  0.03426381  1.0
  H  H19  1  0.92318027  0.87177288  0.46573619  1.0
  H  H20  1  0.30448345  0.75000000  0.38552581  1.0
  H  H21  1  0.80448345  0.75000000  0.11447419  1.0
  H  H22  1  0.69551655  0.25000000  0.61447419  1.0
  H  H23  1  0.19551655  0.25000000  0.88552581  1.0
  H  H24  1  0.21454978  0.62795188  0.51529172  1.0
  H  H25  1  0.71454978  0.87204812  0.98470828  1.0
  H  H26  1  0.78545022  0.12795188  0.48470828  1.0
  H  H27  1  0.28545022  0.37204812  0.01529172  1.0
  H  H28  1  0.78545022  0.37204812  0.48470828  1.0
  H  H29  1  0.28545022  0.12795188  0.01529172  1.0
  H  H30  1  0.21454978  0.87204812  0.51529172  1.0
  H  H31  1  0.71454978  0.62795188  0.98470828  1.0
  C  C32  1  0.44419949  0.75000000  0.96135411  1.0
  C  C33  1  0.94419949  0.75000000  0.53864589  1.0
  C  C34  1  0.55580051  0.25000000  0.03864589  1.0
  C  C35  1  0.05580051  0.25000000  0.46135411  1.0
  C  C36  1  0.26069742  0.75000000  0.50725218  1.0
  C  C37  1  0.76069742  0.75000000  0.99274782  1.0
  C  C38  1  0.73930258  0.25000000  0.49274782  1.0
  C  C39  1  0.23930258  0.25000000  0.00725218  1.0
  O  O40  1  0.37511612  0.44596013  0.69523349  1.0
  O  O41  1  0.87511612  0.05403987  0.80476651  1.0
  O  O42  1  0.62488388  0.94596013  0.30476651  1.0
  O  O43  1  0.12488388  0.55403987  0.19523349  1.0
  O  O44  1  0.62488388  0.55403987  0.30476651  1.0
  O  O45  1  0.12488388  0.94596013  0.19523349  1.0
  O  O46  1  0.37511612  0.05403987  0.69523349  1.0
  O  O47  1  0.87511612  0.44596013  0.80476651  1.0
  O  O48  1  0.50042323  0.25000000  0.44526445  1.0
  O  O49  1  1.00042323  0.25000000  0.05473555  1.0
  O  O50  1  0.49957677  0.75000000  0.55473555  1.0
  O  O51  1  -0.00042323  0.75000000  0.94526445  1.0
  O  O52  1  0.28317263  0.25000000  0.40704489  1.0
  O  O53  1  0.78317263  0.25000000  0.09295511  1.0
  O  O54  1  0.71682737  0.75000000  0.59295511  1.0
  O  O55  1  0.21682737  0.75000000  0.90704489  1.0
