# generated using pymatgen
data_Si4Rh3
_symmetry_space_group_name_H-M   'P 1'
_cell_length_a   18.92849312
_cell_length_b   3.64840034
_cell_length_c   5.85396037
_cell_angle_alpha   90.00000000
_cell_angle_beta   90.00000000
_cell_angle_gamma   90.00000000
_symmetry_Int_Tables_number   1
_chemical_formula_structural   Si4Rh3
_chemical_formula_sum   'Si16 Rh12'
_cell_volume   404.26701422
_cell_formula_units_Z   4
loop_
 _symmetry_equiv_pos_site_id
 _symmetry_equiv_pos_as_xyz
  1  'x, y, z'
loop_
 _atom_site_type_symbol
 _atom_site_label
 _atom_site_symmetry_multiplicity
 _atom_site_fract_x
 _atom_site_fract_y
 _atom_site_fract_z
 _atom_site_occupancy
  Si  Si0  1  0.45062508  0.75000000  0.02048701  1.0
  Si  Si1  1  0.95062508  0.75000000  0.47951299  1.0
  Si  Si2  1  0.54937492  0.25000000  0.97951299  1.0
  Si  Si3  1  0.04937492  0.25000000  0.52048701  1.0
  Si  Si4  1  0.40972519  0.75000000  0.56791834  1.0
  Si  Si5  1  0.90972519  0.75000000  0.93208166  1.0
  Si  Si6  1  0.59027481  0.25000000  0.43208166  1.0
  Si  Si7  1  0.09027481  0.25000000  0.06791834  1.0
  Si  Si8  1  0.26795414  0.75000000  0.27916147  1.0
  Si  Si9  1  0.76795414  0.75000000  0.22083853  1.0
  Si  Si10  1  0.73204586  0.25000000  0.72083853  1.0
  Si  Si11  1  0.23204586  0.25000000  0.77916147  1.0
  Si  Si12  1  0.14324620  0.75000000  0.61173132  1.0
  Si  Si13  1  0.64324620  0.75000000  0.88826868  1.0
  Si  Si14  1  0.85675380  0.25000000  0.38826868  1.0
  Si  Si15  1  0.35675380  0.25000000  0.11173132  1.0
  Rh  Rh16  1  0.32551971  0.75000000  0.88473943  1.0
  Rh  Rh17  1  0.82551971  0.75000000  0.61526057  1.0
  Rh  Rh18  1  0.67448029  0.25000000  0.11526057  1.0
  Rh  Rh19  1  0.17448029  0.25000000  0.38473943  1.0
  Rh  Rh20  1  0.17617511  0.75000000  0.99585238  1.0
  Rh  Rh21  1  0.67617511  0.75000000  0.50414762  1.0
  Rh  Rh22  1  0.82382489  0.25000000  0.00414762  1.0
  Rh  Rh23  1  0.32382489  0.25000000  0.49585238  1.0
  Rh  Rh24  1  0.03195077  0.75000000  0.81214770  1.0
  Rh  Rh25  1  0.53195077  0.75000000  0.68785230  1.0
  Rh  Rh26  1  0.96804923  0.25000000  0.18785230  1.0
  Rh  Rh27  1  0.46804923  0.25000000  0.31214770  1.0
