# generated using pymatgen
data_NaAu(S2O7)2
_symmetry_space_group_name_H-M   'P 1'
_cell_length_a   5.62857855
_cell_length_b   12.21441668
_cell_length_c   10.30096865
_cell_angle_alpha   90.00000000
_cell_angle_beta   111.01297971
_cell_angle_gamma   90.00000000
_symmetry_Int_Tables_number   1
_chemical_formula_structural   NaAu(S2O7)2
_chemical_formula_sum   'Na2 Au2 S8 O28'
_cell_volume   661.09441239
_cell_formula_units_Z   2
loop_
 _symmetry_equiv_pos_site_id
 _symmetry_equiv_pos_as_xyz
  1  'x, y, z'
loop_
 _atom_site_type_symbol
 _atom_site_label
 _atom_site_symmetry_multiplicity
 _atom_site_fract_x
 _atom_site_fract_y
 _atom_site_fract_z
 _atom_site_occupancy
  Na  Na0  1  0.00000000  0.50000000  0.00000000  1.0
  Na  Na1  1  -0.00000000  0.00000000  0.50000000  1.0
  Au  Au2  1  0.50000000  0.50000000  0.50000000  1.0
  Au  Au3  1  0.50000000  0.00000000  0.00000000  1.0
  S  S4  1  0.68394905  0.46643570  0.25445886  1.0
  S  S5  1  0.68394905  0.03356430  0.75445886  1.0
  S  S6  1  0.31605095  0.96643570  0.24554114  1.0
  S  S7  1  0.31605095  0.53356430  0.74554114  1.0
  S  S8  1  0.65475865  0.27718833  0.41982159  1.0
  S  S9  1  0.65475865  0.22281167  0.91982159  1.0
  S  S10  1  0.34524135  0.77718833  0.08017841  1.0
  S  S11  1  0.34524135  0.72281167  0.58017841  1.0
  O  O12  1  0.87654004  0.50259701  0.20257436  1.0
  O  O13  1  0.87654004  -0.00259701  0.70257436  1.0
  O  O14  1  0.12345996  1.00259701  0.29742564  1.0
  O  O15  1  0.12345996  0.49740299  0.79742564  1.0
  O  O16  1  0.79424845  0.34740010  0.32614027  1.0
  O  O17  1  0.79424845  0.15259990  0.82614027  1.0
  O  O18  1  0.20575155  0.84740010  0.17385973  1.0
  O  O19  1  0.20575155  0.65259990  0.67385973  1.0
  O  O20  1  0.82842661  0.18751955  0.47235997  1.0
  O  O21  1  0.82842661  0.31248045  0.97235997  1.0
  O  O22  1  0.17157339  0.68751955  0.02764003  1.0
  O  O23  1  0.17157339  0.81248045  0.52764003  1.0
  O  O24  1  0.70345862  0.95999921  0.88004530  1.0
  O  O25  1  0.70345862  0.54000079  0.38004530  1.0
  O  O26  1  0.29654138  0.45999921  0.61995470  1.0
  O  O27  1  0.29654138  0.04000079  0.11995470  1.0
  O  O28  1  0.68774283  0.14451976  0.04346251  1.0
  O  O29  1  0.68774283  0.35548024  0.54346251  1.0
  O  O30  1  0.31225717  0.64451976  0.45653749  1.0
  O  O31  1  0.31225717  0.85548024  0.95653749  1.0
  O  O32  1  0.42544366  0.45163086  0.16040391  1.0
  O  O33  1  0.42544366  0.04836914  0.66040391  1.0
  O  O34  1  0.57455634  0.95163086  0.33959609  1.0
  O  O35  1  0.57455634  0.54836914  0.83959609  1.0
  O  O36  1  0.39338341  0.25905786  0.33442920  1.0
  O  O37  1  0.39338341  0.24094214  0.83442920  1.0
  O  O38  1  0.60661659  0.75905786  0.16557080  1.0
  O  O39  1  0.60661659  0.74094214  0.66557080  1.0
