# generated using pymatgen
data_HPbCSNO
_symmetry_space_group_name_H-M   'P 1'
_cell_length_a   8.52406274
_cell_length_b   4.30570627
_cell_length_c   11.86446714
_cell_angle_alpha   90.00000000
_cell_angle_beta   90.00000000
_cell_angle_gamma   90.00000000
_symmetry_Int_Tables_number   1
_chemical_formula_structural   HPbCSNO
_chemical_formula_sum   'H4 Pb4 C4 S4 N4 O4'
_cell_volume   435.45098222
_cell_formula_units_Z   4
loop_
 _symmetry_equiv_pos_site_id
 _symmetry_equiv_pos_as_xyz
  1  'x, y, z'
loop_
 _atom_site_type_symbol
 _atom_site_label
 _atom_site_symmetry_multiplicity
 _atom_site_fract_x
 _atom_site_fract_y
 _atom_site_fract_z
 _atom_site_occupancy
  H  H0  1  0.70150256  0.75000000  0.44750866  1.0
  H  H1  1  0.20150256  0.75000000  0.05249134  1.0
  H  H2  1  0.29849744  0.25000000  0.55249134  1.0
  H  H3  1  0.79849744  0.25000000  0.94750866  1.0
  Pb  Pb4  1  0.36293820  0.75000000  0.39896820  1.0
  Pb  Pb5  1  0.86293820  0.75000000  0.10103180  1.0
  Pb  Pb6  1  0.63706180  0.25000000  0.60103180  1.0
  Pb  Pb7  1  0.13706180  0.25000000  0.89896820  1.0
  C  C8  1  0.06144451  0.75000000  0.62807170  1.0
  C  C9  1  0.56144451  0.75000000  0.87192830  1.0
  C  C10  1  0.93855549  0.25000000  0.37192830  1.0
  C  C11  1  0.43855549  0.25000000  0.12807170  1.0
  S  S12  1  0.92867442  0.75000000  0.72830964  1.0
  S  S13  1  0.42867442  0.75000000  0.77169036  1.0
  S  S14  1  0.07132558  0.25000000  0.27169036  1.0
  S  S15  1  0.57132558  0.25000000  0.22830964  1.0
  N  N16  1  0.15901882  0.75000000  0.55727907  1.0
  N  N17  1  0.65901882  0.75000000  0.94272093  1.0
  N  N18  1  0.84098118  0.25000000  0.44272093  1.0
  N  N19  1  0.34098118  0.25000000  0.05727907  1.0
  O  O20  1  0.61149370  0.75000000  0.49836328  1.0
  O  O21  1  0.11149370  0.75000000  0.00163672  1.0
  O  O22  1  0.38850630  0.25000000  0.50163672  1.0
  O  O23  1  0.88850630  0.25000000  0.99836328  1.0
