# generated using pymatgen
data_K3Sc(PO4)2
_symmetry_space_group_name_H-M   'P 1'
_cell_length_a   9.54566763
_cell_length_b   9.54566763
_cell_length_c   7.75131752
_cell_angle_alpha   90.00000000
_cell_angle_beta   90.00000000
_cell_angle_gamma   120.00000000
_symmetry_Int_Tables_number   1
_chemical_formula_structural   K3Sc(PO4)2
_chemical_formula_sum   'K9 Sc3 P6 O24'
_cell_volume   611.67224761
_cell_formula_units_Z   3
loop_
 _symmetry_equiv_pos_site_id
 _symmetry_equiv_pos_as_xyz
  1  'x, y, z'
loop_
 _atom_site_type_symbol
 _atom_site_label
 _atom_site_symmetry_multiplicity
 _atom_site_fract_x
 _atom_site_fract_y
 _atom_site_fract_z
 _atom_site_occupancy
  K  K0  1  0.99974753  0.66619071  0.25119715  1.0
  K  K1  1  0.66619071  0.66644318  0.74880285  1.0
  K  K2  1  0.66644318  0.00025247  0.25119715  1.0
  K  K3  1  0.33380929  0.33355682  0.25119715  1.0
  K  K4  1  0.00025247  0.33380929  0.74880285  1.0
  K  K5  1  0.33355682  0.99974753  0.74880285  1.0
  K  K6  1  0.33333333  0.66666667  0.50284739  1.0
  K  K7  1  0.66666667  0.33333333  0.49715261  1.0
  K  K8  1  0.00000000  0.00000000  0.50000000  1.0
  Sc  Sc9  1  0.33333333  0.66666667  0.03130812  1.0
  Sc  Sc10  1  0.66666667  0.33333333  0.96869188  1.0
  Sc  Sc11  1  0.00000000  0.00000000  0.00000000  1.0
  P  P12  1  0.67239792  0.65946889  0.22335828  1.0
  P  P13  1  0.65946889  0.98707098  0.77664172  1.0
  P  P14  1  0.98707098  0.32760208  0.22335828  1.0
  P  P15  1  0.34053111  0.01292902  0.22335828  1.0
  P  P16  1  0.32760208  0.34053111  0.77664172  1.0
  P  P17  1  0.01292902  0.67239792  0.77664172  1.0
  O  O18  1  0.17580675  0.99361434  0.15928821  1.0
  O  O19  1  0.99361434  0.81780759  0.84071179  1.0
  O  O20  1  0.81780759  0.82419325  0.15928821  1.0
  O  O21  1  0.00638566  0.18219241  0.15928821  1.0
  O  O22  1  0.82419325  0.00638566  0.84071179  1.0
  O  O23  1  0.18219241  0.17580675  0.84071179  1.0
  O  O24  1  0.33473111  0.84677221  0.20026581  1.0
  O  O25  1  0.84677221  0.51204110  0.79973419  1.0
  O  O26  1  0.51204110  0.66526889  0.20026581  1.0
  O  O27  1  0.15322779  0.48795890  0.20026581  1.0
  O  O28  1  0.66526889  0.15322779  0.79973419  1.0
  O  O29  1  0.48795890  0.33473111  0.79973419  1.0
  O  O30  1  0.69988066  0.63206582  0.41221761  1.0
  O  O31  1  0.63206582  0.93218516  0.58778239  1.0
  O  O32  1  0.93218516  0.30011934  0.41221761  1.0
  O  O33  1  0.36793418  0.06781484  0.41221761  1.0
  O  O34  1  0.30011934  0.36793418  0.58778239  1.0
  O  O35  1  0.06781484  0.69988066  0.58778239  1.0
  O  O36  1  0.66273171  0.51763616  0.11103856  1.0
  O  O37  1  0.51763616  0.85490445  0.88896144  1.0
  O  O38  1  0.85490445  0.33726829  0.11103856  1.0
  O  O39  1  0.48236384  0.14509555  0.11103856  1.0
  O  O40  1  0.33726829  0.48236384  0.88896144  1.0
  O  O41  1  0.14509555  0.66273171  0.88896144  1.0
