# generated using pymatgen
data_Ba(Ni5P3)2
_symmetry_space_group_name_H-M   'P 1'
_cell_length_a   8.75303241
_cell_length_b   8.75303241
_cell_length_c   8.79707264
_cell_angle_alpha   90.00000000
_cell_angle_beta   90.00000000
_cell_angle_gamma   136.85397989
_symmetry_Int_Tables_number   1
_chemical_formula_structural   Ba(Ni5P3)2
_chemical_formula_sum   'Ba2 Ni20 P12'
_cell_volume   460.91672366
_cell_formula_units_Z   2
loop_
 _symmetry_equiv_pos_site_id
 _symmetry_equiv_pos_as_xyz
  1  'x, y, z'
loop_
 _atom_site_type_symbol
 _atom_site_label
 _atom_site_symmetry_multiplicity
 _atom_site_fract_x
 _atom_site_fract_y
 _atom_site_fract_z
 _atom_site_occupancy
  Ba  Ba0  1  0.00000000  0.00000000  0.00000000  1.0
  Ba  Ba1  1  0.50000000  0.50000000  0.50000000  1.0
  Ni  Ni2  1  0.12621809  0.47592780  0.97126674  1.0
  Ni  Ni3  1  0.62621809  0.97592780  0.52873326  1.0
  Ni  Ni4  1  0.47592780  1.12621809  0.02873326  1.0
  Ni  Ni5  1  -0.02407220  0.62621809  0.47126674  1.0
  Ni  Ni6  1  0.52407220  0.87378191  0.97126674  1.0
  Ni  Ni7  1  0.02407220  0.37378191  0.52873326  1.0
  Ni  Ni8  1  -0.12621809  0.52407220  0.02873326  1.0
  Ni  Ni9  1  0.37378191  1.02407220  0.47126674  1.0
  Ni  Ni10  1  0.29055391  0.70944609  0.70658438  1.0
  Ni  Ni11  1  -0.20944609  0.20944609  0.79341562  1.0
  Ni  Ni12  1  -0.29055391  0.29055391  0.29341562  1.0
  Ni  Ni13  1  0.20944609  0.79055391  0.20658438  1.0
  Ni  Ni14  1  0.45463927  0.54536073  0.88172894  1.0
  Ni  Ni15  1  -0.04536073  0.04536073  0.61827106  1.0
  Ni  Ni16  1  -0.45463927  0.45463927  0.11827106  1.0
  Ni  Ni17  1  0.04536073  0.95463927  0.38172894  1.0
  Ni  Ni18  1  -0.08829514  0.58829514  0.75000000  1.0
  Ni  Ni19  1  0.41170486  1.08829514  0.75000000  1.0
  Ni  Ni20  1  0.58829514  0.91170486  0.25000000  1.0
  Ni  Ni21  1  0.08829514  0.41170486  0.25000000  1.0
  P  P22  1  0.08978587  0.91021413  0.62717254  1.0
  P  P23  1  -0.41021413  0.41021413  0.87282746  1.0
  P  P24  1  -0.08978587  0.08978587  0.37282746  1.0
  P  P25  1  0.41021413  0.58978587  0.12717254  1.0
  P  P26  1  0.20875745  0.79124255  0.92540466  1.0
  P  P27  1  -0.29124255  0.29124255  0.57459534  1.0
  P  P28  1  -0.20875745  0.20875745  0.07459534  1.0
  P  P29  1  0.29124255  0.70875745  0.42540466  1.0
  P  P30  1  0.14020378  0.35979622  0.75000000  1.0
  P  P31  1  0.64020378  0.85979622  0.75000000  1.0
  P  P32  1  0.35979622  1.14020378  0.25000000  1.0
  P  P33  1  -0.14020378  0.64020378  0.25000000  1.0
