# generated using pymatgen
data_NaCoF4
_symmetry_space_group_name_H-M   'P 1'
_cell_length_a   5.03668040
_cell_length_b   5.70114100
_cell_length_c   11.04101201
_cell_angle_alpha   90.00000000
_cell_angle_beta   90.00000000
_cell_angle_gamma   90.00000000
_symmetry_Int_Tables_number   1
_chemical_formula_structural   NaCoF4
_chemical_formula_sum   'Na4 Co4 F16'
_cell_volume   317.04072967
_cell_formula_units_Z   4
loop_
 _symmetry_equiv_pos_site_id
 _symmetry_equiv_pos_as_xyz
  1  'x, y, z'
loop_
 _atom_site_type_symbol
 _atom_site_label
 _atom_site_symmetry_multiplicity
 _atom_site_fract_x
 _atom_site_fract_y
 _atom_site_fract_z
 _atom_site_occupancy
  Na  Na0  1  0.50000000  0.50000000  0.50000000  1.0
  Na  Na1  1  0.50000000  0.50000000  0.00000000  1.0
  Na  Na2  1  0.00000000  0.00000000  0.00000000  1.0
  Na  Na3  1  0.00000000  0.00000000  0.50000000  1.0
  Co  Co4  1  0.50000000  0.14980931  0.75000000  1.0
  Co  Co5  1  0.50000000  0.85019069  0.25000000  1.0
  Co  Co6  1  0.00000000  0.64980931  0.75000000  1.0
  Co  Co7  1  0.00000000  0.35019069  0.25000000  1.0
  F  F8  1  0.33775615  0.17352627  0.60168703  1.0
  F  F9  1  0.33775615  0.82647373  0.10168703  1.0
  F  F10  1  0.83775615  0.67352627  0.89831297  1.0
  F  F11  1  0.83775615  0.32647373  0.39831297  1.0
  F  F12  1  0.66224385  0.17352627  0.89831297  1.0
  F  F13  1  0.66224385  0.82647373  0.39831297  1.0
  F  F14  1  0.16224385  0.67352627  0.60168703  1.0
  F  F15  1  0.16224385  0.32647373  0.10168703  1.0
  F  F16  1  0.25388185  0.41377567  0.81394439  1.0
  F  F17  1  0.25388185  0.58622433  0.31394439  1.0
  F  F18  1  0.75388185  0.91377567  0.68605561  1.0
  F  F19  1  0.75388185  0.08622433  0.18605561  1.0
  F  F20  1  0.74611815  0.41377567  0.68605561  1.0
  F  F21  1  0.74611815  0.58622433  0.18605561  1.0
  F  F22  1  0.24611815  0.91377567  0.81394439  1.0
  F  F23  1  0.24611815  0.08622433  0.31394439  1.0
