# generated using pymatgen
data_Sr(MnP)2
_symmetry_space_group_name_H-M   'P 1'
_cell_length_a   3.84763865
_cell_length_b   3.84763865
_cell_length_c   7.12545319
_cell_angle_alpha   90.00000000
_cell_angle_beta   90.00000000
_cell_angle_gamma   120.00000000
_symmetry_Int_Tables_number   1
_chemical_formula_structural   Sr(MnP)2
_chemical_formula_sum   'Sr1 Mn2 P2'
_cell_volume   91.35486485
_cell_formula_units_Z   1
loop_
 _symmetry_equiv_pos_site_id
 _symmetry_equiv_pos_as_xyz
  1  'x, y, z'
loop_
 _atom_site_type_symbol
 _atom_site_label
 _atom_site_symmetry_multiplicity
 _atom_site_fract_x
 _atom_site_fract_y
 _atom_site_fract_z
 _atom_site_occupancy
  Sr  Sr0  1  0.00000000  0.00000000  0.00000000  1.0
  Mn  Mn1  1  0.33333333  0.66666667  0.61185758  1.0
  Mn  Mn2  1  0.66666667  0.33333333  0.38814242  1.0
  P  P3  1  0.33333333  0.66666667  0.29382712  1.0
  P  P4  1  0.66666667  0.33333333  0.70617288  1.0
