# generated using pymatgen
data_Si5Rh4
_symmetry_space_group_name_H-M   'P 1'
_cell_length_a   6.22374729
_cell_length_b   3.46632956
_cell_length_c   12.28033539
_cell_angle_alpha   90.00000000
_cell_angle_beta   99.90630484
_cell_angle_gamma   90.00000000
_symmetry_Int_Tables_number   1
_chemical_formula_structural   Si5Rh4
_chemical_formula_sum   'Si10 Rh8'
_cell_volume   260.98053406
_cell_formula_units_Z   2
loop_
 _symmetry_equiv_pos_site_id
 _symmetry_equiv_pos_as_xyz
  1  'x, y, z'
loop_
 _atom_site_type_symbol
 _atom_site_label
 _atom_site_symmetry_multiplicity
 _atom_site_fract_x
 _atom_site_fract_y
 _atom_site_fract_z
 _atom_site_occupancy
  Si  Si0  1  0.64708713  0.75000000  0.63009290  1.0
  Si  Si1  1  0.35291287  0.25000000  0.36990710  1.0
  Si  Si2  1  0.90220913  0.75000000  0.41897761  1.0
  Si  Si3  1  0.09779087  0.25000000  0.58102239  1.0
  Si  Si4  1  0.46860484  0.75000000  0.22510371  1.0
  Si  Si5  1  0.53139516  0.25000000  0.77489629  1.0
  Si  Si6  1  0.50151300  0.75000000  0.92362039  1.0
  Si  Si7  1  0.49848700  0.25000000  0.07637961  1.0
  Si  Si8  1  0.87474407  0.75000000  0.11755796  1.0
  Si  Si9  1  0.12525593  0.25000000  0.88244204  1.0
  Rh  Rh10  1  0.22150203  0.75000000  0.04457445  1.0
  Rh  Rh11  1  0.77849797  0.25000000  0.95542555  1.0
  Rh  Rh12  1  0.13001142  0.75000000  0.28025056  1.0
  Rh  Rh13  1  0.86998858  0.25000000  0.71974944  1.0
  Rh  Rh14  1  0.30276645  0.75000000  0.51063552  1.0
  Rh  Rh15  1  0.69723355  0.25000000  0.48936448  1.0
  Rh  Rh16  1  0.26759608  0.75000000  0.74503120  1.0
  Rh  Rh17  1  0.73240392  0.25000000  0.25496880  1.0
