# generated using pymatgen
data_Zr2Ag(PO4)3
_symmetry_space_group_name_H-M   'P 1'
_cell_length_a   9.25583879
_cell_length_b   9.25583879
_cell_length_c   9.25583879
_cell_angle_alpha   57.86034198
_cell_angle_beta   57.86034198
_cell_angle_gamma   57.86034198
_symmetry_Int_Tables_number   1
_chemical_formula_structural   Zr2Ag(PO4)3
_chemical_formula_sum   'Zr4 Ag2 P6 O24'
_cell_volume   533.16171082
_cell_formula_units_Z   2
loop_
 _symmetry_equiv_pos_site_id
 _symmetry_equiv_pos_as_xyz
  1  'x, y, z'
loop_
 _atom_site_type_symbol
 _atom_site_label
 _atom_site_symmetry_multiplicity
 _atom_site_fract_x
 _atom_site_fract_y
 _atom_site_fract_z
 _atom_site_occupancy
  Zr  Zr0  1  0.85507231  -0.14492769  -0.14492769  1.0
  Zr  Zr1  1  0.35507231  0.35507231  0.35507231  1.0
  Zr  Zr2  1  0.64492769  0.64492769  -0.35507231  1.0
  Zr  Zr3  1  1.14492769  0.14492769  0.14492769  1.0
  Ag  Ag4  1  1.00000000  -0.00000000  -0.00000000  1.0
  Ag  Ag5  1  0.50000000  0.50000000  0.50000000  1.0
  P  P6  1  0.46172929  0.75000000  0.03827071  1.0
  P  P7  1  0.96172929  -0.46172929  0.25000000  1.0
  P  P8  1  0.25000000  0.96172929  -0.46172929  1.0
  P  P9  1  0.75000000  1.03827071  -0.53827071  1.0
  P  P10  1  0.53827071  0.25000000  -0.03827071  1.0
  P  P11  1  1.03827071  0.46172929  -0.25000000  1.0
  O  O12  1  0.78739006  1.00342865  -0.37619795  1.0
  O  O13  1  1.28739006  0.12380205  -0.49657135  1.0
  O  O14  1  0.87619795  0.49657135  -0.28739006  1.0
  O  O15  1  0.37619795  0.21260994  -0.00342865  1.0
  O  O16  1  0.99657135  0.37619795  -0.78739006  1.0
  O  O17  1  0.49657135  0.71260994  -0.12380205  1.0
  O  O18  1  0.21260994  0.99657135  -0.62380205  1.0
  O  O19  1  0.71260994  0.87619795  -0.50342865  1.0
  O  O20  1  0.62380205  0.78739006  0.00342865  1.0
  O  O21  1  1.12380205  -0.49657135  0.28739006  1.0
  O  O22  1  0.50342865  0.28739006  0.12380205  1.0
  O  O23  1  1.00342865  0.62380205  -0.21260994  1.0
  O  O24  1  0.71553867  0.08256023  -0.06212920  1.0
  O  O25  1  1.21553867  0.43787080  -0.41743977  1.0
  O  O26  1  0.56212920  0.41743977  -0.21553867  1.0
  O  O27  1  1.06212920  0.28446133  -0.08256023  1.0
  O  O28  1  0.91743977  0.06212920  0.28446133  1.0
  O  O29  1  0.41743977  0.78446133  -0.43787080  1.0
  O  O30  1  1.28446133  -0.08256023  0.06212920  1.0
  O  O31  1  0.78446133  0.56212920  -0.58256023  1.0
  O  O32  1  0.93787080  -0.28446133  0.08256023  1.0
  O  O33  1  0.43787080  0.58256023  0.21553867  1.0
  O  O34  1  0.58256023  1.21553867  -0.56212920  1.0
  O  O35  1  1.08256023  -0.06212920  -0.28446133  1.0
