# generated using pymatgen
data_Y10Al3Ni
_symmetry_space_group_name_H-M   'P 1'
_cell_length_a   9.57145257
_cell_length_b   9.57145257
_cell_length_c   9.58682291
_cell_angle_alpha   90.00000000
_cell_angle_beta   90.00000000
_cell_angle_gamma   120.00000000
_symmetry_Int_Tables_number   1
_chemical_formula_structural   Y10Al3Ni
_chemical_formula_sum   'Y20 Al6 Ni2'
_cell_volume   760.60826510
_cell_formula_units_Z   2
loop_
 _symmetry_equiv_pos_site_id
 _symmetry_equiv_pos_as_xyz
  1  'x, y, z'
loop_
 _atom_site_type_symbol
 _atom_site_label
 _atom_site_symmetry_multiplicity
 _atom_site_fract_x
 _atom_site_fract_y
 _atom_site_fract_z
 _atom_site_occupancy
  Y  Y0  1  0.20782526  0.79217474  0.43805876  1.0
  Y  Y1  1  0.20782526  0.41565053  0.43805876  1.0
  Y  Y2  1  0.58434947  0.79217474  0.43805876  1.0
  Y  Y3  1  0.79217474  0.20782526  0.56194124  1.0
  Y  Y4  1  0.79217474  0.58434947  0.56194124  1.0
  Y  Y5  1  0.41565053  0.20782526  0.56194124  1.0
  Y  Y6  1  0.79217474  0.20782526  0.93805876  1.0
  Y  Y7  1  0.79217474  0.58434947  0.93805876  1.0
  Y  Y8  1  0.41565053  0.20782526  0.93805876  1.0
  Y  Y9  1  0.20782526  0.79217474  0.06194124  1.0
  Y  Y10  1  0.20782526  0.41565053  0.06194124  1.0
  Y  Y11  1  0.58434947  0.79217474  0.06194124  1.0
  Y  Y12  1  0.54372692  0.45627308  0.25000000  1.0
  Y  Y13  1  0.54372692  0.08745384  0.25000000  1.0
  Y  Y14  1  0.91254616  0.45627308  0.25000000  1.0
  Y  Y15  1  0.45627308  0.54372692  0.75000000  1.0
  Y  Y16  1  0.45627308  0.91254616  0.75000000  1.0
  Y  Y17  1  0.08745384  0.54372692  0.75000000  1.0
  Y  Y18  1  0.00000000  0.00000000  0.50000000  1.0
  Y  Y19  1  0.00000000  0.00000000  0.00000000  1.0
  Al  Al20  1  0.22573173  0.11286586  0.25000000  1.0
  Al  Al21  1  0.88713414  0.11286586  0.25000000  1.0
  Al  Al22  1  0.88713414  0.77426827  0.25000000  1.0
  Al  Al23  1  0.77426827  0.88713414  0.75000000  1.0
  Al  Al24  1  0.11286586  0.88713414  0.75000000  1.0
  Al  Al25  1  0.11286586  0.22573173  0.75000000  1.0
  Ni  Ni26  1  0.33333333  0.66666667  0.25000000  1.0
  Ni  Ni27  1  0.66666667  0.33333333  0.75000000  1.0
