# generated using pymatgen
data_MgBIr
_symmetry_space_group_name_H-M   'P 1'
_cell_length_a   5.29700450
_cell_length_b   5.29700450
_cell_length_c   9.47314630
_cell_angle_alpha   90.00000000
_cell_angle_beta   90.00000000
_cell_angle_gamma   120.00000000
_symmetry_Int_Tables_number   1
_chemical_formula_structural   MgBIr
_chemical_formula_sum   'Mg6 B6 Ir6'
_cell_volume   230.18952694
_cell_formula_units_Z   6
loop_
 _symmetry_equiv_pos_site_id
 _symmetry_equiv_pos_as_xyz
  1  'x, y, z'
loop_
 _atom_site_type_symbol
 _atom_site_label
 _atom_site_symmetry_multiplicity
 _atom_site_fract_x
 _atom_site_fract_y
 _atom_site_fract_z
 _atom_site_occupancy
  Mg  Mg0  1  0.50000000  0.50000000  0.83333333  1.0
  Mg  Mg1  1  0.50000000  0.00000000  0.50000000  1.0
  Mg  Mg2  1  -0.00000000  0.50000000  0.16666667  1.0
  Mg  Mg3  1  0.00000000  0.00000000  0.33333333  1.0
  Mg  Mg4  1  0.00000000  0.00000000  0.00000000  1.0
  Mg  Mg5  1  0.00000000  0.00000000  0.66666667  1.0
  B  B6  1  0.60237577  0.39762423  0.33333333  1.0
  B  B7  1  0.60237577  0.20475154  0.00000000  1.0
  B  B8  1  0.39762423  0.60237577  0.33333333  1.0
  B  B9  1  0.39762423  0.79524846  0.00000000  1.0
  B  B10  1  0.79524846  0.39762423  0.66666667  1.0
  B  B11  1  0.20475154  0.60237577  0.66666667  1.0
  Ir  Ir12  1  0.50000000  0.50000000  0.54483218  1.0
  Ir  Ir13  1  0.50000000  0.00000000  0.78850115  1.0
  Ir  Ir14  1  0.50000000  0.50000000  0.12183448  1.0
  Ir  Ir15  1  0.50000000  0.00000000  0.21149885  1.0
  Ir  Ir16  1  -0.00000000  0.50000000  0.45516782  1.0
  Ir  Ir17  1  -0.00000000  0.50000000  0.87816552  1.0
