# generated using pymatgen
data_KSn4(PO4)3
_symmetry_space_group_name_H-M   'P 1'
_cell_length_a   10.14679566
_cell_length_b   10.14679566
_cell_length_c   10.14679566
_cell_angle_alpha   60.00617308
_cell_angle_beta   60.00617308
_cell_angle_gamma   60.00617308
_symmetry_Int_Tables_number   1
_chemical_formula_structural   KSn4(PO4)3
_chemical_formula_sum   'K2 Sn8 P6 O24'
_cell_volume   738.80958703
_cell_formula_units_Z   2
loop_
 _symmetry_equiv_pos_site_id
 _symmetry_equiv_pos_as_xyz
  1  'x, y, z'
loop_
 _atom_site_type_symbol
 _atom_site_label
 _atom_site_symmetry_multiplicity
 _atom_site_fract_x
 _atom_site_fract_y
 _atom_site_fract_z
 _atom_site_occupancy
  K  K0  1  0.85002633  -0.14997367  -0.14997367  1.0
  K  K1  1  0.35002633  0.35002633  -0.64997367  1.0
  Sn  Sn2  1  0.99858912  -0.59995947  0.00093210  1.0
  Sn  Sn3  1  0.49858912  0.50093210  -0.09995947  1.0
  Sn  Sn4  1  0.50093210  0.90004053  -0.50141088  1.0
  Sn  Sn5  1  1.00093210  -0.00141088  -0.59995947  1.0
  Sn  Sn6  1  0.90004053  0.49858912  -0.49906790  1.0
  Sn  Sn7  1  0.40004053  0.00093210  -0.00141088  1.0
  Sn  Sn8  1  -0.00004228  -0.00004228  -0.00004228  1.0
  Sn  Sn9  1  0.49995772  0.49995772  -0.50004228  1.0
  P  P10  1  1.09918182  -0.40022214  0.10087547  1.0
  P  P11  1  0.59918182  0.60087547  -0.90022214  1.0
  P  P12  1  0.60087547  0.09977786  -0.40081818  1.0
  P  P13  1  1.10087547  0.09918182  -0.40022214  1.0
  P  P14  1  0.09977786  0.59918182  -0.39912453  1.0
  P  P15  1  0.59977786  0.10087547  0.09918182  1.0
  O  O16  1  0.76901268  -0.02853132  0.10346968  1.0
  O  O17  1  0.26901268  0.60346968  -0.52853132  1.0
  O  O18  1  0.60346968  0.47146868  -0.73098732  1.0
  O  O19  1  1.10346968  -0.23098732  -0.02853132  1.0
  O  O20  1  0.47146868  0.26901268  -0.39653032  1.0
  O  O21  1  0.97146868  0.10346968  -0.23098732  1.0
  O  O22  1  0.55496730  -0.22980670  0.10394588  1.0
  O  O23  1  1.05496730  -0.39605412  0.27019330  1.0
  O  O24  1  0.60394588  0.27019330  0.05496730  1.0
  O  O25  1  1.10394588  -0.44503270  -0.22980670  1.0
  O  O26  1  1.27019330  0.05496730  -0.39605412  1.0
  O  O27  1  0.77019330  0.10394588  -0.44503270  1.0
  O  O28  1  0.76852944  -0.44314189  -0.02952227  1.0
  O  O29  1  0.26852944  0.47047773  0.05685811  1.0
  O  O30  1  0.47047773  1.05685811  -0.73147056  1.0
  O  O31  1  0.97047773  -0.23147056  -0.44314189  1.0
  O  O32  1  1.05685811  0.26852944  -0.52952227  1.0
  O  O33  1  0.55685811  -0.02952227  -0.23147056  1.0
  O  O34  1  0.96985532  -0.44424938  0.10489029  1.0
  O  O35  1  0.46985532  0.60489029  -0.94424938  1.0
  O  O36  1  0.60489029  0.05575062  -0.53014468  1.0
  O  O37  1  1.10489029  -0.03014468  -0.44424938  1.0
  O  O38  1  0.05575062  0.46985532  -0.39510971  1.0
  O  O39  1  0.55575062  0.10489029  -0.03014468  1.0
