# generated using pymatgen
data_NaCu3(RuO3)4
_symmetry_space_group_name_H-M   'P 1'
_cell_length_a   6.43537841
_cell_length_b   6.43537841
_cell_length_c   6.43537841
_cell_angle_alpha   109.47122063
_cell_angle_beta   109.47122063
_cell_angle_gamma   109.47122063
_symmetry_Int_Tables_number   1
_chemical_formula_structural   NaCu3(RuO3)4
_chemical_formula_sum   'Na1 Cu3 Ru4 O12'
_cell_volume   205.16363081
_cell_formula_units_Z   1
loop_
 _symmetry_equiv_pos_site_id
 _symmetry_equiv_pos_as_xyz
  1  'x, y, z'
loop_
 _atom_site_type_symbol
 _atom_site_label
 _atom_site_symmetry_multiplicity
 _atom_site_fract_x
 _atom_site_fract_y
 _atom_site_fract_z
 _atom_site_occupancy
  Na  Na0  1  -0.00000000  -0.00000000  -0.00000000  1.0
  Cu  Cu1  1  0.50000000  0.50000000  -0.00000000  1.0
  Cu  Cu2  1  0.00000000  0.50000000  0.50000000  1.0
  Cu  Cu3  1  0.50000000  0.00000000  0.50000000  1.0
  Ru  Ru4  1  0.50000000  1.00000000  1.00000000  1.0
  Ru  Ru5  1  0.50000000  0.50000000  0.50000000  1.0
  Ru  Ru6  1  1.00000000  1.00000000  0.50000000  1.0
  Ru  Ru7  1  1.00000000  0.50000000  1.00000000  1.0
  O  O8  1  0.82425644  1.31121859  1.13547503  1.0
  O  O9  1  0.82425644  0.68878141  0.51303785  1.0
  O  O10  1  0.17574356  0.31121859  0.48696215  1.0
  O  O11  1  0.17574356  0.68878141  0.86452497  1.0
  O  O12  1  0.51303785  0.82425644  0.68878141  1.0
  O  O13  1  1.13547503  0.82425644  1.31121859  1.0
  O  O14  1  0.68878141  0.86452497  0.17574356  1.0
  O  O15  1  0.68878141  0.51303785  0.82425644  1.0
  O  O16  1  0.86452497  0.17574356  0.68878141  1.0
  O  O17  1  0.48696215  0.17574356  0.31121859  1.0
  O  O18  1  0.31121859  0.48696215  0.17574356  1.0
  O  O19  1  1.31121859  1.13547503  0.82425644  1.0
