# generated using pymatgen
data_Re2PbO6
_symmetry_space_group_name_H-M   'P 1'
_cell_length_a   7.17923527
_cell_length_b   7.17923527
_cell_length_c   7.17923527
_cell_angle_alpha   95.04643827
_cell_angle_beta   95.04643827
_cell_angle_gamma   95.04643827
_symmetry_Int_Tables_number   1
_chemical_formula_structural   Re2PbO6
_chemical_formula_sum   'Re6 Pb3 O18'
_cell_volume   365.45320253
_cell_formula_units_Z   3
loop_
 _symmetry_equiv_pos_site_id
 _symmetry_equiv_pos_as_xyz
  1  'x, y, z'
loop_
 _atom_site_type_symbol
 _atom_site_label
 _atom_site_symmetry_multiplicity
 _atom_site_fract_x
 _atom_site_fract_y
 _atom_site_fract_z
 _atom_site_occupancy
  Re  Re0  1  1.15277732  0.50000000  -0.15277732  1.0
  Re  Re1  1  1.15277732  -0.15277732  0.50000000  1.0
  Re  Re2  1  0.50000000  1.15277732  -0.15277732  1.0
  Re  Re3  1  0.50000000  0.84722268  0.15277732  1.0
  Re  Re4  1  0.84722268  0.50000000  0.15277732  1.0
  Re  Re5  1  0.84722268  0.15277732  0.50000000  1.0
  Pb  Pb6  1  0.68136059  0.68136059  0.68136059  1.0
  Pb  Pb7  1  0.31863941  0.31863941  0.31863941  1.0
  Pb  Pb8  1  0.00000000  0.00000000  -0.00000000  1.0
  O  O9  1  1.08600693  0.08600693  -0.62162551  1.0
  O  O10  1  1.08600693  -0.62162551  0.08600693  1.0
  O  O11  1  1.62162551  0.91399307  -0.08600693  1.0
  O  O12  1  0.91399307  1.62162551  -0.08600693  1.0
  O  O13  1  0.91399307  0.91399307  0.62162551  1.0
  O  O14  1  0.37837449  0.08600693  0.08600693  1.0
  O  O15  1  1.36437955  0.36437955  -0.17123019  1.0
  O  O16  1  1.36437955  -0.17123019  0.36437955  1.0
  O  O17  1  1.17123019  0.63562045  -0.36437955  1.0
  O  O18  1  0.63562045  1.17123019  -0.36437955  1.0
  O  O19  1  0.63562045  0.63562045  0.17123019  1.0
  O  O20  1  0.82876981  0.36437955  0.36437955  1.0
  O  O21  1  0.69864697  0.00000000  0.30135303  1.0
  O  O22  1  0.69864697  0.30135303  -0.00000000  1.0
  O  O23  1  1.00000000  -0.30135303  0.30135303  1.0
  O  O24  1  1.00000000  0.30135303  -0.30135303  1.0
  O  O25  1  1.30135303  0.00000000  -0.30135303  1.0
  O  O26  1  1.30135303  -0.30135303  -0.00000000  1.0
