# generated using pymatgen
data_Lu3Ni7B2
_symmetry_space_group_name_H-M   'P 1'
_cell_length_a   5.01849705
_cell_length_b   5.01849705
_cell_length_c   14.24447186
_cell_angle_alpha   90.00000000
_cell_angle_beta   90.00000000
_cell_angle_gamma   120.00000000
_symmetry_Int_Tables_number   1
_chemical_formula_structural   Lu3Ni7B2
_chemical_formula_sum   'Lu6 Ni14 B4'
_cell_volume   310.68789254
_cell_formula_units_Z   2
loop_
 _symmetry_equiv_pos_site_id
 _symmetry_equiv_pos_as_xyz
  1  'x, y, z'
loop_
 _atom_site_type_symbol
 _atom_site_label
 _atom_site_symmetry_multiplicity
 _atom_site_fract_x
 _atom_site_fract_y
 _atom_site_fract_z
 _atom_site_occupancy
  Lu  Lu0  1  0.33333333  0.66666667  0.96713083  1.0
  Lu  Lu1  1  0.33333333  0.66666667  0.53286917  1.0
  Lu  Lu2  1  0.66666667  0.33333333  0.46713083  1.0
  Lu  Lu3  1  0.66666667  0.33333333  0.03286917  1.0
  Lu  Lu4  1  0.33333333  0.66666667  0.75000000  1.0
  Lu  Lu5  1  0.66666667  0.33333333  0.25000000  1.0
  Ni  Ni6  1  0.16578934  0.83421066  0.35198845  1.0
  Ni  Ni7  1  0.16578934  0.83421066  0.14801155  1.0
  Ni  Ni8  1  0.16578934  0.33157867  0.35198845  1.0
  Ni  Ni9  1  0.16578934  0.33157867  0.14801155  1.0
  Ni  Ni10  1  0.83421066  0.16578934  0.85198845  1.0
  Ni  Ni11  1  0.83421066  0.16578934  0.64801155  1.0
  Ni  Ni12  1  0.83421066  0.66842133  0.85198845  1.0
  Ni  Ni13  1  0.83421066  0.66842133  0.64801155  1.0
  Ni  Ni14  1  0.66842133  0.83421066  0.35198845  1.0
  Ni  Ni15  1  0.66842133  0.83421066  0.14801155  1.0
  Ni  Ni16  1  0.33157867  0.16578934  0.85198845  1.0
  Ni  Ni17  1  0.33157867  0.16578934  0.64801155  1.0
  Ni  Ni18  1  0.00000000  0.00000000  0.50000000  1.0
  Ni  Ni19  1  0.00000000  0.00000000  0.00000000  1.0
  B  B20  1  0.00000000  0.00000000  0.25000000  1.0
  B  B21  1  0.00000000  0.00000000  0.75000000  1.0
  B  B22  1  0.33333333  0.66666667  0.25000000  1.0
  B  B23  1  0.66666667  0.33333333  0.75000000  1.0
