# generated using pymatgen
data_Mg3Al24W
_symmetry_space_group_name_H-M   'P 1'
_cell_length_a   11.96093365
_cell_length_b   11.96093365
_cell_length_c   11.96093365
_cell_angle_alpha   60.00000000
_cell_angle_beta   60.00000000
_cell_angle_gamma   60.00000000
_symmetry_Int_Tables_number   1
_chemical_formula_structural   Mg3Al24W
_chemical_formula_sum   'Mg6 Al48 W2'
_cell_volume   1209.98572246
_cell_formula_units_Z   2
loop_
 _symmetry_equiv_pos_site_id
 _symmetry_equiv_pos_as_xyz
  1  'x, y, z'
loop_
 _atom_site_type_symbol
 _atom_site_label
 _atom_site_symmetry_multiplicity
 _atom_site_fract_x
 _atom_site_fract_y
 _atom_site_fract_z
 _atom_site_occupancy
  Mg  Mg0  1  0.50000000  0.50000000  -0.50000000  1.0
  Mg  Mg1  1  0.75000000  -0.25000000  0.75000000  1.0
  Mg  Mg2  1  0.62500000  -0.37500000  1.12500000  1.0
  Mg  Mg3  1  0.62500000  0.12500000  0.62500000  1.0
  Mg  Mg4  1  0.62500000  -0.37500000  0.62500000  1.0
  Mg  Mg5  1  1.12500000  -0.37500000  0.62500000  1.0
  Al  Al6  1  0.74696677  -0.25303323  1.14669676  1.0
  Al  Al7  1  -0.64063029  0.74696677  1.14669676  1.0
  Al  Al8  1  -0.64063029  1.14669676  0.74696677  1.0
  Al  Al9  1  0.74696677  0.14669676  0.74696677  1.0
  Al  Al10  1  0.50303323  0.50303323  -0.10936971  1.0
  Al  Al11  1  0.50303323  -0.10936971  0.50303323  1.0
  Al  Al12  1  0.10330324  -0.10936971  0.50303323  1.0
  Al  Al13  1  0.10330324  0.50303323  -0.10936971  1.0
  Al  Al14  1  0.74696677  -0.64063029  1.14669676  1.0
  Al  Al15  1  -0.25303323  1.14669676  0.35936971  1.0
  Al  Al16  1  -0.10936971  0.50303323  0.50303323  1.0
  Al  Al17  1  0.10330324  0.50303323  0.50303323  1.0
  Al  Al18  1  1.14669676  -0.64063029  0.74696677  1.0
  Al  Al19  1  0.14669676  0.74696677  0.35936971  1.0
  Al  Al20  1  -0.25303323  0.74696677  0.35936971  1.0
  Al  Al21  1  0.74696677  -0.64063029  0.74696677  1.0
  Al  Al22  1  -0.10936971  0.10330324  0.50303323  1.0
  Al  Al23  1  0.50303323  0.10330324  0.50303323  1.0
  Al  Al24  1  0.50303323  0.50303323  0.10330324  1.0
  Al  Al25  1  -0.10936971  0.50303323  0.10330324  1.0
  Al  Al26  1  1.14669676  -0.25303323  0.74696677  1.0
  Al  Al27  1  -0.64063029  0.74696677  0.74696677  1.0
  Al  Al28  1  0.50303323  0.10330324  -0.10936971  1.0
  Al  Al29  1  0.50303323  -0.10936971  0.10330324  1.0
  Al  Al30  1  1.00087287  -0.76302338  0.76127765  1.0
  Al  Al31  1  0.00087287  0.76127765  0.23697662  1.0
  Al  Al32  1  0.01302338  0.24912713  0.24912713  1.0
  Al  Al33  1  0.48872235  0.24912713  0.24912713  1.0
  Al  Al34  1  -0.76302338  1.00087287  0.76127765  1.0
  Al  Al35  1  1.00087287  0.00087287  0.76127765  1.0
  Al  Al36  1  1.00087287  -0.23872235  1.00087287  1.0
  Al  Al37  1  -0.76302338  0.76127765  1.00087287  1.0
  Al  Al38  1  0.24912713  0.01302338  0.24912713  1.0
  Al  Al39  1  0.24912713  0.24912713  0.01302338  1.0
  Al  Al40  1  0.48872235  0.24912713  0.01302338  1.0
  Al  Al41  1  0.48872235  0.01302338  0.24912713  1.0
  Al  Al42  1  0.76127765  0.00087287  1.00087287  1.0
  Al  Al43  1  -0.76302338  1.00087287  1.00087287  1.0
  Al  Al44  1  0.24912713  0.48872235  0.01302338  1.0
  Al  Al45  1  0.24912713  0.01302338  0.48872235  1.0
  Al  Al46  1  -0.23872235  1.00087287  0.23697662  1.0
  Al  Al47  1  0.76127765  -0.76302338  1.00087287  1.0
  Al  Al48  1  1.00087287  -0.76302338  1.00087287  1.0
  Al  Al49  1  0.00087287  1.00087287  0.23697662  1.0
  Al  Al50  1  0.24912713  0.48872235  0.24912713  1.0
  Al  Al51  1  0.01302338  0.48872235  0.24912713  1.0
  Al  Al52  1  0.01302338  0.24912713  0.48872235  1.0
  Al  Al53  1  0.24912713  0.24912713  0.48872235  1.0
  W  W54  1  -0.00000000  1.00000000  0.00000000  1.0
  W  W55  1  0.25000000  0.25000000  0.25000000  1.0
