# generated using pymatgen
data_RbO2F
_symmetry_space_group_name_H-M   'P 1'
_cell_length_a   12.46639763
_cell_length_b   12.46639763
_cell_length_c   4.27246450
_cell_angle_alpha   90.00000000
_cell_angle_beta   90.00000000
_cell_angle_gamma   90.00000000
_symmetry_Int_Tables_number   1
_chemical_formula_structural   RbO2F
_chemical_formula_sum   'Rb8 O16 F8'
_cell_volume   663.98827951
_cell_formula_units_Z   8
loop_
 _symmetry_equiv_pos_site_id
 _symmetry_equiv_pos_as_xyz
  1  'x, y, z'
loop_
 _atom_site_type_symbol
 _atom_site_label
 _atom_site_symmetry_multiplicity
 _atom_site_fract_x
 _atom_site_fract_y
 _atom_site_fract_z
 _atom_site_occupancy
  Rb  Rb0  1  0.26687404  0.76687404  0.25384520  1.0
  Rb  Rb1  1  0.23312596  0.26687404  0.74615480  1.0
  Rb  Rb2  1  0.73312596  0.23312596  0.25384520  1.0
  Rb  Rb3  1  0.76687404  0.73312596  0.74615480  1.0
  Rb  Rb4  1  0.50000000  0.50000000  0.00000000  1.0
  Rb  Rb5  1  0.00000000  0.00000000  0.00000000  1.0
  Rb  Rb6  1  0.00000000  0.50000000  0.77948437  1.0
  Rb  Rb7  1  0.50000000  0.00000000  0.22051563  1.0
  O  O8  1  0.49992189  0.28337822  0.70886349  1.0
  O  O9  1  0.00007811  0.78337822  0.29113651  1.0
  O  O10  1  0.71662178  0.49992189  0.29113651  1.0
  O  O11  1  0.78337822  0.99992189  0.70886349  1.0
  O  O12  1  0.50007811  0.71662178  0.70886349  1.0
  O  O13  1  0.99992189  0.21662178  0.29113651  1.0
  O  O14  1  0.28337822  0.50007811  0.29113651  1.0
  O  O15  1  0.21662178  0.00007811  0.70886349  1.0
  O  O16  1  0.98822639  0.19019232  0.56911379  1.0
  O  O17  1  0.51177361  0.69019232  0.43088621  1.0
  O  O18  1  0.80980768  0.98822639  0.43088621  1.0
  O  O19  1  0.69019232  0.48822639  0.56911379  1.0
  O  O20  1  0.01177361  0.80980768  0.56911379  1.0
  O  O21  1  0.48822639  0.30980768  0.43088621  1.0
  O  O22  1  0.19019232  0.01177361  0.43088621  1.0
  O  O23  1  0.30980768  0.51177361  0.56911379  1.0
  F  F24  1  0.82869878  0.32869878  0.76056377  1.0
  F  F25  1  0.67130122  0.82869878  0.23943623  1.0
  F  F26  1  0.17130122  0.67130122  0.76056377  1.0
  F  F27  1  0.32869878  0.17130122  0.23943623  1.0
  F  F28  1  0.37690109  0.87690109  0.75560066  1.0
  F  F29  1  0.12309891  0.37690109  0.24439934  1.0
  F  F30  1  0.62309891  0.12309891  0.75560066  1.0
  F  F31  1  0.87690109  0.62309891  0.24439934  1.0
