# generated using pymatgen
data_Na2V2ZnO7
_symmetry_space_group_name_H-M   'P 1'
_cell_length_a   8.36787761
_cell_length_b   8.36787761
_cell_length_c   5.18468415
_cell_angle_alpha   90.00000000
_cell_angle_beta   90.00000000
_cell_angle_gamma   90.00000000
_symmetry_Int_Tables_number   1
_chemical_formula_structural   Na2V2ZnO7
_chemical_formula_sum   'Na4 V4 Zn2 O14'
_cell_volume   363.03871623
_cell_formula_units_Z   2
loop_
 _symmetry_equiv_pos_site_id
 _symmetry_equiv_pos_as_xyz
  1  'x, y, z'
loop_
 _atom_site_type_symbol
 _atom_site_label
 _atom_site_symmetry_multiplicity
 _atom_site_fract_x
 _atom_site_fract_y
 _atom_site_fract_z
 _atom_site_occupancy
  Na  Na0  1  0.83309616  0.33309616  0.49493856  1.0
  Na  Na1  1  0.66690384  0.83309616  0.50506144  1.0
  Na  Na2  1  0.16690384  0.66690384  0.49493856  1.0
  Na  Na3  1  0.33309616  0.16690384  0.50506144  1.0
  V  V4  1  0.35567412  0.85567412  0.07553087  1.0
  V  V5  1  0.14432588  0.35567412  0.92446913  1.0
  V  V6  1  0.64432588  0.14432588  0.07553087  1.0
  V  V7  1  0.85567412  0.64432588  0.92446913  1.0
  Zn  Zn8  1  0.50000000  0.50000000  0.00000000  1.0
  Zn  Zn9  1  0.00000000  0.00000000  0.00000000  1.0
  O  O10  1  0.32700766  0.40563495  0.79689558  1.0
  O  O11  1  0.17299234  0.90563495  0.20310442  1.0
  O  O12  1  0.59436505  0.32700766  0.20310442  1.0
  O  O13  1  0.90563495  0.82700766  0.79689558  1.0
  O  O14  1  0.67299234  0.59436505  0.79689558  1.0
  O  O15  1  0.82700766  0.09436505  0.20310442  1.0
  O  O16  1  0.40563495  0.67299234  0.20310442  1.0
  O  O17  1  0.09436505  0.17299234  0.79689558  1.0
  O  O18  1  0.35260739  0.85260739  0.75646473  1.0
  O  O19  1  0.14739261  0.35260739  0.24353527  1.0
  O  O20  1  0.64739261  0.14739261  0.75646473  1.0
  O  O21  1  0.85260739  0.64739261  0.24353527  1.0
  O  O22  1  0.00000000  0.50000000  0.80279336  1.0
  O  O23  1  0.50000000  0.00000000  0.19720664  1.0
