# generated using pymatgen
data_Ba3Si2(B3O8)2
_symmetry_space_group_name_H-M   'P 1'
_cell_length_a   7.68999491
_cell_length_b   5.08180921
_cell_length_c   8.62880722
_cell_angle_alpha   102.22596894
_cell_angle_beta   102.83958755
_cell_angle_gamma   87.61128245
_symmetry_Int_Tables_number   1
_chemical_formula_structural   Ba3Si2(B3O8)2
_chemical_formula_sum   'Ba3 Si2 B6 O16'
_cell_volume   321.31270417
_cell_formula_units_Z   1
loop_
 _symmetry_equiv_pos_site_id
 _symmetry_equiv_pos_as_xyz
  1  'x, y, z'
loop_
 _atom_site_type_symbol
 _atom_site_label
 _atom_site_symmetry_multiplicity
 _atom_site_fract_x
 _atom_site_fract_y
 _atom_site_fract_z
 _atom_site_occupancy
  Ba  Ba0  1  -0.00000000  0.50000000  -0.50000000  1.0
  Ba  Ba1  1  0.58095851  0.61424980  -0.23675154  1.0
  Ba  Ba2  1  0.41904149  0.38575020  -0.76324846  1.0
  Si  Si3  1  0.82408961  0.23287027  -0.94022209  1.0
  Si  Si4  1  0.17591039  0.76712973  -0.05977791  1.0
  B  B5  1  0.76135047  0.80719447  -0.79715807  1.0
  B  B6  1  0.23864953  0.19280553  -0.20284193  1.0
  B  B7  1  0.30126766  0.97107541  -0.47473011  1.0
  B  B8  1  0.69873234  0.02892459  -0.52526989  1.0
  B  B9  1  0.91021795  0.02472160  -0.24569694  1.0
  B  B10  1  0.08978205  0.97527840  -0.75430306  1.0
  O  O11  1  0.81948190  0.21171316  -0.13309987  1.0
  O  O12  1  0.18051810  0.78828684  -0.86690013  1.0
  O  O13  1  0.35566924  0.14982519  -0.32241613  1.0
  O  O14  1  0.64433076  0.85017481  -0.67758387  1.0
  O  O15  1  0.70638159  0.98447069  -0.91755541  1.0
  O  O16  1  0.29361841  0.01552931  -0.08244459  1.0
  O  O17  1  0.77645430  0.90584272  -0.39550471  1.0
  O  O18  1  0.22354570  0.09415728  -0.60449529  1.0
  O  O19  1  0.32437276  0.70419505  -0.49187337  1.0
  O  O20  1  0.67562724  0.29580495  -0.50812663  1.0
  O  O21  1  0.27669116  0.48189163  -0.11271187  1.0
  O  O22  1  0.72330884  0.51810837  -0.88728813  1.0
  O  O23  1  0.94622381  0.85248543  -0.70954460  1.0
  O  O24  1  0.05377619  0.14751457  -0.29045540  1.0
  O  O25  1  0.97517590  0.78232767  -0.17371924  1.0
  O  O26  1  0.02482410  0.21767233  -0.82628076  1.0
