# generated using pymatgen
data_Ca2ScSbO6
_symmetry_space_group_name_H-M   'P 1'
_cell_length_a   5.62286349
_cell_length_b   5.62286349
_cell_length_c   5.62201137
_cell_angle_alpha   60.27221348
_cell_angle_beta   119.72778652
_cell_angle_gamma   119.44332988
_symmetry_Int_Tables_number   1
_chemical_formula_structural   Ca2ScSbO6
_chemical_formula_sum   'Ca2 Sc1 Sb1 O6'
_cell_volume   126.72881874
_cell_formula_units_Z   1
loop_
 _symmetry_equiv_pos_site_id
 _symmetry_equiv_pos_as_xyz
  1  'x, y, z'
loop_
 _atom_site_type_symbol
 _atom_site_label
 _atom_site_symmetry_multiplicity
 _atom_site_fract_x
 _atom_site_fract_y
 _atom_site_fract_z
 _atom_site_occupancy
  Ca  Ca0  1  0.75117103  -0.75117103  0.27234493  1.0
  Ca  Ca1  1  1.24882897  -0.24882897  0.72765507  1.0
  Sc  Sc2  1  0.00000000  0.00000000  0.00000000  1.0
  Sb  Sb3  1  0.50000000  -0.50000000  0.50000000  1.0
  O  O4  1  0.68717260  -0.19500051  0.68408678  1.0
  O  O5  1  1.19500051  -0.68717260  0.68408678  1.0
  O  O6  1  0.80499949  -0.31282740  0.31591322  1.0
  O  O7  1  0.31282740  0.19500051  0.31591322  1.0
  O  O8  1  0.74235671  -0.74235671  0.84831518  1.0
  O  O9  1  1.25764329  -0.25764329  0.15168482  1.0
