# generated using pymatgen
data_ZrF4
_symmetry_space_group_name_H-M   'P 1'
_cell_length_a   8.01051098
_cell_length_b   8.01051098
_cell_length_c   7.80824994
_cell_angle_alpha   90.00000000
_cell_angle_beta   90.00000000
_cell_angle_gamma   90.00000000
_symmetry_Int_Tables_number   1
_chemical_formula_structural   ZrF4
_chemical_formula_sum   'Zr8 F32'
_cell_volume   501.04201598
_cell_formula_units_Z   8
loop_
 _symmetry_equiv_pos_site_id
 _symmetry_equiv_pos_as_xyz
  1  'x, y, z'
loop_
 _atom_site_type_symbol
 _atom_site_label
 _atom_site_symmetry_multiplicity
 _atom_site_fract_x
 _atom_site_fract_y
 _atom_site_fract_z
 _atom_site_occupancy
  Zr  Zr0  1  0.67969501  0.81695473  0.77010676  1.0
  Zr  Zr1  1  0.67969501  0.81695473  0.22989324  1.0
  Zr  Zr2  1  0.81695473  0.32030499  0.27010676  1.0
  Zr  Zr3  1  0.81695473  0.32030499  0.72989324  1.0
  Zr  Zr4  1  0.32030499  0.18304527  0.77010676  1.0
  Zr  Zr5  1  0.32030499  0.18304527  0.22989324  1.0
  Zr  Zr6  1  0.18304527  0.67969501  0.27010676  1.0
  Zr  Zr7  1  0.18304527  0.67969501  0.72989324  1.0
  F  F8  1  0.66577917  0.95979878  0.00000000  1.0
  F  F9  1  0.95979878  0.33422083  0.50000000  1.0
  F  F10  1  0.33422083  0.04020122  0.00000000  1.0
  F  F11  1  0.04020122  0.66577917  0.50000000  1.0
  F  F12  1  0.93298474  0.79661860  0.78479356  1.0
  F  F13  1  0.93298474  0.79661860  0.21520644  1.0
  F  F14  1  0.79661860  0.06701526  0.28479356  1.0
  F  F15  1  0.79661860  0.06701526  0.71520644  1.0
  F  F16  1  0.06701526  0.20338140  0.78479356  1.0
  F  F17  1  0.06701526  0.20338140  0.21520644  1.0
  F  F18  1  0.20338140  0.93298474  0.28479356  1.0
  F  F19  1  0.20338140  0.93298474  0.71520644  1.0
  F  F20  1  0.71107616  0.55955907  0.69547608  1.0
  F  F21  1  0.71107616  0.55955907  0.30452392  1.0
  F  F22  1  0.55955907  0.28892384  0.19547608  1.0
  F  F23  1  0.55955907  0.28892384  0.80452392  1.0
  F  F24  1  0.28892384  0.44044093  0.69547608  1.0
  F  F25  1  0.28892384  0.44044093  0.30452392  1.0
  F  F26  1  0.44044093  0.71107616  0.19547608  1.0
  F  F27  1  0.44044093  0.71107616  0.80452392  1.0
  F  F28  1  0.81916371  0.30752692  0.00000000  1.0
  F  F29  1  0.30752692  0.18083629  0.50000000  1.0
  F  F30  1  0.18083629  0.69247308  0.00000000  1.0
  F  F31  1  0.69247308  0.81916371  0.50000000  1.0
  F  F32  1  0.70530760  0.67291717  0.00000000  1.0
  F  F33  1  0.67291717  0.29469240  0.50000000  1.0
  F  F34  1  0.29469240  0.32708283  0.00000000  1.0
  F  F35  1  0.32708283  0.70530760  0.50000000  1.0
  F  F36  1  0.00000000  0.50000000  0.79463094  1.0
  F  F37  1  0.00000000  0.50000000  0.20536906  1.0
  F  F38  1  0.50000000  0.00000000  0.29463094  1.0
  F  F39  1  0.50000000  0.00000000  0.70536906  1.0
