# generated using pymatgen
data_Lu2Be2SiO7
_symmetry_space_group_name_H-M   'P 1'
_cell_length_a   7.27171184
_cell_length_b   7.27171184
_cell_length_c   4.75888693
_cell_angle_alpha   90.00000000
_cell_angle_beta   90.00000000
_cell_angle_gamma   90.00000000
_symmetry_Int_Tables_number   1
_chemical_formula_structural   Lu2Be2SiO7
_chemical_formula_sum   'Lu4 Be4 Si2 O14'
_cell_volume   251.63943874
_cell_formula_units_Z   2
loop_
 _symmetry_equiv_pos_site_id
 _symmetry_equiv_pos_as_xyz
  1  'x, y, z'
loop_
 _atom_site_type_symbol
 _atom_site_label
 _atom_site_symmetry_multiplicity
 _atom_site_fract_x
 _atom_site_fract_y
 _atom_site_fract_z
 _atom_site_occupancy
  Lu  Lu0  1  0.84228216  0.34228216  0.48980358  1.0
  Lu  Lu1  1  0.65771784  0.84228216  0.51019642  1.0
  Lu  Lu2  1  0.15771784  0.65771784  0.48980358  1.0
  Lu  Lu3  1  0.34228216  0.15771784  0.51019642  1.0
  Be  Be4  1  0.36227712  0.86227712  0.04221873  1.0
  Be  Be5  1  0.13772288  0.36227712  0.95778127  1.0
  Be  Be6  1  0.63772288  0.13772288  0.04221873  1.0
  Be  Be7  1  0.86227712  0.63772288  0.95778127  1.0
  Si  Si8  1  0.50000000  0.50000000  0.00000000  1.0
  Si  Si9  1  0.00000000  0.00000000  0.00000000  1.0
  O  O10  1  0.33838649  0.41538161  0.79710371  1.0
  O  O11  1  0.16161351  0.91538161  0.20289629  1.0
  O  O12  1  0.58461839  0.33838649  0.20289629  1.0
  O  O13  1  0.91538161  0.83838649  0.79710371  1.0
  O  O14  1  0.66161351  0.58461839  0.79710371  1.0
  O  O15  1  0.83838649  0.08461839  0.20289629  1.0
  O  O16  1  0.41538161  0.66161351  0.20289629  1.0
  O  O17  1  0.08461839  0.16161351  0.79710371  1.0
  O  O18  1  0.35819281  0.85819281  0.70722658  1.0
  O  O19  1  0.14180719  0.35819281  0.29277342  1.0
  O  O20  1  0.64180719  0.14180719  0.70722658  1.0
  O  O21  1  0.85819281  0.64180719  0.29277342  1.0
  O  O22  1  0.00000000  0.50000000  0.81303109  1.0
  O  O23  1  0.50000000  0.00000000  0.18696891  1.0
