# generated using pymatgen
data_RbY(WO4)2
_symmetry_space_group_name_H-M   'P 1'
_cell_length_a   7.58195883
_cell_length_b   7.58195883
_cell_length_c   7.64062652
_cell_angle_alpha   61.97104906
_cell_angle_beta   118.02895094
_cell_angle_gamma   91.81311512
_symmetry_Int_Tables_number   1
_chemical_formula_structural   RbY(WO4)2
_chemical_formula_sum   'Rb2 Y2 W4 O16'
_cell_volume   331.99708175
_cell_formula_units_Z   2
loop_
 _symmetry_equiv_pos_site_id
 _symmetry_equiv_pos_as_xyz
  1  'x, y, z'
loop_
 _atom_site_type_symbol
 _atom_site_label
 _atom_site_symmetry_multiplicity
 _atom_site_fract_x
 _atom_site_fract_y
 _atom_site_fract_z
 _atom_site_occupancy
  Rb  Rb0  1  0.19921088  0.19921088  0.25000000  1.0
  Rb  Rb1  1  0.80078912  0.80078912  0.75000000  1.0
  Y  Y2  1  0.77372726  0.77372726  0.25000000  1.0
  Y  Y3  1  0.22627274  0.22627274  0.75000000  1.0
  W  W4  1  0.69539462  0.30582632  0.23012934  1.0
  W  W5  1  0.69417368  0.30460538  0.73012934  1.0
  W  W6  1  1.30582632  -0.30460538  0.26987066  1.0
  W  W7  1  1.30460538  -0.30582632  0.76987066  1.0
  O  O8  1  1.58884966  -0.37216418  0.03490030  1.0
  O  O9  1  1.37216418  -0.58884966  0.53490030  1.0
  O  O10  1  0.62783582  0.58884966  0.46509970  1.0
  O  O11  1  0.41115034  0.37216418  0.96509970  1.0
  O  O12  1  0.77921414  0.04782987  0.30118404  1.0
  O  O13  1  0.95217013  0.22078586  0.80118404  1.0
  O  O14  1  1.04782987  -0.22078586  0.19881596  1.0
  O  O15  1  1.22078586  -0.04782987  0.69881596  1.0
  O  O16  1  1.37097707  -0.06310557  0.12380085  1.0
  O  O17  1  1.06310557  -0.37097707  0.62380085  1.0
  O  O18  1  0.93689443  0.37097707  0.37619915  1.0
  O  O19  1  0.62902293  0.06310557  0.87619915  1.0
  O  O20  1  0.61837561  0.24091468  0.43895616  1.0
  O  O21  1  0.75908532  0.38162439  0.93895616  1.0
  O  O22  1  1.24091468  -0.38162439  0.06104384  1.0
  O  O23  1  1.38162439  -0.24091468  0.56104384  1.0
