# generated using pymatgen
data_Y(Al5Fe)2
_symmetry_space_group_name_H-M   'P 1'
_cell_length_a   6.75432701
_cell_length_b   6.75432701
_cell_length_c   8.97358257
_cell_angle_alpha   90.00000000
_cell_angle_beta   90.00000000
_cell_angle_gamma   97.14342853
_symmetry_Int_Tables_number   1
_chemical_formula_structural   Y(Al5Fe)2
_chemical_formula_sum   'Y2 Al20 Fe4'
_cell_volume   406.20556685
_cell_formula_units_Z   2
loop_
 _symmetry_equiv_pos_site_id
 _symmetry_equiv_pos_as_xyz
  1  'x, y, z'
loop_
 _atom_site_type_symbol
 _atom_site_label
 _atom_site_symmetry_multiplicity
 _atom_site_fract_x
 _atom_site_fract_y
 _atom_site_fract_z
 _atom_site_occupancy
  Y  Y0  1  0.12587460  0.87412540  0.25000000  1.0
  Y  Y1  1  -0.12587460  1.12587460  0.75000000  1.0
  Al  Al2  1  0.13455095  0.41466370  0.25000000  1.0
  Al  Al3  1  -0.58533630  1.13455095  0.75000000  1.0
  Al  Al4  1  0.58533630  0.86544905  0.25000000  1.0
  Al  Al5  1  -0.13455095  1.58533630  0.75000000  1.0
  Al  Al6  1  -0.21966779  1.52171089  0.25000000  1.0
  Al  Al7  1  0.52171089  0.78033221  0.75000000  1.0
  Al  Al8  1  -0.52171089  1.21966779  0.25000000  1.0
  Al  Al9  1  0.21966779  0.47828911  0.75000000  1.0
  Al  Al10  1  0.15824331  0.84175669  0.90283118  1.0
  Al  Al11  1  0.15824331  0.84175669  0.59716882  1.0
  Al  Al12  1  -0.15824331  1.15824331  0.40283118  1.0
  Al  Al13  1  -0.15824331  1.15824331  0.09716882  1.0
  Al  Al14  1  0.37481713  0.62518287  0.45100103  1.0
  Al  Al15  1  0.37481713  0.62518287  0.04899897  1.0
  Al  Al16  1  -0.37481713  1.37481713  0.95100103  1.0
  Al  Al17  1  -0.37481713  1.37481713  0.54899897  1.0
  Al  Al18  1  0.77262009  0.77262009  0.50000000  1.0
  Al  Al19  1  0.77262009  0.77262009  0.00000000  1.0
  Al  Al20  1  0.22737991  0.22737991  0.50000000  1.0
  Al  Al21  1  0.22737991  0.22737991  0.00000000  1.0
  Fe  Fe22  1  -0.00000000  1.50000000  0.50000000  1.0
  Fe  Fe23  1  -0.00000000  1.50000000  0.00000000  1.0
  Fe  Fe24  1  0.50000000  1.00000000  0.00000000  1.0
  Fe  Fe25  1  0.50000000  1.00000000  0.50000000  1.0
