# generated using pymatgen
data_Na(CuS)4
_symmetry_space_group_name_H-M   'P 1'
_cell_length_a   3.82964755
_cell_length_b   3.82964755
_cell_length_c   12.22898507
_cell_angle_alpha   90.00000000
_cell_angle_beta   90.00000000
_cell_angle_gamma   120.00000000
_symmetry_Int_Tables_number   1
_chemical_formula_structural   Na(CuS)4
_chemical_formula_sum   'Na1 Cu4 S4'
_cell_volume   155.32403337
_cell_formula_units_Z   1
loop_
 _symmetry_equiv_pos_site_id
 _symmetry_equiv_pos_as_xyz
  1  'x, y, z'
loop_
 _atom_site_type_symbol
 _atom_site_label
 _atom_site_symmetry_multiplicity
 _atom_site_fract_x
 _atom_site_fract_y
 _atom_site_fract_z
 _atom_site_occupancy
  Na  Na0  1  -0.00000000  0.00000000  0.00000000  1.0
  Cu  Cu1  1  0.33333333  0.66666667  0.35286742  1.0
  Cu  Cu2  1  0.66666667  0.33333333  0.64713258  1.0
  Cu  Cu3  1  0.33333333  0.66666667  0.81277402  1.0
  Cu  Cu4  1  0.66666667  0.33333333  0.18722598  1.0
  S  S5  1  0.33333333  0.66666667  0.16051690  1.0
  S  S6  1  0.66666667  0.33333333  0.83948310  1.0
  S  S7  1  0.00000000  0.00000000  0.41319912  1.0
  S  S8  1  -0.00000000  0.00000000  0.58680088  1.0
