# generated using pymatgen
data_Ba3Al5
_symmetry_space_group_name_H-M   'P 1'
_cell_length_a   6.08181273
_cell_length_b   6.08181273
_cell_length_c   14.66843221
_cell_angle_alpha   90.00000000
_cell_angle_beta   90.00000000
_cell_angle_gamma   120.00000000
_symmetry_Int_Tables_number   1
_chemical_formula_structural   Ba3Al5
_chemical_formula_sum   'Ba6 Al10'
_cell_volume   469.87292045
_cell_formula_units_Z   2
loop_
 _symmetry_equiv_pos_site_id
 _symmetry_equiv_pos_as_xyz
  1  'x, y, z'
loop_
 _atom_site_type_symbol
 _atom_site_label
 _atom_site_symmetry_multiplicity
 _atom_site_fract_x
 _atom_site_fract_y
 _atom_site_fract_z
 _atom_site_occupancy
  Ba  Ba0  1  0.33333333  0.66666667  0.87435181  1.0
  Ba  Ba1  1  0.33333333  0.66666667  0.62564819  1.0
  Ba  Ba2  1  0.66666667  0.33333333  0.37435181  1.0
  Ba  Ba3  1  0.66666667  0.33333333  0.12564819  1.0
  Ba  Ba4  1  -0.00000000  -0.00000000  0.50000000  1.0
  Ba  Ba5  1  0.00000000  0.00000000  0.00000000  1.0
  Al  Al6  1  0.15339094  0.84660906  0.25000000  1.0
  Al  Al7  1  0.15339094  0.30678189  0.25000000  1.0
  Al  Al8  1  0.84660906  0.15339094  0.75000000  1.0
  Al  Al9  1  0.84660906  0.69321811  0.75000000  1.0
  Al  Al10  1  0.69321811  0.84660906  0.25000000  1.0
  Al  Al11  1  0.30678189  0.15339094  0.75000000  1.0
  Al  Al12  1  0.33333333  0.66666667  0.38412592  1.0
  Al  Al13  1  0.33333333  0.66666667  0.11587408  1.0
  Al  Al14  1  0.66666667  0.33333333  0.88412592  1.0
  Al  Al15  1  0.66666667  0.33333333  0.61587408  1.0
