# generated using pymatgen
data_Cu3(SO4)2
_symmetry_space_group_name_H-M   'P 1'
_cell_length_a   7.78062978
_cell_length_b   6.03533008
_cell_length_c   10.78434790
_cell_angle_alpha   90.00000000
_cell_angle_beta   134.32726650
_cell_angle_gamma   90.00000000
_symmetry_Int_Tables_number   1
_chemical_formula_structural   Cu3(SO4)2
_chemical_formula_sum   'Cu6 S4 O16'
_cell_volume   362.27177018
_cell_formula_units_Z   2
loop_
 _symmetry_equiv_pos_site_id
 _symmetry_equiv_pos_as_xyz
  1  'x, y, z'
loop_
 _atom_site_type_symbol
 _atom_site_label
 _atom_site_symmetry_multiplicity
 _atom_site_fract_x
 _atom_site_fract_y
 _atom_site_fract_z
 _atom_site_occupancy
  O  O0  1  1.18735986  0.22462959  0.56221752  1.0
  O  O1  1  1.18735986  0.27537041  1.06221752  1.0
  O  O2  1  -0.18735986  0.72462959  -0.06221752  1.0
  O  O3  1  -0.18735986  0.77537041  0.43778248  1.0
  O  O4  1  1.04317835  -0.04788307  0.32950353  1.0
  O  O5  1  1.04317835  0.54788307  0.82950353  1.0
  O  O6  1  -0.04317835  0.45211693  0.17049647  1.0
  O  O7  1  -0.04317835  1.04788307  0.67049647  1.0
  O  O8  1  0.38308762  0.20950011  0.45428835  1.0
  O  O9  1  0.38308762  0.29049989  0.95428835  1.0
  O  O10  1  0.61691238  0.70950011  0.04571165  1.0
  O  O11  1  0.61691238  0.79049989  0.54571165  1.0
  O  O12  1  0.31253822  -0.12796681  0.16980695  1.0
  O  O13  1  0.31253822  0.62796681  0.66980695  1.0
  O  O14  1  0.68746178  0.37203319  0.33019305  1.0
  O  O15  1  0.68746178  1.12796681  0.83019305  1.0
  S  S16  1  0.75241676  0.57905301  0.02350173  1.0
  S  S17  1  0.75241676  0.92094699  0.52350173  1.0
  S  S18  1  0.24758324  0.07905301  0.47649827  1.0
  S  S19  1  0.24758324  0.42094699  0.97649827  1.0
  Cu  Cu20  1  0.49888180  0.37100120  -0.21843561  1.0
  Cu  Cu21  1  0.49888180  0.12899880  0.28156439  1.0
  Cu  Cu22  1  0.50111820  0.87100120  0.71843561  1.0
  Cu  Cu23  1  0.50111820  0.62899880  1.21843561  1.0
  Cu  Cu24  1  0.00000000  0.50000000  0.50000000  1.0
  Cu  Cu25  1  0.00000000  -0.00000000  -0.00000000  1.0
