# generated using pymatgen
data_BeAl2O4
_symmetry_space_group_name_H-M   'P 1'
_cell_length_a   9.50700121
_cell_length_b   5.53286003
_cell_length_c   4.46679760
_cell_angle_alpha   90.00000000
_cell_angle_beta   90.00000000
_cell_angle_gamma   90.00000000
_symmetry_Int_Tables_number   1
_chemical_formula_structural   BeAl2O4
_chemical_formula_sum   'Be4 Al8 O16'
_cell_volume   234.95760494
_cell_formula_units_Z   4
loop_
 _symmetry_equiv_pos_site_id
 _symmetry_equiv_pos_as_xyz
  1  'x, y, z'
loop_
 _atom_site_type_symbol
 _atom_site_label
 _atom_site_symmetry_multiplicity
 _atom_site_fract_x
 _atom_site_fract_y
 _atom_site_fract_z
 _atom_site_occupancy
  Be  Be0  1  0.59236722  0.25000000  0.06720646  1.0
  Be  Be1  1  0.09236722  0.25000000  0.43279354  1.0
  Be  Be2  1  0.40763278  0.75000000  0.93279354  1.0
  Be  Be3  1  0.90763278  0.75000000  0.56720646  1.0
  Al  Al4  1  0.77268484  0.25000000  0.50517476  1.0
  Al  Al5  1  0.27268484  0.25000000  0.99482524  1.0
  Al  Al6  1  0.22731516  0.75000000  0.49482524  1.0
  Al  Al7  1  0.72731516  0.75000000  0.00517476  1.0
  Al  Al8  1  0.00000000  0.50000000  0.00000000  1.0
  Al  Al9  1  0.00000000  0.00000000  0.00000000  1.0
  Al  Al10  1  0.50000000  0.50000000  0.50000000  1.0
  Al  Al11  1  0.50000000  0.00000000  0.50000000  1.0
  O  O12  1  0.66308548  0.48381781  0.24263056  1.0
  O  O13  1  0.66308548  0.01618219  0.24263056  1.0
  O  O14  1  0.16308548  0.48381781  0.25736944  1.0
  O  O15  1  0.16308548  0.01618219  0.25736944  1.0
  O  O16  1  0.33691452  0.98381781  0.75736944  1.0
  O  O17  1  0.33691452  0.51618219  0.75736944  1.0
  O  O18  1  0.83691452  0.98381781  0.74263056  1.0
  O  O19  1  0.83691452  0.51618219  0.74263056  1.0
  O  O20  1  0.93352862  0.25000000  0.25938194  1.0
  O  O21  1  0.43352862  0.25000000  0.24061806  1.0
  O  O22  1  0.06647138  0.75000000  0.74061806  1.0
  O  O23  1  0.56647138  0.75000000  0.75938194  1.0
  O  O24  1  0.59048204  0.25000000  0.71339500  1.0
  O  O25  1  0.09048204  0.25000000  0.78660500  1.0
  O  O26  1  0.40951796  0.75000000  0.28660500  1.0
  O  O27  1  0.90951796  0.75000000  0.21339500  1.0
