# generated using pymatgen
data_RbH(CO2)2
_symmetry_space_group_name_H-M   'P 1'
_cell_length_a   4.49234827
_cell_length_b   13.43205595
_cell_length_c   8.50780534
_cell_angle_alpha   90.00000000
_cell_angle_beta   107.41166977
_cell_angle_gamma   90.00000000
_symmetry_Int_Tables_number   1
_chemical_formula_structural   RbH(CO2)2
_chemical_formula_sum   'Rb4 H4 C8 O16'
_cell_volume   489.85042732
_cell_formula_units_Z   4
loop_
 _symmetry_equiv_pos_site_id
 _symmetry_equiv_pos_as_xyz
  1  'x, y, z'
loop_
 _atom_site_type_symbol
 _atom_site_label
 _atom_site_symmetry_multiplicity
 _atom_site_fract_x
 _atom_site_fract_y
 _atom_site_fract_z
 _atom_site_occupancy
  Rb  Rb0  1  0.83690438  0.06376742  0.22326567  1.0
  Rb  Rb1  1  0.83690438  0.43623258  0.72326567  1.0
  Rb  Rb2  1  0.16309562  0.56376742  0.27673433  1.0
  Rb  Rb3  1  0.16309562  0.93623258  0.77673433  1.0
  H  H4  1  0.13145235  0.26969394  0.48296033  1.0
  H  H5  1  0.13145235  0.23030606  0.98296033  1.0
  H  H6  1  0.86854765  0.76969394  0.01703967  1.0
  H  H7  1  0.86854765  0.73030606  0.51703967  1.0
  C  C8  1  0.68045716  0.34102040  0.29259152  1.0
  C  C9  1  0.68045716  0.15897960  0.79259152  1.0
  C  C10  1  0.31954284  0.84102040  0.20740848  1.0
  C  C11  1  0.31954284  0.65897960  0.70740848  1.0
  C  C12  1  0.39468064  0.32656276  0.13494714  1.0
  C  C13  1  0.39468064  0.17343724  0.63494714  1.0
  C  C14  1  0.60531936  0.82656276  0.36505286  1.0
  C  C15  1  0.60531936  0.67343724  0.86505286  1.0
  O  O16  1  0.86205484  0.26669479  0.33508775  1.0
  O  O17  1  0.86205484  0.23330521  0.83508775  1.0
  O  O18  1  0.13794516  0.76669479  0.16491225  1.0
  O  O19  1  0.13794516  0.73330521  0.66491225  1.0
  O  O20  1  0.75195147  0.89906028  0.43664752  1.0
  O  O21  1  0.75195147  0.60093972  0.93664752  1.0
  O  O22  1  0.24804853  0.39906028  0.06335248  1.0
  O  O23  1  0.24804853  0.10093972  0.56335248  1.0
  O  O24  1  0.70605170  0.42461258  0.36059481  1.0
  O  O25  1  0.70605170  0.07538742  0.86059481  1.0
  O  O26  1  0.29394830  0.92461258  0.13940519  1.0
  O  O27  1  0.29394830  0.57538742  0.63940519  1.0
  O  O28  1  0.33127835  0.23306292  0.08916154  1.0
  O  O29  1  0.33127835  0.26693708  0.58916154  1.0
  O  O30  1  0.66872165  0.73306292  0.41083846  1.0
  O  O31  1  0.66872165  0.76693708  0.91083846  1.0
