# generated using pymatgen
data_CaGaGe
_symmetry_space_group_name_H-M   'P 1'
_cell_length_a   4.25050613
_cell_length_b   4.25050613
_cell_length_c   17.35568393
_cell_angle_alpha   90.00000000
_cell_angle_beta   90.00000000
_cell_angle_gamma   120.00000000
_symmetry_Int_Tables_number   1
_chemical_formula_structural   CaGaGe
_chemical_formula_sum   'Ca4 Ga4 Ge4'
_cell_volume   271.55240736
_cell_formula_units_Z   4
loop_
 _symmetry_equiv_pos_site_id
 _symmetry_equiv_pos_as_xyz
  1  'x, y, z'
loop_
 _atom_site_type_symbol
 _atom_site_label
 _atom_site_symmetry_multiplicity
 _atom_site_fract_x
 _atom_site_fract_y
 _atom_site_fract_z
 _atom_site_occupancy
  Ca  Ca0  1  0.00000000  0.00000000  0.25000000  1.0
  Ca  Ca1  1  0.00000000  0.00000000  0.75000000  1.0
  Ca  Ca2  1  0.00000000  0.00000000  0.50000000  1.0
  Ca  Ca3  1  0.00000000  0.00000000  0.00000000  1.0
  Ga  Ga4  1  0.33333333  0.66666667  0.34585686  1.0
  Ga  Ga5  1  0.33333333  0.66666667  0.15414314  1.0
  Ga  Ga6  1  0.66666667  0.33333333  0.84585686  1.0
  Ga  Ga7  1  0.66666667  0.33333333  0.65414314  1.0
  Ge  Ge8  1  0.33333333  0.66666667  0.88919748  1.0
  Ge  Ge9  1  0.33333333  0.66666667  0.61080252  1.0
  Ge  Ge10  1  0.66666667  0.33333333  0.38919748  1.0
  Ge  Ge11  1  0.66666667  0.33333333  0.11080252  1.0
