# generated using pymatgen
data_MnFeBiO5
_symmetry_space_group_name_H-M   'P 1'
_cell_length_a   7.62679991
_cell_length_b   8.61776483
_cell_length_c   5.71238651
_cell_angle_alpha   90.00000000
_cell_angle_beta   90.00000000
_cell_angle_gamma   90.00000000
_symmetry_Int_Tables_number   1
_chemical_formula_structural   MnFeBiO5
_chemical_formula_sum   'Mn4 Fe4 Bi4 O20'
_cell_volume   375.45213320
_cell_formula_units_Z   4
loop_
 _symmetry_equiv_pos_site_id
 _symmetry_equiv_pos_as_xyz
  1  'x, y, z'
loop_
 _atom_site_type_symbol
 _atom_site_label
 _atom_site_symmetry_multiplicity
 _atom_site_fract_x
 _atom_site_fract_y
 _atom_site_fract_z
 _atom_site_occupancy
  Mn  Mn0  1  0.40572936  0.64868898  0.00000000  1.0
  Mn  Mn1  1  0.90572936  0.85131102  0.00000000  1.0
  Mn  Mn2  1  0.59427064  0.35131102  0.00000000  1.0
  Mn  Mn3  1  0.09427064  0.14868898  0.00000000  1.0
  Fe  Fe4  1  0.50000000  0.00000000  0.76665251  1.0
  Fe  Fe5  1  0.50000000  0.00000000  0.23334749  1.0
  Fe  Fe6  1  0.00000000  0.50000000  0.76665251  1.0
  Fe  Fe7  1  0.00000000  0.50000000  0.23334749  1.0
  Bi  Bi8  1  0.15883351  0.83257168  0.50000000  1.0
  Bi  Bi9  1  0.65883351  0.66742832  0.50000000  1.0
  Bi  Bi10  1  0.84116649  0.16742832  0.50000000  1.0
  Bi  Bi11  1  0.34116649  0.33257168  0.50000000  1.0
  O  O12  1  0.15074453  0.55279882  0.50000000  1.0
  O  O13  1  0.65074453  0.94720118  0.50000000  1.0
  O  O14  1  0.84925547  0.44720118  0.50000000  1.0
  O  O15  1  0.34925547  0.05279882  0.50000000  1.0
  O  O16  1  0.50000000  0.50000000  0.78095780  1.0
  O  O17  1  0.50000000  0.50000000  0.21904220  1.0
  O  O18  1  0.00000000  0.00000000  0.78095780  1.0
  O  O19  1  0.00000000  0.00000000  0.21904220  1.0
  O  O20  1  0.15360553  0.56789012  0.00000000  1.0
  O  O21  1  0.65360553  0.93210988  0.00000000  1.0
  O  O22  1  0.84639447  0.43210988  0.00000000  1.0
  O  O23  1  0.34639447  0.06789012  0.00000000  1.0
  O  O24  1  0.39402215  0.79719015  0.75612570  1.0
  O  O25  1  0.39402215  0.79719015  0.24387430  1.0
  O  O26  1  0.89402215  0.70280985  0.75612570  1.0
  O  O27  1  0.89402215  0.70280985  0.24387430  1.0
  O  O28  1  0.60597785  0.20280985  0.75612570  1.0
  O  O29  1  0.60597785  0.20280985  0.24387430  1.0
  O  O30  1  0.10597785  0.29719015  0.75612570  1.0
  O  O31  1  0.10597785  0.29719015  0.24387430  1.0
