# generated using pymatgen
data_LiSb3O8
_symmetry_space_group_name_H-M   'P 1'
_cell_length_a   5.71404426
_cell_length_b   4.80087683
_cell_length_c   10.46310413
_cell_angle_alpha   90.00000000
_cell_angle_beta   96.36070756
_cell_angle_gamma   90.00000000
_symmetry_Int_Tables_number   1
_chemical_formula_structural   LiSb3O8
_chemical_formula_sum   'Li2 Sb6 O16'
_cell_volume   285.26138626
_cell_formula_units_Z   2
loop_
 _symmetry_equiv_pos_site_id
 _symmetry_equiv_pos_as_xyz
  1  'x, y, z'
loop_
 _atom_site_type_symbol
 _atom_site_label
 _atom_site_symmetry_multiplicity
 _atom_site_fract_x
 _atom_site_fract_y
 _atom_site_fract_z
 _atom_site_occupancy
  Li  Li0  1  0.00000000  0.50000000  0.50000000  1.0
  Li  Li1  1  0.00000000  -0.00000000  0.00000000  1.0
  Sb  Sb2  1  0.76366391  0.02484852  0.24867534  1.0
  Sb  Sb3  1  0.76366391  0.47515148  0.74867534  1.0
  Sb  Sb4  1  0.23633609  0.52484852  0.25132466  1.0
  Sb  Sb5  1  0.23633609  0.97515148  0.75132466  1.0
  Sb  Sb6  1  0.50000000  0.50000000  0.00000000  1.0
  Sb  Sb7  1  0.50000000  -0.00000000  0.50000000  1.0
  O  O8  1  0.98656471  0.31312457  0.32481688  1.0
  O  O9  1  0.98656471  0.18687543  0.82481688  1.0
  O  O10  1  0.01343529  0.81312457  0.17518312  1.0
  O  O11  1  0.01343529  0.68687543  0.67518312  1.0
  O  O12  1  0.76477228  0.83264112  0.41800797  1.0
  O  O13  1  0.76477228  0.66735888  0.91800797  1.0
  O  O14  1  0.23522772  0.33264112  0.08199203  1.0
  O  O15  1  0.23522772  0.16735888  0.58199203  1.0
  O  O16  1  0.72017178  0.20649903  0.07871034  1.0
  O  O17  1  0.72017178  0.29350097  0.57871034  1.0
  O  O18  1  0.27982822  0.70649903  0.42128966  1.0
  O  O19  1  0.27982822  0.79350097  0.92128966  1.0
  O  O20  1  0.47849724  0.21867550  0.32634554  1.0
  O  O21  1  0.47849724  0.28132450  0.82634554  1.0
  O  O22  1  0.52150276  0.71867550  0.17365446  1.0
  O  O23  1  0.52150276  0.78132450  0.67365446  1.0
