# generated using pymatgen
data_Ga9Rh2
_symmetry_space_group_name_H-M   'P 1'
_cell_length_a   6.48753217
_cell_length_b   6.46550810
_cell_length_c   8.86047355
_cell_angle_alpha   90.00000000
_cell_angle_beta   93.33857009
_cell_angle_gamma   90.00000000
_symmetry_Int_Tables_number   1
_chemical_formula_structural   Ga9Rh2
_chemical_formula_sum   'Ga18 Rh4'
_cell_volume   371.02350544
_cell_formula_units_Z   2
loop_
 _symmetry_equiv_pos_site_id
 _symmetry_equiv_pos_as_xyz
  1  'x, y, z'
loop_
 _atom_site_type_symbol
 _atom_site_label
 _atom_site_symmetry_multiplicity
 _atom_site_fract_x
 _atom_site_fract_y
 _atom_site_fract_z
 _atom_site_occupancy
  Ga  Ga0  1  -0.00685337  0.97553875  0.50263141  1.0
  Ga  Ga1  1  -0.00685337  0.02446125  0.00263141  1.0
  Ga  Ga2  1  0.91206810  0.37033085  0.17267715  1.0
  Ga  Ga3  1  0.91206810  0.62966915  0.67267715  1.0
  Ga  Ga4  1  0.71768953  0.94444681  0.21821145  1.0
  Ga  Ga5  1  0.71768953  0.05555319  0.71821145  1.0
  Ga  Ga6  1  0.69899607  0.73916187  0.93876256  1.0
  Ga  Ga7  1  0.69899607  0.26083813  0.43876256  1.0
  Ga  Ga8  1  0.50460519  0.76149068  0.48389400  1.0
  Ga  Ga9  1  0.50460519  0.23850932  0.98389400  1.0
  Ga  Ga10  1  0.50906469  0.55408962  0.20373016  1.0
  Ga  Ga11  1  0.50906469  0.44591038  0.70373016  1.0
  Ga  Ga12  1  0.31967290  0.83667397  0.75270597  1.0
  Ga  Ga13  1  0.31967290  0.16332603  0.25270597  1.0
  Ga  Ga14  1  0.18706892  0.44582854  0.45320226  1.0
  Ga  Ga15  1  0.18706892  0.55417146  0.95320226  1.0
  Ga  Ga16  1  0.15044335  0.76729000  0.26122608  1.0
  Ga  Ga17  1  0.15044335  0.23271000  0.76122608  1.0
  Rh  Rh18  1  0.84248745  0.62383979  0.38514864  1.0
  Rh  Rh19  1  0.84248745  0.37616021  0.88514864  1.0
  Rh  Rh20  1  0.36085716  0.88066954  0.04751032  1.0
  Rh  Rh21  1  0.36085716  0.11933046  0.54751032  1.0
