# generated using pymatgen
data_LuSeI
_symmetry_space_group_name_H-M   'P 1'
_cell_length_a   4.13242219
_cell_length_b   6.12399647
_cell_length_c   8.54287304
_cell_angle_alpha   90.00000000
_cell_angle_beta   90.00000000
_cell_angle_gamma   90.00000000
_symmetry_Int_Tables_number   1
_chemical_formula_structural   LuSeI
_chemical_formula_sum   'Lu2 Se2 I2'
_cell_volume   216.19396635
_cell_formula_units_Z   2
loop_
 _symmetry_equiv_pos_site_id
 _symmetry_equiv_pos_as_xyz
  1  'x, y, z'
loop_
 _atom_site_type_symbol
 _atom_site_label
 _atom_site_symmetry_multiplicity
 _atom_site_fract_x
 _atom_site_fract_y
 _atom_site_fract_z
 _atom_site_occupancy
  Lu  Lu0  1  0.00000000  0.50000000  0.19595968  1.0
  Lu  Lu1  1  0.50000000  0.00000000  0.80404032  1.0
  Se  Se2  1  0.00000000  0.00000000  0.62044475  1.0
  Se  Se3  1  0.50000000  0.50000000  0.37955525  1.0
  I  I4  1  0.00000000  0.00000000  0.10188898  1.0
  I  I5  1  0.50000000  0.50000000  0.89811102  1.0
