# generated using pymatgen
data_CsGaBP2HO9
_symmetry_space_group_name_H-M   'P 1'
_cell_length_a   9.48802665
_cell_length_b   8.86519089
_cell_length_c   9.76703455
_cell_angle_alpha   90.00000000
_cell_angle_beta   104.51795514
_cell_angle_gamma   90.00000000
_symmetry_Int_Tables_number   1
_chemical_formula_structural   CsGaBP2HO9
_chemical_formula_sum   'Cs4 Ga4 B4 P8 H4 O36'
_cell_volume   795.30384579
_cell_formula_units_Z   4
loop_
 _symmetry_equiv_pos_site_id
 _symmetry_equiv_pos_as_xyz
  1  'x, y, z'
loop_
 _atom_site_type_symbol
 _atom_site_label
 _atom_site_symmetry_multiplicity
 _atom_site_fract_x
 _atom_site_fract_y
 _atom_site_fract_z
 _atom_site_occupancy
  Cs  Cs0  1  0.69698968  0.38166081  0.55859272  1.0
  Cs  Cs1  1  0.69698968  0.11833919  0.05859272  1.0
  Cs  Cs2  1  0.30301032  0.88166081  0.94140728  1.0
  Cs  Cs3  1  0.30301032  0.61833919  0.44140728  1.0
  Ga  Ga4  1  0.69464049  0.84094479  0.43369536  1.0
  Ga  Ga5  1  0.69464049  0.65905521  0.93369536  1.0
  Ga  Ga6  1  0.30535951  0.34094479  0.06630464  1.0
  Ga  Ga7  1  0.30535951  0.15905521  0.56630464  1.0
  B  B8  1  0.84386931  0.46730789  0.20115581  1.0
  B  B9  1  0.84386931  0.03269211  0.70115581  1.0
  B  B10  1  0.15613069  0.96730789  0.29884419  1.0
  B  B11  1  0.15613069  0.53269211  0.79884419  1.0
  P  P12  1  0.57175194  0.56935975  0.20562105  1.0
  P  P13  1  0.57175194  0.93064025  0.70562105  1.0
  P  P14  1  0.42824806  0.06935975  0.29437895  1.0
  P  P15  1  0.42824806  0.43064025  0.79437895  1.0
  P  P16  1  0.91375235  0.77366621  0.22250824  1.0
  P  P17  1  0.91375235  0.72633379  0.72250824  1.0
  P  P18  1  0.08624765  0.27366621  0.27749176  1.0
  P  P19  1  0.08624765  0.22633379  0.77749176  1.0
  H  H20  1  0.89471969  0.45873236  1.00570813  1.0
  H  H21  1  0.89471969  0.04126764  0.50570813  1.0
  H  H22  1  0.10528031  0.95873236  0.49429187  1.0
  H  H23  1  0.10528031  0.54126764  -0.00570813  1.0
  O  O24  1  0.57013494  0.98111467  0.30420674  1.0
  O  O25  1  0.57013494  0.51888533  0.80420674  1.0
  O  O26  1  0.42986506  0.48111467  0.19579326  1.0
  O  O27  1  0.42986506  0.01888533  0.69579326  1.0
  O  O28  1  0.57215622  0.66013525  0.07125855  1.0
  O  O29  1  0.57215622  0.83986475  0.57125855  1.0
  O  O30  1  0.42784378  0.16013525  0.42874145  1.0
  O  O31  1  0.42784378  0.33986475  0.92874145  1.0
  O  O32  1  0.59079039  0.66781247  0.33973724  1.0
  O  O33  1  0.59079039  0.83218753  0.83973724  1.0
  O  O34  1  0.40920961  0.16781247  0.16026276  1.0
  O  O35  1  0.40920961  0.33218753  0.66026276  1.0
  O  O36  1  0.70335530  0.45161278  0.23629467  1.0
  O  O37  1  0.70335530  0.04838722  0.73629467  1.0
  O  O38  1  0.29664470  0.95161278  0.26370533  1.0
  O  O39  1  0.29664470  0.54838722  0.76370533  1.0
  O  O40  1  0.81001263  0.47266072  0.04323337  1.0
  O  O41  1  0.81001263  0.02733928  0.54323337  1.0
  O  O42  1  0.18998737  0.97266072  0.45676663  1.0
  O  O43  1  0.18998737  0.52733928  0.95676663  1.0
  O  O44  1  0.84415273  0.86565515  0.32182535  1.0
  O  O45  1  0.84415273  0.63434485  0.82182535  1.0
  O  O46  1  0.15584727  0.36565515  0.17817465  1.0
  O  O47  1  0.15584727  0.13434485  0.67817465  1.0
  O  O48  1  0.83658244  0.79220313  0.06558772  1.0
  O  O49  1  0.83658244  0.70779687  0.56558772  1.0
  O  O50  1  0.16341756  0.29220313  0.43441228  1.0
  O  O51  1  0.16341756  0.20779687  0.93441228  1.0
  O  O52  1  0.92949712  0.60149886  0.26566089  1.0
  O  O53  1  0.92949712  0.89850114  0.76566089  1.0
  O  O54  1  0.07050288  0.10149886  0.23433911  1.0
  O  O55  1  0.07050288  0.39850114  0.73433911  1.0
  O  O56  1  0.07631045  0.82809185  0.24545605  1.0
  O  O57  1  0.07631045  0.67190815  0.74545605  1.0
  O  O58  1  0.92368955  0.32809185  0.25454395  1.0
  O  O59  1  0.92368955  0.17190815  0.75454395  1.0
