# generated using pymatgen
data_SrLiGaF6
_symmetry_space_group_name_H-M   'P 1'
_cell_length_a   5.23794736
_cell_length_b   5.23794736
_cell_length_c   10.47570965
_cell_angle_alpha   90.00000000
_cell_angle_beta   90.00000000
_cell_angle_gamma   120.00000000
_symmetry_Int_Tables_number   1
_chemical_formula_structural   SrLiGaF6
_chemical_formula_sum   'Sr2 Li2 Ga2 F12'
_cell_volume   248.90656006
_cell_formula_units_Z   2
loop_
 _symmetry_equiv_pos_site_id
 _symmetry_equiv_pos_as_xyz
  1  'x, y, z'
loop_
 _atom_site_type_symbol
 _atom_site_label
 _atom_site_symmetry_multiplicity
 _atom_site_fract_x
 _atom_site_fract_y
 _atom_site_fract_z
 _atom_site_occupancy
  Sr  Sr0  1  -0.00000000  -0.00000000  0.00000000  1.0
  Sr  Sr1  1  -0.00000000  -0.00000000  0.50000000  1.0
  Li  Li2  1  0.66666667  0.33333333  0.25000000  1.0
  Li  Li3  1  0.33333333  0.66666667  0.75000000  1.0
  Ga  Ga4  1  0.33333333  0.66666667  0.25000000  1.0
  Ga  Ga5  1  0.66666667  0.33333333  0.75000000  1.0
  F  F6  1  0.35845459  0.98121896  0.14559562  1.0
  F  F7  1  0.35845459  0.37723563  0.35440438  1.0
  F  F8  1  0.98121896  0.35845459  0.64559562  1.0
  F  F9  1  0.98121896  0.62276437  0.85440438  1.0
  F  F10  1  0.62276437  0.98121896  0.35440438  1.0
  F  F11  1  0.62276437  0.64154541  0.14559562  1.0
  F  F12  1  0.01878104  0.64154541  0.35440438  1.0
  F  F13  1  0.01878104  0.37723563  0.14559562  1.0
  F  F14  1  0.64154541  0.62276437  0.64559562  1.0
  F  F15  1  0.64154541  0.01878104  0.85440438  1.0
  F  F16  1  0.37723563  0.35845459  0.85440438  1.0
  F  F17  1  0.37723563  0.01878104  0.64559562  1.0
