# generated using pymatgen
data_LiInP2O7
_symmetry_space_group_name_H-M   'P 1'
_cell_length_a   4.99922045
_cell_length_b   8.61438707
_cell_length_c   7.15988044
_cell_angle_alpha   90.00000000
_cell_angle_beta   108.92280958
_cell_angle_gamma   90.00000000
_symmetry_Int_Tables_number   1
_chemical_formula_structural   LiInP2O7
_chemical_formula_sum   'Li2 In2 P4 O14'
_cell_volume   291.67790337
_cell_formula_units_Z   2
loop_
 _symmetry_equiv_pos_site_id
 _symmetry_equiv_pos_as_xyz
  1  'x, y, z'
loop_
 _atom_site_type_symbol
 _atom_site_label
 _atom_site_symmetry_multiplicity
 _atom_site_fract_x
 _atom_site_fract_y
 _atom_site_fract_z
 _atom_site_occupancy
  Li  Li0  1  0.81241506  0.53826640  0.83830420  1.0
  Li  Li1  1  0.18758494  0.03826640  0.16169580  1.0
  In  In2  1  0.78772874  0.18440301  0.76850240  1.0
  In  In3  1  0.21227126  0.68440301  0.23149760  1.0
  P  P4  1  0.78617896  0.47299256  0.42171399  1.0
  P  P5  1  0.21382104  0.97299256  0.57828601  1.0
  P  P6  1  0.59963582  0.86437617  0.96625495  1.0
  P  P7  1  0.40036418  0.36437617  0.03374505  1.0
  O  O8  1  0.94839929  0.00128853  0.63420083  1.0
  O  O9  1  0.05160071  0.50128853  0.36579917  1.0
  O  O10  1  0.85477280  0.39196729  0.62372847  1.0
  O  O11  1  0.14522720  0.89196729  0.37627153  1.0
  O  O12  1  0.76888540  0.01727699  0.99482833  1.0
  O  O13  1  0.23111460  0.51727699  0.00517167  1.0
  O  O14  1  0.58651772  0.34830110  0.26568132  1.0
  O  O15  1  0.41348228  0.84830110  0.73431868  1.0
  O  O16  1  0.60518903  0.36521754  0.91322318  1.0
  O  O17  1  0.39481097  0.86521754  0.08677682  1.0
  O  O18  1  0.38069774  0.12258623  0.57792164  1.0
  O  O19  1  0.61930226  0.62258623  0.42207836  1.0
  O  O20  1  0.20723045  0.22002418  0.99711202  1.0
  O  O21  1  0.79276955  0.72002418  0.00288798  1.0
