# generated using pymatgen
data_Sn4P6N12O
_symmetry_space_group_name_H-M   'P 1'
_cell_length_a   7.54345528
_cell_length_b   7.54345528
_cell_length_c   7.54345528
_cell_angle_alpha   109.47122063
_cell_angle_beta   109.47122063
_cell_angle_gamma   109.47122063
_symmetry_Int_Tables_number   1
_chemical_formula_structural   Sn4P6N12O
_chemical_formula_sum   'Sn4 P6 N12 O1'
_cell_volume   330.43730327
_cell_formula_units_Z   1
loop_
 _symmetry_equiv_pos_site_id
 _symmetry_equiv_pos_as_xyz
  1  'x, y, z'
loop_
 _atom_site_type_symbol
 _atom_site_label
 _atom_site_symmetry_multiplicity
 _atom_site_fract_x
 _atom_site_fract_y
 _atom_site_fract_z
 _atom_site_occupancy
  Sn  Sn0  1  0.68331871  0.68331871  0.68331871  1.0
  Sn  Sn1  1  1.00000000  1.00000000  0.31668129  1.0
  Sn  Sn2  1  1.00000000  0.31668129  1.00000000  1.0
  Sn  Sn3  1  0.31668129  1.00000000  1.00000000  1.0
  P  P4  1  0.75000000  0.50000000  0.25000000  1.0
  P  P5  1  0.25000000  0.75000000  0.50000000  1.0
  P  P6  1  0.50000000  0.25000000  0.75000000  1.0
  P  P7  1  0.50000000  0.75000000  0.25000000  1.0
  P  P8  1  0.75000000  0.25000000  0.50000000  1.0
  P  P9  1  0.25000000  0.50000000  0.75000000  1.0
  N  N10  1  0.70276048  0.40822244  0.40822244  1.0
  N  N11  1  0.40822244  0.70276048  0.40822244  1.0
  N  N12  1  0.40822244  0.40822244  0.70276048  1.0
  N  N13  1  1.00000000  1.29453804  0.59177756  1.0
  N  N14  1  1.29453804  1.00000000  0.59177756  1.0
  N  N15  1  0.70546196  0.70546196  0.29723952  1.0
  N  N16  1  1.00000000  0.59177756  1.29453804  1.0
  N  N17  1  0.70546196  0.29723952  0.70546196  1.0
  N  N18  1  1.29453804  0.59177756  1.00000000  1.0
  N  N19  1  0.29723952  0.70546196  0.70546196  1.0
  N  N20  1  0.59177756  1.00000000  1.29453804  1.0
  N  N21  1  0.59177756  1.29453804  1.00000000  1.0
  O  O22  1  -0.00000000  -0.00000000  -0.00000000  1.0
