# generated using pymatgen
data_K4P2O7
_symmetry_space_group_name_H-M   'P 1'
_cell_length_a   6.00246003
_cell_length_b   6.00246003
_cell_length_c   15.07351211
_cell_angle_alpha   90.00000000
_cell_angle_beta   90.00000000
_cell_angle_gamma   120.00000000
_symmetry_Int_Tables_number   1
_chemical_formula_structural   K4P2O7
_chemical_formula_sum   'K8 P4 O14'
_cell_volume   470.33103719
_cell_formula_units_Z   2
loop_
 _symmetry_equiv_pos_site_id
 _symmetry_equiv_pos_as_xyz
  1  'x, y, z'
loop_
 _atom_site_type_symbol
 _atom_site_label
 _atom_site_symmetry_multiplicity
 _atom_site_fract_x
 _atom_site_fract_y
 _atom_site_fract_z
 _atom_site_occupancy
  K  K0  1  0.33333333  0.66666667  0.91867835  1.0
  K  K1  1  0.33333333  0.66666667  0.58132165  1.0
  K  K2  1  0.66666667  0.33333333  0.41867835  1.0
  K  K3  1  0.66666667  0.33333333  0.08132165  1.0
  K  K4  1  0.00000000  0.00000000  0.25000000  1.0
  K  K5  1  0.00000000  0.00000000  0.75000000  1.0
  K  K6  1  0.00000000  0.00000000  0.50000000  1.0
  K  K7  1  0.00000000  0.00000000  0.00000000  1.0
  P  P8  1  0.33333333  0.66666667  0.35789431  1.0
  P  P9  1  0.33333333  0.66666667  0.14210569  1.0
  P  P10  1  0.66666667  0.33333333  0.85789431  1.0
  P  P11  1  0.66666667  0.33333333  0.64210569  1.0
  O  O12  1  0.19104992  0.80895008  0.38619060  1.0
  O  O13  1  0.19104992  0.80895008  0.11380940  1.0
  O  O14  1  0.19104992  0.38209983  0.38619060  1.0
  O  O15  1  0.19104992  0.38209983  0.11380940  1.0
  O  O16  1  0.80895008  0.19104992  0.88619060  1.0
  O  O17  1  0.80895008  0.19104992  0.61380940  1.0
  O  O18  1  0.80895008  0.61790017  0.88619060  1.0
  O  O19  1  0.80895008  0.61790017  0.61380940  1.0
  O  O20  1  0.61790017  0.80895008  0.38619060  1.0
  O  O21  1  0.61790017  0.80895008  0.11380940  1.0
  O  O22  1  0.38209983  0.19104992  0.88619060  1.0
  O  O23  1  0.38209983  0.19104992  0.61380940  1.0
  O  O24  1  0.33333333  0.66666667  0.25000000  1.0
  O  O25  1  0.66666667  0.33333333  0.75000000  1.0
