# generated using pymatgen
data_H10C3NClO
_symmetry_space_group_name_H-M   'P 1'
_cell_length_a   13.97935566
_cell_length_b   7.83858989
_cell_length_c   5.88834289
_cell_angle_alpha   90.00000000
_cell_angle_beta   90.00000000
_cell_angle_gamma   90.00000000
_symmetry_Int_Tables_number   1
_chemical_formula_structural   H10C3NClO
_chemical_formula_sum   'H40 C12 N4 Cl4 O4'
_cell_volume   645.23540524
_cell_formula_units_Z   4
loop_
 _symmetry_equiv_pos_site_id
 _symmetry_equiv_pos_as_xyz
  1  'x, y, z'
loop_
 _atom_site_type_symbol
 _atom_site_label
 _atom_site_symmetry_multiplicity
 _atom_site_fract_x
 _atom_site_fract_y
 _atom_site_fract_z
 _atom_site_occupancy
  H  H0  1  0.20996724  0.75000000  0.51767239  1.0
  H  H1  1  0.70996724  0.75000000  0.98232761  1.0
  H  H2  1  0.79003276  0.25000000  0.48232761  1.0
  H  H3  1  0.29003276  0.25000000  0.01767239  1.0
  H  H4  1  0.35403132  0.48189874  0.47345126  1.0
  H  H5  1  0.85403132  0.01810126  0.02654874  1.0
  H  H6  1  0.64596868  0.98189874  0.52654874  1.0
  H  H7  1  0.14596868  0.51810126  0.97345126  1.0
  H  H8  1  0.64596868  0.51810126  0.52654874  1.0
  H  H9  1  0.14596868  0.98189874  0.97345126  1.0
  H  H10  1  0.35403132  0.01810126  0.47345126  1.0
  H  H11  1  0.85403132  0.48189874  0.02654874  1.0
  H  H12  1  0.29347241  0.59335479  0.24692883  1.0
  H  H13  1  0.79347241  0.90664521  0.25307117  1.0
  H  H14  1  0.70652759  0.09335479  0.75307117  1.0
  H  H15  1  0.20652759  0.40664521  0.74692883  1.0
  H  H16  1  0.70652759  0.40664521  0.75307117  1.0
  H  H17  1  0.20652759  0.09335479  0.74692883  1.0
  H  H18  1  0.29347241  0.90664521  0.24692883  1.0
  H  H19  1  0.79347241  0.59335479  0.25307117  1.0
  H  H20  1  0.42259519  0.59707744  0.26287561  1.0
  H  H21  1  0.92259519  0.90292256  0.23712439  1.0
  H  H22  1  0.57740481  0.09707744  0.73712439  1.0
  H  H23  1  0.07740481  0.40292256  0.76287561  1.0
  H  H24  1  0.57740481  0.40292256  0.73712439  1.0
  H  H25  1  0.07740481  0.09707744  0.76287561  1.0
  H  H26  1  0.42259519  0.90292256  0.26287561  1.0
  H  H27  1  0.92259519  0.59707744  0.23712439  1.0
  H  H28  1  0.49785950  0.75000000  0.58064286  1.0
  H  H29  1  0.99785950  0.75000000  0.91935714  1.0
  H  H30  1  0.50214050  0.25000000  0.41935714  1.0
  H  H31  1  0.00214050  0.25000000  0.08064286  1.0
  H  H32  1  0.42303978  0.63441845  0.77755518  1.0
  H  H33  1  0.92303978  0.86558155  0.72244482  1.0
  H  H34  1  0.57696022  0.13441845  0.22244482  1.0
  H  H35  1  0.07696022  0.36558155  0.27755518  1.0
  H  H36  1  0.57696022  0.36558155  0.22244482  1.0
  H  H37  1  0.07696022  0.13441845  0.27755518  1.0
  H  H38  1  0.42303978  0.86558155  0.77755518  1.0
  H  H39  1  0.92303978  0.63441845  0.72244482  1.0
  C  C40  1  0.35560193  0.59255811  0.35980512  1.0
  C  C41  1  0.85560193  0.90744189  0.14019488  1.0
  C  C42  1  0.64439807  0.09255811  0.64019488  1.0
  C  C43  1  0.14439807  0.40744189  0.85980512  1.0
  C  C44  1  0.64439807  0.40744189  0.64019488  1.0
  C  C45  1  0.14439807  0.09255811  0.85980512  1.0
  C  C46  1  0.35560193  0.90744189  0.35980512  1.0
  C  C47  1  0.85560193  0.59255811  0.14019488  1.0
  C  C48  1  0.43017482  0.75000000  0.67472418  1.0
  C  C49  1  0.93017482  0.75000000  0.82527582  1.0
  C  C50  1  0.56982518  0.25000000  0.32527582  1.0
  C  C51  1  0.06982518  0.25000000  0.17472418  1.0
  N  N52  1  0.35133000  0.75000000  0.50357107  1.0
  N  N53  1  0.85133000  0.75000000  0.99642893  1.0
  N  N54  1  0.64867000  0.25000000  0.49642893  1.0
  N  N55  1  0.14867000  0.25000000  0.00357107  1.0
  Cl  Cl56  1  0.10139269  0.75000000  0.31628757  1.0
  Cl  Cl57  1  0.60139269  0.75000000  0.18371243  1.0
  Cl  Cl58  1  0.89860731  0.25000000  0.68371243  1.0
  Cl  Cl59  1  0.39860731  0.25000000  0.81628757  1.0
  O  O60  1  0.26515681  0.75000000  0.63366155  1.0
  O  O61  1  0.76515681  0.75000000  0.86633845  1.0
  O  O62  1  0.73484319  0.25000000  0.36633845  1.0
  O  O63  1  0.23484319  0.25000000  0.13366155  1.0
