# generated using pymatgen
data_SnBrCl
_symmetry_space_group_name_H-M   'P 1'
_cell_length_a   8.73117194
_cell_length_b   4.23659078
_cell_length_c   10.63520885
_cell_angle_alpha   90.00000000
_cell_angle_beta   90.00000000
_cell_angle_gamma   90.00000000
_symmetry_Int_Tables_number   1
_chemical_formula_structural   SnBrCl
_chemical_formula_sum   'Sn4 Br4 Cl4'
_cell_volume   393.40065611
_cell_formula_units_Z   4
loop_
 _symmetry_equiv_pos_site_id
 _symmetry_equiv_pos_as_xyz
  1  'x, y, z'
loop_
 _atom_site_type_symbol
 _atom_site_label
 _atom_site_symmetry_multiplicity
 _atom_site_fract_x
 _atom_site_fract_y
 _atom_site_fract_z
 _atom_site_occupancy
  Sn  Sn0  1  0.88706902  0.75000000  0.15730942  1.0
  Sn  Sn1  1  0.38706902  0.75000000  0.34269058  1.0
  Sn  Sn2  1  0.11293098  0.25000000  0.84269058  1.0
  Sn  Sn3  1  0.61293098  0.25000000  0.65730942  1.0
  Br  Br4  1  0.98350094  0.75000000  0.69123921  1.0
  Br  Br5  1  0.48350094  0.75000000  0.80876079  1.0
  Br  Br6  1  0.01649906  0.25000000  0.30876079  1.0
  Br  Br7  1  0.51649906  0.25000000  0.19123921  1.0
  Cl  Cl8  1  0.65484301  0.75000000  0.45596663  1.0
  Cl  Cl9  1  0.15484301  0.75000000  0.04403337  1.0
  Cl  Cl10  1  0.34515699  0.25000000  0.54403337  1.0
  Cl  Cl11  1  0.84515699  0.25000000  0.95596663  1.0
