# generated using pymatgen
data_BaTaS3
_symmetry_space_group_name_H-M   'P 1'
_cell_length_a   6.93149158
_cell_length_b   6.93149158
_cell_length_c   5.72260978
_cell_angle_alpha   90.00000000
_cell_angle_beta   90.00000000
_cell_angle_gamma   120.00000000
_symmetry_Int_Tables_number   1
_chemical_formula_structural   BaTaS3
_chemical_formula_sum   'Ba2 Ta2 S6'
_cell_volume   238.11029022
_cell_formula_units_Z   2
loop_
 _symmetry_equiv_pos_site_id
 _symmetry_equiv_pos_as_xyz
  1  'x, y, z'
loop_
 _atom_site_type_symbol
 _atom_site_label
 _atom_site_symmetry_multiplicity
 _atom_site_fract_x
 _atom_site_fract_y
 _atom_site_fract_z
 _atom_site_occupancy
  Ba  Ba0  1  0.33333333  0.66666667  0.75000000  1.0
  Ba  Ba1  1  0.66666667  0.33333333  0.25000000  1.0
  Ta  Ta2  1  0.00000000  0.00000000  0.50000000  1.0
  Ta  Ta3  1  0.00000000  0.00000000  -0.00000000  1.0
  S  S4  1  0.17003030  0.82996970  0.25000000  1.0
  S  S5  1  0.17003030  0.34006060  0.25000000  1.0
  S  S6  1  0.82996970  0.17003030  0.75000000  1.0
  S  S7  1  0.82996970  0.65993940  0.75000000  1.0
  S  S8  1  0.65993940  0.82996970  0.25000000  1.0
  S  S9  1  0.34006060  0.17003030  0.75000000  1.0
