# generated using pymatgen
data_In3Au10
_symmetry_space_group_name_H-M   'P 1'
_cell_length_a   10.70550233
_cell_length_b   10.70550233
_cell_length_c   4.91317082
_cell_angle_alpha   90.00000000
_cell_angle_beta   90.00000000
_cell_angle_gamma   120.00000000
_symmetry_Int_Tables_number   1
_chemical_formula_structural   In3Au10
_chemical_formula_sum   'In6 Au20'
_cell_volume   487.64816794
_cell_formula_units_Z   2
loop_
 _symmetry_equiv_pos_site_id
 _symmetry_equiv_pos_as_xyz
  1  'x, y, z'
loop_
 _atom_site_type_symbol
 _atom_site_label
 _atom_site_symmetry_multiplicity
 _atom_site_fract_x
 _atom_site_fract_y
 _atom_site_fract_z
 _atom_site_occupancy
  In  In0  1  0.10403939  0.74161489  0.25000000  1.0
  In  In1  1  0.74161489  0.63757550  0.75000000  1.0
  In  In2  1  0.63757550  0.89596061  0.25000000  1.0
  In  In3  1  0.25838511  0.36242450  0.25000000  1.0
  In  In4  1  0.89596061  0.25838511  0.75000000  1.0
  In  In5  1  0.36242450  0.10403939  0.75000000  1.0
  Au  Au6  1  0.41135938  0.97660104  0.25000000  1.0
  Au  Au7  1  0.97660104  0.56524166  0.75000000  1.0
  Au  Au8  1  0.56524166  0.58864062  0.25000000  1.0
  Au  Au9  1  0.02339896  0.43475834  0.25000000  1.0
  Au  Au10  1  0.58864062  0.02339896  0.75000000  1.0
  Au  Au11  1  0.43475834  0.41135938  0.75000000  1.0
  Au  Au12  1  0.87329127  0.82210976  0.25000000  1.0
  Au  Au13  1  0.82210976  0.94881848  0.75000000  1.0
  Au  Au14  1  0.94881848  0.12670873  0.25000000  1.0
  Au  Au15  1  0.17789024  0.05118152  0.25000000  1.0
  Au  Au16  1  0.12670873  0.17789024  0.75000000  1.0
  Au  Au17  1  0.05118152  0.87329127  0.75000000  1.0
  Au  Au18  1  0.79223519  0.51357372  0.25000000  1.0
  Au  Au19  1  0.51357372  0.72133853  0.75000000  1.0
  Au  Au20  1  0.72133853  0.20776481  0.25000000  1.0
  Au  Au21  1  0.48642628  0.27866147  0.25000000  1.0
  Au  Au22  1  0.20776481  0.48642628  0.75000000  1.0
  Au  Au23  1  0.27866147  0.79223519  0.75000000  1.0
  Au  Au24  1  0.33333333  0.66666667  0.25000000  1.0
  Au  Au25  1  0.66666667  0.33333333  0.75000000  1.0
