# generated using pymatgen
data_Ta3As
_symmetry_space_group_name_H-M   'P 1'
_cell_length_a   7.82140269
_cell_length_b   7.82140269
_cell_length_c   14.62497000
_cell_angle_alpha   89.37774437
_cell_angle_beta   90.62225563
_cell_angle_gamma   141.70388519
_symmetry_Int_Tables_number   1
_chemical_formula_structural   Ta3As
_chemical_formula_sum   'Ta24 As8'
_cell_volume   554.41524500
_cell_formula_units_Z   8
loop_
 _symmetry_equiv_pos_site_id
 _symmetry_equiv_pos_as_xyz
  1  'x, y, z'
loop_
 _atom_site_type_symbol
 _atom_site_label
 _atom_site_symmetry_multiplicity
 _atom_site_fract_x
 _atom_site_fract_y
 _atom_site_fract_z
 _atom_site_occupancy
  Ta  Ta0  1  0.59510468  -0.08763071  0.49565887  1.0
  Ta  Ta1  1  1.08763071  0.40489532  0.99565887  1.0
  Ta  Ta2  1  0.91236929  0.59510468  0.00434113  1.0
  Ta  Ta3  1  0.40489532  0.08763071  0.50434113  1.0
  Ta  Ta4  1  0.70097146  -0.20194806  0.99419479  1.0
  Ta  Ta5  1  1.20194806  0.29902854  0.49419479  1.0
  Ta  Ta6  1  0.79805194  0.70097146  0.50580521  1.0
  Ta  Ta7  1  0.29902854  0.20194806  0.00580521  1.0
  Ta  Ta8  1  0.51673184  0.00128269  0.70222626  1.0
  Ta  Ta9  1  0.99871731  0.48326816  0.20222626  1.0
  Ta  Ta10  1  1.00128269  0.51673184  0.79777374  1.0
  Ta  Ta11  1  0.48326816  -0.00128269  0.29777374  1.0
  Ta  Ta12  1  0.47623605  -0.01822681  0.90914504  1.0
  Ta  Ta13  1  1.01822681  0.52376395  0.40914504  1.0
  Ta  Ta14  1  0.98177319  0.47623605  0.59085496  1.0
  Ta  Ta15  1  0.52376395  0.01822681  0.09085496  1.0
  Ta  Ta16  1  0.56355164  0.41509680  0.67709030  1.0
  Ta  Ta17  1  0.58490320  0.43644836  0.17709030  1.0
  Ta  Ta18  1  1.41509680  0.56355164  0.82290970  1.0
  Ta  Ta19  1  0.43644836  -0.41509680  0.32290970  1.0
  Ta  Ta20  1  0.06730260  -0.06585559  0.82937811  1.0
  Ta  Ta21  1  1.06585559  0.93269740  0.32937811  1.0
  Ta  Ta22  1  0.93414441  0.06730260  0.67062189  1.0
  Ta  Ta23  1  0.93269740  0.06585559  0.17062189  1.0
  As  As24  1  0.87224831  0.09993427  0.84393206  1.0
  As  As25  1  0.90006573  0.12775169  0.34393206  1.0
  As  As26  1  1.09993427  0.87224831  0.65606794  1.0
  As  As27  1  0.12775169  -0.09993427  0.15606794  1.0
  As  As28  1  0.59940985  0.39795575  0.85885705  1.0
  As  As29  1  0.60204425  0.40059015  0.35885705  1.0
  As  As30  1  1.39795575  0.59940985  0.64114295  1.0
  As  As31  1  0.40059015  -0.39795575  0.14114295  1.0
