# generated using pymatgen
data_Re3B
_symmetry_space_group_name_H-M   'P 1'
_cell_length_a   4.91393685
_cell_length_b   4.91393685
_cell_length_c   7.33132016
_cell_angle_alpha   90.00000000
_cell_angle_beta   90.00000000
_cell_angle_gamma   145.65613141
_symmetry_Int_Tables_number   1
_chemical_formula_structural   Re3B
_chemical_formula_sum   'Re6 B2'
_cell_volume   99.87168484
_cell_formula_units_Z   2
loop_
 _symmetry_equiv_pos_site_id
 _symmetry_equiv_pos_as_xyz
  1  'x, y, z'
loop_
 _atom_site_type_symbol
 _atom_site_label
 _atom_site_symmetry_multiplicity
 _atom_site_fract_x
 _atom_site_fract_y
 _atom_site_fract_z
 _atom_site_occupancy
  Re  Re0  1  0.42389719  0.57610281  0.75000000  1.0
  Re  Re1  1  -0.42389719  0.42389719  0.25000000  1.0
  Re  Re2  1  0.13306626  0.86693374  0.93451408  1.0
  Re  Re3  1  0.13306626  0.86693374  0.56548592  1.0
  Re  Re4  1  -0.13306626  0.13306626  0.43451408  1.0
  Re  Re5  1  -0.13306626  0.13306626  0.06548592  1.0
  B  B6  1  -0.25475547  0.25475547  0.75000000  1.0
  B  B7  1  0.25475547  0.74524453  0.25000000  1.0
