# generated using pymatgen
data_Ca2CuH6(CO2)6
_symmetry_space_group_name_H-M   'P 1'
_cell_length_a   12.26070988
_cell_length_b   12.26070988
_cell_length_c   6.54997775
_cell_angle_alpha   81.67289583
_cell_angle_beta   98.32710417
_cell_angle_gamma   137.64604599
_symmetry_Int_Tables_number   1
_chemical_formula_structural   Ca2CuH6(CO2)6
_chemical_formula_sum   'Ca4 Cu2 H12 C12 O24'
_cell_volume   655.30121509
_cell_formula_units_Z   2
loop_
 _symmetry_equiv_pos_site_id
 _symmetry_equiv_pos_as_xyz
  1  'x, y, z'
loop_
 _atom_site_type_symbol
 _atom_site_label
 _atom_site_symmetry_multiplicity
 _atom_site_fract_x
 _atom_site_fract_y
 _atom_site_fract_z
 _atom_site_occupancy
  Ca  Ca0  1  0.52821954  0.20919140  0.44135249  1.0
  Ca  Ca1  1  1.20919140  0.52821954  0.05864751  1.0
  Ca  Ca2  1  0.47178046  -0.20919140  0.55864751  1.0
  Ca  Ca3  1  0.79080860  0.47178046  0.94135249  1.0
  Cu  Cu4  1  0.09684865  0.09684865  0.25000000  1.0
  Cu  Cu5  1  0.90315135  0.90315135  0.75000000  1.0
  H  H6  1  1.10463177  0.86641758  0.36104393  1.0
  H  H7  1  0.86641758  0.10463177  0.13895607  1.0
  H  H8  1  0.89536823  0.13358242  0.63895607  1.0
  H  H9  1  0.13358242  -0.10463177  0.86104393  1.0
  H  H10  1  0.68955199  0.63869107  0.44199375  1.0
  H  H11  1  0.63869107  -0.31044801  0.05800625  1.0
  H  H12  1  1.31044801  0.36130893  0.55800625  1.0
  H  H13  1  0.36130893  0.31044801  0.94199375  1.0
  H  H14  1  0.68818469  0.12025987  0.99282035  1.0
  H  H15  1  1.12025987  0.68818469  0.50717965  1.0
  H  H16  1  0.31181531  -0.12025987  0.00717965  1.0
  H  H17  1  0.87974013  0.31181531  0.49282035  1.0
  C  C18  1  1.01562933  0.81229711  0.22685516  1.0
  C  C19  1  0.81229711  0.01562933  0.27314484  1.0
  C  C20  1  0.98437067  0.18770289  0.77314484  1.0
  C  C21  1  0.18770289  -0.01562933  0.72685516  1.0
  C  C22  1  0.71255283  0.59160001  0.57810548  1.0
  C  C23  1  0.59160001  -0.28744717  0.92189452  1.0
  C  C24  1  1.28744717  0.40839999  0.42189452  1.0
  C  C25  1  0.40839999  0.28744717  0.07810548  1.0
  C  C26  1  0.65378190  0.12590788  0.82869865  1.0
  C  C27  1  1.12590788  0.65378190  0.67130135  1.0
  C  C28  1  0.34621810  -0.12590788  0.17130135  1.0
  C  C29  1  0.87409212  0.34621810  0.32869865  1.0
  O  O30  1  0.98518859  0.88980314  0.14346678  1.0
  O  O31  1  0.88980314  -0.01481141  0.35653322  1.0
  O  O32  1  1.01481141  0.11019686  0.85653322  1.0
  O  O33  1  0.11019686  0.01481141  0.64346678  1.0
  O  O34  1  0.95332529  0.68331341  0.16565529  1.0
  O  O35  1  0.68331341  -0.04667471  0.33434471  1.0
  O  O36  1  1.04667471  0.31668659  0.83434471  1.0
  O  O37  1  0.31668659  0.04667471  0.66565529  1.0
  O  O38  1  0.31585824  0.19433954  0.22778290  1.0
  O  O39  1  1.19433954  0.31585824  0.27221710  1.0
  O  O40  1  0.68414176  -0.19433954  0.77221710  1.0
  O  O41  1  0.80566046  0.68414176  0.72778290  1.0
  O  O42  1  0.64833461  0.45096487  0.58381953  1.0
  O  O43  1  0.45096487  -0.35166539  0.91618047  1.0
  O  O44  1  1.35166539  0.54903513  0.41618047  1.0
  O  O45  1  0.54903513  0.35166539  0.08381953  1.0
  O  O46  1  0.39737166  -0.02066881  0.28636942  1.0
  O  O47  1  0.97933119  0.39737166  0.21363058  1.0
  O  O48  1  0.60262834  0.02066881  0.71363058  1.0
  O  O49  1  1.02066881  0.60262834  0.78636942  1.0
  O  O50  1  0.66891389  0.24024239  0.77014640  1.0
  O  O51  1  1.24024239  0.66891389  0.72985360  1.0
  O  O52  1  0.33108611  -0.24024239  0.22985360  1.0
  O  O53  1  0.75975761  0.33108611  0.27014640  1.0
