# generated using pymatgen
data_SrBi2(B2O5)2
_symmetry_space_group_name_H-M   'P 1'
_cell_length_a   6.85877584
_cell_length_b   7.03825702
_cell_length_c   10.05475498
_cell_angle_alpha   76.19232609
_cell_angle_beta   68.70889912
_cell_angle_gamma   78.37996011
_symmetry_Int_Tables_number   1
_chemical_formula_structural   SrBi2(B2O5)2
_chemical_formula_sum   'Sr2 Bi4 B8 O20'
_cell_volume   435.63726092
_cell_formula_units_Z   2
loop_
 _symmetry_equiv_pos_site_id
 _symmetry_equiv_pos_as_xyz
  1  'x, y, z'
loop_
 _atom_site_type_symbol
 _atom_site_label
 _atom_site_symmetry_multiplicity
 _atom_site_fract_x
 _atom_site_fract_y
 _atom_site_fract_z
 _atom_site_occupancy
  Sr  Sr0  1  0.13254019  -0.14914091  0.83456203  1.0
  Sr  Sr1  1  -0.13254019  -0.85085909  0.16543797  1.0
  Bi  Bi2  1  0.07079119  -0.64214364  0.66319857  1.0
  Bi  Bi3  1  -0.07079119  -0.35785636  0.33680143  1.0
  Bi  Bi4  1  0.29627384  -0.01674555  0.39888142  1.0
  Bi  Bi5  1  -0.29627384  -0.98325445  0.60111858  1.0
  B  B6  1  -0.31745086  -0.25071784  0.90739371  1.0
  B  B7  1  0.31745086  -0.74928216  0.09260629  1.0
  B  B8  1  0.32424899  -0.20425608  0.07473958  1.0
  B  B9  1  -0.32424899  -0.79574392  0.92526042  1.0
  B  B10  1  -0.62263037  -0.69626142  0.82264201  1.0
  B  B11  1  0.62263037  -0.30373858  0.17735799  1.0
  B  B12  1  0.47858113  -0.60946849  0.36706979  1.0
  B  B13  1  -0.47858113  -0.39053151  0.63293021  1.0
  O  O14  1  0.52761907  -0.81427538  0.39302806  1.0
  O  O15  1  -0.52761907  -0.18572462  0.60697194  1.0
  O  O16  1  -0.53598999  -0.22399641  0.93481091  1.0
  O  O17  1  0.53598999  -0.77600359  0.06518909  1.0
  O  O18  1  0.05652904  -0.89487720  0.58578712  1.0
  O  O19  1  -0.05652904  -0.10512280  0.41421288  1.0
  O  O20  1  -0.40292088  -0.77437110  0.81474801  1.0
  O  O21  1  0.40292088  -0.22562890  0.18525199  1.0
  O  O22  1  -0.68645708  -0.81478627  0.74801861  1.0
  O  O23  1  0.68645708  -0.18521373  0.25198139  1.0
  O  O24  1  0.63635383  -0.51563203  0.24984599  1.0
  O  O25  1  -0.63635383  -0.48436797  0.75015401  1.0
  O  O26  1  0.29651974  -0.51163061  0.44666956  1.0
  O  O27  1  -0.29651974  -0.48836939  0.55333044  1.0
  O  O28  1  0.76111814  -0.29529560  0.02080654  1.0
  O  O29  1  -0.76111814  -0.70470440  0.97919346  1.0
  O  O30  1  -0.18411130  -0.22335441  0.76747228  1.0
  O  O31  1  0.18411130  -0.77664559  0.23252772  1.0
  O  O32  1  0.11645961  -0.16557054  0.09491636  1.0
  O  O33  1  -0.11645961  -0.83442946  0.90508364  1.0
