# generated using pymatgen
data_ZnP2H6O5
_symmetry_space_group_name_H-M   'P 1'
_cell_length_a   7.64738011
_cell_length_b   7.83809626
_cell_length_c   10.47599785
_cell_angle_alpha   90.00000000
_cell_angle_beta   105.25183103
_cell_angle_gamma   90.00000000
_symmetry_Int_Tables_number   1
_chemical_formula_structural   ZnP2H6O5
_chemical_formula_sum   'Zn4 P8 H24 O20'
_cell_volume   605.82400164
_cell_formula_units_Z   4
loop_
 _symmetry_equiv_pos_site_id
 _symmetry_equiv_pos_as_xyz
  1  'x, y, z'
loop_
 _atom_site_type_symbol
 _atom_site_label
 _atom_site_symmetry_multiplicity
 _atom_site_fract_x
 _atom_site_fract_y
 _atom_site_fract_z
 _atom_site_occupancy
  Zn  Zn0  1  0.20055583  0.95954427  0.10404914  1.0
  Zn  Zn1  1  0.79944417  0.45954427  0.39595086  1.0
  Zn  Zn2  1  0.79944417  0.04045573  0.89595086  1.0
  Zn  Zn3  1  0.20055583  0.54045573  0.60404914  1.0
  P  P4  1  0.46613747  0.63321190  0.18826206  1.0
  P  P5  1  0.53386253  0.13321190  0.31173794  1.0
  P  P6  1  0.53386253  0.36678810  0.81173794  1.0
  P  P7  1  0.46613747  0.86678810  0.68826206  1.0
  P  P8  1  0.03717496  0.79480010  0.33846945  1.0
  P  P9  1  0.96282504  0.29480010  0.16153055  1.0
  P  P10  1  0.96282504  0.20519990  0.66153055  1.0
  P  P11  1  0.03717496  0.70519990  0.83846945  1.0
  H  H12  1  0.35605258  0.50102176  0.11573771  1.0
  H  H13  1  0.64394742  0.00102176  0.38426229  1.0
  H  H14  1  0.64394742  0.49897824  0.88426229  1.0
  H  H15  1  0.35605258  0.99897824  0.61573771  1.0
  H  H16  1  0.40646695  0.64887953  0.30492804  1.0
  H  H17  1  0.59353305  0.14887953  0.19507196  1.0
  H  H18  1  0.59353305  0.35112047  0.69507196  1.0
  H  H19  1  0.40646695  0.85112047  0.80492804  1.0
  H  H20  1  0.87278775  0.88105243  0.33333619  1.0
  H  H21  1  0.12721225  0.38105243  0.16666381  1.0
  H  H22  1  0.12721225  0.11894757  0.66666381  1.0
  H  H23  1  0.87278775  0.61894757  0.83333619  1.0
  H  H24  1  0.17448828  0.90127744  0.41489489  1.0
  H  H25  1  0.82551172  0.40127744  0.08510511  1.0
  H  H26  1  0.82551172  0.09872256  0.58510511  1.0
  H  H27  1  0.17448828  0.59872256  0.91489489  1.0
  H  H28  1  0.38464704  0.16287955  0.95810283  1.0
  H  H29  1  0.61535296  0.66287955  0.54189717  1.0
  H  H30  1  0.61535296  0.83712045  0.04189717  1.0
  H  H31  1  0.38464704  0.33712045  0.45810283  1.0
  H  H32  1  0.17203997  0.19466754  0.92363533  1.0
  H  H33  1  0.82796003  0.69466754  0.57636467  1.0
  H  H34  1  0.82796003  0.80533246  0.07636467  1.0
  H  H35  1  0.17203997  0.30533246  0.42363533  1.0
  O  O36  1  0.42371929  0.80023823  0.10782617  1.0
  O  O37  1  0.57628071  0.30023823  0.39217383  1.0
  O  O38  1  0.57628071  0.19976177  0.89217383  1.0
  O  O39  1  0.42371929  0.69976177  0.60782617  1.0
  O  O40  1  0.66460764  0.57788365  0.22144517  1.0
  O  O41  1  0.33539236  0.07788365  0.27855483  1.0
  O  O42  1  0.33539236  0.42211635  0.77855483  1.0
  O  O43  1  0.66460764  0.92211635  0.72144517  1.0
  O  O44  1  0.05970026  0.78002734  0.19729861  1.0
  O  O45  1  0.94029974  0.28002734  0.30270139  1.0
  O  O46  1  0.94029974  0.21997266  0.80270139  1.0
  O  O47  1  0.05970026  0.71997266  0.69729861  1.0
  O  O48  1  0.03771753  0.62689426  0.41563872  1.0
  O  O49  1  0.96228247  0.12689426  0.08436128  1.0
  O  O50  1  0.96228247  0.37310574  0.58436128  1.0
  O  O51  1  0.03771753  0.87310574  0.91563872  1.0
  O  O52  1  0.27883961  0.16322501  0.99591513  1.0
  O  O53  1  0.72116039  0.66322501  0.50408487  1.0
  O  O54  1  0.72116039  0.83677499  0.00408487  1.0
  O  O55  1  0.27883961  0.33677499  0.49591513  1.0
