# generated using pymatgen
data_WO3
_symmetry_space_group_name_H-M   'P 1'
_cell_length_a   7.53906133
_cell_length_b   7.71985754
_cell_length_c   10.90914994
_cell_angle_alpha   90.00000000
_cell_angle_beta   133.71917904
_cell_angle_gamma   90.00000000
_symmetry_Int_Tables_number   1
_chemical_formula_structural   WO3
_chemical_formula_sum   'W8 O24'
_cell_volume   458.87781966
_cell_formula_units_Z   8
loop_
 _symmetry_equiv_pos_site_id
 _symmetry_equiv_pos_as_xyz
  1  'x, y, z'
loop_
 _atom_site_type_symbol
 _atom_site_label
 _atom_site_symmetry_multiplicity
 _atom_site_fract_x
 _atom_site_fract_y
 _atom_site_fract_z
 _atom_site_occupancy
  W  W0  1  0.52941357  0.97373464  0.27923957  1.0
  W  W1  1  0.47058643  0.47373464  0.22076043  1.0
  W  W2  1  0.47058643  0.02626536  0.72076043  1.0
  W  W3  1  0.52941357  0.52626536  0.77923957  1.0
  W  W4  1  1.02895879  0.97349922  0.77912889  1.0
  W  W5  1  -0.02895879  0.47349922  0.72087111  1.0
  W  W6  1  -0.02895879  0.02650078  0.22087111  1.0
  W  W7  1  1.02895879  0.52650078  0.27912889  1.0
  O  O8  1  0.50546269  0.74125860  0.25406810  1.0
  O  O9  1  0.49453731  0.24125860  0.24593190  1.0
  O  O10  1  0.49453731  0.25874140  0.74593190  1.0
  O  O11  1  0.50546269  0.75874140  0.75406810  1.0
  O  O12  1  0.75308951  0.49863094  0.75303217  1.0
  O  O13  1  0.24691049  -0.00136906  0.74696783  1.0
  O  O14  1  0.24691049  0.50136906  0.24696783  1.0
  O  O15  1  0.75308951  1.00136906  0.25303217  1.0
  O  O16  1  0.25736851  0.98729599  1.00413747  1.0
  O  O17  1  0.74263149  0.48729599  0.49586253  1.0
  O  O18  1  0.74263149  0.01270401  -0.00413747  1.0
  O  O19  1  0.25736851  0.51270401  0.50413747  1.0
  O  O20  1  0.75093156  0.98942220  0.50414375  1.0
  O  O21  1  0.24906844  0.48942220  -0.00414375  1.0
  O  O22  1  0.24906844  0.01057780  0.49585625  1.0
  O  O23  1  0.75093156  0.51057780  1.00414375  1.0
  O  O24  1  0.00067302  0.74121459  0.75205666  1.0
  O  O25  1  0.99932698  0.24121459  0.74794334  1.0
  O  O26  1  0.99932698  0.25878541  0.24794334  1.0
  O  O27  1  0.00067302  0.75878541  0.25205666  1.0
  O  O28  1  0.75302834  1.00125980  0.75310358  1.0
  O  O29  1  0.24697166  0.50125980  0.74689642  1.0
  O  O30  1  0.24697166  -0.00125980  0.24689642  1.0
  O  O31  1  0.75302834  0.49874020  0.25310358  1.0
