# generated using pymatgen
data_LiIO3
_symmetry_space_group_name_H-M   'P 1'
_cell_length_a   5.52854327
_cell_length_b   5.52854327
_cell_length_c   5.24750107
_cell_angle_alpha   90.00000000
_cell_angle_beta   90.00000000
_cell_angle_gamma   120.00000000
_symmetry_Int_Tables_number   1
_chemical_formula_structural   LiIO3
_chemical_formula_sum   'Li2 I2 O6'
_cell_volume   138.90075093
_cell_formula_units_Z   2
loop_
 _symmetry_equiv_pos_site_id
 _symmetry_equiv_pos_as_xyz
  1  'x, y, z'
loop_
 _atom_site_type_symbol
 _atom_site_label
 _atom_site_symmetry_multiplicity
 _atom_site_fract_x
 _atom_site_fract_y
 _atom_site_fract_z
 _atom_site_occupancy
  Li  Li0  1  0.00000000  0.00000000  0.00192188  1.0
  Li  Li1  1  0.00000000  0.00000000  0.50192188  1.0
  I  I2  1  0.33333333  0.66666667  0.07253587  1.0
  I  I3  1  0.66666667  0.33333333  0.57253587  1.0
  O  O4  1  0.26519949  0.93154808  0.23594742  1.0
  O  O5  1  0.93154808  0.66634859  0.73594742  1.0
  O  O6  1  0.66634859  0.73480050  0.23594742  1.0
  O  O7  1  0.06845192  0.33365141  0.23594742  1.0
  O  O8  1  0.73480051  0.06845192  0.73594742  1.0
  O  O9  1  0.33365141  0.26519949  0.73594742  1.0
