# generated using pymatgen
data_H2Pd
_symmetry_space_group_name_H-M   'P 1'
_cell_length_a   5.62275783
_cell_length_b   5.62275783
_cell_length_c   5.62275783
_cell_angle_alpha   120.03199474
_cell_angle_beta   120.03199474
_cell_angle_gamma   89.94459242
_symmetry_Int_Tables_number   1
_chemical_formula_structural   H2Pd
_chemical_formula_sum   'H8 Pd4'
_cell_volume   125.63852913
_cell_formula_units_Z   4
loop_
 _symmetry_equiv_pos_site_id
 _symmetry_equiv_pos_as_xyz
  1  'x, y, z'
loop_
 _atom_site_type_symbol
 _atom_site_label
 _atom_site_symmetry_multiplicity
 _atom_site_fract_x
 _atom_site_fract_y
 _atom_site_fract_z
 _atom_site_occupancy
  H  H0  1  1.06675053  0.35551447  0.71123606  1.0
  H  H1  1  1.10572158  0.89448553  1.21123606  1.0
  H  H2  1  0.64427842  0.35551447  0.28876394  1.0
  H  H3  1  0.68324947  0.89448553  0.78876394  1.0
  H  H4  1  0.64448553  0.35572158  0.71123606  1.0
  H  H5  1  0.10551447  0.31675053  0.21123606  1.0
  H  H6  1  0.64448553  0.93324947  1.28876394  1.0
  H  H7  1  0.10551447  0.89427842  0.78876394  1.0
  Pd  Pd8  1  0.87500000  0.12500000  0.75000000  1.0
  Pd  Pd9  1  0.37500000  0.12500000  0.25000000  1.0
  Pd  Pd10  1  0.87500000  0.62500000  0.75000000  1.0
  Pd  Pd11  1  0.87500000  1.12500000  1.25000000  1.0
