# generated using pymatgen
data_C2SN2OF6
_symmetry_space_group_name_H-M   'P 1'
_cell_length_a   12.38297203
_cell_length_b   12.38297203
_cell_length_c   12.38297203
_cell_angle_alpha   92.43277533
_cell_angle_beta   92.43277533
_cell_angle_gamma   156.22073309
_symmetry_Int_Tables_number   1
_chemical_formula_structural   C2SN2OF6
_chemical_formula_sum   'C8 S4 N8 O4 F24'
_cell_volume   749.18978032
_cell_formula_units_Z   4
loop_
 _symmetry_equiv_pos_site_id
 _symmetry_equiv_pos_as_xyz
  1  'x, y, z'
loop_
 _atom_site_type_symbol
 _atom_site_label
 _atom_site_symmetry_multiplicity
 _atom_site_fract_x
 _atom_site_fract_y
 _atom_site_fract_z
 _atom_site_occupancy
  C  C0  1  0.94733385  0.64656491  0.67280241  1.0
  C  C1  1  0.72546855  0.05266615  0.69923105  1.0
  C  C2  1  0.97376250  1.27453145  1.32719759  1.0
  C  C3  1  0.35343509  1.02623750  1.30076895  1.0
  C  C4  1  0.68098373  0.56790026  0.61117484  1.0
  C  C5  1  0.93019110  0.31901627  0.88691652  1.0
  C  C6  1  0.95672542  1.06980890  1.38882516  1.0
  C  C7  1  0.43209974  1.04327458  1.11308348  1.0
  S  S8  1  1.80786645  1.91830325  1.88419835  1.0
  S  S9  1  1.07633190  1.19213355  1.11043680  1.0
  S  S10  1  1.03410490  0.92366810  0.11580165  1.0
  S  S11  1  1.08169675  0.96589510  0.88956320  1.0
  N  N12  1  0.88472105  0.70241387  0.69270789  1.0
  N  N13  1  0.80798684  0.11527895  0.81769282  1.0
  N  N14  1  1.00970598  1.19201316  1.30729211  1.0
  N  N15  1  0.29758613  0.99029402  1.18230718  1.0
  N  N16  1  0.20931320  0.20048970  0.13228543  1.0
  N  N17  1  0.92297222  0.79068680  0.99117649  1.0
  N  N18  1  1.06820427  1.07702778  1.86771457  1.0
  N  N19  1  0.79951030  0.93179573  1.00882351  1.0
  O  O20  1  0.80968103  0.64612125  0.79661633  1.0
  O  O21  1  0.98693531  0.19031897  0.83644022  1.0
  O  O22  1  0.84950492  1.01306469  1.20338367  1.0
  O  O23  1  0.35387875  1.15049508  1.16355978  1.0
  F  F24  1  0.42456435  0.29157669  0.60124662  1.0
  F  F25  1  1.17668227  0.57543565  0.86701235  1.0
  F  F26  1  0.69033008  0.82331773  1.39875338  1.0
  F  F27  1  0.70842331  1.30966992  1.13298765  1.0
  F  F28  1  0.62033620  0.28616444  0.35016574  1.0
  F  F29  1  0.72982954  0.37966380  0.66582824  1.0
  F  F30  1  0.93599869  1.27017046  1.64983426  1.0
  F  F31  1  0.71383556  1.06400131  1.33417176  1.0
  F  F32  1  0.67122353  0.66464194  0.64155887  1.0
  F  F33  1  0.97033533  0.32877647  0.99341841  1.0
  F  F34  1  1.02308308  1.02966467  1.35844113  1.0
  F  F35  1  0.33535806  0.97691692  1.00658159  1.0
  F  F36  1  0.75036542  0.62232256  0.51172561  1.0
  F  F37  1  0.76136020  0.24963458  0.87195714  1.0
  F  F38  1  1.11059694  1.23863980  1.48827439  1.0
  F  F39  1  0.37767744  0.88940306  1.12804286  1.0
  F  F40  1  1.61460004  1.85680781  1.65264642  1.0
  F  F41  1  1.03804638  1.38539996  1.24220777  1.0
  F  F42  1  1.20416139  0.96195362  0.34735358  1.0
  F  F43  1  1.14319219  0.79583861  0.75779223  1.0
  F  F44  1  1.14163013  1.46238520  1.42146359  1.0
  F  F45  1  1.27983346  1.85836987  1.32075507  1.0
  F  F46  1  1.04092161  0.72016654  0.57853641  1.0
  F  F47  1  1.53761480  0.95907839  0.67924493  1.0
