# generated using pymatgen
data_Sm(GaPd)2
_symmetry_space_group_name_H-M   'P 1'
_cell_length_a   6.21188061
_cell_length_b   6.21188061
_cell_length_c   6.21188061
_cell_angle_alpha   140.19622207
_cell_angle_beta   140.19622207
_cell_angle_gamma   57.55548433
_symmetry_Int_Tables_number   1
_chemical_formula_structural   Sm(GaPd)2
_chemical_formula_sum   'Sm1 Ga2 Pd2'
_cell_volume   97.38322300
_cell_formula_units_Z   1
loop_
 _symmetry_equiv_pos_site_id
 _symmetry_equiv_pos_as_xyz
  1  'x, y, z'
loop_
 _atom_site_type_symbol
 _atom_site_label
 _atom_site_symmetry_multiplicity
 _atom_site_fract_x
 _atom_site_fract_y
 _atom_site_fract_z
 _atom_site_occupancy
  Sm  Sm0  1  0.00000000  0.00000000  0.00000000  1.0
  Ga  Ga1  1  0.62083370  0.62083370  1.00000000  1.0
  Ga  Ga2  1  0.37916630  0.37916630  0.00000000  1.0
  Pd  Pd3  1  0.25000000  0.75000000  0.50000000  1.0
  Pd  Pd4  1  0.75000000  0.25000000  0.50000000  1.0
