# generated using pymatgen
data_LiCr(GeO3)2
_symmetry_space_group_name_H-M   'P 1'
_cell_length_a   9.65059425
_cell_length_b   8.80576991
_cell_length_c   5.41285527
_cell_angle_alpha   90.00000000
_cell_angle_beta   102.96825633
_cell_angle_gamma   90.00000000
_symmetry_Int_Tables_number   1
_chemical_formula_structural   LiCr(GeO3)2
_chemical_formula_sum   'Li4 Cr4 Ge8 O24'
_cell_volume   448.25714123
_cell_formula_units_Z   4
loop_
 _symmetry_equiv_pos_site_id
 _symmetry_equiv_pos_as_xyz
  1  'x, y, z'
loop_
 _atom_site_type_symbol
 _atom_site_label
 _atom_site_symmetry_multiplicity
 _atom_site_fract_x
 _atom_site_fract_y
 _atom_site_fract_z
 _atom_site_occupancy
  Li  Li0  1  0.74517350  0.99089407  0.46428148  1.0
  Li  Li1  1  0.74517350  0.50910593  0.96428148  1.0
  Li  Li2  1  0.25482650  0.49089407  0.03571852  1.0
  Li  Li3  1  0.25482650  0.00910593  0.53571852  1.0
  Cr  Cr4  1  0.74881270  0.34152474  0.46098051  1.0
  Cr  Cr5  1  0.74881270  0.15847526  0.96098051  1.0
  Cr  Cr6  1  0.25118730  0.84152474  0.03901949  1.0
  Cr  Cr7  1  0.25118730  0.65847526  0.53901949  1.0
  Ge  Ge8  1  0.95364403  0.84407847  0.22304981  1.0
  Ge  Ge9  1  0.95364403  0.65592153  0.72304981  1.0
  Ge  Ge10  1  0.04635597  0.34407847  0.27695019  1.0
  Ge  Ge11  1  0.04635597  0.15592153  0.77695019  1.0
  Ge  Ge12  1  0.44712517  0.15823142  0.17474181  1.0
  Ge  Ge13  1  0.44712517  0.34176858  0.67474181  1.0
  Ge  Ge14  1  0.55287483  0.65823142  0.32525819  1.0
  Ge  Ge15  1  0.55287483  0.84176858  0.82525819  1.0
  O  O16  1  0.88226823  0.79375152  0.48975053  1.0
  O  O17  1  0.88226823  0.70624848  0.98975053  1.0
  O  O18  1  0.11773177  0.29375152  0.01024947  1.0
  O  O19  1  0.11773177  0.20624848  0.51024947  1.0
  O  O20  1  0.88612889  0.02685982  0.16827241  1.0
  O  O21  1  0.88612889  0.47314018  0.66827241  1.0
  O  O22  1  0.11387111  0.52685982  0.33172759  1.0
  O  O23  1  0.11387111  0.97314018  0.83172759  1.0
  O  O24  1  0.85627371  0.33344532  0.18399261  1.0
  O  O25  1  0.85627371  0.16655468  0.68399261  1.0
  O  O26  1  0.14372629  0.83344532  0.31600739  1.0
  O  O27  1  0.14372629  0.66655468  0.81600739  1.0
  O  O28  1  0.63820190  0.16706488  0.24243920  1.0
  O  O29  1  0.63820190  0.33293512  0.74243920  1.0
  O  O30  1  0.36179810  0.66706488  0.25756080  1.0
  O  O31  1  0.36179810  0.83293512  0.75756080  1.0
  O  O32  1  0.63367820  0.49425760  0.24500469  1.0
  O  O33  1  0.63367820  0.00574240  0.74500469  1.0
  O  O34  1  0.36632180  0.99425760  0.25499531  1.0
  O  O35  1  0.36632180  0.50574240  0.75499531  1.0
  O  O36  1  0.38821312  0.31296681  0.34072876  1.0
  O  O37  1  0.38821312  0.18703319  0.84072876  1.0
  O  O38  1  0.61178688  0.81296681  0.15927124  1.0
  O  O39  1  0.61178688  0.68703319  0.65927124  1.0
