# generated using pymatgen
data_NiCl2
_symmetry_space_group_name_H-M   'P 1'
_cell_length_a   6.78499765
_cell_length_b   6.78499765
_cell_length_c   6.78499765
_cell_angle_alpha   29.78000046
_cell_angle_beta   29.78000046
_cell_angle_gamma   29.78000046
_symmetry_Int_Tables_number   1
_chemical_formula_structural   NiCl2
_chemical_formula_sum   'Ni1 Cl2'
_cell_volume   68.22954060
_cell_formula_units_Z   1
loop_
 _symmetry_equiv_pos_site_id
 _symmetry_equiv_pos_as_xyz
  1  'x, y, z'
loop_
 _atom_site_type_symbol
 _atom_site_label
 _atom_site_symmetry_multiplicity
 _atom_site_fract_x
 _atom_site_fract_y
 _atom_site_fract_z
 _atom_site_occupancy
  Ni  Ni0  1  0.00000000  0.00000000  0.00000000  1.0
  Cl  Cl1  1  0.73364467  0.73364467  0.73364467  1.0
  Cl  Cl2  1  1.26635533  1.26635533  0.26635533  1.0
