# generated using pymatgen
data_CsYHgSe3
_symmetry_space_group_name_H-M   'P 1'
_cell_length_a   8.46041056
_cell_length_b   8.46041056
_cell_length_c   11.15746221
_cell_angle_alpha   90.00000000
_cell_angle_beta   90.00000000
_cell_angle_gamma   150.61994415
_symmetry_Int_Tables_number   1
_chemical_formula_structural   CsYHgSe3
_chemical_formula_sum   'Cs2 Y2 Hg2 Se6'
_cell_volume   391.81066668
_cell_formula_units_Z   2
loop_
 _symmetry_equiv_pos_site_id
 _symmetry_equiv_pos_as_xyz
  1  'x, y, z'
loop_
 _atom_site_type_symbol
 _atom_site_label
 _atom_site_symmetry_multiplicity
 _atom_site_fract_x
 _atom_site_fract_y
 _atom_site_fract_z
 _atom_site_occupancy
  Cs  Cs0  1  -0.25510587  0.25510587  0.75000000  1.0
  Cs  Cs1  1  0.25510587  0.74489413  0.25000000  1.0
  Y  Y2  1  0.00000000  0.00000000  0.00000000  1.0
  Y  Y3  1  0.00000000  0.00000000  0.50000000  1.0
  Hg  Hg4  1  0.45468690  0.54531310  0.75000000  1.0
  Hg  Hg5  1  -0.45468690  0.45468690  0.25000000  1.0
  Se  Se6  1  0.38191766  0.61808234  0.95910962  1.0
  Se  Se7  1  0.38191766  0.61808234  0.54089038  1.0
  Se  Se8  1  -0.38191766  0.38191766  0.45910962  1.0
  Se  Se9  1  -0.38191766  0.38191766  0.04089038  1.0
  Se  Se10  1  0.06051606  0.93948394  0.75000000  1.0
  Se  Se11  1  -0.06051606  0.06051606  0.25000000  1.0
