# generated using pymatgen
data_CaC2O5
_symmetry_space_group_name_H-M   'P 1'
_cell_length_a   6.26951390
_cell_length_b   6.26951390
_cell_length_c   6.22547073
_cell_angle_alpha   77.34213504
_cell_angle_beta   102.65786496
_cell_angle_gamma   107.40064396
_symmetry_Int_Tables_number   1
_chemical_formula_structural   CaC2O5
_chemical_formula_sum   'Ca2 C4 O10'
_cell_volume   224.70814486
_cell_formula_units_Z   2
loop_
 _symmetry_equiv_pos_site_id
 _symmetry_equiv_pos_as_xyz
  1  'x, y, z'
loop_
 _atom_site_type_symbol
 _atom_site_label
 _atom_site_symmetry_multiplicity
 _atom_site_fract_x
 _atom_site_fract_y
 _atom_site_fract_z
 _atom_site_occupancy
  C  C0  1  0.93521688  -0.93521688  0.54677442  1.0
  C  C1  1  0.06478312  -0.06478312  0.45322558  1.0
  C  C2  1  0.60565189  -0.39434811  -0.00000000  1.0
  C  C3  1  1.39434811  0.39434811  -0.00000000  1.0
  O  O4  1  0.57153048  -0.20692755  1.00641246  1.0
  O  O5  1  1.20692755  0.42846952  1.00641246  1.0
  O  O6  1  0.79307245  -0.42846952  -0.00641246  1.0
  O  O7  1  1.42846952  0.20692755  -0.00641246  1.0
  O  O8  1  0.95795590  -0.95795590  0.75519673  1.0
  O  O9  1  0.04204410  -0.04204410  0.24480327  1.0
  O  O10  1  0.66111847  -0.66111847  0.59318397  1.0
  O  O11  1  0.33888153  -0.33888153  0.40681603  1.0
  O  O12  1  0.82070214  -0.82070214  0.40114410  1.0
  O  O13  1  0.17929786  -0.17929786  0.59885590  1.0
  Ca  Ca14  1  0.81027182  -0.81027182  0.99537090  1.0
  Ca  Ca15  1  0.18972818  -0.18972818  0.00462910  1.0
