# generated using pymatgen
data_Ca2Ge3Pt
_symmetry_space_group_name_H-M   'P 1'
_cell_length_a   9.53076198
_cell_length_b   9.53076198
_cell_length_c   4.39453213
_cell_angle_alpha   90.00000000
_cell_angle_beta   90.00000000
_cell_angle_gamma   120.00000000
_symmetry_Int_Tables_number   1
_chemical_formula_structural   Ca2Ge3Pt
_chemical_formula_sum   'Ca4 Ge6 Pt2'
_cell_volume   345.69931847
_cell_formula_units_Z   2
loop_
 _symmetry_equiv_pos_site_id
 _symmetry_equiv_pos_as_xyz
  1  'x, y, z'
loop_
 _atom_site_type_symbol
 _atom_site_label
 _atom_site_symmetry_multiplicity
 _atom_site_fract_x
 _atom_site_fract_y
 _atom_site_fract_z
 _atom_site_occupancy
  Ca  Ca0  1  0.00000000  0.00000000  0.50000000  1.0
  Ca  Ca1  1  0.50000000  0.00000000  0.00000000  1.0
  Ca  Ca2  1  -0.00000000  0.50000000  0.00000000  1.0
  Ca  Ca3  1  0.50000000  0.50000000  0.00000000  1.0
  Ge  Ge4  1  0.84749664  0.15250336  0.00000000  1.0
  Ge  Ge5  1  0.84749664  0.69499328  0.00000000  1.0
  Ge  Ge6  1  0.30500672  0.15250336  0.00000000  1.0
  Ge  Ge7  1  0.15250336  0.84749664  0.00000000  1.0
  Ge  Ge8  1  0.69499328  0.84749664  0.00000000  1.0
  Ge  Ge9  1  0.15250336  0.30500672  0.00000000  1.0
  Pt  Pt10  1  0.66666667  0.33333333  0.00000000  1.0
  Pt  Pt11  1  0.33333333  0.66666667  0.00000000  1.0
