# generated using pymatgen
data_Ca2Hf7O16
_symmetry_space_group_name_H-M   'P 1'
_cell_length_a   9.56468381
_cell_length_b   9.56468381
_cell_length_c   9.56468381
_cell_angle_alpha   38.85685878
_cell_angle_beta   38.85685878
_cell_angle_gamma   38.85685878
_symmetry_Int_Tables_number   1
_chemical_formula_structural   Ca2Hf7O16
_chemical_formula_sum   'Ca2 Hf7 O16'
_cell_volume   309.64519892
_cell_formula_units_Z   1
loop_
 _symmetry_equiv_pos_site_id
 _symmetry_equiv_pos_as_xyz
  1  'x, y, z'
loop_
 _atom_site_type_symbol
 _atom_site_label
 _atom_site_symmetry_multiplicity
 _atom_site_fract_x
 _atom_site_fract_y
 _atom_site_fract_z
 _atom_site_occupancy
  Ca  Ca0  1  0.33318004  0.33318004  -0.66681996  1.0
  Ca  Ca1  1  0.66681996  0.66681996  -0.33318004  1.0
  Hf  Hf2  1  0.00000000  0.00000000  0.00000000  1.0
  Hf  Hf3  1  0.48659219  0.11286925  -0.25715747  1.0
  Hf  Hf4  1  0.25715747  0.51340781  -0.11286925  1.0
  Hf  Hf5  1  0.88713075  0.25715747  -0.48659219  1.0
  Hf  Hf6  1  0.51340781  0.88713075  -0.74284253  1.0
  Hf  Hf7  1  0.74284253  -0.51340781  0.11286925  1.0
  Hf  Hf8  1  1.11286925  -0.25715747  -0.51340781  1.0
  O  O9  1  0.42606547  0.42606547  -0.57393453  1.0
  O  O10  1  0.57393453  0.57393453  -0.42606547  1.0
  O  O11  1  0.23767322  0.23767322  0.23767322  1.0
  O  O12  1  0.76232678  -0.23767322  -0.23767322  1.0
  O  O13  1  0.58973243  0.15210774  -0.15034334  1.0
  O  O14  1  0.15034334  0.41026757  -0.15210774  1.0
  O  O15  1  0.84789226  0.15034334  -0.58973243  1.0
  O  O16  1  0.41026757  0.84789226  -0.84965666  1.0
  O  O17  1  0.84965666  -0.41026757  0.15210774  1.0
  O  O18  1  1.15210774  -0.15034334  -0.41026757  1.0
  O  O19  1  0.32868130  0.03182155  -0.23882531  1.0
  O  O20  1  0.23882531  0.67131870  -0.03182155  1.0
  O  O21  1  0.96817845  0.23882531  -0.32868130  1.0
  O  O22  1  0.67131870  0.96817845  -0.76117469  1.0
  O  O23  1  0.76117469  -0.67131870  0.03182155  1.0
  O  O24  1  1.03182155  -0.23882531  -0.67131870  1.0
