# generated using pymatgen
data_Ba2MnTeO6
_symmetry_space_group_name_H-M   'P 1'
_cell_length_a   5.84475922
_cell_length_b   5.84475922
_cell_length_c   5.84475922
_cell_angle_alpha   60.00378689
_cell_angle_beta   60.00378689
_cell_angle_gamma   60.00378689
_symmetry_Int_Tables_number   1
_chemical_formula_structural   Ba2MnTeO6
_chemical_formula_sum   'Ba2 Mn1 Te1 O6'
_cell_volume   141.19592436
_cell_formula_units_Z   1
loop_
 _symmetry_equiv_pos_site_id
 _symmetry_equiv_pos_as_xyz
  1  'x, y, z'
loop_
 _atom_site_type_symbol
 _atom_site_label
 _atom_site_symmetry_multiplicity
 _atom_site_fract_x
 _atom_site_fract_y
 _atom_site_fract_z
 _atom_site_occupancy
  Ba  Ba0  1  0.75002772  0.75002772  -0.24997228  1.0
  Ba  Ba1  1  1.24997228  1.24997228  0.24997228  1.0
  Mn  Mn2  1  0.00000000  0.00000000  0.00000000  1.0
  Te  Te3  1  0.50000000  0.50000000  -0.50000000  1.0
  O  O4  1  0.23747442  0.23747442  -0.23746504  1.0
  O  O5  1  0.23747442  0.76253496  -0.76252558  1.0
  O  O6  1  0.23746504  0.76252558  -0.23747442  1.0
  O  O7  1  0.76252558  0.23746504  -0.23747442  1.0
  O  O8  1  0.76252558  0.76252558  -0.76253496  1.0
  O  O9  1  0.76253496  0.23747442  -0.76252558  1.0
