# generated using pymatgen
data_SiH2CS(OF)3
_symmetry_space_group_name_H-M   'P 1'
_cell_length_a   9.71263094
_cell_length_b   6.95860592
_cell_length_c   11.67320116
_cell_angle_alpha   90.00000000
_cell_angle_beta   112.47434086
_cell_angle_gamma   90.00000000
_symmetry_Int_Tables_number   1
_chemical_formula_structural   SiH2CS(OF)3
_chemical_formula_sum   'Si4 H8 C4 S4 O12 F12'
_cell_volume   729.02925322
_cell_formula_units_Z   4
loop_
 _symmetry_equiv_pos_site_id
 _symmetry_equiv_pos_as_xyz
  1  'x, y, z'
loop_
 _atom_site_type_symbol
 _atom_site_label
 _atom_site_symmetry_multiplicity
 _atom_site_fract_x
 _atom_site_fract_y
 _atom_site_fract_z
 _atom_site_occupancy
  Si  Si0  1  -0.00747041  0.97313022  0.39733216  1.0
  Si  Si1  1  -0.00747041  0.52686978  0.89733216  1.0
  Si  Si2  1  1.00747041  0.47313022  0.10266784  1.0
  Si  Si3  1  1.00747041  0.02686978  0.60266784  1.0
  H  H4  1  0.07950449  0.10106015  0.34897998  1.0
  H  H5  1  0.07950449  0.39893985  0.84897998  1.0
  H  H6  1  0.92049551  0.60106015  0.15102002  1.0
  H  H7  1  0.92049551  0.89893985  0.65102002  1.0
  H  H8  1  0.14636926  0.39189049  0.19486563  1.0
  H  H9  1  0.14636926  0.10810951  0.69486563  1.0
  H  H10  1  0.85363074  0.89189049  0.30513437  1.0
  H  H11  1  0.85363074  0.60810951  0.80513437  1.0
  C  C12  1  0.38984675  0.74791475  0.07038304  1.0
  C  C13  1  0.38984675  0.75208525  0.57038304  1.0
  C  C14  1  0.61015325  0.24791475  0.42961696  1.0
  C  C15  1  0.61015325  0.25208525  0.92961696  1.0
  S  S16  1  0.19750490  0.83622979  0.04484460  1.0
  S  S17  1  0.19750490  0.66377021  0.54484460  1.0
  S  S18  1  0.80249510  0.33622979  0.45515540  1.0
  S  S19  1  0.80249510  0.16377021  0.95515540  1.0
  O  O20  1  0.10607512  0.75855871  0.41997752  1.0
  O  O21  1  0.10607512  0.74144129  0.91997752  1.0
  O  O22  1  0.89392488  0.25855871  0.08002248  1.0
  O  O23  1  0.89392488  0.24144129  0.58002248  1.0
  O  O24  1  0.16036459  0.74929167  0.14379258  1.0
  O  O25  1  0.16036459  0.75070833  0.64379258  1.0
  O  O26  1  0.83963541  0.24929167  0.35620742  1.0
  O  O27  1  0.83963541  0.25070833  0.85620742  1.0
  O  O28  1  0.20007894  0.45804667  0.53502502  1.0
  O  O29  1  0.20007894  0.04195333  0.03502502  1.0
  O  O30  1  0.79992106  0.95804667  0.96497498  1.0
  O  O31  1  0.79992106  0.54195333  0.46497498  1.0
  F  F32  1  0.39238173  0.55405142  0.07738545  1.0
  F  F33  1  0.39238173  0.94594858  0.57738545  1.0
  F  F34  1  0.60761827  0.05405142  0.42261455  1.0
  F  F35  1  0.60761827  0.44594858  0.92261455  1.0
  F  F36  1  0.42776479  0.69716968  0.47590982  1.0
  F  F37  1  0.42776479  0.80283032  0.97590982  1.0
  F  F38  1  0.57223521  0.19716968  0.02409018  1.0
  F  F39  1  0.57223521  0.30283032  0.52409018  1.0
  F  F40  1  0.48769165  0.82092540  0.17728385  1.0
  F  F41  1  0.48769165  0.67907460  0.67728385  1.0
  F  F42  1  0.51230835  0.32092540  0.32271615  1.0
  F  F43  1  0.51230835  0.17907460  0.82271615  1.0
