# generated using pymatgen
data_NiH20PdC4(NO3)4
_symmetry_space_group_name_H-M   'P 1'
_cell_length_a   9.12154407
_cell_length_b   9.12154407
_cell_length_c   9.12154407
_cell_angle_alpha   132.71598378
_cell_angle_beta   133.37011665
_cell_angle_gamma   68.58791698
_symmetry_Int_Tables_number   1
_chemical_formula_structural   NiH20PdC4(NO3)4
_chemical_formula_sum   'Ni1 H20 Pd1 C4 N4 O12'
_cell_volume   398.06523429
_cell_formula_units_Z   1
loop_
 _symmetry_equiv_pos_site_id
 _symmetry_equiv_pos_as_xyz
  1  'x, y, z'
loop_
 _atom_site_type_symbol
 _atom_site_label
 _atom_site_symmetry_multiplicity
 _atom_site_fract_x
 _atom_site_fract_y
 _atom_site_fract_z
 _atom_site_occupancy
  Ni  Ni0  1  0.00000000  0.00000000  0.00000000  1.0
  H  H1  1  0.70311726  1.30609369  1.38445151  1.0
  H  H2  1  0.29688274  0.68133425  0.60297644  1.0
  H  H3  1  1.07835782  0.69390631  1.39702356  1.0
  H  H4  1  0.92164218  0.31866575  0.61554849  1.0
  H  H5  1  0.47190487  0.29169935  0.59342271  1.0
  H  H6  1  0.52809513  1.12151784  0.81979448  1.0
  H  H7  1  1.30172336  0.70830065  1.18020552  1.0
  H  H8  1  0.69827664  0.87848216  1.40657729  1.0
  H  H9  1  0.51706207  0.68344828  0.39429012  1.0
  H  H10  1  0.48293793  0.87722805  1.16638621  1.0
  H  H11  1  0.71084185  0.31655172  0.83361379  1.0
  H  H12  1  1.28915815  1.12277195  1.60570988  1.0
  H  H13  1  0.63070830  0.51063734  0.82811046  1.0
  H  H14  1  0.36929170  1.19740216  0.87992904  1.0
  H  H15  1  1.31747312  0.48936266  1.12007096  1.0
  H  H16  1  0.68252688  0.80259784  1.17188954  1.0
  H  H17  1  0.05642793  0.69873641  0.64639106  1.0
  H  H18  1  0.94357207  0.58996313  0.64230848  1.0
  H  H19  1  0.94765465  1.30126359  1.35769152  1.0
  H  H20  1  1.05234535  0.41003687  1.35360894  1.0
  Pd  Pd21  1  0.50000000  0.50000000  1.00000000  1.0
  C  C22  1  0.28827207  0.17290423  0.10113186  1.0
  C  C23  1  0.71172793  0.81285978  0.88463215  1.0
  C  C24  1  0.92822763  0.82709577  1.11536785  1.0
  C  C25  1  1.07177237  1.18714022  1.89886814  1.0
  N  N26  1  0.58954018  0.39137774  0.79095712  1.0
  N  N27  1  0.41045982  1.20141695  0.80183756  1.0
  N  N28  1  1.39957938  0.60862226  1.19816244  1.0
  N  N29  1  0.60042062  0.79858305  1.20904288  1.0
  O  O30  1  0.44047521  1.23344871  1.16647733  1.0
  O  O31  1  0.55952479  0.72600213  0.79297350  1.0
  O  O32  1  0.93302862  0.76655129  1.20702650  1.0
  O  O33  1  1.06697138  0.27399787  0.83352267  1.0
  O  O34  1  0.70854454  0.89109218  0.80772042  1.0
  O  O35  1  0.29145546  1.09917589  1.18254764  1.0
  O  O36  1  0.91662825  0.10890782  0.81745236  1.0
  O  O37  1  1.08337175  0.90082411  1.19227958  1.0
  O  O38  1  0.85234373  0.35234373  0.50000000  1.0
  O  O39  1  0.14765627  0.64765627  0.50000000  1.0
  O  O40  1  -0.00000000  0.27962292  0.27962292  1.0
  O  O41  1  -0.00000000  0.72037708  0.72037708  1.0
