# generated using pymatgen
data_FeMoO4
_symmetry_space_group_name_H-M   'P 1'
_cell_length_a   6.97165291
_cell_length_b   6.97165291
_cell_length_c   7.10837555
_cell_angle_alpha   77.23460412
_cell_angle_beta   102.76539588
_cell_angle_gamma   95.62024916
_symmetry_Int_Tables_number   1
_chemical_formula_structural   FeMoO4
_chemical_formula_sum   'Fe4 Mo4 O16'
_cell_volume   328.18861008
_cell_formula_units_Z   4
loop_
 _symmetry_equiv_pos_site_id
 _symmetry_equiv_pos_as_xyz
  1  'x, y, z'
loop_
 _atom_site_type_symbol
 _atom_site_label
 _atom_site_symmetry_multiplicity
 _atom_site_fract_x
 _atom_site_fract_y
 _atom_site_fract_z
 _atom_site_occupancy
  Fe  Fe0  1  0.79499697  0.20500303  0.64520674  1.0
  Fe  Fe1  1  1.20500303  -0.20500303  0.35479326  1.0
  Fe  Fe2  1  0.81445820  0.81445820  0.00000000  1.0
  Fe  Fe3  1  0.18554180  0.18554180  0.00000000  1.0
  Mo  Mo4  1  1.26790721  -0.26790721  0.89844574  1.0
  Mo  Mo5  1  0.73209279  0.26790721  0.10155426  1.0
  Mo  Mo6  1  0.75068448  0.75068448  0.50000000  1.0
  Mo  Mo7  1  0.24931552  0.24931552  0.50000000  1.0
  O  O8  1  1.80621382  -0.11307473  0.70040500  1.0
  O  O9  1  1.11307473  -0.80621382  0.70040500  1.0
  O  O10  1  0.88692527  0.80621382  0.29959500  1.0
  O  O11  1  0.19378618  0.11307473  0.29959500  1.0
  O  O12  1  1.52238078  -0.20989499  0.96576996  1.0
  O  O13  1  1.20989499  -0.52238078  0.96576996  1.0
  O  O14  1  0.79010501  0.52238078  0.03423004  1.0
  O  O15  1  0.47761922  0.20989499  0.03423004  1.0
  O  O16  1  0.50049762  0.21267746  0.60473261  1.0
  O  O17  1  0.78732254  0.49950238  0.60473261  1.0
  O  O18  1  1.21267746  -0.49950238  0.39526739  1.0
  O  O19  1  1.49950238  -0.21267746  0.39526739  1.0
  O  O20  1  0.85837210  0.14162790  0.96047764  1.0
  O  O21  1  1.14162790  -0.14162790  0.03952236  1.0
  O  O22  1  0.80127546  0.19872454  0.36364470  1.0
  O  O23  1  1.19872454  -0.19872454  0.63635530  1.0
