# generated using pymatgen
data_LiAuS
_symmetry_space_group_name_H-M   'P 1'
_cell_length_a   6.39835694
_cell_length_b   6.39835694
_cell_length_c   7.22385366
_cell_angle_alpha   64.11520262
_cell_angle_beta   115.88479738
_cell_angle_gamma   89.23802194
_symmetry_Int_Tables_number   1
_chemical_formula_structural   LiAuS
_chemical_formula_sum   'Li4 Au4 S4'
_cell_volume   231.65476993
_cell_formula_units_Z   4
loop_
 _symmetry_equiv_pos_site_id
 _symmetry_equiv_pos_as_xyz
  1  'x, y, z'
loop_
 _atom_site_type_symbol
 _atom_site_label
 _atom_site_symmetry_multiplicity
 _atom_site_fract_x
 _atom_site_fract_y
 _atom_site_fract_z
 _atom_site_occupancy
  Li  Li0  1  0.47539501  -0.22497709  0.95001661  1.0
  Li  Li1  1  1.22497709  0.52460499  0.45001661  1.0
  Li  Li2  1  0.77502291  0.47539501  0.54998339  1.0
  Li  Li3  1  0.52460499  0.22497709  0.04998339  1.0
  Au  Au4  1  0.50000000  0.00000000  0.50000000  1.0
  Au  Au5  1  1.00000000  0.50000000  -0.00000000  1.0
  Au  Au6  1  0.00000000  0.00000000  0.00000000  1.0
  Au  Au7  1  0.00000000  -0.00000000  0.50000000  1.0
  S  S8  1  1.58738382  0.16289587  0.75002672  1.0
  S  S9  1  0.83710413  0.41261618  0.25002672  1.0
  S  S10  1  1.16289587  0.58738382  0.74997328  1.0
  S  S11  1  1.41261618  -0.16289587  0.24997328  1.0
