# generated using pymatgen
data_KTiF4
_symmetry_space_group_name_H-M   'P 1'
_cell_length_a   12.47691236
_cell_length_b   7.85425523
_cell_length_c   8.06390383
_cell_angle_alpha   90.00000000
_cell_angle_beta   90.00000000
_cell_angle_gamma   90.00000000
_symmetry_Int_Tables_number   1
_chemical_formula_structural   KTiF4
_chemical_formula_sum   'K8 Ti8 F32'
_cell_volume   790.23720705
_cell_formula_units_Z   8
loop_
 _symmetry_equiv_pos_site_id
 _symmetry_equiv_pos_as_xyz
  1  'x, y, z'
loop_
 _atom_site_type_symbol
 _atom_site_label
 _atom_site_symmetry_multiplicity
 _atom_site_fract_x
 _atom_site_fract_y
 _atom_site_fract_z
 _atom_site_occupancy
  K  K0  1  0.47670982  0.75000000  0.87478272  1.0
  K  K1  1  0.97670982  0.75000000  0.62521728  1.0
  K  K2  1  0.52329018  0.25000000  0.12521728  1.0
  K  K3  1  0.02329018  0.25000000  0.37478272  1.0
  K  K4  1  0.98177620  0.75000000  0.12482895  1.0
  K  K5  1  0.48177620  0.75000000  0.37517105  1.0
  K  K6  1  0.01822380  0.25000000  0.87517105  1.0
  K  K7  1  0.51822380  0.25000000  0.62482895  1.0
  Ti  Ti8  1  0.24928417  0.99975309  0.62509008  1.0
  Ti  Ti9  1  0.24928417  0.50024691  0.62509008  1.0
  Ti  Ti10  1  0.74928417  0.99975309  0.87490992  1.0
  Ti  Ti11  1  0.74928417  0.50024691  0.87490992  1.0
  Ti  Ti12  1  0.75071583  0.49975309  0.37490992  1.0
  Ti  Ti13  1  0.75071583  0.00024691  0.37490992  1.0
  Ti  Ti14  1  0.25071583  0.49975309  0.12509008  1.0
  Ti  Ti15  1  0.25071583  0.00024691  0.12509008  1.0
  F  F16  1  0.40177840  0.94922259  0.12840009  1.0
  F  F17  1  0.40177840  0.55077741  0.12840009  1.0
  F  F18  1  0.90177840  0.94922259  0.37159991  1.0
  F  F19  1  0.90177840  0.55077741  0.37159991  1.0
  F  F20  1  0.59822160  0.44922259  0.87159991  1.0
  F  F21  1  0.59822160  0.05077741  0.87159991  1.0
  F  F22  1  0.09822160  0.44922259  0.62840009  1.0
  F  F23  1  0.09822160  0.05077741  0.62840009  1.0
  F  F24  1  0.40023013  0.94842870  0.62168841  1.0
  F  F25  1  0.40023013  0.55157130  0.62168841  1.0
  F  F26  1  0.90023013  0.94842870  0.87831159  1.0
  F  F27  1  0.90023013  0.55157130  0.87831159  1.0
  F  F28  1  0.59976987  0.44842870  0.37831159  1.0
  F  F29  1  0.59976987  0.05157130  0.37831159  1.0
  F  F30  1  0.09976987  0.44842870  0.12168841  1.0
  F  F31  1  0.09976987  0.05157130  0.12168841  1.0
  F  F32  1  0.25127395  0.98526234  0.87509475  1.0
  F  F33  1  0.25127395  0.51473766  0.87509475  1.0
  F  F34  1  0.75127395  0.98526234  0.62490525  1.0
  F  F35  1  0.75127395  0.51473766  0.62490525  1.0
  F  F36  1  0.74872605  0.48526234  0.12490525  1.0
  F  F37  1  0.74872605  0.01473766  0.12490525  1.0
  F  F38  1  0.24872605  0.48526234  0.37509475  1.0
  F  F39  1  0.24872605  0.01473766  0.37509475  1.0
  F  F40  1  0.21317476  0.75000000  0.13851171  1.0
  F  F41  1  0.71317476  0.75000000  0.36148829  1.0
  F  F42  1  0.78682524  0.25000000  0.86148829  1.0
  F  F43  1  0.28682524  0.25000000  0.63851171  1.0
  F  F44  1  0.21117078  0.75000000  0.61167598  1.0
  F  F45  1  0.71117078  0.75000000  0.88832402  1.0
  F  F46  1  0.78882922  0.25000000  0.38832402  1.0
  F  F47  1  0.28882922  0.25000000  0.11167598  1.0
