# generated using pymatgen
data_La3Ru
_symmetry_space_group_name_H-M   'P 1'
_cell_length_a   7.40139261
_cell_length_b   10.17687534
_cell_length_c   6.58996303
_cell_angle_alpha   90.00000000
_cell_angle_beta   90.00000000
_cell_angle_gamma   90.00000000
_symmetry_Int_Tables_number   1
_chemical_formula_structural   La3Ru
_chemical_formula_sum   'La12 Ru4'
_cell_volume   496.37611402
_cell_formula_units_Z   4
loop_
 _symmetry_equiv_pos_site_id
 _symmetry_equiv_pos_as_xyz
  1  'x, y, z'
loop_
 _atom_site_type_symbol
 _atom_site_label
 _atom_site_symmetry_multiplicity
 _atom_site_fract_x
 _atom_site_fract_y
 _atom_site_fract_z
 _atom_site_occupancy
  La  La0  1  0.33119847  0.92916558  0.67416091  1.0
  La  La1  1  0.33119847  0.57083442  0.67416091  1.0
  La  La2  1  0.83119847  0.92916558  0.82583909  1.0
  La  La3  1  0.83119847  0.57083442  0.82583909  1.0
  La  La4  1  0.66880153  0.42916558  0.32583909  1.0
  La  La5  1  0.66880153  0.07083442  0.32583909  1.0
  La  La6  1  0.16880153  0.42916558  0.17416091  1.0
  La  La7  1  0.16880153  0.07083442  0.17416091  1.0
  La  La8  1  0.44810631  0.75000000  0.15438493  1.0
  La  La9  1  0.94810631  0.75000000  0.34561507  1.0
  La  La10  1  0.55189369  0.25000000  0.84561507  1.0
  La  La11  1  0.05189369  0.25000000  0.65438493  1.0
  Ru  Ru12  1  0.11850297  0.75000000  0.94622761  1.0
  Ru  Ru13  1  0.61850297  0.75000000  0.55377239  1.0
  Ru  Ru14  1  0.88149703  0.25000000  0.05377239  1.0
  Ru  Ru15  1  0.38149703  0.25000000  0.44622761  1.0
