# generated using pymatgen
data_EuInAu
_symmetry_space_group_name_H-M   'P 1'
_cell_length_a   7.54060590
_cell_length_b   4.73566105
_cell_length_c   8.52388564
_cell_angle_alpha   90.00000000
_cell_angle_beta   90.00000000
_cell_angle_gamma   90.00000000
_symmetry_Int_Tables_number   1
_chemical_formula_structural   EuInAu
_chemical_formula_sum   'Eu4 In4 Au4'
_cell_volume   304.38585610
_cell_formula_units_Z   4
loop_
 _symmetry_equiv_pos_site_id
 _symmetry_equiv_pos_as_xyz
  1  'x, y, z'
loop_
 _atom_site_type_symbol
 _atom_site_label
 _atom_site_symmetry_multiplicity
 _atom_site_fract_x
 _atom_site_fract_y
 _atom_site_fract_z
 _atom_site_occupancy
  Eu  Eu0  1  0.97641777  0.75000000  0.68745587  1.0
  Eu  Eu1  1  0.47641777  0.75000000  0.81254413  1.0
  Eu  Eu2  1  0.02358223  0.25000000  0.31254413  1.0
  Eu  Eu3  1  0.52358223  0.25000000  0.18745587  1.0
  In  In4  1  0.83863004  0.75000000  0.06748804  1.0
  In  In5  1  0.33863004  0.75000000  0.43251196  1.0
  In  In6  1  0.16136996  0.25000000  0.93251196  1.0
  In  In7  1  0.66136996  0.25000000  0.56748804  1.0
  Au  Au8  1  0.72721567  0.75000000  0.38740359  1.0
  Au  Au9  1  0.22721567  0.75000000  0.11259641  1.0
  Au  Au10  1  0.27278433  0.25000000  0.61259641  1.0
  Au  Au11  1  0.77278433  0.25000000  0.88740359  1.0
