# generated using pymatgen
data_Na4Eu5Ge4
_symmetry_space_group_name_H-M   'P 1'
_cell_length_a   9.10540239
_cell_length_b   9.10540239
_cell_length_c   9.10540239
_cell_angle_alpha   93.73454406
_cell_angle_beta   93.73454406
_cell_angle_gamma   150.42752331
_symmetry_Int_Tables_number   1
_chemical_formula_structural   Na4Eu5Ge4
_chemical_formula_sum   'Na4 Eu5 Ge4'
_cell_volume   360.23052771
_cell_formula_units_Z   1
loop_
 _symmetry_equiv_pos_site_id
 _symmetry_equiv_pos_as_xyz
  1  'x, y, z'
loop_
 _atom_site_type_symbol
 _atom_site_label
 _atom_site_symmetry_multiplicity
 _atom_site_fract_x
 _atom_site_fract_y
 _atom_site_fract_z
 _atom_site_occupancy
  Na  Na0  1  0.89161382  0.59046693  0.48208075  1.0
  Na  Na1  1  0.59046693  0.10838618  0.69885311  1.0
  Na  Na2  1  1.10838618  1.40953307  1.51791925  1.0
  Na  Na3  1  0.40953307  0.89161382  1.30114689  1.0
  Eu  Eu4  1  0.62261363  0.70147553  1.32408916  1.0
  Eu  Eu5  1  0.70147553  1.37738637  1.07886190  1.0
  Eu  Eu6  1  0.37738637  0.29852447  0.67591084  1.0
  Eu  Eu7  1  1.29852447  0.62261363  0.92113810  1.0
  Eu  Eu8  1  0.00000000  0.00000000  0.00000000  1.0
  Ge  Ge9  1  0.76284388  0.92893178  1.69177565  1.0
  Ge  Ge10  1  0.92893178  1.23715612  1.16608790  1.0
  Ge  Ge11  1  0.23715612  0.07106822  0.30822435  1.0
  Ge  Ge12  1  1.07106822  0.76284388  0.83391210  1.0
