# generated using pymatgen
data_Ba2Mg3Al
_symmetry_space_group_name_H-M   'P 1'
_cell_length_a   6.46047984
_cell_length_b   6.46047984
_cell_length_c   20.83062541
_cell_angle_alpha   90.00000000
_cell_angle_beta   90.00000000
_cell_angle_gamma   120.00000000
_symmetry_Int_Tables_number   1
_chemical_formula_structural   Ba2Mg3Al
_chemical_formula_sum   'Ba8 Mg12 Al4'
_cell_volume   752.94368063
_cell_formula_units_Z   4
loop_
 _symmetry_equiv_pos_site_id
 _symmetry_equiv_pos_as_xyz
  1  'x, y, z'
loop_
 _atom_site_type_symbol
 _atom_site_label
 _atom_site_symmetry_multiplicity
 _atom_site_fract_x
 _atom_site_fract_y
 _atom_site_fract_z
 _atom_site_occupancy
  Ba  Ba0  1  0.00000000  0.00000000  0.40022002  1.0
  Ba  Ba1  1  0.00000000  0.00000000  0.90022002  1.0
  Ba  Ba2  1  0.00000000  0.00000000  0.59977998  1.0
  Ba  Ba3  1  0.00000000  0.00000000  0.09977998  1.0
  Ba  Ba4  1  0.33333333  0.66666667  0.34539079  1.0
  Ba  Ba5  1  0.66666667  0.33333333  0.84539079  1.0
  Ba  Ba6  1  0.66666667  0.33333333  0.65460921  1.0
  Ba  Ba7  1  0.33333333  0.66666667  0.15460921  1.0
  Mg  Mg8  1  0.34884336  0.17442168  0.25000000  1.0
  Mg  Mg9  1  0.82557832  0.17442168  0.25000000  1.0
  Mg  Mg10  1  0.82557832  0.65115664  0.25000000  1.0
  Mg  Mg11  1  0.65115664  0.82557832  0.75000000  1.0
  Mg  Mg12  1  0.17442168  0.82557832  0.75000000  1.0
  Mg  Mg13  1  0.17442168  0.34884336  0.75000000  1.0
  Mg  Mg14  1  -0.00000000  0.50000000  0.50000000  1.0
  Mg  Mg15  1  0.50000000  0.50000000  0.50000000  1.0
  Mg  Mg16  1  0.50000000  0.00000000  0.50000000  1.0
  Mg  Mg17  1  -0.00000000  0.50000000  0.00000000  1.0
  Mg  Mg18  1  0.50000000  0.50000000  0.00000000  1.0
  Mg  Mg19  1  0.50000000  0.00000000  0.00000000  1.0
  Al  Al20  1  0.33333333  0.66666667  0.62787142  1.0
  Al  Al21  1  0.66666667  0.33333333  0.12787142  1.0
  Al  Al22  1  0.66666667  0.33333333  0.37212858  1.0
  Al  Al23  1  0.33333333  0.66666667  0.87212858  1.0
