# generated using pymatgen
data_Ga2Se3
_symmetry_space_group_name_H-M   'P 1'
_cell_length_a   8.71552323
_cell_length_b   8.71552323
_cell_length_c   8.71552323
_cell_angle_alpha   25.56525683
_cell_angle_beta   25.56525683
_cell_angle_gamma   25.56525683
_symmetry_Int_Tables_number   1
_chemical_formula_structural   Ga2Se3
_chemical_formula_sum   'Ga2 Se3'
_cell_volume   108.54046584
_cell_formula_units_Z   1
loop_
 _symmetry_equiv_pos_site_id
 _symmetry_equiv_pos_as_xyz
  1  'x, y, z'
loop_
 _atom_site_type_symbol
 _atom_site_label
 _atom_site_symmetry_multiplicity
 _atom_site_fract_x
 _atom_site_fract_y
 _atom_site_fract_z
 _atom_site_occupancy
  Ga  Ga0  1  0.00470159  0.00470159  0.00470159  1.0
  Ga  Ga1  1  0.40930918  0.40930918  -0.59069082  1.0
  Se  Se2  1  0.79856938  -0.20143062  -0.20143062  1.0
  Se  Se3  1  0.61542930  0.61542930  -0.38457070  1.0
  Se  Se4  1  0.20699054  0.20699054  0.20699054  1.0
