# generated using pymatgen
data_NiSeO4
_symmetry_space_group_name_H-M   'P 1'
_cell_length_a   4.96396002
_cell_length_b   4.96396002
_cell_length_c   6.40728456
_cell_angle_alpha   90.00000000
_cell_angle_beta   90.00000000
_cell_angle_gamma   113.06888134
_symmetry_Int_Tables_number   1
_chemical_formula_structural   NiSeO4
_chemical_formula_sum   'Ni2 Se2 O8'
_cell_volume   145.25619081
_cell_formula_units_Z   2
loop_
 _symmetry_equiv_pos_site_id
 _symmetry_equiv_pos_as_xyz
  1  'x, y, z'
loop_
 _atom_site_type_symbol
 _atom_site_label
 _atom_site_symmetry_multiplicity
 _atom_site_fract_x
 _atom_site_fract_y
 _atom_site_fract_z
 _atom_site_occupancy
  Ni  Ni0  1  0.00000000  0.00000000  0.50000000  1.0
  Ni  Ni1  1  -0.00000000  -0.00000000  -0.00000000  1.0
  Se  Se2  1  0.34790645  0.65209355  0.25000000  1.0
  Se  Se3  1  -0.34790645  1.34790645  0.75000000  1.0
  O  O4  1  0.22429502  0.27639200  0.25000000  1.0
  O  O5  1  -0.72360800  1.22429502  0.75000000  1.0
  O  O6  1  0.72360800  0.77570498  0.25000000  1.0
  O  O7  1  -0.22429502  1.72360800  0.75000000  1.0
  O  O8  1  0.24170162  0.75829838  0.46885704  1.0
  O  O9  1  0.24170162  0.75829838  0.03114296  1.0
  O  O10  1  -0.24170162  1.24170162  0.96885704  1.0
  O  O11  1  -0.24170162  1.24170162  0.53114296  1.0
