# generated using pymatgen
data_Ba3Co(CN)3
_symmetry_space_group_name_H-M   'P 1'
_cell_length_a   9.11531748
_cell_length_b   9.11531748
_cell_length_c   5.80957727
_cell_angle_alpha   90.00000000
_cell_angle_beta   90.00000000
_cell_angle_gamma   120.00000000
_symmetry_Int_Tables_number   1
_chemical_formula_structural   Ba3Co(CN)3
_chemical_formula_sum   'Ba6 Co2 C6 N6'
_cell_volume   418.04088896
_cell_formula_units_Z   2
loop_
 _symmetry_equiv_pos_site_id
 _symmetry_equiv_pos_as_xyz
  1  'x, y, z'
loop_
 _atom_site_type_symbol
 _atom_site_label
 _atom_site_symmetry_multiplicity
 _atom_site_fract_x
 _atom_site_fract_y
 _atom_site_fract_z
 _atom_site_occupancy
  Ba  Ba0  1  0.93067827  0.62189677  0.25000000  1.0
  Ba  Ba1  1  0.62189677  0.69121850  0.75000000  1.0
  Ba  Ba2  1  0.69121850  0.06932173  0.25000000  1.0
  Ba  Ba3  1  0.37810323  0.30878150  0.25000000  1.0
  Ba  Ba4  1  0.06932173  0.37810323  0.75000000  1.0
  Ba  Ba5  1  0.30878150  0.93067827  0.75000000  1.0
  Co  Co6  1  0.33333333  0.66666667  0.25000000  1.0
  Co  Co7  1  0.66666667  0.33333333  0.75000000  1.0
  C  C8  1  0.30528854  0.84463393  0.25000000  1.0
  C  C9  1  0.84463393  0.53934539  0.75000000  1.0
  C  C10  1  0.53934539  0.69471146  0.25000000  1.0
  C  C11  1  0.15536607  0.46065461  0.25000000  1.0
  C  C12  1  0.69471146  0.15536607  0.75000000  1.0
  C  C13  1  0.46065461  0.30528854  0.75000000  1.0
  N  N14  1  0.28375392  0.96889448  0.25000000  1.0
  N  N15  1  0.96889448  0.68514056  0.75000000  1.0
  N  N16  1  0.68514056  0.71624608  0.25000000  1.0
  N  N17  1  0.03110552  0.31485944  0.25000000  1.0
  N  N18  1  0.71624608  0.03110552  0.75000000  1.0
  N  N19  1  0.31485944  0.28375392  0.75000000  1.0
