# generated using pymatgen
data_In6S7
_symmetry_space_group_name_H-M   'P 1'
_cell_length_a   9.25232859
_cell_length_b   3.94787539
_cell_length_c   17.58781909
_cell_angle_alpha   90.00000000
_cell_angle_beta   102.20736711
_cell_angle_gamma   90.00000000
_symmetry_Int_Tables_number   1
_chemical_formula_structural   In6S7
_chemical_formula_sum   'In12 S14'
_cell_volume   627.90478736
_cell_formula_units_Z   2
loop_
 _symmetry_equiv_pos_site_id
 _symmetry_equiv_pos_as_xyz
  1  'x, y, z'
loop_
 _atom_site_type_symbol
 _atom_site_label
 _atom_site_symmetry_multiplicity
 _atom_site_fract_x
 _atom_site_fract_y
 _atom_site_fract_z
 _atom_site_occupancy
  In  In0  1  0.97565144  0.25000000  0.39754810  1.0
  In  In1  1  0.02434856  0.75000000  0.60245190  1.0
  In  In2  1  0.92644213  0.25000000  0.87617959  1.0
  In  In3  1  0.07355787  0.75000000  0.12382041  1.0
  In  In4  1  0.67261216  0.25000000  0.53162641  1.0
  In  In5  1  0.32738784  0.75000000  0.46837359  1.0
  In  In6  1  0.52403691  0.25000000  0.72302441  1.0
  In  In7  1  0.47596309  0.75000000  0.27697559  1.0
  In  In8  1  0.35567930  0.25000000  0.04653543  1.0
  In  In9  1  0.64432070  0.75000000  0.95346457  1.0
  In  In10  1  0.18164021  0.25000000  0.81289822  1.0
  In  In11  1  0.81835979  0.75000000  0.18710178  1.0
  S  S12  1  0.88541294  0.25000000  0.65071957  1.0
  S  S13  1  0.11458706  0.75000000  0.34928043  1.0
  S  S14  1  0.83300355  0.25000000  0.00300911  1.0
  S  S15  1  0.16699645  0.75000000  0.99699089  1.0
  S  S16  1  0.76205299  0.25000000  0.27072824  1.0
  S  S17  1  0.23794701  0.75000000  0.72927176  1.0
  S  S18  1  0.46357454  0.25000000  0.41073345  1.0
  S  S19  1  0.53642546  0.75000000  0.58926655  1.0
  S  S20  1  0.44157774  0.25000000  0.91064987  1.0
  S  S21  1  0.55842226  0.75000000  0.08935013  1.0
  S  S22  1  0.25140668  0.25000000  0.17584038  1.0
  S  S23  1  0.74859332  0.75000000  0.82415962  1.0
  S  S24  1  0.16873749  0.25000000  0.53250629  1.0
  S  S25  1  0.83126251  0.75000000  0.46749371  1.0
