# generated using pymatgen
data_La3(OsO5)2
_symmetry_space_group_name_H-M   'P 1'
_cell_length_a   5.64357924
_cell_length_b   5.64357924
_cell_length_c   7.02528074
_cell_angle_alpha   72.26207236
_cell_angle_beta   107.73792764
_cell_angle_gamma   89.53667309
_symmetry_Int_Tables_number   1
_chemical_formula_structural   La3(OsO5)2
_chemical_formula_sum   'La3 Os2 O10'
_cell_volume   201.72655590
_cell_formula_units_Z   1
loop_
 _symmetry_equiv_pos_site_id
 _symmetry_equiv_pos_as_xyz
  1  'x, y, z'
loop_
 _atom_site_type_symbol
 _atom_site_label
 _atom_site_symmetry_multiplicity
 _atom_site_fract_x
 _atom_site_fract_y
 _atom_site_fract_z
 _atom_site_occupancy
  La  La0  1  0.74347209  -0.25652791  0.00000000  1.0
  La  La1  1  1.25652791  0.25652791  0.00000000  1.0
  La  La2  1  -0.00000000  0.00000000  0.50000000  1.0
  Os  Os3  1  0.63008259  -0.63008259  0.67562640  1.0
  Os  Os4  1  0.36991741  -0.36991741  0.32437360  1.0
  O  O5  1  1.40057625  0.12360744  0.71024946  1.0
  O  O6  1  0.87639256  -0.40057625  0.71024946  1.0
  O  O7  1  1.12360744  0.40057625  0.28975054  1.0
  O  O8  1  0.59942375  -0.12360744  0.28975054  1.0
  O  O9  1  0.90169865  -0.90169865  0.78223088  1.0
  O  O10  1  0.09830135  -0.09830135  0.21776912  1.0
  O  O11  1  0.67055068  -0.67055068  0.97188975  1.0
  O  O12  1  0.32944932  -0.32944932  0.02811025  1.0
  O  O13  1  0.64233977  -0.64233977  0.39752420  1.0
  O  O14  1  0.35766023  -0.35766023  0.60247580  1.0
