# generated using pymatgen
data_Gd(FeB)4
_symmetry_space_group_name_H-M   'P 1'
_cell_length_a   6.97839524
_cell_length_b   6.97839524
_cell_length_c   3.81482617
_cell_angle_alpha   90.00000000
_cell_angle_beta   90.00000000
_cell_angle_gamma   90.00000000
_symmetry_Int_Tables_number   1
_chemical_formula_structural   Gd(FeB)4
_chemical_formula_sum   'Gd2 Fe8 B8'
_cell_volume   185.77440523
_cell_formula_units_Z   2
loop_
 _symmetry_equiv_pos_site_id
 _symmetry_equiv_pos_as_xyz
  1  'x, y, z'
loop_
 _atom_site_type_symbol
 _atom_site_label
 _atom_site_symmetry_multiplicity
 _atom_site_fract_x
 _atom_site_fract_y
 _atom_site_fract_z
 _atom_site_occupancy
  Gd  Gd0  1  0.00000000  0.00000000  0.00000000  1.0
  Gd  Gd1  1  0.50000000  0.50000000  0.50000000  1.0
  Fe  Fe2  1  0.13186756  0.38583433  0.89107189  1.0
  Fe  Fe3  1  0.86813244  0.61416567  0.89107189  1.0
  Fe  Fe4  1  0.88583433  0.36813244  0.39107189  1.0
  Fe  Fe5  1  0.11416567  0.63186756  0.39107189  1.0
  Fe  Fe6  1  0.36813244  0.11416567  0.60892811  1.0
  Fe  Fe7  1  0.63186756  0.88583433  0.60892811  1.0
  Fe  Fe8  1  0.61416567  0.13186756  0.10892811  1.0
  Fe  Fe9  1  0.38583433  0.86813244  0.10892811  1.0
  B  B10  1  0.66653042  0.80035303  0.10672789  1.0
  B  B11  1  0.33346958  0.19964697  0.10672789  1.0
  B  B12  1  0.30035303  0.83346958  0.60672789  1.0
  B  B13  1  0.69964697  0.16653042  0.60672789  1.0
  B  B14  1  0.83346958  0.69964697  0.39327211  1.0
  B  B15  1  0.16653042  0.30035303  0.39327211  1.0
  B  B16  1  0.19964697  0.66653042  0.89327211  1.0
  B  B17  1  0.80035303  0.33346958  0.89327211  1.0
