# generated using pymatgen
data_Fe(NiSe2)2
_symmetry_space_group_name_H-M   'P 1'
_cell_length_a   6.35491337
_cell_length_b   6.35491337
_cell_length_c   6.22793142
_cell_angle_alpha   61.71847648
_cell_angle_beta   118.28152352
_cell_angle_gamma   147.15550715
_symmetry_Int_Tables_number   1
_chemical_formula_structural   Fe(NiSe2)2
_chemical_formula_sum   'Fe1 Ni2 Se4'
_cell_volume   118.60815531
_cell_formula_units_Z   1
loop_
 _symmetry_equiv_pos_site_id
 _symmetry_equiv_pos_as_xyz
  1  'x, y, z'
loop_
 _atom_site_type_symbol
 _atom_site_label
 _atom_site_symmetry_multiplicity
 _atom_site_fract_x
 _atom_site_fract_y
 _atom_site_fract_z
 _atom_site_occupancy
  Fe  Fe0  1  0.00000000  0.00000000  0.00000000  1.0
  Ni  Ni1  1  0.73964156  -0.73964156  0.71327445  1.0
  Ni  Ni2  1  1.26035844  -0.26035844  0.28672554  1.0
  Se  Se3  1  0.88257092  -0.88257092  0.54971378  1.0
  Se  Se4  1  1.11742908  -0.11742908  0.45028622  1.0
  Se  Se5  1  0.63558739  -0.63558739  0.97494843  1.0
  Se  Se6  1  1.36441261  -0.36441261  0.02505157  1.0
