# generated using pymatgen
data_NaCa3IrO6
_symmetry_space_group_name_H-M   'P 1'
_cell_length_a   6.55352837
_cell_length_b   6.55352837
_cell_length_c   6.55352837
_cell_angle_alpha   90.44957657
_cell_angle_beta   90.44957657
_cell_angle_gamma   90.44957657
_symmetry_Int_Tables_number   1
_chemical_formula_structural   NaCa3IrO6
_chemical_formula_sum   'Na2 Ca6 Ir2 O12'
_cell_volume   281.43961620
_cell_formula_units_Z   2
loop_
 _symmetry_equiv_pos_site_id
 _symmetry_equiv_pos_as_xyz
  1  'x, y, z'
loop_
 _atom_site_type_symbol
 _atom_site_label
 _atom_site_symmetry_multiplicity
 _atom_site_fract_x
 _atom_site_fract_y
 _atom_site_fract_z
 _atom_site_occupancy
  Na  Na0  1  0.25000000  0.25000000  0.25000000  1.0
  Na  Na1  1  0.75000000  0.75000000  0.75000000  1.0
  Ca  Ca2  1  0.89587784  1.25000000  -0.39587784  1.0
  Ca  Ca3  1  1.39587784  0.10412216  -0.25000000  1.0
  Ca  Ca4  1  0.75000000  0.39587784  0.10412216  1.0
  Ca  Ca5  1  1.25000000  0.60412216  -0.10412216  1.0
  Ca  Ca6  1  1.10412216  -0.25000000  0.39587784  1.0
  Ca  Ca7  1  0.60412216  0.89587784  0.25000000  1.0
  Ir  Ir8  1  0.50000000  0.50000000  0.50000000  1.0
  Ir  Ir9  1  0.00000000  0.00000000  0.00000000  1.0
  O  O10  1  1.20878466  0.43273214  -0.44172492  1.0
  O  O11  1  0.70878466  1.05827508  -0.06726786  1.0
  O  O12  1  0.94172492  0.06726786  0.29121534  1.0
  O  O13  1  1.44172492  -0.20878466  0.56726786  1.0
  O  O14  1  1.56726786  0.44172492  -0.20878466  1.0
  O  O15  1  1.06726786  0.29121534  -0.05827508  1.0
  O  O16  1  0.79121534  0.56726786  0.44172492  1.0
  O  O17  1  1.29121534  -0.05827508  0.06726786  1.0
  O  O18  1  0.55827508  1.20878466  -0.56726786  1.0
  O  O19  1  1.05827508  0.93273214  -0.29121534  1.0
  O  O20  1  0.93273214  0.70878466  0.05827508  1.0
  O  O21  1  0.43273214  0.55827508  0.20878466  1.0
