# generated using pymatgen
data_Rb2Si(NO)2
_symmetry_space_group_name_H-M   'P 1'
_cell_length_a   6.54905423
_cell_length_b   11.17185395
_cell_length_c   8.30034036
_cell_angle_alpha   90.00000000
_cell_angle_beta   92.23136034
_cell_angle_gamma   90.00000000
_symmetry_Int_Tables_number   1
_chemical_formula_structural   Rb2Si(NO)2
_chemical_formula_sum   'Rb8 Si4 N8 O8'
_cell_volume   606.83456715
_cell_formula_units_Z   4
loop_
 _symmetry_equiv_pos_site_id
 _symmetry_equiv_pos_as_xyz
  1  'x, y, z'
loop_
 _atom_site_type_symbol
 _atom_site_label
 _atom_site_symmetry_multiplicity
 _atom_site_fract_x
 _atom_site_fract_y
 _atom_site_fract_z
 _atom_site_occupancy
  Rb  Rb0  1  0.73839013  0.07834188  0.33950665  1.0
  Rb  Rb1  1  0.73839013  0.42165812  0.83950665  1.0
  Rb  Rb2  1  0.26160987  0.57834188  0.16049335  1.0
  Rb  Rb3  1  0.26160987  0.92165812  0.66049335  1.0
  Rb  Rb4  1  0.29196861  0.27333536  0.50369111  1.0
  Rb  Rb5  1  0.29196861  0.22666464  1.00369111  1.0
  Rb  Rb6  1  0.70803139  0.77333536  -0.00369111  1.0
  Rb  Rb7  1  0.70803139  0.72666464  0.49630889  1.0
  Si  Si8  1  0.74282750  0.42068423  0.27183239  1.0
  Si  Si9  1  0.74282750  0.07931577  0.77183239  1.0
  Si  Si10  1  0.25717250  0.92068423  0.22816761  1.0
  Si  Si11  1  0.25717250  0.57931577  0.72816761  1.0
  N  N12  1  1.02170690  0.85235879  0.28445950  1.0
  N  N13  1  1.02170690  0.64764121  0.78445950  1.0
  N  N14  1  -0.02170690  0.35235879  0.21554050  1.0
  N  N15  1  -0.02170690  0.14764121  0.71554050  1.0
  N  N16  1  0.76182849  0.45372402  0.48295024  1.0
  N  N17  1  0.76182849  0.04627598  0.98295024  1.0
  N  N18  1  0.23817151  0.95372402  0.01704976  1.0
  N  N19  1  0.23817151  0.54627598  0.51704976  1.0
  O  O20  1  0.57083942  0.31908713  0.24225794  1.0
  O  O21  1  0.57083942  0.18091287  0.74225794  1.0
  O  O22  1  0.42916058  0.81908713  0.25774206  1.0
  O  O23  1  0.42916058  0.68091287  0.75774206  1.0
  O  O24  1  0.27115383  0.04440259  0.32830957  1.0
  O  O25  1  0.27115383  0.45559741  0.82830957  1.0
  O  O26  1  0.72884617  0.54440259  0.17169043  1.0
  O  O27  1  0.72884617  0.95559741  0.67169043  1.0
