# generated using pymatgen
data_CaTa2Bi2O9
_symmetry_space_group_name_H-M   'P 1'
_cell_length_a   13.01723666
_cell_length_b   13.01723666
_cell_length_c   5.56180874
_cell_angle_alpha   90.00000000
_cell_angle_beta   90.00000000
_cell_angle_gamma   24.34367994
_symmetry_Int_Tables_number   1
_chemical_formula_structural   CaTa2Bi2O9
_chemical_formula_sum   'Ca2 Ta4 Bi4 O18'
_cell_volume   388.48224932
_cell_formula_units_Z   2
loop_
 _symmetry_equiv_pos_site_id
 _symmetry_equiv_pos_as_xyz
  1  'x, y, z'
loop_
 _atom_site_type_symbol
 _atom_site_label
 _atom_site_symmetry_multiplicity
 _atom_site_fract_x
 _atom_site_fract_y
 _atom_site_fract_z
 _atom_site_occupancy
  Ca  Ca0  1  -0.24440257  0.24440257  0.93863835  1.0
  Ca  Ca1  1  -0.75559743  0.75559743  0.43863835  1.0
  Ta  Ta2  1  -0.33291288  1.17162705  0.47290975  1.0
  Ta  Ta3  1  0.17162705  0.66708712  0.97290975  1.0
  Ta  Ta4  1  -0.17162705  0.33291288  0.47290975  1.0
  Ta  Ta5  1  -0.66708712  0.82837295  0.97290975  1.0
  Bi  Bi6  1  -0.58061043  0.97898831  0.37843968  1.0
  Bi  Bi7  1  -0.02101169  0.41938957  0.87843968  1.0
  Bi  Bi8  1  0.02101169  0.58061043  0.37843968  1.0
  Bi  Bi9  1  -0.41938957  1.02101169  0.87843968  1.0
  O  O10  1  -0.09582062  0.97465784  0.20747873  1.0
  O  O11  1  -0.02534216  0.90417938  0.70747873  1.0
  O  O12  1  0.02534216  0.09582062  0.20747873  1.0
  O  O13  1  -0.90417938  1.02534216  0.70747873  1.0
  O  O14  1  -0.32057207  1.01488386  0.48732053  1.0
  O  O15  1  0.01488386  0.67942793  0.98732053  1.0
  O  O16  1  -0.01488386  0.32057207  0.48732053  1.0
  O  O17  1  -0.67942793  0.98511614  0.98732053  1.0
  O  O18  1  -0.26491907  0.76532837  0.15906968  1.0
  O  O19  1  -0.23467163  0.73508093  0.65906968  1.0
  O  O20  1  0.23467163  0.26491907  0.15906968  1.0
  O  O21  1  -0.73508093  1.23467163  0.65906968  1.0
  O  O22  1  -0.46157084  0.63302332  0.28305023  1.0
  O  O23  1  -0.36697668  0.53842916  0.78305023  1.0
  O  O24  1  0.36697668  0.46157084  0.28305023  1.0
  O  O25  1  -0.53842916  1.36697668  0.78305023  1.0
  O  O26  1  -0.32974334  0.32974334  0.51102445  1.0
  O  O27  1  -0.67025666  0.67025666  0.01102445  1.0
