# generated using pymatgen
data_La4Al
_symmetry_space_group_name_H-M   'P 1'
_cell_length_a   8.19692841
_cell_length_b   8.19692841
_cell_length_c   8.19692841
_cell_angle_alpha   60.00000000
_cell_angle_beta   60.00000000
_cell_angle_gamma   60.00000000
_symmetry_Int_Tables_number   1
_chemical_formula_structural   La4Al
_chemical_formula_sum   'La8 Al2'
_cell_volume   389.43809232
_cell_formula_units_Z   2
loop_
 _symmetry_equiv_pos_site_id
 _symmetry_equiv_pos_as_xyz
  1  'x, y, z'
loop_
 _atom_site_type_symbol
 _atom_site_label
 _atom_site_symmetry_multiplicity
 _atom_site_fract_x
 _atom_site_fract_y
 _atom_site_fract_z
 _atom_site_occupancy
  La  La0  1  -0.10584200  0.89415800  0.31752599  1.0
  La  La1  1  0.89415800  -0.68247401  0.89415800  1.0
  La  La2  1  0.35584200  0.35584200  0.35584200  1.0
  La  La3  1  -0.06752599  0.35584200  0.35584200  1.0
  La  La4  1  -0.68247401  0.89415800  0.89415800  1.0
  La  La5  1  0.89415800  -0.10584200  0.89415800  1.0
  La  La6  1  0.35584200  -0.06752599  0.35584200  1.0
  La  La7  1  0.35584200  0.35584200  -0.06752599  1.0
  Al  Al8  1  0.50000000  0.50000000  -0.50000000  1.0
  Al  Al9  1  0.75000000  -0.25000000  0.75000000  1.0
