# generated using pymatgen
data_Rb2InCl5O
_symmetry_space_group_name_H-M   'P 1'
_cell_length_a   14.21309541
_cell_length_b   10.39166035
_cell_length_c   7.67278647
_cell_angle_alpha   90.00000000
_cell_angle_beta   90.00000000
_cell_angle_gamma   90.00000000
_symmetry_Int_Tables_number   1
_chemical_formula_structural   Rb2InCl5O
_chemical_formula_sum   'Rb8 In4 Cl20 O4'
_cell_volume   1133.25260830
_cell_formula_units_Z   4
loop_
 _symmetry_equiv_pos_site_id
 _symmetry_equiv_pos_as_xyz
  1  'x, y, z'
loop_
 _atom_site_type_symbol
 _atom_site_label
 _atom_site_symmetry_multiplicity
 _atom_site_fract_x
 _atom_site_fract_y
 _atom_site_fract_z
 _atom_site_occupancy
  O  O0  1  -0.08369318  0.25000000  0.53977521  1.0
  O  O1  1  0.41630682  0.25000000  0.96022479  1.0
  O  O2  1  1.08369318  0.75000000  0.46022479  1.0
  O  O3  1  0.58369318  0.75000000  0.03977521  1.0
  Cl  Cl4  1  1.00593116  0.25000000  0.04717074  1.0
  Cl  Cl5  1  0.50593116  0.25000000  0.45282926  1.0
  Cl  Cl6  1  -0.00593116  0.75000000  0.95282926  1.0
  Cl  Cl7  1  0.49406884  0.75000000  0.54717074  1.0
  Cl  Cl8  1  0.75000418  0.25000000  0.55639133  1.0
  Cl  Cl9  1  0.25000418  0.25000000  0.94360867  1.0
  Cl  Cl10  1  0.24999582  0.75000000  0.44360867  1.0
  Cl  Cl11  1  0.74999582  0.75000000  0.05639133  1.0
  Cl  Cl12  1  0.74265530  0.25000000  0.06995662  1.0
  Cl  Cl13  1  0.24265530  0.25000000  0.43004338  1.0
  Cl  Cl14  1  0.25734470  0.75000000  0.93004338  1.0
  Cl  Cl15  1  0.75734470  0.75000000  0.56995662  1.0
  Cl  Cl16  1  0.89134573  0.48807234  0.31987133  1.0
  Cl  Cl17  1  0.89134573  0.01192766  0.31987133  1.0
  Cl  Cl18  1  0.39134573  0.48807234  0.18012867  1.0
  Cl  Cl19  1  0.39134573  0.01192766  0.18012867  1.0
  Cl  Cl20  1  0.10865427  0.98807234  0.68012867  1.0
  Cl  Cl21  1  0.10865427  0.51192766  0.68012867  1.0
  Cl  Cl22  1  0.60865427  0.98807234  0.81987133  1.0
  Cl  Cl23  1  0.60865427  0.51192766  0.81987133  1.0
  Rb  Rb24  1  0.63315889  0.51451809  0.29011274  1.0
  Rb  Rb25  1  0.63315889  0.98548191  0.29011274  1.0
  Rb  Rb26  1  0.13315889  0.51451809  0.20988726  1.0
  Rb  Rb27  1  0.13315889  0.98548191  0.20988726  1.0
  Rb  Rb28  1  0.36684111  0.01451809  0.70988726  1.0
  Rb  Rb29  1  0.36684111  0.48548191  0.70988726  1.0
  Rb  Rb30  1  0.86684111  0.01451809  0.79011274  1.0
  Rb  Rb31  1  0.86684111  0.48548191  0.79011274  1.0
  In  In32  1  0.87787411  0.25000000  0.26693596  1.0
  In  In33  1  0.37787411  0.25000000  0.23306404  1.0
  In  In34  1  0.12212589  0.75000000  0.73306404  1.0
  In  In35  1  0.62212589  0.75000000  0.76693596  1.0
