# generated using pymatgen
data_BaErMn2O5
_symmetry_space_group_name_H-M   'P 1'
_cell_length_a   5.54250268
_cell_length_b   5.54250268
_cell_length_c   7.60626367
_cell_angle_alpha   90.00000000
_cell_angle_beta   90.00000000
_cell_angle_gamma   90.00000000
_symmetry_Int_Tables_number   1
_chemical_formula_structural   BaErMn2O5
_chemical_formula_sum   'Ba2 Er2 Mn4 O10'
_cell_volume   233.65936869
_cell_formula_units_Z   2
loop_
 _symmetry_equiv_pos_site_id
 _symmetry_equiv_pos_as_xyz
  1  'x, y, z'
loop_
 _atom_site_type_symbol
 _atom_site_label
 _atom_site_symmetry_multiplicity
 _atom_site_fract_x
 _atom_site_fract_y
 _atom_site_fract_z
 _atom_site_occupancy
  Er  Er0  1  0.00000000  0.00000000  0.50000000  1.0
  Er  Er1  1  0.50000000  0.50000000  0.50000000  1.0
  O  O2  1  0.25000143  0.75000143  0.69241173  1.0
  O  O3  1  0.74999857  0.75000143  0.69241173  1.0
  O  O4  1  0.25000143  0.24999857  0.69241173  1.0
  O  O5  1  0.74999857  0.24999857  0.69241173  1.0
  O  O6  1  0.24999857  0.74999857  0.30758827  1.0
  O  O7  1  0.75000143  0.74999857  0.30758827  1.0
  O  O8  1  0.24999857  0.25000143  0.30758827  1.0
  O  O9  1  0.75000143  0.25000143  0.30758827  1.0
  O  O10  1  0.00000000  0.50000000  0.99999754  1.0
  O  O11  1  0.50000000  0.00000000  0.00000246  1.0
  Ba  Ba12  1  0.00000000  0.00000000  0.00000000  1.0
  Ba  Ba13  1  0.50000000  0.50000000  0.00000000  1.0
  Mn  Mn14  1  0.00000000  0.50000000  0.26971826  1.0
  Mn  Mn15  1  0.50000000  0.00000000  0.73028174  1.0
  Mn  Mn16  1  0.00000000  0.50000000  0.73027557  1.0
  Mn  Mn17  1  0.50000000  0.00000000  0.26972443  1.0
