# generated using pymatgen
data_Y2Si3Pt
_symmetry_space_group_name_H-M   'P 1'
_cell_length_a   8.13641523
_cell_length_b   8.13641523
_cell_length_c   8.19666742
_cell_angle_alpha   90.00000000
_cell_angle_beta   90.00000000
_cell_angle_gamma   120.00000000
_symmetry_Int_Tables_number   1
_chemical_formula_structural   Y2Si3Pt
_chemical_formula_sum   'Y8 Si12 Pt4'
_cell_volume   469.93106380
_cell_formula_units_Z   4
loop_
 _symmetry_equiv_pos_site_id
 _symmetry_equiv_pos_as_xyz
  1  'x, y, z'
loop_
 _atom_site_type_symbol
 _atom_site_label
 _atom_site_symmetry_multiplicity
 _atom_site_fract_x
 _atom_site_fract_y
 _atom_site_fract_z
 _atom_site_occupancy
  Y  Y0  1  0.49998813  0.50001187  0.25000000  1.0
  Y  Y1  1  0.49998813  -0.00002375  0.25000000  1.0
  Y  Y2  1  0.50001187  0.49998813  0.75000000  1.0
  Y  Y3  1  0.50001187  1.00002375  0.75000000  1.0
  Y  Y4  1  1.00002375  0.50001187  0.25000000  1.0
  Y  Y5  1  -0.00002375  0.49998813  0.75000000  1.0
  Y  Y6  1  0.00000000  0.00000000  0.25000000  1.0
  Y  Y7  1  0.00000000  0.00000000  0.75000000  1.0
  Si  Si8  1  0.16577715  0.83422285  0.50002988  1.0
  Si  Si9  1  0.16577715  0.83422285  -0.00002988  1.0
  Si  Si10  1  0.16577715  0.33155430  0.50002988  1.0
  Si  Si11  1  0.16577715  0.33155430  -0.00002988  1.0
  Si  Si12  1  0.83422285  0.16577715  1.00002988  1.0
  Si  Si13  1  0.83422285  0.16577715  0.49997012  1.0
  Si  Si14  1  0.83422285  0.66844570  1.00002988  1.0
  Si  Si15  1  0.83422285  0.66844570  0.49997012  1.0
  Si  Si16  1  0.66844570  0.83422285  0.50002988  1.0
  Si  Si17  1  0.66844570  0.83422285  -0.00002988  1.0
  Si  Si18  1  0.33155430  0.16577715  1.00002988  1.0
  Si  Si19  1  0.33155430  0.16577715  0.49997012  1.0
  Pt  Pt20  1  0.33333333  0.66666667  0.49994466  1.0
  Pt  Pt21  1  0.33333333  0.66666667  0.00005534  1.0
  Pt  Pt22  1  0.66666667  0.33333333  0.99994466  1.0
  Pt  Pt23  1  0.66666667  0.33333333  0.50005534  1.0
