# generated using pymatgen
data_La4MnS7
_symmetry_space_group_name_H-M   'P 1'
_cell_length_a   9.95202192
_cell_length_b   9.95202192
_cell_length_c   7.24780081
_cell_angle_alpha   90.00000000
_cell_angle_beta   90.00000000
_cell_angle_gamma   120.00000000
_symmetry_Int_Tables_number   1
_chemical_formula_structural   La4MnS7
_chemical_formula_sum   'La8 Mn2 S14'
_cell_volume   621.66945344
_cell_formula_units_Z   2
loop_
 _symmetry_equiv_pos_site_id
 _symmetry_equiv_pos_as_xyz
  1  'x, y, z'
loop_
 _atom_site_type_symbol
 _atom_site_label
 _atom_site_symmetry_multiplicity
 _atom_site_fract_x
 _atom_site_fract_y
 _atom_site_fract_z
 _atom_site_occupancy
  La  La0  1  0.82728517  0.62266598  0.22118890  1.0
  La  La1  1  0.62266598  0.79538082  0.72118890  1.0
  La  La2  1  0.79538082  0.17271483  0.22118890  1.0
  La  La3  1  0.37733402  0.20461918  0.22118890  1.0
  La  La4  1  0.17271483  0.37733402  0.72118890  1.0
  La  La5  1  0.20461918  0.82728517  0.72118890  1.0
  La  La6  1  0.33333333  0.66666667  0.18157486  1.0
  La  La7  1  0.66666667  0.33333333  0.68157486  1.0
  Mn  Mn8  1  0.00000000  0.00000000  -0.05910451  1.0
  Mn  Mn9  1  0.00000000  0.00000000  0.44089549  1.0
  S  S10  1  0.13286638  0.88122309  0.32677405  1.0
  S  S11  1  0.88122309  0.74835672  0.82677405  1.0
  S  S12  1  0.74835672  0.86713362  0.32677405  1.0
  S  S13  1  0.11877691  0.25164328  0.32677405  1.0
  S  S14  1  0.86713362  0.11877691  0.82677405  1.0
  S  S15  1  0.25164328  0.13286638  0.82677405  1.0
  S  S16  1  0.54900228  0.47363059  0.45691585  1.0
  S  S17  1  0.47363059  0.92462832  0.95691585  1.0
  S  S18  1  0.92462832  0.45099772  0.45691585  1.0
  S  S19  1  0.52636941  0.07537168  0.45691585  1.0
  S  S20  1  0.45099772  0.52636941  0.95691585  1.0
  S  S21  1  0.07537168  0.54900228  0.95691585  1.0
  S  S22  1  0.33333333  0.66666667  0.55889325  1.0
  S  S23  1  0.66666667  0.33333333  0.05889325  1.0
