# generated using pymatgen
data_HNO3
_symmetry_space_group_name_H-M   'P 1'
_cell_length_a   7.96300086
_cell_length_b   8.60316367
_cell_length_c   8.78138778
_cell_angle_alpha   90.00000000
_cell_angle_beta   123.47373185
_cell_angle_gamma   90.00000000
_symmetry_Int_Tables_number   1
_chemical_formula_structural   HNO3
_chemical_formula_sum   'H8 N8 O24'
_cell_volume   501.80665349
_cell_formula_units_Z   8
loop_
 _symmetry_equiv_pos_site_id
 _symmetry_equiv_pos_as_xyz
  1  'x, y, z'
loop_
 _atom_site_type_symbol
 _atom_site_label
 _atom_site_symmetry_multiplicity
 _atom_site_fract_x
 _atom_site_fract_y
 _atom_site_fract_z
 _atom_site_occupancy
  H  H0  1  0.98582596  0.19051294  0.26372148  1.0
  H  H1  1  0.98582596  0.30948706  0.76372148  1.0
  H  H2  1  0.01417404  0.69051294  0.23627852  1.0
  H  H3  1  0.01417404  0.80948706  0.73627852  1.0
  H  H4  1  0.52090282  0.03141406  0.27640403  1.0
  H  H5  1  0.52090282  0.46858594  0.77640403  1.0
  H  H6  1  0.47909718  0.53141406  0.22359597  1.0
  H  H7  1  0.47909718  0.96858594  0.72359597  1.0
  N  N8  1  0.98940364  0.41234739  0.25213747  1.0
  N  N9  1  0.98940364  0.08765261  0.75213747  1.0
  N  N10  1  0.01059636  0.91234739  0.24786253  1.0
  N  N11  1  0.01059636  0.58765261  0.74786253  1.0
  N  N12  1  0.50922745  0.25356286  0.26365152  1.0
  N  N13  1  0.50922745  0.24643714  0.76365152  1.0
  N  N14  1  0.49077255  0.75356286  0.23634848  1.0
  N  N15  1  0.49077255  0.74643714  0.73634848  1.0
  O  O16  1  0.92261250  0.28125530  0.28943051  1.0
  O  O17  1  0.92261250  0.21874470  0.78943051  1.0
  O  O18  1  0.07738750  0.78125530  0.21056949  1.0
  O  O19  1  0.07738750  0.71874470  0.71056949  1.0
  O  O20  1  0.92359222  0.96651883  0.77608881  1.0
  O  O21  1  0.92359222  0.53348117  0.27608881  1.0
  O  O22  1  0.07640778  0.46651883  0.72391119  1.0
  O  O23  1  0.07640778  0.03348117  0.22391119  1.0
  O  O24  1  0.89739397  0.90054627  0.29923087  1.0
  O  O25  1  0.89739397  0.59945373  0.79923087  1.0
  O  O26  1  0.10260603  0.40054627  0.20076913  1.0
  O  O27  1  0.10260603  0.09945373  0.70076913  1.0
  O  O28  1  0.58423414  0.12153606  0.36612371  1.0
  O  O29  1  0.58423414  0.37846394  0.86612371  1.0
  O  O30  1  0.41576586  0.62153606  0.13387629  1.0
  O  O31  1  0.41576586  0.87846394  0.63387629  1.0
  O  O32  1  0.57217943  0.37413985  0.35449240  1.0
  O  O33  1  0.57217943  0.12586015  0.85449240  1.0
  O  O34  1  0.42782057  0.87413985  0.14550760  1.0
  O  O35  1  0.42782057  0.62586015  0.64550760  1.0
  O  O36  1  0.39256022  0.24209589  0.09945318  1.0
  O  O37  1  0.39256022  0.25790411  0.59945318  1.0
  O  O38  1  0.60743978  0.74209589  0.40054682  1.0
  O  O39  1  0.60743978  0.75790411  0.90054682  1.0
