# generated using pymatgen
data_BaBSbS4
_symmetry_space_group_name_H-M   'P 1'
_cell_length_a   10.03385849
_cell_length_b   6.26401222
_cell_length_c   11.89425021
_cell_angle_alpha   90.00000000
_cell_angle_beta   90.00000000
_cell_angle_gamma   90.00000000
_symmetry_Int_Tables_number   1
_chemical_formula_structural   BaBSbS4
_chemical_formula_sum   'Ba4 B4 Sb4 S16'
_cell_volume   747.57993913
_cell_formula_units_Z   4
loop_
 _symmetry_equiv_pos_site_id
 _symmetry_equiv_pos_as_xyz
  1  'x, y, z'
loop_
 _atom_site_type_symbol
 _atom_site_label
 _atom_site_symmetry_multiplicity
 _atom_site_fract_x
 _atom_site_fract_y
 _atom_site_fract_z
 _atom_site_occupancy
  Ba  Ba0  1  0.51250621  0.75000000  0.66895308  1.0
  Ba  Ba1  1  0.01250621  0.75000000  0.83104692  1.0
  Ba  Ba2  1  0.48749379  0.25000000  0.33104692  1.0
  Ba  Ba3  1  0.98749379  0.25000000  0.16895308  1.0
  B  B4  1  0.80503462  0.75000000  0.45287609  1.0
  B  B5  1  0.30503462  0.75000000  0.04712391  1.0
  B  B6  1  0.19496538  0.25000000  0.54712391  1.0
  B  B7  1  0.69496538  0.25000000  0.95287609  1.0
  Sb  Sb8  1  0.69619837  0.75000000  0.04293905  1.0
  Sb  Sb9  1  0.19619837  0.75000000  0.45706095  1.0
  Sb  Sb10  1  0.30380163  0.25000000  0.95706095  1.0
  Sb  Sb11  1  0.80380163  0.25000000  0.54293905  1.0
  S  S12  1  0.79286519  0.99768443  0.37342700  1.0
  S  S13  1  0.79286519  0.50231557  0.37342700  1.0
  S  S14  1  0.29286519  0.99768443  0.12657300  1.0
  S  S15  1  0.29286519  0.50231557  0.12657300  1.0
  S  S16  1  0.20713481  0.49768443  0.62657300  1.0
  S  S17  1  0.20713481  0.00231557  0.62657300  1.0
  S  S18  1  0.70713481  0.49768443  0.87342700  1.0
  S  S19  1  0.70713481  0.00231557  0.87342700  1.0
  S  S20  1  0.93006726  0.75000000  0.08990697  1.0
  S  S21  1  0.43006726  0.75000000  0.41009303  1.0
  S  S22  1  0.06993274  0.25000000  0.91009303  1.0
  S  S23  1  0.56993274  0.25000000  0.58990697  1.0
  S  S24  1  0.82162574  0.75000000  0.60323645  1.0
  S  S25  1  0.32162574  0.75000000  0.89676355  1.0
  S  S26  1  0.17837426  0.25000000  0.39676355  1.0
  S  S27  1  0.67837426  0.25000000  0.10323645  1.0
