# generated using pymatgen
data_Gd2Sn2Au5
_symmetry_space_group_name_H-M   'P 1'
_cell_length_a   8.42152006
_cell_length_b   8.42152006
_cell_length_c   9.57969930
_cell_angle_alpha   90.00000000
_cell_angle_beta   90.00000000
_cell_angle_gamma   120.00000000
_symmetry_Int_Tables_number   1
_chemical_formula_structural   Gd2Sn2Au5
_chemical_formula_sum   'Gd6 Sn6 Au15'
_cell_volume   588.38756278
_cell_formula_units_Z   3
loop_
 _symmetry_equiv_pos_site_id
 _symmetry_equiv_pos_as_xyz
  1  'x, y, z'
loop_
 _atom_site_type_symbol
 _atom_site_label
 _atom_site_symmetry_multiplicity
 _atom_site_fract_x
 _atom_site_fract_y
 _atom_site_fract_z
 _atom_site_occupancy
  Gd  Gd0  1  0.69779637  0.69779637  0.50000000  1.0
  Gd  Gd1  1  -0.00000000  0.30220363  0.50000000  1.0
  Gd  Gd2  1  0.30220363  0.00000000  0.50000000  1.0
  Gd  Gd3  1  0.35454742  0.35454742  0.00000000  1.0
  Gd  Gd4  1  -0.00000000  0.64545258  0.00000000  1.0
  Gd  Gd5  1  0.64545258  0.00000000  0.00000000  1.0
  Sn  Sn6  1  0.33333333  0.66666667  0.78862477  1.0
  Sn  Sn7  1  0.33333333  0.66666667  0.21137523  1.0
  Sn  Sn8  1  0.66666667  0.33333333  0.78862477  1.0
  Sn  Sn9  1  0.66666667  0.33333333  0.21137523  1.0
  Sn  Sn10  1  0.00000000  0.00000000  0.71520551  1.0
  Sn  Sn11  1  0.00000000  0.00000000  0.28479449  1.0
  Au  Au12  1  0.68055147  0.68055147  0.84723176  1.0
  Au  Au13  1  0.68055147  0.68055147  0.15276824  1.0
  Au  Au14  1  -0.00000000  0.31944853  0.84723176  1.0
  Au  Au15  1  -0.00000000  0.31944853  0.15276824  1.0
  Au  Au16  1  0.31944853  0.00000000  0.84723176  1.0
  Au  Au17  1  0.31944853  0.00000000  0.15276824  1.0
  Au  Au18  1  0.35359872  0.35359872  0.65396515  1.0
  Au  Au19  1  0.35359872  0.35359872  0.34603485  1.0
  Au  Au20  1  0.00000000  0.64640128  0.65396515  1.0
  Au  Au21  1  0.00000000  0.64640128  0.34603485  1.0
  Au  Au22  1  0.64640128  0.00000000  0.65396515  1.0
  Au  Au23  1  0.64640128  0.00000000  0.34603485  1.0
  Au  Au24  1  0.33333333  0.66666667  0.50000000  1.0
  Au  Au25  1  0.66666667  0.33333333  0.50000000  1.0
  Au  Au26  1  0.00000000  0.00000000  0.00000000  1.0
