# generated using pymatgen
data_H6PtN8
_symmetry_space_group_name_H-M   'P 1'
_cell_length_a   9.01597678
_cell_length_b   7.41279408
_cell_length_c   12.40959093
_cell_angle_alpha   90.00000000
_cell_angle_beta   123.10248815
_cell_angle_gamma   90.00000000
_symmetry_Int_Tables_number   1
_chemical_formula_structural   H6PtN8
_chemical_formula_sum   'H24 Pt4 N32'
_cell_volume   694.76528433
_cell_formula_units_Z   4
loop_
 _symmetry_equiv_pos_site_id
 _symmetry_equiv_pos_as_xyz
  1  'x, y, z'
loop_
 _atom_site_type_symbol
 _atom_site_label
 _atom_site_symmetry_multiplicity
 _atom_site_fract_x
 _atom_site_fract_y
 _atom_site_fract_z
 _atom_site_occupancy
  H  H0  1  0.71273479  0.14225458  0.27569929  1.0
  H  H1  1  0.71273479  0.35774542  0.77569929  1.0
  H  H2  1  0.28726521  0.85774542  0.72430071  1.0
  H  H3  1  0.28726521  0.64225458  0.22430071  1.0
  H  H4  1  0.63190914  0.18537140  0.12164128  1.0
  H  H5  1  0.63190914  0.31462860  0.62164128  1.0
  H  H6  1  0.36809086  0.81462860  0.87835872  1.0
  H  H7  1  0.36809086  0.68537140  0.37835872  1.0
  H  H8  1  0.72304625  0.35203524  0.22695591  1.0
  H  H9  1  0.72304625  0.14796476  0.72695591  1.0
  H  H10  1  0.27695375  0.64796476  0.77304409  1.0
  H  H11  1  0.27695375  0.85203524  0.27304409  1.0
  H  H12  1  0.87678921  -0.01302885  0.04370137  1.0
  H  H13  1  0.87678921  0.51302885  0.54370137  1.0
  H  H14  1  0.12321079  1.01302885  0.95629863  1.0
  H  H15  1  0.12321079  0.48697115  0.45629863  1.0
  H  H16  1  0.94505602  0.18702068  0.02412482  1.0
  H  H17  1  0.94505602  0.31297932  0.52412482  1.0
  H  H18  1  0.05494398  0.81297932  0.97587518  1.0
  H  H19  1  0.05494398  0.68702068  0.47587518  1.0
  H  H20  1  0.74356965  0.16558064  0.99807453  1.0
  H  H21  1  0.74356965  0.33441936  0.49807453  1.0
  H  H22  1  0.25643035  0.83441936  0.00192547  1.0
  H  H23  1  0.25643035  0.66558064  0.50192547  1.0
  Pt  Pt24  1  0.98108796  0.17045169  0.24877051  1.0
  Pt  Pt25  1  0.98108796  0.32954831  0.74877051  1.0
  Pt  Pt26  1  0.01891204  0.82954831  0.75122949  1.0
  Pt  Pt27  1  0.01891204  0.67045169  0.25122949  1.0
  N  N28  1  0.08351524  0.21567298  0.43976043  1.0
  N  N29  1  0.08351524  0.28432702  0.93976043  1.0
  N  N30  1  0.91648476  0.78432702  0.56023957  1.0
  N  N31  1  0.91648476  0.71567298  0.06023957  1.0
  N  N32  1  0.20136668  0.12176476  0.52193075  1.0
  N  N33  1  0.20136668  0.37823524  0.02193075  1.0
  N  N34  1  0.79863332  0.87823524  0.47806925  1.0
  N  N35  1  0.79863332  0.62176476  0.97806925  1.0
  N  N36  1  0.31451241  0.03884939  0.60587211  1.0
  N  N37  1  0.31451241  0.46115061  0.10587211  1.0
  N  N38  1  0.68548759  0.96115061  0.39412789  1.0
  N  N39  1  0.68548759  0.53884939  0.89412789  1.0
  N  N40  1  0.22475329  0.12790544  0.27895688  1.0
  N  N41  1  0.22475329  0.37209456  0.77895688  1.0
  N  N42  1  0.77524671  0.87209456  0.72104312  1.0
  N  N43  1  0.77524671  0.62790544  0.22104312  1.0
  N  N44  1  0.34929403  0.22249446  0.34976798  1.0
  N  N45  1  0.34929403  0.27750554  0.84976798  1.0
  N  N46  1  0.65070597  0.77750554  0.65023202  1.0
  N  N47  1  0.65070597  0.72249446  0.15023202  1.0
  N  N48  1  0.47483296  0.30872417  0.41642064  1.0
  N  N49  1  0.47483296  0.19127583  0.91642064  1.0
  N  N50  1  0.52516704  0.69127583  0.58357936  1.0
  N  N51  1  0.52516704  0.80872417  0.08357936  1.0
  N  N52  1  0.73289898  0.21586182  0.21433067  1.0
  N  N53  1  0.73289898  0.28413818  0.71433067  1.0
  N  N54  1  0.26710102  0.78413818  0.78566933  1.0
  N  N55  1  0.26710102  0.71586182  0.28566933  1.0
  N  N56  1  0.87333974  0.12465903  0.05582026  1.0
  N  N57  1  0.87333974  0.37534097  0.55582026  1.0
  N  N58  1  0.12666026  0.87534097  0.94417974  1.0
  N  N59  1  0.12666026  0.62465903  0.44417974  1.0
