# generated using pymatgen
data_CeB4ClO8
_symmetry_space_group_name_H-M   'P 1'
_cell_length_a   6.55381893
_cell_length_b   6.55381893
_cell_length_c   9.40269651
_cell_angle_alpha   81.70833868
_cell_angle_beta   98.29166132
_cell_angle_gamma   60.07653255
_symmetry_Int_Tables_number   1
_chemical_formula_structural   CeB4ClO8
_chemical_formula_sum   'Ce2 B8 Cl2 O16'
_cell_volume   335.19059642
_cell_formula_units_Z   2
loop_
 _symmetry_equiv_pos_site_id
 _symmetry_equiv_pos_as_xyz
  1  'x, y, z'
loop_
 _atom_site_type_symbol
 _atom_site_label
 _atom_site_symmetry_multiplicity
 _atom_site_fract_x
 _atom_site_fract_y
 _atom_site_fract_z
 _atom_site_occupancy
  Cl  Cl0  1  1.49273197  0.14650705  0.74884201  1.0
  Cl  Cl1  1  0.85349295  -0.49273197  0.24884201  1.0
  O  O2  1  0.52615764  -0.46643597  0.49658740  1.0
  O  O3  1  1.46643597  0.47384236  -0.00341260  1.0
  O  O4  1  1.79659720  0.15961360  0.46363057  1.0
  O  O5  1  0.84038640  -0.79659720  0.96363057  1.0
  O  O6  1  1.10570589  0.73342542  0.48558857  1.0
  O  O7  1  0.26657458  -0.10570589  0.98558857  1.0
  O  O8  1  0.29438298  -0.03608418  0.47770810  1.0
  O  O9  1  1.03608418  0.70561702  0.97770810  1.0
  O  O10  1  1.37948986  0.27294918  0.42804388  1.0
  O  O11  1  0.72705082  -0.37948986  0.92804388  1.0
  O  O12  1  1.40730617  0.02843471  0.24703847  1.0
  O  O13  1  0.97156529  -0.40730617  0.74703847  1.0
  O  O14  1  1.82596512  -0.00892331  0.24881982  1.0
  O  O15  1  1.00892331  -0.82596512  0.74881982  1.0
  O  O16  1  0.70199747  -0.14920202  0.45311089  1.0
  O  O17  1  1.14920202  0.29800253  0.95311089  1.0
  Ce  Ce18  1  0.62472146  -0.01534711  0.06350857  1.0
  Ce  Ce19  1  1.01534711  0.37527854  0.56350857  1.0
  B  B20  1  0.86003142  -0.06075005  0.40895121  1.0
  B  B21  1  1.06075005  0.13996858  0.90895121  1.0
  B  B22  1  0.30664430  -0.25332829  0.48626600  1.0
  B  B23  1  1.25332829  0.69335570  0.98626600  1.0
  B  B24  1  1.44017455  0.03213720  0.40192706  1.0
  B  B25  1  0.96786280  -0.44017455  0.90192706  1.0
  B  B26  1  1.56057389  0.31808369  0.46397743  1.0
  B  B27  1  0.68191631  -0.56057389  0.96397743  1.0
