# generated using pymatgen
data_Ba4Nb2O9
_symmetry_space_group_name_H-M   'P 1'
_cell_length_a   6.14509564
_cell_length_b   6.14509564
_cell_length_c   16.64952821
_cell_angle_alpha   90.00000000
_cell_angle_beta   90.00000000
_cell_angle_gamma   119.99997328
_symmetry_Int_Tables_number   1
_chemical_formula_structural   Ba4Nb2O9
_chemical_formula_sum   'Ba8 Nb4 O18'
_cell_volume   544.49008192
_cell_formula_units_Z   2
loop_
 _symmetry_equiv_pos_site_id
 _symmetry_equiv_pos_as_xyz
  1  'x, y, z'
loop_
 _atom_site_type_symbol
 _atom_site_label
 _atom_site_symmetry_multiplicity
 _atom_site_fract_x
 _atom_site_fract_y
 _atom_site_fract_z
 _atom_site_occupancy
  Ba  Ba0  1  0.33333333  0.66666667  0.86395424  1.0
  Ba  Ba1  1  0.33333333  0.66666667  0.63604576  1.0
  Ba  Ba2  1  0.66666667  0.33333333  0.36395424  1.0
  Ba  Ba3  1  0.66666667  0.33333333  0.13604576  1.0
  Ba  Ba4  1  0.00000000  0.00000000  0.50000000  1.0
  Ba  Ba5  1  0.00000000  0.00000000  0.00000000  1.0
  Ba  Ba6  1  0.00000000  0.00000000  0.25000000  1.0
  Ba  Ba7  1  0.00000000  0.00000000  0.75000000  1.0
  Nb  Nb8  1  0.33333333  0.66666667  0.34115890  1.0
  Nb  Nb9  1  0.33333333  0.66666667  0.15884110  1.0
  Nb  Nb10  1  0.66666667  0.33333333  0.84115890  1.0
  Nb  Nb11  1  0.66666667  0.33333333  0.65884110  1.0
  O  O12  1  0.10697510  0.74918484  0.39185768  1.0
  O  O13  1  0.10697510  0.74918484  0.10814232  1.0
  O  O14  1  0.74918485  0.64220975  0.89185768  1.0
  O  O15  1  0.74918485  0.64220975  0.60814232  1.0
  O  O16  1  0.64220975  0.89302490  0.39185768  1.0
  O  O17  1  0.64220975  0.89302490  0.10814232  1.0
  O  O18  1  0.25081515  0.35779025  0.39185768  1.0
  O  O19  1  0.25081515  0.35779025  0.10814232  1.0
  O  O20  1  0.89302490  0.25081516  0.89185768  1.0
  O  O21  1  0.89302490  0.25081516  0.60814232  1.0
  O  O22  1  0.35779025  0.10697510  0.89185768  1.0
  O  O23  1  0.35779025  0.10697510  0.60814232  1.0
  O  O24  1  0.42486148  0.95580046  0.25000000  1.0
  O  O25  1  0.95580046  0.53093898  0.75000000  1.0
  O  O26  1  0.53093898  0.57513852  0.25000000  1.0
  O  O27  1  0.04419954  0.46906102  0.25000000  1.0
  O  O28  1  0.57513852  0.04419954  0.75000000  1.0
  O  O29  1  0.46906102  0.42486148  0.75000000  1.0
