# generated using pymatgen
data_Ni(ClO2)2
_symmetry_space_group_name_H-M   'P 1'
_cell_length_a   6.02208566
_cell_length_b   6.02208566
_cell_length_c   14.51813130
_cell_angle_alpha   90.00000000
_cell_angle_beta   90.00000000
_cell_angle_gamma   90.00000000
_symmetry_Int_Tables_number   1
_chemical_formula_structural   Ni(ClO2)2
_chemical_formula_sum   'Ni3 Cl6 O12'
_cell_volume   526.50751911
_cell_formula_units_Z   3
loop_
 _symmetry_equiv_pos_site_id
 _symmetry_equiv_pos_as_xyz
  1  'x, y, z'
loop_
 _atom_site_type_symbol
 _atom_site_label
 _atom_site_symmetry_multiplicity
 _atom_site_fract_x
 _atom_site_fract_y
 _atom_site_fract_z
 _atom_site_occupancy
  Ni  Ni0  1  0.00000000  0.00000000  0.75528454  1.0
  Ni  Ni1  1  0.00000000  0.00000000  0.24471546  1.0
  Ni  Ni2  1  0.50000000  0.50000000  0.00000000  1.0
  Cl  Cl3  1  0.50000000  0.50000000  0.85720040  1.0
  Cl  Cl4  1  0.50000000  0.50000000  0.14279960  1.0
  Cl  Cl5  1  0.00000000  0.50000000  0.00000000  1.0
  Cl  Cl6  1  0.50000000  0.00000000  0.00000000  1.0
  Cl  Cl7  1  0.00000000  0.50000000  0.50000000  1.0
  Cl  Cl8  1  0.50000000  0.00000000  0.50000000  1.0
  O  O9  1  0.71264920  0.00000000  0.75640602  1.0
  O  O10  1  0.71264920  0.00000000  0.24359398  1.0
  O  O11  1  0.00000000  0.71264920  0.75640602  1.0
  O  O12  1  0.00000000  0.71264920  0.24359398  1.0
  O  O13  1  0.00000000  0.28735080  0.75640602  1.0
  O  O14  1  0.00000000  0.28735080  0.24359398  1.0
  O  O15  1  0.28735080  0.00000000  0.75640602  1.0
  O  O16  1  0.28735080  0.00000000  0.24359398  1.0
  O  O17  1  0.00000000  0.00000000  0.95872701  1.0
  O  O18  1  0.00000000  0.00000000  0.04127299  1.0
  O  O19  1  0.00000000  0.00000000  0.54154481  1.0
  O  O20  1  0.00000000  0.00000000  0.45845519  1.0
