# generated using pymatgen
data_Ti2Be17
_symmetry_space_group_name_H-M   'P 1'
_cell_length_a   7.33425855
_cell_length_b   7.33425855
_cell_length_c   7.16691085
_cell_angle_alpha   90.00000000
_cell_angle_beta   90.00000000
_cell_angle_gamma   120.00000000
_symmetry_Int_Tables_number   1
_chemical_formula_structural   Ti2Be17
_chemical_formula_sum   'Ti4 Be34'
_cell_volume   333.86820735
_cell_formula_units_Z   2
loop_
 _symmetry_equiv_pos_site_id
 _symmetry_equiv_pos_as_xyz
  1  'x, y, z'
loop_
 _atom_site_type_symbol
 _atom_site_label
 _atom_site_symmetry_multiplicity
 _atom_site_fract_x
 _atom_site_fract_y
 _atom_site_fract_z
 _atom_site_occupancy
  Ti  Ti0  1  0.33333333  0.66666667  0.25000000  1.0
  Ti  Ti1  1  0.66666667  0.33333333  0.75000000  1.0
  Ti  Ti2  1  -0.00000000  -0.00000000  0.25000000  1.0
  Ti  Ti3  1  -0.00000000  -0.00000000  0.75000000  1.0
  Be  Be4  1  0.16446097  0.83553903  0.48505688  1.0
  Be  Be5  1  0.16446097  0.83553903  0.01494312  1.0
  Be  Be6  1  0.16446097  0.32892194  0.48505688  1.0
  Be  Be7  1  0.16446097  0.32892194  0.01494312  1.0
  Be  Be8  1  0.83553903  0.16446097  -0.01494312  1.0
  Be  Be9  1  0.83553903  0.16446097  0.51494312  1.0
  Be  Be10  1  0.83553903  0.67107806  -0.01494312  1.0
  Be  Be11  1  0.83553903  0.67107806  0.51494312  1.0
  Be  Be12  1  0.67107806  0.83553903  0.48505688  1.0
  Be  Be13  1  0.67107806  0.83553903  0.01494312  1.0
  Be  Be14  1  0.32892194  0.16446097  -0.01494312  1.0
  Be  Be15  1  0.32892194  0.16446097  0.51494312  1.0
  Be  Be16  1  0.37018846  0.03945573  0.25000000  1.0
  Be  Be17  1  0.37018846  0.33073274  0.25000000  1.0
  Be  Be18  1  0.03945573  0.37018846  0.75000000  1.0
  Be  Be19  1  0.03945573  0.66926726  0.75000000  1.0
  Be  Be20  1  0.66926726  0.03945573  0.25000000  1.0
  Be  Be21  1  0.66926726  0.62981154  0.25000000  1.0
  Be  Be22  1  -0.03945573  0.62981154  0.25000000  1.0
  Be  Be23  1  -0.03945573  0.33073274  0.25000000  1.0
  Be  Be24  1  0.62981154  0.66926726  0.75000000  1.0
  Be  Be25  1  0.62981154  -0.03945573  0.75000000  1.0
  Be  Be26  1  0.33073274  0.37018846  0.75000000  1.0
  Be  Be27  1  0.33073274  -0.03945573  0.75000000  1.0
  Be  Be28  1  0.50000000  0.50000000  0.50000000  1.0
  Be  Be29  1  0.50000000  0.50000000  0.00000000  1.0
  Be  Be30  1  0.50000000  0.00000000  0.50000000  1.0
  Be  Be31  1  0.50000000  0.00000000  0.00000000  1.0
  Be  Be32  1  -0.00000000  0.50000000  0.50000000  1.0
  Be  Be33  1  -0.00000000  0.50000000  0.00000000  1.0
  Be  Be34  1  0.33333333  0.66666667  0.89763348  1.0
  Be  Be35  1  0.33333333  0.66666667  0.60236652  1.0
  Be  Be36  1  0.66666667  0.33333333  0.39763348  1.0
  Be  Be37  1  0.66666667  0.33333333  0.10236652  1.0
