# generated using pymatgen
data_Mn5H8S3O16
_symmetry_space_group_name_H-M   'P 1'
_cell_length_a   7.66911653
_cell_length_b   8.64755767
_cell_length_c   10.93630090
_cell_angle_alpha   90.00000000
_cell_angle_beta   101.13016175
_cell_angle_gamma   90.00000000
_symmetry_Int_Tables_number   1
_chemical_formula_structural   Mn5H8S3O16
_chemical_formula_sum   'Mn10 H16 S6 O32'
_cell_volume   711.64416208
_cell_formula_units_Z   2
loop_
 _symmetry_equiv_pos_site_id
 _symmetry_equiv_pos_as_xyz
  1  'x, y, z'
loop_
 _atom_site_type_symbol
 _atom_site_label
 _atom_site_symmetry_multiplicity
 _atom_site_fract_x
 _atom_site_fract_y
 _atom_site_fract_z
 _atom_site_occupancy
  O  O0  1  0.91904902  0.89277306  0.76025057  1.0
  O  O1  1  0.91904902  0.60722694  0.76025057  1.0
  O  O2  1  0.08095098  0.39277306  0.23974943  1.0
  O  O3  1  0.08095098  0.10722694  0.23974943  1.0
  O  O4  1  0.89990946  0.89284592  0.04752397  1.0
  O  O5  1  0.89990946  0.60715408  0.04752397  1.0
  O  O6  1  0.10009054  0.39284592  0.95247603  1.0
  O  O7  1  0.10009054  0.10715408  0.95247603  1.0
  O  O8  1  0.81108144  0.94146580  0.37388003  1.0
  O  O9  1  0.81108144  0.55853420  0.37388003  1.0
  O  O10  1  0.18891856  0.44146580  0.62611997  1.0
  O  O11  1  0.18891856  0.05853420  0.62611997  1.0
  O  O12  1  0.61115060  0.39253217  0.56817249  1.0
  O  O13  1  0.61115060  0.10746783  0.56817249  1.0
  O  O14  1  0.38884940  0.89253217  0.43182751  1.0
  O  O15  1  0.38884940  0.60746783  0.43182751  1.0
  O  O16  1  0.93084233  0.75000000  0.57105773  1.0
  O  O17  1  0.06915767  0.25000000  0.42894227  1.0
  O  O18  1  0.65513756  0.75000000  0.65695857  1.0
  O  O19  1  0.34486244  0.25000000  0.34304143  1.0
  O  O20  1  0.62749501  0.75000000  0.06777608  1.0
  O  O21  1  0.37250499  0.25000000  0.93222392  1.0
  O  O22  1  0.24835351  0.75000000  0.24242347  1.0
  O  O23  1  0.75164649  0.25000000  0.75757653  1.0
  O  O24  1  0.32059494  0.75000000  0.69512870  1.0
  O  O25  1  0.67940506  0.25000000  0.30487130  1.0
  O  O26  1  0.23315752  0.75000000  0.98411520  1.0
  O  O27  1  0.76684248  0.25000000  0.01588480  1.0
  O  O28  1  0.54084294  0.97627309  0.84141769  1.0
  O  O29  1  0.54084294  0.52372691  0.84141769  1.0
  O  O30  1  0.45915706  0.47627309  0.15858231  1.0
  O  O31  1  0.45915706  0.02372691  0.15858231  1.0
  S  S32  1  0.85457971  0.75000000  0.68770803  1.0
  S  S33  1  0.14542029  0.25000000  0.31229197  1.0
  S  S34  1  0.83202649  0.75000000  0.11329771  1.0
  S  S35  1  0.16797351  0.25000000  0.88670229  1.0
  S  S36  1  0.26747810  0.75000000  0.38663513  1.0
  S  S37  1  0.73252190  0.25000000  0.61336487  1.0
  H  H38  1  0.86563518  0.87875585  0.44705021  1.0
  H  H39  1  0.86563518  0.62124415  0.44705021  1.0
  H  H40  1  0.13436482  0.37875585  0.55294979  1.0
  H  H41  1  0.13436482  0.12124415  0.55294979  1.0
  H  H42  1  0.90599435  0.98672201  0.33712845  1.0
  H  H43  1  0.90599435  0.51327799  0.33712845  1.0
  H  H44  1  0.09400565  0.48672201  0.66287155  1.0
  H  H45  1  0.09400565  0.01327799  0.66287155  1.0
  H  H46  1  0.47181641  0.43834032  0.86809847  1.0
  H  H47  1  0.47181641  0.06165968  0.86809847  1.0
  H  H48  1  0.52818359  0.93834032  0.13190153  1.0
  H  H49  1  0.52818359  0.56165968  0.13190153  1.0
  H  H50  1  0.19265118  0.75000000  0.66253499  1.0
  H  H51  1  0.80734882  0.25000000  0.33746501  1.0
  H  H52  1  0.12553102  0.75000000  0.91947156  1.0
  H  H53  1  0.87446898  0.25000000  0.08052844  1.0
  Mn  Mn54  1  0.80974467  0.44922627  0.89448528  1.0
  Mn  Mn55  1  0.80974467  0.05077373  0.89448528  1.0
  Mn  Mn56  1  0.19025533  0.94922627  0.10551472  1.0
  Mn  Mn57  1  0.19025533  0.55077373  0.10551472  1.0
  Mn  Mn58  1  0.44748493  0.94992829  0.64085601  1.0
  Mn  Mn59  1  0.44748493  0.55007171  0.64085601  1.0
  Mn  Mn60  1  0.55251507  0.44992829  0.35914399  1.0
  Mn  Mn61  1  0.55251507  0.05007171  0.35914399  1.0
  Mn  Mn62  1  0.44832033  0.75000000  0.89122267  1.0
  Mn  Mn63  1  0.55167967  0.25000000  0.10877733  1.0
