# generated using pymatgen
data_Ca2PdWO6
_symmetry_space_group_name_H-M   'P 1'
_cell_length_a   5.60816560
_cell_length_b   8.07856019
_cell_length_c   6.06937998
_cell_angle_alpha   90.00000000
_cell_angle_beta   90.00000000
_cell_angle_gamma   90.00000000
_symmetry_Int_Tables_number   1
_chemical_formula_structural   Ca2PdWO6
_chemical_formula_sum   'Ca4 Pd2 W2 O12'
_cell_volume   274.97874302
_cell_formula_units_Z   2
loop_
 _symmetry_equiv_pos_site_id
 _symmetry_equiv_pos_as_xyz
  1  'x, y, z'
loop_
 _atom_site_type_symbol
 _atom_site_label
 _atom_site_symmetry_multiplicity
 _atom_site_fract_x
 _atom_site_fract_y
 _atom_site_fract_z
 _atom_site_occupancy
  W  W0  1  0.50000000  0.50000000  0.52349196  1.0
  W  W1  1  0.00000000  0.00000000  0.02347064  1.0
  Ca  Ca2  1  0.50000000  0.74874384  -0.07637503  1.0
  Ca  Ca3  1  0.50000000  0.25125616  -0.07637503  1.0
  Ca  Ca4  1  0.00000000  0.75125919  0.42361309  1.0
  Ca  Ca5  1  0.00000000  0.24874081  0.42361309  1.0
  O  O6  1  0.50000000  0.73687725  0.54245476  1.0
  O  O7  1  0.50000000  0.26312275  0.54245476  1.0
  O  O8  1  0.00000000  0.76312281  0.04244405  1.0
  O  O9  1  0.00000000  0.23687719  0.04244405  1.0
  O  O10  1  0.75574412  0.50000000  0.32099258  1.0
  O  O11  1  0.24425588  0.50000000  0.32099258  1.0
  O  O12  1  0.77799521  0.00000000  0.27815797  1.0
  O  O13  1  0.22200479  0.00000000  0.27815797  1.0
  O  O14  1  0.74424734  0.00000000  0.82098167  1.0
  O  O15  1  0.25575266  0.00000000  0.82098167  1.0
  O  O16  1  0.72199287  0.50000000  0.77819092  1.0
  O  O17  1  0.27800713  0.50000000  0.77819092  1.0
  Pd  Pd18  1  0.50000000  0.00000000  0.51604941  1.0
  Pd  Pd19  1  0.00000000  0.50000000  0.01606797  1.0
