# generated using pymatgen
data_Al2GeO6
_symmetry_space_group_name_H-M   'P 1'
_cell_length_a   9.39581721
_cell_length_b   8.73866827
_cell_length_c   4.73080712
_cell_angle_alpha   90.00000000
_cell_angle_beta   90.00000000
_cell_angle_gamma   90.00000000
_symmetry_Int_Tables_number   1
_chemical_formula_structural   Al2GeO6
_chemical_formula_sum   'Al8 Ge4 O24'
_cell_volume   388.43204760
_cell_formula_units_Z   4
loop_
 _symmetry_equiv_pos_site_id
 _symmetry_equiv_pos_as_xyz
  1  'x, y, z'
loop_
 _atom_site_type_symbol
 _atom_site_label
 _atom_site_symmetry_multiplicity
 _atom_site_fract_x
 _atom_site_fract_y
 _atom_site_fract_z
 _atom_site_occupancy
  Ge  Ge0  1  0.93518445  0.75000000  0.59853894  1.0
  Ge  Ge1  1  0.43518445  0.75000000  0.90146106  1.0
  Ge  Ge2  1  0.06481555  0.25000000  0.40146106  1.0
  Ge  Ge3  1  0.56481555  0.25000000  0.09853894  1.0
  Al  Al4  1  0.12752491  0.58125568  0.09431288  1.0
  Al  Al5  1  0.62752491  0.91874432  0.40568712  1.0
  Al  Al6  1  0.87247509  0.08125568  0.90568712  1.0
  Al  Al7  1  0.37247509  0.41874432  0.59431288  1.0
  Al  Al8  1  0.87247509  0.41874432  0.90568712  1.0
  Al  Al9  1  0.37247509  0.08125568  0.59431288  1.0
  Al  Al10  1  0.12752491  0.91874432  0.09431288  1.0
  Al  Al11  1  0.62752491  0.58125568  0.40568712  1.0
  O  O12  1  0.03664145  0.75000000  0.28147187  1.0
  O  O13  1  0.53664145  0.75000000  0.21852813  1.0
  O  O14  1  0.96335855  0.25000000  0.71852813  1.0
  O  O15  1  0.46335855  0.25000000  0.78147187  1.0
  O  O16  1  0.25738749  0.54335242  0.37791177  1.0
  O  O17  1  0.75738749  0.95664758  1.12208823  1.0
  O  O18  1  0.74261251  0.04335242  0.62208823  1.0
  O  O19  1  0.24261251  0.45664758  -0.12208823  1.0
  O  O20  1  0.74261251  0.45664758  0.62208823  1.0
  O  O21  1  0.24261251  0.04335242  -0.12208823  1.0
  O  O22  1  0.25738749  0.95664758  0.37791177  1.0
  O  O23  1  0.75738749  0.54335242  1.12208823  1.0
  O  O24  1  0.98851590  0.58683440  0.79545332  1.0
  O  O25  1  0.48851590  0.91316560  0.70454668  1.0
  O  O26  1  0.01148410  0.08683440  0.20454668  1.0
  O  O27  1  0.51148410  0.41316560  0.29545332  1.0
  O  O28  1  0.01148410  0.41316560  0.20454668  1.0
  O  O29  1  0.51148410  0.08683440  0.29545332  1.0
  O  O30  1  0.98851590  0.91316560  0.79545332  1.0
  O  O31  1  0.48851590  0.58683440  0.70454668  1.0
  O  O32  1  0.24627668  0.75000000  0.95583523  1.0
  O  O33  1  0.74627668  0.75000000  0.54416477  1.0
  O  O34  1  0.75372332  0.25000000  0.04416477  1.0
  O  O35  1  0.25372332  0.25000000  0.45583523  1.0
