# generated using pymatgen
data_Sr4Pt
_symmetry_space_group_name_H-M   'P 1'
_cell_length_a   8.90787003
_cell_length_b   8.90787003
_cell_length_c   8.90787003
_cell_angle_alpha   60.00000000
_cell_angle_beta   60.00000000
_cell_angle_gamma   60.00000000
_symmetry_Int_Tables_number   1
_chemical_formula_structural   Sr4Pt
_chemical_formula_sum   'Sr8 Pt2'
_cell_volume   499.81192937
_cell_formula_units_Z   2
loop_
 _symmetry_equiv_pos_site_id
 _symmetry_equiv_pos_as_xyz
  1  'x, y, z'
loop_
 _atom_site_type_symbol
 _atom_site_label
 _atom_site_symmetry_multiplicity
 _atom_site_fract_x
 _atom_site_fract_y
 _atom_site_fract_z
 _atom_site_occupancy
  Sr  Sr0  1  -0.12006653  0.87993347  0.36019958  1.0
  Sr  Sr1  1  0.87993347  -0.63980042  0.87993347  1.0
  Sr  Sr2  1  0.37006653  0.37006653  0.37006653  1.0
  Sr  Sr3  1  -0.11019958  0.37006653  0.37006653  1.0
  Sr  Sr4  1  -0.63980042  0.87993347  0.87993347  1.0
  Sr  Sr5  1  0.87993347  -0.12006653  0.87993347  1.0
  Sr  Sr6  1  0.37006653  -0.11019958  0.37006653  1.0
  Sr  Sr7  1  0.37006653  0.37006653  -0.11019958  1.0
  Pt  Pt8  1  0.50000000  0.50000000  -0.50000000  1.0
  Pt  Pt9  1  0.75000000  -0.25000000  0.75000000  1.0
