# generated using pymatgen
data_V4GeS8
_symmetry_space_group_name_H-M   'P 1'
_cell_length_a   6.87688188
_cell_length_b   6.84099312
_cell_length_c   9.69012437
_cell_angle_alpha   90.00000000
_cell_angle_beta   90.00000000
_cell_angle_gamma   90.00000000
_symmetry_Int_Tables_number   1
_chemical_formula_structural   V4GeS8
_chemical_formula_sum   'V8 Ge2 S16'
_cell_volume   455.86900953
_cell_formula_units_Z   2
loop_
 _symmetry_equiv_pos_site_id
 _symmetry_equiv_pos_as_xyz
  1  'x, y, z'
loop_
 _atom_site_type_symbol
 _atom_site_label
 _atom_site_symmetry_multiplicity
 _atom_site_fract_x
 _atom_site_fract_y
 _atom_site_fract_z
 _atom_site_occupancy
  V  V0  1  0.70786752  0.75232175  0.52963657  1.0
  V  V1  1  0.20786752  0.24767825  0.02963657  1.0
  V  V2  1  0.29213248  0.75232175  0.52963657  1.0
  V  V3  1  0.79213248  0.24767825  0.02963657  1.0
  V  V4  1  0.00000000  0.45632849  0.23931216  1.0
  V  V5  1  0.50000000  0.54367151  0.73931216  1.0
  V  V6  1  0.00000000  0.05011750  0.23492641  1.0
  V  V7  1  0.50000000  0.94988250  0.73492641  1.0
  Ge  Ge8  1  0.00000000  0.25071289  0.63513672  1.0
  Ge  Ge9  1  0.50000000  0.74928711  0.13513672  1.0
  S  S10  1  0.77439229  0.75231577  0.27033115  1.0
  S  S11  1  0.27439229  0.24768423  0.77033115  1.0
  S  S12  1  0.22560771  0.75231577  0.27033115  1.0
  S  S13  1  0.72560771  0.24768423  0.77033115  1.0
  S  S14  1  0.73938380  0.25255015  0.26158931  1.0
  S  S15  1  0.23938380  0.74744985  0.76158931  1.0
  S  S16  1  0.26061620  0.25255015  0.26158931  1.0
  S  S17  1  0.76061620  0.74744985  0.76158931  1.0
  S  S18  1  0.00000000  0.98928671  0.00465489  1.0
  S  S19  1  0.50000000  0.01071329  0.50465489  1.0
  S  S20  1  0.00000000  0.97937490  0.49565669  1.0
  S  S21  1  0.50000000  0.02062510  -0.00434331  1.0
  S  S22  1  0.00000000  0.52439927  0.49757824  1.0
  S  S23  1  0.50000000  0.47560073  0.99757824  1.0
  S  S24  1  0.00000000  0.50590971  0.00672084  1.0
  S  S25  1  0.50000000  0.49409029  0.50672084  1.0
