# generated using pymatgen
data_CCl3
_symmetry_space_group_name_H-M   'P 1'
_cell_length_a   12.43599443
_cell_length_b   10.79361346
_cell_length_c   7.07798108
_cell_angle_alpha   90.00000000
_cell_angle_beta   90.00000000
_cell_angle_gamma   90.00000000
_symmetry_Int_Tables_number   1
_chemical_formula_structural   CCl3
_chemical_formula_sum   'C8 Cl24'
_cell_volume   950.07256584
_cell_formula_units_Z   8
loop_
 _symmetry_equiv_pos_site_id
 _symmetry_equiv_pos_as_xyz
  1  'x, y, z'
loop_
 _atom_site_type_symbol
 _atom_site_label
 _atom_site_symmetry_multiplicity
 _atom_site_fract_x
 _atom_site_fract_y
 _atom_site_fract_z
 _atom_site_occupancy
  C  C0  1  0.88513873  0.25000000  0.30408589  1.0
  C  C1  1  0.38513873  0.25000000  0.19591411  1.0
  C  C2  1  0.11486127  0.75000000  0.69591411  1.0
  C  C3  1  0.61486127  0.75000000  0.80408589  1.0
  C  C4  1  0.85787921  0.25000000  0.52399734  1.0
  C  C5  1  0.35787921  0.25000000  0.97600266  1.0
  C  C6  1  0.14212079  0.75000000  0.47600266  1.0
  C  C7  1  0.64212079  0.75000000  0.02399734  1.0
  Cl  Cl8  1  0.96125134  0.38465465  0.24692423  1.0
  Cl  Cl9  1  0.96125134  0.11534535  0.24692423  1.0
  Cl  Cl10  1  0.46125134  0.38465465  0.25307577  1.0
  Cl  Cl11  1  0.46125134  0.11534535  0.25307577  1.0
  Cl  Cl12  1  0.03874866  0.88465465  0.75307577  1.0
  Cl  Cl13  1  0.03874866  0.61534535  0.75307577  1.0
  Cl  Cl14  1  0.53874866  0.88465465  0.74692423  1.0
  Cl  Cl15  1  0.53874866  0.61534535  0.74692423  1.0
  Cl  Cl16  1  0.78188695  0.38457707  0.58175178  1.0
  Cl  Cl17  1  0.78188695  0.11542293  0.58175178  1.0
  Cl  Cl18  1  0.28188695  0.38457707  0.91824822  1.0
  Cl  Cl19  1  0.28188695  0.11542293  0.91824822  1.0
  Cl  Cl20  1  0.21811305  0.88457707  0.41824822  1.0
  Cl  Cl21  1  0.21811305  0.61542293  0.41824822  1.0
  Cl  Cl22  1  0.71811305  0.88457707  0.08175178  1.0
  Cl  Cl23  1  0.71811305  0.61542293  0.08175178  1.0
  Cl  Cl24  1  0.97961936  0.25000000  0.65716787  1.0
  Cl  Cl25  1  0.47961936  0.25000000  0.84283213  1.0
  Cl  Cl26  1  0.02038064  0.75000000  0.34283213  1.0
  Cl  Cl27  1  0.52038064  0.75000000  0.15716787  1.0
  Cl  Cl28  1  0.76359197  0.25000000  0.17127159  1.0
  Cl  Cl29  1  0.26359197  0.25000000  0.32872841  1.0
  Cl  Cl30  1  0.23640803  0.75000000  0.82872841  1.0
  Cl  Cl31  1  0.73640803  0.75000000  0.67127159  1.0
