# generated using pymatgen
data_Sr4GaCN5
_symmetry_space_group_name_H-M   'P 1'
_cell_length_a   13.86692928
_cell_length_b   7.46829584
_cell_length_c   7.44176766
_cell_angle_alpha   90.00000000
_cell_angle_beta   94.49657243
_cell_angle_gamma   90.00000000
_symmetry_Int_Tables_number   1
_chemical_formula_structural   Sr4GaCN5
_chemical_formula_sum   'Sr16 Ga4 C4 N20'
_cell_volume   768.31464637
_cell_formula_units_Z   4
loop_
 _symmetry_equiv_pos_site_id
 _symmetry_equiv_pos_as_xyz
  1  'x, y, z'
loop_
 _atom_site_type_symbol
 _atom_site_label
 _atom_site_symmetry_multiplicity
 _atom_site_fract_x
 _atom_site_fract_y
 _atom_site_fract_z
 _atom_site_occupancy
  Sr  Sr0  1  0.98055616  0.25085123  0.50769587  1.0
  Sr  Sr1  1  0.98055616  0.24914877  0.00769587  1.0
  Sr  Sr2  1  0.01944384  0.75085123  0.99230413  1.0
  Sr  Sr3  1  0.01944384  0.74914877  0.49230413  1.0
  Sr  Sr4  1  0.82416916  0.52897410  0.73545626  1.0
  Sr  Sr5  1  0.82416916  0.97102590  0.23545626  1.0
  Sr  Sr6  1  0.17583084  0.02897410  0.76454374  1.0
  Sr  Sr7  1  0.17583084  0.47102590  0.26454374  1.0
  Sr  Sr8  1  0.65340759  0.68646241  1.01395530  1.0
  Sr  Sr9  1  0.65340759  0.81353759  0.51395530  1.0
  Sr  Sr10  1  0.34659241  0.18646241  0.48604470  1.0
  Sr  Sr11  1  0.34659241  0.31353759  -0.01395530  1.0
  Sr  Sr12  1  0.31851807  0.65883403  0.63611546  1.0
  Sr  Sr13  1  0.31851807  0.84116597  0.13611546  1.0
  Sr  Sr14  1  0.68148193  0.15883403  0.86388454  1.0
  Sr  Sr15  1  0.68148193  0.34116597  0.36388454  1.0
  Ga  Ga16  1  0.86024805  0.98270321  0.72407076  1.0
  Ga  Ga17  1  0.86024805  0.51729679  0.22407076  1.0
  Ga  Ga18  1  0.13975195  0.48270321  0.77592924  1.0
  Ga  Ga19  1  0.13975195  0.01729679  0.27592924  1.0
  C  C20  1  0.45641164  0.95273854  0.78708467  1.0
  C  C21  1  0.45641164  0.54726146  0.28708467  1.0
  C  C22  1  0.54358836  0.45273854  0.71291533  1.0
  C  C23  1  0.54358836  0.04726146  0.21291533  1.0
  N  N24  1  0.99783193  0.99445639  0.74373423  1.0
  N  N25  1  0.99783193  0.50554361  0.24373423  1.0
  N  N26  1  0.00216807  0.49445639  0.75626577  1.0
  N  N27  1  0.00216807  0.00554361  0.25626577  1.0
  N  N28  1  0.78674373  0.84616082  0.88310505  1.0
  N  N29  1  0.78674373  0.65383918  0.38310505  1.0
  N  N30  1  0.21325627  0.34616082  0.61689495  1.0
  N  N31  1  0.21325627  0.15383918  0.11689495  1.0
  N  N32  1  0.54105106  0.91277638  0.76692038  1.0
  N  N33  1  0.54105106  0.58722362  0.26692038  1.0
  N  N34  1  0.45894894  0.41277638  0.73307962  1.0
  N  N35  1  0.45894894  0.08722362  0.23307962  1.0
  N  N36  1  0.36978313  0.99013128  0.80263063  1.0
  N  N37  1  0.36978313  0.50986872  0.30263063  1.0
  N  N38  1  0.63021687  0.49013128  0.69736937  1.0
  N  N39  1  0.63021687  0.00986872  0.19736937  1.0
  N  N40  1  0.21496175  0.64527263  0.93147620  1.0
  N  N41  1  0.21496175  0.85472737  0.43147620  1.0
  N  N42  1  0.78503825  0.14527263  0.56852380  1.0
  N  N43  1  0.78503825  0.35472737  0.06852380  1.0
