# generated using pymatgen
data_BaSn
_symmetry_space_group_name_H-M   'P 1'
_cell_length_a   6.90604159
_cell_length_b   6.90604159
_cell_length_c   4.72930072
_cell_angle_alpha   90.00000000
_cell_angle_beta   90.00000000
_cell_angle_gamma   134.26196950
_symmetry_Int_Tables_number   1
_chemical_formula_structural   BaSn
_chemical_formula_sum   'Ba2 Sn2'
_cell_volume   161.53366168
_cell_formula_units_Z   2
loop_
 _symmetry_equiv_pos_site_id
 _symmetry_equiv_pos_as_xyz
  1  'x, y, z'
loop_
 _atom_site_type_symbol
 _atom_site_label
 _atom_site_symmetry_multiplicity
 _atom_site_fract_x
 _atom_site_fract_y
 _atom_site_fract_z
 _atom_site_occupancy
  Ba  Ba0  1  0.36497407  0.63502593  0.75000000  1.0
  Ba  Ba1  1  -0.36497407  0.36497407  0.25000000  1.0
  Sn  Sn2  1  0.07332216  0.92667784  0.75000000  1.0
  Sn  Sn3  1  -0.07332216  0.07332216  0.25000000  1.0
