# generated using pymatgen
data_GdAl
_symmetry_space_group_name_H-M   'P 1'
_cell_length_a   5.90621747
_cell_length_b   5.90621747
_cell_length_c   5.60918793
_cell_angle_alpha   90.00000000
_cell_angle_beta   90.00000000
_cell_angle_gamma   79.04817701
_symmetry_Int_Tables_number   1
_chemical_formula_structural   GdAl
_chemical_formula_sum   'Gd4 Al4'
_cell_volume   192.10393409
_cell_formula_units_Z   4
loop_
 _symmetry_equiv_pos_site_id
 _symmetry_equiv_pos_as_xyz
  1  'x, y, z'
loop_
 _atom_site_type_symbol
 _atom_site_label
 _atom_site_symmetry_multiplicity
 _atom_site_fract_x
 _atom_site_fract_y
 _atom_site_fract_z
 _atom_site_occupancy
  Al  Al0  1  0.00000000  0.00000000  0.50000000  1.0
  Al  Al1  1  0.00000000  0.00000000  0.00000000  1.0
  Al  Al2  1  0.31081195  0.68918805  0.25000000  1.0
  Al  Al3  1  -0.31081195  1.31081195  0.75000000  1.0
  Gd  Gd4  1  -0.16094770  1.52890254  0.25000000  1.0
  Gd  Gd5  1  0.52890254  0.83905230  0.75000000  1.0
  Gd  Gd6  1  -0.52890254  1.16094770  0.25000000  1.0
  Gd  Gd7  1  0.16094770  0.47109746  0.75000000  1.0
