# generated using pymatgen
data_KEuPO4
_symmetry_space_group_name_H-M   'P 1'
_cell_length_a   7.41514133
_cell_length_b   5.61732921
_cell_length_c   9.79122322
_cell_angle_alpha   90.00000000
_cell_angle_beta   90.00000000
_cell_angle_gamma   90.00000000
_symmetry_Int_Tables_number   1
_chemical_formula_structural   KEuPO4
_chemical_formula_sum   'K4 Eu4 P4 O16'
_cell_volume   407.83666014
_cell_formula_units_Z   4
loop_
 _symmetry_equiv_pos_site_id
 _symmetry_equiv_pos_as_xyz
  1  'x, y, z'
loop_
 _atom_site_type_symbol
 _atom_site_label
 _atom_site_symmetry_multiplicity
 _atom_site_fract_x
 _atom_site_fract_y
 _atom_site_fract_z
 _atom_site_occupancy
  K  K0  1  0.84299170  0.75000000  0.41881292  1.0
  K  K1  1  0.34299170  0.75000000  0.08118708  1.0
  K  K2  1  0.15700830  0.25000000  0.58118708  1.0
  K  K3  1  0.65700830  0.25000000  0.91881292  1.0
  Eu  Eu4  1  0.49690827  0.75000000  0.69442423  1.0
  Eu  Eu5  1  -0.00309173  0.75000000  0.80557577  1.0
  Eu  Eu6  1  0.50309173  0.25000000  0.30557577  1.0
  Eu  Eu7  1  1.00309173  0.25000000  0.19442423  1.0
  P  P8  1  0.77576889  0.75000000  0.08520806  1.0
  P  P9  1  0.27576889  0.75000000  0.41479194  1.0
  P  P10  1  0.22423111  0.25000000  0.91479194  1.0
  P  P11  1  0.72423111  0.25000000  0.58520806  1.0
  O  O12  1  0.71439385  0.97863937  0.16394706  1.0
  O  O13  1  0.71439385  0.52136063  0.16394706  1.0
  O  O14  1  0.21439385  0.97863937  0.33605294  1.0
  O  O15  1  0.21439385  0.52136063  0.33605294  1.0
  O  O16  1  0.28560615  0.47863937  0.83605294  1.0
  O  O17  1  0.28560615  0.02136063  0.83605294  1.0
  O  O18  1  0.78560615  0.47863937  0.66394706  1.0
  O  O19  1  0.78560615  0.02136063  0.66394706  1.0
  O  O20  1  0.98530387  0.75000000  0.07289263  1.0
  O  O21  1  0.48530387  0.75000000  0.42710737  1.0
  O  O22  1  0.01469613  0.25000000  0.92710737  1.0
  O  O23  1  0.51469613  0.25000000  0.57289263  1.0
  O  O24  1  0.19183675  0.75000000  0.56210620  1.0
  O  O25  1  0.69183675  0.75000000  0.93789380  1.0
  O  O26  1  0.80816325  0.25000000  0.43789380  1.0
  O  O27  1  0.30816325  0.25000000  0.06210620  1.0
