# generated using pymatgen
data_Hf2CuGe4
_symmetry_space_group_name_H-M   'P 1'
_cell_length_a   16.70716392
_cell_length_b   16.70716392
_cell_length_c   3.79923511
_cell_angle_alpha   90.00000000
_cell_angle_beta   90.00000000
_cell_angle_gamma   166.89620745
_symmetry_Int_Tables_number   1
_chemical_formula_structural   Hf2CuGe4
_chemical_formula_sum   'Hf4 Cu2 Ge8'
_cell_volume   240.42707953
_cell_formula_units_Z   2
loop_
 _symmetry_equiv_pos_site_id
 _symmetry_equiv_pos_as_xyz
  1  'x, y, z'
loop_
 _atom_site_type_symbol
 _atom_site_label
 _atom_site_symmetry_multiplicity
 _atom_site_fract_x
 _atom_site_fract_y
 _atom_site_fract_z
 _atom_site_occupancy
  Hf  Hf0  1  0.17785868  0.82214132  0.75000000  1.0
  Hf  Hf1  1  -0.17785868  0.17785868  0.25000000  1.0
  Hf  Hf2  1  0.45264033  0.54735967  0.75000000  1.0
  Hf  Hf3  1  -0.45264033  0.45264033  0.25000000  1.0
  Cu  Cu4  1  -0.24996158  0.24996158  0.75000000  1.0
  Cu  Cu5  1  0.24996158  0.75003842  0.25000000  1.0
  Ge  Ge6  1  0.02780186  0.97219814  0.75000000  1.0
  Ge  Ge7  1  -0.02780186  0.02780186  0.25000000  1.0
  Ge  Ge8  1  0.29855881  0.70144119  0.75000000  1.0
  Ge  Ge9  1  -0.29855881  0.29855881  0.25000000  1.0
  Ge  Ge10  1  -0.38680015  0.38680015  0.75000000  1.0
  Ge  Ge11  1  0.38680015  0.61319985  0.25000000  1.0
  Ge  Ge12  1  -0.11297475  0.11297475  0.75000000  1.0
  Ge  Ge13  1  0.11297475  0.88702525  0.25000000  1.0
