# generated using pymatgen
data_Cu2MoSeO7
_symmetry_space_group_name_H-M   'P 1'
_cell_length_a   8.46699455
_cell_length_b   9.18173945
_cell_length_c   8.44947073
_cell_angle_alpha   90.00000000
_cell_angle_beta   104.19874108
_cell_angle_gamma   90.00000000
_symmetry_Int_Tables_number   1
_chemical_formula_structural   Cu2MoSeO7
_chemical_formula_sum   'Cu8 Mo4 Se4 O28'
_cell_volume   636.80944629
_cell_formula_units_Z   4
loop_
 _symmetry_equiv_pos_site_id
 _symmetry_equiv_pos_as_xyz
  1  'x, y, z'
loop_
 _atom_site_type_symbol
 _atom_site_label
 _atom_site_symmetry_multiplicity
 _atom_site_fract_x
 _atom_site_fract_y
 _atom_site_fract_z
 _atom_site_occupancy
  O  O0  1  0.68910685  0.89470762  0.34219707  1.0
  O  O1  1  0.68910685  0.60529238  0.84219707  1.0
  O  O2  1  0.31089315  0.39470762  0.15780293  1.0
  O  O3  1  0.31089315  0.10529238  0.65780293  1.0
  O  O4  1  0.68227130  0.89042967  0.99910784  1.0
  O  O5  1  0.68227130  0.60957033  0.49910784  1.0
  O  O6  1  0.31772870  0.39042967  0.50089216  1.0
  O  O7  1  0.31772870  0.10957033  0.00089216  1.0
  O  O8  1  0.58040710  0.27113068  0.38819406  1.0
  O  O9  1  0.58040710  0.22886932  0.88819406  1.0
  O  O10  1  0.41959290  0.77113068  0.11180594  1.0
  O  O11  1  0.41959290  0.72886932  0.61180594  1.0
  O  O12  1  0.87930859  0.35922891  0.22019119  1.0
  O  O13  1  0.87930859  0.14077109  0.72019119  1.0
  O  O14  1  0.12069141  0.85922891  0.27980881  1.0
  O  O15  1  0.12069141  0.64077109  0.77980881  1.0
  O  O16  1  0.92881483  0.11437309  0.39161116  1.0
  O  O17  1  0.92881483  0.38562691  0.89161116  1.0
  O  O18  1  0.07118517  0.61437309  0.10838884  1.0
  O  O19  1  0.07118517  0.88562691  0.60838884  1.0
  O  O20  1  0.92795112  0.11020978  0.07600169  1.0
  O  O21  1  0.92795112  0.38979022  0.57600169  1.0
  O  O22  1  0.07204888  0.61020978  0.42399831  1.0
  O  O23  1  0.07204888  0.88979022  0.92399831  1.0
  O  O24  1  0.27359867  0.10867758  0.31779064  1.0
  O  O25  1  0.27359867  0.39132242  0.81779064  1.0
  O  O26  1  0.72640133  0.60867758  0.18220936  1.0
  O  O27  1  0.72640133  0.89132242  0.68220936  1.0
  Cu  Cu28  1  0.81079161  0.49274177  0.38205241  1.0
  Cu  Cu29  1  0.81079161  0.00725823  0.88205241  1.0
  Cu  Cu30  1  0.18920839  0.99274177  0.11794759  1.0
  Cu  Cu31  1  0.18920839  0.50725823  0.61794759  1.0
  Cu  Cu32  1  0.81435916  0.49318616  0.02647496  1.0
  Cu  Cu33  1  0.81435916  0.00681384  0.52647496  1.0
  Cu  Cu34  1  0.18564084  0.99318616  0.47352504  1.0
  Cu  Cu35  1  0.18564084  0.50681384  0.97352504  1.0
  Mo  Mo36  1  0.36947511  0.29163688  0.34028404  1.0
  Mo  Mo37  1  0.36947511  0.20836312  0.84028404  1.0
  Mo  Mo38  1  0.63052489  0.79163688  0.15971596  1.0
  Mo  Mo39  1  0.63052489  0.70836312  0.65971596  1.0
  Se  Se40  1  0.81323302  0.17410426  0.20464450  1.0
  Se  Se41  1  0.81323302  0.32589574  0.70464450  1.0
  Se  Se42  1  0.18676698  0.67410426  0.29535550  1.0
  Se  Se43  1  0.18676698  0.82589574  0.79535550  1.0
