# generated using pymatgen
data_Na4IrO4
_symmetry_space_group_name_H-M   'P 1'
_cell_length_a   5.66436993
_cell_length_b   5.66436993
_cell_length_c   5.66436993
_cell_angle_alpha   100.20890503
_cell_angle_beta   100.20890503
_cell_angle_gamma   130.20501900
_symmetry_Int_Tables_number   1
_chemical_formula_structural   Na4IrO4
_chemical_formula_sum   'Na4 Ir1 O4'
_cell_volume   125.90334261
_cell_formula_units_Z   1
loop_
 _symmetry_equiv_pos_site_id
 _symmetry_equiv_pos_as_xyz
  1  'x, y, z'
loop_
 _atom_site_type_symbol
 _atom_site_label
 _atom_site_symmetry_multiplicity
 _atom_site_fract_x
 _atom_site_fract_y
 _atom_site_fract_z
 _atom_site_occupancy
  Na  Na0  1  0.59555237  0.80234389  1.39789627  1.0
  Na  Na1  1  0.80234389  1.40444763  1.20679152  1.0
  Na  Na2  1  0.40444763  0.19765611  0.60210373  1.0
  Na  Na3  1  1.19765611  0.59555237  0.79320848  1.0
  Ir  Ir4  1  0.00000000  0.00000000  0.00000000  1.0
  O  O5  1  0.91827236  0.74685584  0.66512819  1.0
  O  O6  1  0.74685584  0.08172764  0.82858348  1.0
  O  O7  1  1.08172764  1.25314416  1.33487181  1.0
  O  O8  1  0.25314416  0.91827236  1.17141652  1.0
