# generated using pymatgen
data_NaIn(C2O5)2
_symmetry_space_group_name_H-M   'P 1'
_cell_length_a   8.30379726
_cell_length_b   8.30379726
_cell_length_c   12.86954958
_cell_angle_alpha   90.00000000
_cell_angle_beta   90.00000000
_cell_angle_gamma   120.00000000
_symmetry_Int_Tables_number   1
_chemical_formula_structural   NaIn(C2O5)2
_chemical_formula_sum   'Na3 In3 C12 O30'
_cell_volume   768.50633715
_cell_formula_units_Z   3
loop_
 _symmetry_equiv_pos_site_id
 _symmetry_equiv_pos_as_xyz
  1  'x, y, z'
loop_
 _atom_site_type_symbol
 _atom_site_label
 _atom_site_symmetry_multiplicity
 _atom_site_fract_x
 _atom_site_fract_y
 _atom_site_fract_z
 _atom_site_occupancy
  In  In0  1  0.50000000  0.50000000  0.33333333  1.0
  In  In1  1  0.50000000  0.00000000  -0.00000000  1.0
  In  In2  1  0.00000000  0.50000000  0.66666667  1.0
  O  O3  1  0.24120803  0.67963478  0.55994653  1.0
  O  O4  1  0.24120803  0.56157326  0.77338680  1.0
  O  O5  1  0.67963478  0.24120803  0.10672013  1.0
  O  O6  1  0.67963478  0.43842674  0.22661320  1.0
  O  O7  1  0.43842674  0.67963478  0.44005347  1.0
  O  O8  1  0.43842674  0.75879197  0.89327987  1.0
  O  O9  1  0.32036522  0.75879197  0.10672013  1.0
  O  O10  1  0.32036522  0.56157326  0.22661320  1.0
  O  O11  1  0.75879197  0.43842674  0.77338680  1.0
  O  O12  1  0.75879197  0.32036522  0.55994653  1.0
  O  O13  1  0.56157326  0.24120803  0.89327987  1.0
  O  O14  1  0.56157326  0.32036522  0.44005347  1.0
  O  O15  1  0.77623859  0.69529112  0.42579790  1.0
  O  O16  1  0.77623859  0.08094746  0.90753543  1.0
  O  O17  1  0.69529112  0.77623859  0.24086877  1.0
  O  O18  1  0.69529112  0.91905254  0.09246457  1.0
  O  O19  1  0.91905254  0.69529112  0.57420210  1.0
  O  O20  1  0.91905254  0.22376141  0.75913123  1.0
  O  O21  1  0.30470888  0.22376141  0.24086877  1.0
  O  O22  1  0.30470888  0.08094746  0.09246457  1.0
  O  O23  1  0.22376141  0.91905254  0.90753543  1.0
  O  O24  1  0.22376141  0.30470888  0.42579790  1.0
  O  O25  1  0.08094746  0.77623859  0.75913123  1.0
  O  O26  1  0.08094746  0.30470888  0.57420210  1.0
  O  O27  1  0.83039393  0.83039393  0.83333333  1.0
  O  O28  1  0.83039393  0.00000000  0.50000000  1.0
  O  O29  1  -0.00000000  0.83039393  0.16666667  1.0
  O  O30  1  -0.00000000  0.16960607  0.16666667  1.0
  O  O31  1  0.16960607  0.16960607  0.83333333  1.0
  O  O32  1  0.16960607  -0.00000000  0.50000000  1.0
  Na  Na33  1  -0.00000000  -0.00000000  0.33333333  1.0
  Na  Na34  1  -0.00000000  -0.00000000  -0.00000000  1.0
  Na  Na35  1  0.00000000  0.00000000  0.66666667  1.0
  C  C36  1  0.30030315  0.69969685  0.83333333  1.0
  C  C37  1  0.30030315  0.60060629  0.50000000  1.0
  C  C38  1  0.69969685  0.30030315  0.83333333  1.0
  C  C39  1  0.69969685  0.39939371  0.50000000  1.0
  C  C40  1  0.39939371  0.69969685  0.16666667  1.0
  C  C41  1  0.60060629  0.30030315  0.16666667  1.0
  C  C42  1  0.19166104  0.80833896  0.83333333  1.0
  C  C43  1  0.19166104  0.38332208  0.50000000  1.0
  C  C44  1  0.80833896  0.19166104  0.83333333  1.0
  C  C45  1  0.80833896  0.61667792  0.50000000  1.0
  C  C46  1  0.61667792  0.80833896  0.16666667  1.0
  C  C47  1  0.38332208  0.19166104  0.16666667  1.0
