# generated using pymatgen
data_Ce2MnN3
_symmetry_space_group_name_H-M   'P 1'
_cell_length_a   6.71134959
_cell_length_b   6.71134959
_cell_length_c   6.71134959
_cell_angle_alpha   150.04547962
_cell_angle_beta   147.11560131
_cell_angle_gamma   45.07425736
_symmetry_Int_Tables_number   1
_chemical_formula_structural   Ce2MnN3
_chemical_formula_sum   'Ce2 Mn1 N3'
_cell_volume   81.69597742
_cell_formula_units_Z   1
loop_
 _symmetry_equiv_pos_site_id
 _symmetry_equiv_pos_as_xyz
  1  'x, y, z'
loop_
 _atom_site_type_symbol
 _atom_site_label
 _atom_site_symmetry_multiplicity
 _atom_site_fract_x
 _atom_site_fract_y
 _atom_site_fract_z
 _atom_site_occupancy
  Ce  Ce0  1  0.64577927  0.64577927  1.00000000  1.0
  Ce  Ce1  1  0.35422073  0.35422073  -0.00000000  1.0
  Mn  Mn2  1  0.00000000  0.00000000  0.00000000  1.0
  N  N3  1  0.83772630  0.83772630  1.00000000  1.0
  N  N4  1  0.16227370  0.16227370  0.00000000  1.0
  N  N5  1  0.50000000  0.00000000  0.50000000  1.0
