# generated using pymatgen
data_GdCoGe
_symmetry_space_group_name_H-M   'P 1'
_cell_length_a   7.07604891
_cell_length_b   4.30822759
_cell_length_c   6.99306702
_cell_angle_alpha   90.00000000
_cell_angle_beta   90.00000000
_cell_angle_gamma   90.00000000
_symmetry_Int_Tables_number   1
_chemical_formula_structural   GdCoGe
_chemical_formula_sum   'Gd4 Co4 Ge4'
_cell_volume   213.18525078
_cell_formula_units_Z   4
loop_
 _symmetry_equiv_pos_site_id
 _symmetry_equiv_pos_as_xyz
  1  'x, y, z'
loop_
 _atom_site_type_symbol
 _atom_site_label
 _atom_site_symmetry_multiplicity
 _atom_site_fract_x
 _atom_site_fract_y
 _atom_site_fract_z
 _atom_site_occupancy
  Gd  Gd0  1  1.01941307  0.75000000  0.68979313  1.0
  Gd  Gd1  1  0.51941307  0.75000000  0.81020687  1.0
  Gd  Gd2  1  -0.01941307  0.25000000  0.31020687  1.0
  Gd  Gd3  1  0.48058693  0.25000000  0.18979313  1.0
  Co  Co4  1  0.85476720  0.75000000  0.06599318  1.0
  Co  Co5  1  0.35476720  0.75000000  0.43400682  1.0
  Co  Co6  1  0.14523280  0.25000000  0.93400682  1.0
  Co  Co7  1  0.64523280  0.25000000  0.56599318  1.0
  Ge  Ge8  1  0.69723847  0.75000000  0.39327228  1.0
  Ge  Ge9  1  0.19723847  0.75000000  0.10672772  1.0
  Ge  Ge10  1  0.30276153  0.25000000  0.60672772  1.0
  Ge  Ge11  1  0.80276153  0.25000000  0.89327228  1.0
