# generated using pymatgen
data_LaTlO3
_symmetry_space_group_name_H-M   'P 1'
_cell_length_a   3.75577766
_cell_length_b   3.75577766
_cell_length_c   13.07342187
_cell_angle_alpha   90.00000000
_cell_angle_beta   90.00000000
_cell_angle_gamma   120.00000000
_symmetry_Int_Tables_number   1
_chemical_formula_structural   LaTlO3
_chemical_formula_sum   'La2 Tl2 O6'
_cell_volume   159.70542071
_cell_formula_units_Z   2
loop_
 _symmetry_equiv_pos_site_id
 _symmetry_equiv_pos_as_xyz
  1  'x, y, z'
loop_
 _atom_site_type_symbol
 _atom_site_label
 _atom_site_symmetry_multiplicity
 _atom_site_fract_x
 _atom_site_fract_y
 _atom_site_fract_z
 _atom_site_occupancy
  La  La0  1  0.00000000  0.00000000  -0.00666028  1.0
  La  La1  1  0.00000000  0.00000000  0.49333972  1.0
  Tl  Tl2  1  0.33333333  0.66666667  0.76217599  1.0
  Tl  Tl3  1  0.66666667  0.33333333  0.26217599  1.0
  O  O4  1  0.33333333  0.66666667  0.04428708  1.0
  O  O5  1  0.66666667  0.33333333  0.54428708  1.0
  O  O6  1  0.33333333  0.66666667  0.37158515  1.0
  O  O7  1  0.66666667  0.33333333  0.87158515  1.0
  O  O8  1  -0.00000000  -0.00000000  0.20361206  1.0
  O  O9  1  0.00000000  0.00000000  0.70361206  1.0
