# generated using pymatgen
data_NaH2SO4
_symmetry_space_group_name_H-M   'P 1'
_cell_length_a   6.62365231
_cell_length_b   10.98718199
_cell_length_c   10.67603523
_cell_angle_alpha   90.00000000
_cell_angle_beta   90.00000000
_cell_angle_gamma   90.00000000
_symmetry_Int_Tables_number   1
_chemical_formula_structural   NaH2SO4
_chemical_formula_sum   'Na8 H16 S8 O32'
_cell_volume   776.95138302
_cell_formula_units_Z   8
loop_
 _symmetry_equiv_pos_site_id
 _symmetry_equiv_pos_as_xyz
  1  'x, y, z'
loop_
 _atom_site_type_symbol
 _atom_site_label
 _atom_site_symmetry_multiplicity
 _atom_site_fract_x
 _atom_site_fract_y
 _atom_site_fract_z
 _atom_site_occupancy
  Na  Na0  1  0.06752627  0.43888745  0.65673292  1.0
  Na  Na1  1  0.06752627  0.06111255  0.65673292  1.0
  Na  Na2  1  0.56752627  0.43888745  0.84326708  1.0
  Na  Na3  1  0.56752627  0.06111255  0.84326708  1.0
  Na  Na4  1  0.93247373  0.93888745  0.34326708  1.0
  Na  Na5  1  0.93247373  0.56111255  0.34326708  1.0
  Na  Na6  1  0.43247373  0.93888745  0.15673292  1.0
  Na  Na7  1  0.43247373  0.56111255  0.15673292  1.0
  H  H8  1  0.29175326  0.87586118  0.76439489  1.0
  H  H9  1  0.29175326  0.62413882  0.76439489  1.0
  H  H10  1  0.79175326  0.87586118  0.73560511  1.0
  H  H11  1  0.79175326  0.62413882  0.73560511  1.0
  H  H12  1  0.70824674  0.37586118  0.23560511  1.0
  H  H13  1  0.70824674  0.12413882  0.23560511  1.0
  H  H14  1  0.20824674  0.37586118  0.26439489  1.0
  H  H15  1  0.20824674  0.12413882  0.26439489  1.0
  H  H16  1  0.19781210  0.92658111  0.88797571  1.0
  H  H17  1  0.19781210  0.57341889  0.88797571  1.0
  H  H18  1  0.69781210  0.92658111  0.61202429  1.0
  H  H19  1  0.69781210  0.57341889  0.61202429  1.0
  H  H20  1  0.80218790  0.42658111  0.11202429  1.0
  H  H21  1  0.80218790  0.07341889  0.11202429  1.0
  H  H22  1  0.30218790  0.42658111  0.38797571  1.0
  H  H23  1  0.30218790  0.07341889  0.38797571  1.0
  S  S24  1  0.48076939  0.25000000  0.58731464  1.0
  S  S25  1  0.98076939  0.25000000  0.91268536  1.0
  S  S26  1  0.51923061  0.75000000  0.41268536  1.0
  S  S27  1  0.01923061  0.75000000  0.08731464  1.0
  S  S28  1  0.24879010  0.25000000  0.03952689  1.0
  S  S29  1  0.74879010  0.25000000  0.46047311  1.0
  S  S30  1  0.75120990  0.75000000  0.96047311  1.0
  S  S31  1  0.25120990  0.75000000  0.53952689  1.0
  O  O32  1  0.37392752  0.36333477  0.55425788  1.0
  O  O33  1  0.37392752  0.13666523  0.55425788  1.0
  O  O34  1  0.87392752  0.36333477  0.94574212  1.0
  O  O35  1  0.87392752  0.13666523  0.94574212  1.0
  O  O36  1  0.62607248  0.86333477  0.44574212  1.0
  O  O37  1  0.62607248  0.63666523  0.44574212  1.0
  O  O38  1  0.12607248  0.86333477  0.05425788  1.0
  O  O39  1  0.12607248  0.63666523  0.05425788  1.0
  O  O40  1  0.35927205  0.36300255  0.01172822  1.0
  O  O41  1  0.35927205  0.13699745  0.01172822  1.0
  O  O42  1  0.85927205  0.36300255  0.48827178  1.0
  O  O43  1  0.85927205  0.13699745  0.48827178  1.0
  O  O44  1  0.64072795  0.86300255  0.98827178  1.0
  O  O45  1  0.64072795  0.63699745  0.98827178  1.0
  O  O46  1  0.14072795  0.86300255  0.51172822  1.0
  O  O47  1  0.14072795  0.63699745  0.51172822  1.0
  O  O48  1  0.25843480  0.95218054  0.80841487  1.0
  O  O49  1  0.25843480  0.54781946  0.80841487  1.0
  O  O50  1  0.75843480  0.95218054  0.69158513  1.0
  O  O51  1  0.75843480  0.54781946  0.69158513  1.0
  O  O52  1  0.74156520  0.45218054  0.19158513  1.0
  O  O53  1  0.74156520  0.04781946  0.19158513  1.0
  O  O54  1  0.24156520  0.45218054  0.30841487  1.0
  O  O55  1  0.24156520  0.04781946  0.30841487  1.0
  O  O56  1  0.15342506  0.25000000  0.16549355  1.0
  O  O57  1  0.65342506  0.25000000  0.33450645  1.0
  O  O58  1  0.84657494  0.75000000  0.83450645  1.0
  O  O59  1  0.34657494  0.75000000  0.66549355  1.0
  O  O60  1  0.06380723  0.25000000  0.78418439  1.0
  O  O61  1  0.56380723  0.25000000  0.71581561  1.0
  O  O62  1  0.93619277  0.75000000  0.21581561  1.0
  O  O63  1  0.43619277  0.75000000  0.28418439  1.0
