# generated using pymatgen
data_BaAgTeF
_symmetry_space_group_name_H-M   'P 1'
_cell_length_a   4.57062862
_cell_length_b   4.57062862
_cell_length_c   9.82986402
_cell_angle_alpha   90.00000000
_cell_angle_beta   90.00000000
_cell_angle_gamma   90.00000000
_symmetry_Int_Tables_number   1
_chemical_formula_structural   BaAgTeF
_chemical_formula_sum   'Ba2 Ag2 Te2 F2'
_cell_volume   205.35220936
_cell_formula_units_Z   2
loop_
 _symmetry_equiv_pos_site_id
 _symmetry_equiv_pos_as_xyz
  1  'x, y, z'
loop_
 _atom_site_type_symbol
 _atom_site_label
 _atom_site_symmetry_multiplicity
 _atom_site_fract_x
 _atom_site_fract_y
 _atom_site_fract_z
 _atom_site_occupancy
  Ba  Ba0  1  0.50000000  0.00000000  0.64709278  1.0
  Ba  Ba1  1  0.00000000  0.50000000  0.35290722  1.0
  Ag  Ag2  1  0.00000000  0.00000000  0.00000000  1.0
  Ag  Ag3  1  0.50000000  0.50000000  0.00000000  1.0
  Te  Te4  1  0.50000000  0.00000000  0.18435881  1.0
  Te  Te5  1  0.00000000  0.50000000  0.81564119  1.0
  F  F6  1  0.00000000  0.00000000  0.50000000  1.0
  F  F7  1  0.50000000  0.50000000  0.50000000  1.0
