# generated using pymatgen
data_La2CoO4
_symmetry_space_group_name_H-M   'P 1'
_cell_length_a   5.45070396
_cell_length_b   5.45070396
_cell_length_c   12.86022616
_cell_angle_alpha   90.00000000
_cell_angle_beta   90.00000000
_cell_angle_gamma   90.00000000
_symmetry_Int_Tables_number   1
_chemical_formula_structural   La2CoO4
_chemical_formula_sum   'La8 Co4 O16'
_cell_volume   382.07955293
_cell_formula_units_Z   4
loop_
 _symmetry_equiv_pos_site_id
 _symmetry_equiv_pos_as_xyz
  1  'x, y, z'
loop_
 _atom_site_type_symbol
 _atom_site_label
 _atom_site_symmetry_multiplicity
 _atom_site_fract_x
 _atom_site_fract_y
 _atom_site_fract_z
 _atom_site_occupancy
  La  La0  1  0.74079858  0.24079858  0.38780102  1.0
  La  La1  1  0.74079858  0.75920142  0.88780102  1.0
  La  La2  1  0.24079858  0.74079858  0.11219898  1.0
  La  La3  1  0.24079858  0.25920142  0.61219898  1.0
  La  La4  1  0.75920142  0.74079858  0.61219898  1.0
  La  La5  1  0.75920142  0.25920142  0.11219898  1.0
  La  La6  1  0.25920142  0.24079858  0.88780102  1.0
  La  La7  1  0.25920142  0.75920142  0.38780102  1.0
  Co  Co8  1  0.75000000  0.25000000  0.75000000  1.0
  Co  Co9  1  0.75000000  0.75000000  0.25000000  1.0
  Co  Co10  1  0.25000000  0.75000000  0.75000000  1.0
  Co  Co11  1  0.25000000  0.25000000  0.25000000  1.0
  O  O12  1  0.00000000  0.00000000  0.75000000  1.0
  O  O13  1  0.00000000  0.00000000  0.25000000  1.0
  O  O14  1  0.50000000  0.50000000  0.75000000  1.0
  O  O15  1  0.50000000  0.50000000  0.25000000  1.0
  O  O16  1  0.50000000  0.00000000  0.22854181  1.0
  O  O17  1  0.50000000  0.00000000  0.72854181  1.0
  O  O18  1  0.00000000  0.50000000  0.27145819  1.0
  O  O19  1  0.00000000  0.50000000  0.77145819  1.0
  O  O20  1  0.71483320  0.21483320  0.93052456  1.0
  O  O21  1  0.71483320  0.78516680  0.43052456  1.0
  O  O22  1  0.21483320  0.71483320  0.56947544  1.0
  O  O23  1  0.21483320  0.28516680  0.06947544  1.0
  O  O24  1  0.78516680  0.71483320  0.06947544  1.0
  O  O25  1  0.78516680  0.28516680  0.56947544  1.0
  O  O26  1  0.28516680  0.21483320  0.43052456  1.0
  O  O27  1  0.28516680  0.78516680  0.93052456  1.0
