# generated using pymatgen
data_K3MnCrO8
_symmetry_space_group_name_H-M   'P 1'
_cell_length_a   7.94322870
_cell_length_b   7.94322870
_cell_length_c   7.94322870
_cell_angle_alpha   43.55903409
_cell_angle_beta   43.55903409
_cell_angle_gamma   43.55903410
_symmetry_Int_Tables_number   1
_chemical_formula_structural   K3MnCrO8
_chemical_formula_sum   'K3 Mn1 Cr1 O8'
_cell_volume   215.96164477
_cell_formula_units_Z   1
loop_
 _symmetry_equiv_pos_site_id
 _symmetry_equiv_pos_as_xyz
  1  'x, y, z'
loop_
 _atom_site_type_symbol
 _atom_site_label
 _atom_site_symmetry_multiplicity
 _atom_site_fract_x
 _atom_site_fract_y
 _atom_site_fract_z
 _atom_site_occupancy
  K  K0  1  -0.00298007  -0.00298007  -0.00298007  1.0
  K  K1  1  0.40320846  0.40320846  -0.59679154  1.0
  K  K2  1  0.21141853  0.21141853  0.21141853  1.0
  Mn  Mn3  1  0.79721978  -0.20278022  -0.20278022  1.0
  Cr  Cr4  1  0.61153286  0.61153286  -0.38846714  1.0
  O  O5  1  0.94362776  0.48510801  -0.51489199  1.0
  O  O6  1  0.48510801  0.48510801  -0.05637224  1.0
  O  O7  1  0.48510801  0.94362776  -0.51489199  1.0
  O  O8  1  0.47368762  -0.07831134  -0.07831134  1.0
  O  O9  1  0.92168867  -0.07831133  -0.52631238  1.0
  O  O10  1  0.92168866  -0.52631238  -0.07831134  1.0
  O  O11  1  0.87167983  -0.12832017  -0.12832017  1.0
  O  O12  1  0.53501190  0.53501190  -0.46498810  1.0
