# generated using pymatgen
data_La2H5
_symmetry_space_group_name_H-M   'P 1'
_cell_length_a   6.91512546
_cell_length_b   6.91512546
_cell_length_c   6.91512546
_cell_angle_alpha   132.35156572
_cell_angle_beta   132.35156572
_cell_angle_gamma   69.67433061
_symmetry_Int_Tables_number   1
_chemical_formula_structural   La2H5
_chemical_formula_sum   'La4 H10'
_cell_volume   177.13436378
_cell_formula_units_Z   2
loop_
 _symmetry_equiv_pos_site_id
 _symmetry_equiv_pos_as_xyz
  1  'x, y, z'
loop_
 _atom_site_type_symbol
 _atom_site_label
 _atom_site_symmetry_multiplicity
 _atom_site_fract_x
 _atom_site_fract_y
 _atom_site_fract_z
 _atom_site_occupancy
  La  La0  1  0.50422534  0.00422534  0.50000000  1.0
  La  La1  1  0.24577466  0.24577466  -0.00000000  1.0
  La  La2  1  0.99577466  0.49577466  0.50000000  1.0
  La  La3  1  0.75422534  0.75422534  1.00000000  1.0
  H  H4  1  0.60611269  0.62500000  0.48111269  1.0
  H  H5  1  1.14388731  1.12500000  1.51888731  1.0
  H  H6  1  0.60611269  1.12500000  0.98111269  1.0
  H  H7  1  1.14388731  0.62500000  1.01888731  1.0
  H  H8  1  0.37500000  0.39388731  0.51888731  1.0
  H  H9  1  0.87500000  0.85611269  1.48111269  1.0
  H  H10  1  0.87500000  0.39388731  1.01888731  1.0
  H  H11  1  0.37500000  0.85611269  0.98111269  1.0
  H  H12  1  0.75000000  0.25000000  0.50000000  1.0
  H  H13  1  0.00000000  0.00000000  0.00000000  1.0
