# generated using pymatgen
data_Fe21(WC3)2
_symmetry_space_group_name_H-M   'P 1'
_cell_length_a   7.41285189
_cell_length_b   7.41285189
_cell_length_c   7.41285189
_cell_angle_alpha   60.00000000
_cell_angle_beta   60.00000000
_cell_angle_gamma   60.00000000
_symmetry_Int_Tables_number   1
_chemical_formula_structural   Fe21(WC3)2
_chemical_formula_sum   'Fe21 W2 C6'
_cell_volume   288.03215354
_cell_formula_units_Z   1
loop_
 _symmetry_equiv_pos_site_id
 _symmetry_equiv_pos_as_xyz
  1  'x, y, z'
loop_
 _atom_site_type_symbol
 _atom_site_label
 _atom_site_symmetry_multiplicity
 _atom_site_fract_x
 _atom_site_fract_y
 _atom_site_fract_z
 _atom_site_occupancy
  Fe  Fe0  1  1.66036752  0.00000000  -0.00000000  1.0
  Fe  Fe1  1  1.00000000  0.33963248  -0.33963248  1.0
  Fe  Fe2  1  1.00000000  0.66036752  -0.66036752  1.0
  Fe  Fe3  1  1.33963248  0.00000000  -0.00000000  1.0
  Fe  Fe4  1  0.00000000  1.66036752  -0.00000000  1.0
  Fe  Fe5  1  0.33963248  1.00000000  -0.33963248  1.0
  Fe  Fe6  1  0.00000000  0.00000000  0.66036752  1.0
  Fe  Fe7  1  0.33963248  -0.33963248  1.00000000  1.0
  Fe  Fe8  1  0.66036752  1.00000000  -0.66036752  1.0
  Fe  Fe9  1  0.00000000  1.33963248  -0.00000000  1.0
  Fe  Fe10  1  0.66036752  -0.66036752  1.00000000  1.0
  Fe  Fe11  1  0.00000000  0.00000000  0.33963248  1.0
  Fe  Fe12  1  0.61638271  0.61638271  -0.38361729  1.0
  Fe  Fe13  1  0.38361729  1.38361729  -0.15085188  1.0
  Fe  Fe14  1  1.38361729  -0.15085188  0.38361729  1.0
  Fe  Fe15  1  1.15085188  0.61638271  0.61638271  1.0
  Fe  Fe16  1  -0.15085188  1.38361729  0.38361729  1.0
  Fe  Fe17  1  0.61638271  1.15085188  -0.38361729  1.0
  Fe  Fe18  1  0.61638271  0.61638271  1.15085188  1.0
  Fe  Fe19  1  1.38361729  0.38361729  0.38361729  1.0
  Fe  Fe20  1  -0.00000000  0.00000000  -0.00000000  1.0
  W  W21  1  0.75000000  0.75000000  -0.25000000  1.0
  W  W22  1  1.25000000  0.25000000  0.25000000  1.0
  C  C23  1  -0.72113406  0.72113406  0.72113406  1.0
  C  C24  1  -0.27886594  0.27886594  0.72113406  1.0
  C  C25  1  0.72113406  0.72113406  -0.72113406  1.0
  C  C26  1  0.27886594  1.27886594  -0.27886594  1.0
  C  C27  1  0.27886594  -0.27886594  1.27886594  1.0
  C  C28  1  -0.27886594  0.27886594  0.27886594  1.0
