# generated using pymatgen
data_MoPCl8O
_symmetry_space_group_name_H-M   'P 1'
_cell_length_a   17.27290680
_cell_length_b   8.58993897
_cell_length_c   9.49282123
_cell_angle_alpha   90.00000000
_cell_angle_beta   90.00000000
_cell_angle_gamma   90.00000000
_symmetry_Int_Tables_number   1
_chemical_formula_structural   MoPCl8O
_chemical_formula_sum   'Mo4 P4 Cl32 O4'
_cell_volume   1408.48040734
_cell_formula_units_Z   4
loop_
 _symmetry_equiv_pos_site_id
 _symmetry_equiv_pos_as_xyz
  1  'x, y, z'
loop_
 _atom_site_type_symbol
 _atom_site_label
 _atom_site_symmetry_multiplicity
 _atom_site_fract_x
 _atom_site_fract_y
 _atom_site_fract_z
 _atom_site_occupancy
  Mo  Mo0  1  0.34873613  0.75000000  0.07954565  1.0
  Mo  Mo1  1  0.84873613  0.75000000  0.42045435  1.0
  Mo  Mo2  1  0.65126387  0.25000000  0.92045435  1.0
  Mo  Mo3  1  0.15126387  0.25000000  0.57954565  1.0
  P  P4  1  0.41943885  0.75000000  0.72431196  1.0
  P  P5  1  0.91943885  0.75000000  0.77568804  1.0
  P  P6  1  0.58056115  0.25000000  0.27568804  1.0
  P  P7  1  0.08056115  0.25000000  0.22431196  1.0
  Cl  Cl8  1  0.36800856  0.93537860  0.63929683  1.0
  Cl  Cl9  1  0.36800856  0.56462140  0.63929683  1.0
  Cl  Cl10  1  0.86800856  0.93537860  0.86070317  1.0
  Cl  Cl11  1  0.86800856  0.56462140  0.86070317  1.0
  Cl  Cl12  1  0.63199144  0.43537860  0.36070317  1.0
  Cl  Cl13  1  0.63199144  0.06462140  0.36070317  1.0
  Cl  Cl14  1  0.13199144  0.43537860  0.13929683  1.0
  Cl  Cl15  1  0.13199144  0.06462140  0.13929683  1.0
  Cl  Cl16  1  0.14255444  0.98625003  0.54778283  1.0
  Cl  Cl17  1  0.14255444  0.51374997  0.54778283  1.0
  Cl  Cl18  1  0.64255444  0.98625003  0.95221717  1.0
  Cl  Cl19  1  0.64255444  0.51374997  0.95221717  1.0
  Cl  Cl20  1  0.85744556  0.48625003  0.45221717  1.0
  Cl  Cl21  1  0.85744556  0.01374997  0.45221717  1.0
  Cl  Cl22  1  0.35744556  0.48625003  0.04778283  1.0
  Cl  Cl23  1  0.35744556  0.01374997  0.04778283  1.0
  Cl  Cl24  1  0.46482883  0.75000000  0.20399077  1.0
  Cl  Cl25  1  0.96482883  0.75000000  0.29600923  1.0
  Cl  Cl26  1  0.53517117  0.25000000  0.79600923  1.0
  Cl  Cl27  1  0.03517117  0.25000000  0.70399077  1.0
  Cl  Cl28  1  0.27879659  0.75000000  0.28074010  1.0
  Cl  Cl29  1  0.77879659  0.75000000  0.21925990  1.0
  Cl  Cl30  1  0.72120341  0.25000000  0.71925990  1.0
  Cl  Cl31  1  0.22120341  0.25000000  0.78074010  1.0
  Cl  Cl32  1  0.23437212  0.75000000  0.94210012  1.0
  Cl  Cl33  1  0.73437212  0.75000000  0.55789988  1.0
  Cl  Cl34  1  0.76562788  0.25000000  0.05789988  1.0
  Cl  Cl35  1  0.26562788  0.25000000  0.44210012  1.0
  Cl  Cl36  1  0.02777155  0.75000000  0.84816985  1.0
  Cl  Cl37  1  0.52777155  0.75000000  0.65183015  1.0
  Cl  Cl38  1  0.97222845  0.25000000  0.15183015  1.0
  Cl  Cl39  1  0.47222845  0.25000000  0.34816985  1.0
  O  O40  1  0.41926219  0.75000000  0.88168351  1.0
  O  O41  1  0.91926219  0.75000000  0.61831649  1.0
  O  O42  1  0.58073781  0.25000000  0.11831649  1.0
  O  O43  1  0.08073781  0.25000000  0.38168351  1.0
