# generated using pymatgen
data_SiO2
_symmetry_space_group_name_H-M   'P 1'
_cell_length_a   10.82200855
_cell_length_b   10.82200855
_cell_length_c   10.82200855
_cell_angle_alpha   60.00000000
_cell_angle_beta   60.00000000
_cell_angle_gamma   60.00000000
_symmetry_Int_Tables_number   1
_chemical_formula_structural   SiO2
_chemical_formula_sum   'Si8 O16'
_cell_volume   896.20759447
_cell_formula_units_Z   8
loop_
 _symmetry_equiv_pos_site_id
 _symmetry_equiv_pos_as_xyz
  1  'x, y, z'
loop_
 _atom_site_type_symbol
 _atom_site_label
 _atom_site_symmetry_multiplicity
 _atom_site_fract_x
 _atom_site_fract_y
 _atom_site_fract_z
 _atom_site_occupancy
  Si  Si0  1  0.06453933  0.80638200  0.06453933  1.0
  Si  Si1  1  0.06453933  0.06453933  0.06453933  1.0
  Si  Si2  1  0.80638200  0.06453933  1.06453933  1.0
  Si  Si3  1  0.06453933  0.06453933  1.80638200  1.0
  Si  Si4  1  0.18546067  0.44361800  0.18546067  1.0
  Si  Si5  1  0.18546067  0.18546067  0.18546067  1.0
  Si  Si6  1  0.44361800  0.18546067  0.18546067  1.0
  Si  Si7  1  0.18546067  0.18546067  0.44361800  1.0
  O  O8  1  -0.12289374  1.12289374  0.12289374  1.0
  O  O9  1  -0.12289374  0.87710626  0.12289374  1.0
  O  O10  1  0.12289374  0.87710626  0.12289374  1.0
  O  O11  1  0.12289374  0.12289374  -0.12289374  1.0
  O  O12  1  0.87710626  0.12289374  0.87710626  1.0
  O  O13  1  0.12289374  0.87710626  -0.12289374  1.0
  O  O14  1  0.37289374  0.12710626  0.12710626  1.0
  O  O15  1  0.37289374  0.37289374  0.12710626  1.0
  O  O16  1  0.12710626  0.37289374  0.12710626  1.0
  O  O17  1  0.12710626  0.12710626  0.37289374  1.0
  O  O18  1  0.37289374  0.12710626  0.37289374  1.0
  O  O19  1  0.12710626  0.37289374  0.37289374  1.0
  O  O20  1  0.12500000  0.62500000  0.12500000  1.0
  O  O21  1  0.12500000  0.12500000  0.12500000  1.0
  O  O22  1  0.62500000  0.12500000  1.12500000  1.0
  O  O23  1  0.12500000  0.12500000  1.62500000  1.0
