# generated using pymatgen
data_Rb2MoAs2O9
_symmetry_space_group_name_H-M   'P 1'
_cell_length_a   7.63000822
_cell_length_b   7.73332442
_cell_length_c   9.32252184
_cell_angle_alpha   110.64484906
_cell_angle_beta   102.36471015
_cell_angle_gamma   86.73210103
_symmetry_Int_Tables_number   1
_chemical_formula_structural   Rb2MoAs2O9
_chemical_formula_sum   'Rb4 Mo2 As4 O18'
_cell_volume   502.71155930
_cell_formula_units_Z   2
loop_
 _symmetry_equiv_pos_site_id
 _symmetry_equiv_pos_as_xyz
  1  'x, y, z'
loop_
 _atom_site_type_symbol
 _atom_site_label
 _atom_site_symmetry_multiplicity
 _atom_site_fract_x
 _atom_site_fract_y
 _atom_site_fract_z
 _atom_site_occupancy
  Rb  Rb0  1  0.41313217  0.77726517  -0.37619279  1.0
  Rb  Rb1  1  0.58686783  0.22273483  -0.62380721  1.0
  Rb  Rb2  1  0.31876807  0.67663197  -0.88478258  1.0
  Rb  Rb3  1  0.68123193  0.32336803  -0.11521742  1.0
  Mo  Mo4  1  0.93137842  0.74355549  -0.26281789  1.0
  Mo  Mo5  1  0.06862158  0.25644451  -0.73718211  1.0
  As  As6  1  0.82389611  0.83400543  -0.91332268  1.0
  As  As7  1  0.17610389  0.16599457  -0.08667732  1.0
  As  As8  1  0.83247967  0.67519739  -0.64267126  1.0
  As  As9  1  0.16752033  0.32480261  -0.35732874  1.0
  O  O10  1  0.78942216  0.92893059  -0.22930904  1.0
  O  O11  1  0.21057784  0.07106941  -0.77069096  1.0
  O  O12  1  0.95030303  0.76464587  -0.75293940  1.0
  O  O13  1  0.04969697  0.23535413  -0.24706060  1.0
  O  O14  1  0.62884210  0.76864288  -0.62823750  1.0
  O  O15  1  0.37115790  0.23135712  -0.37176250  1.0
  O  O16  1  0.62074563  0.72982050  -0.99037278  1.0
  O  O17  1  0.37925437  0.27017950  -0.00962722  1.0
  O  O18  1  0.98864995  0.74845029  -0.46192887  1.0
  O  O19  1  0.01135005  0.25154971  -0.53807113  1.0
  O  O20  1  0.97163967  0.74123731  -0.04305906  1.0
  O  O21  1  0.02836033  0.25876269  -0.95694094  1.0
  O  O22  1  0.78019725  0.55913763  -0.35272402  1.0
  O  O23  1  0.21980275  0.44086237  -0.64727598  1.0
  O  O24  1  0.83236912  0.43760688  -0.73391172  1.0
  O  O25  1  0.16763088  0.56239312  -0.26608828  1.0
  O  O26  1  0.82781850  0.07183750  -0.83801039  1.0
  O  O27  1  0.17218150  0.92816250  -0.16198961  1.0
