# generated using pymatgen
data_LiGaBr3
_symmetry_space_group_name_H-M   'P 1'
_cell_length_a   6.70916358
_cell_length_b   10.62974346
_cell_length_c   8.15806943
_cell_angle_alpha   90.00000000
_cell_angle_beta   94.38625580
_cell_angle_gamma   90.00000000
_symmetry_Int_Tables_number   1
_chemical_formula_structural   LiGaBr3
_chemical_formula_sum   'Li4 Ga4 Br12'
_cell_volume   580.10245215
_cell_formula_units_Z   4
loop_
 _symmetry_equiv_pos_site_id
 _symmetry_equiv_pos_as_xyz
  1  'x, y, z'
loop_
 _atom_site_type_symbol
 _atom_site_label
 _atom_site_symmetry_multiplicity
 _atom_site_fract_x
 _atom_site_fract_y
 _atom_site_fract_z
 _atom_site_occupancy
  Li  Li0  1  0.50000000  0.50000000  0.50000000  1.0
  Li  Li1  1  0.50000000  0.00000000  0.50000000  1.0
  Li  Li2  1  0.00000000  0.50000000  0.00000000  1.0
  Li  Li3  1  0.00000000  -0.00000000  0.00000000  1.0
  Ga  Ga4  1  0.96786248  0.25000000  0.45995971  1.0
  Ga  Ga5  1  0.03213752  0.75000000  0.54004029  1.0
  Ga  Ga6  1  0.86823306  0.25000000  0.74071895  1.0
  Ga  Ga7  1  0.13176694  0.75000000  0.25928105  1.0
  Br  Br8  1  0.81978943  0.42986670  0.31033392  1.0
  Br  Br9  1  0.81978943  0.07013330  0.31033392  1.0
  Br  Br10  1  0.18021057  0.92986670  0.68966608  1.0
  Br  Br11  1  0.18021057  0.57013330  0.68966608  1.0
  Br  Br12  1  0.66950920  0.43088298  0.81036610  1.0
  Br  Br13  1  0.66950920  0.06911702  0.81036610  1.0
  Br  Br14  1  0.33049080  0.93088298  0.18963390  1.0
  Br  Br15  1  0.33049080  0.56911702  0.18963390  1.0
  Br  Br16  1  0.32518588  0.25000000  0.43205686  1.0
  Br  Br17  1  0.67481412  0.75000000  0.56794314  1.0
  Br  Br18  1  0.13104678  0.25000000  0.96116814  1.0
  Br  Br19  1  0.86895322  0.75000000  0.03883186  1.0
