# generated using pymatgen
data_Ba4Hf3S10
_symmetry_space_group_name_H-M   'P 1'
_cell_length_a   18.18514301
_cell_length_b   18.18494532
_cell_length_c   4.99978381
_cell_angle_alpha   82.10079106
_cell_angle_beta   82.09630310
_cell_angle_gamma   15.80290583
_symmetry_Int_Tables_number   1
_chemical_formula_structural   Ba4Hf3S10
_chemical_formula_sum   'Ba4 Hf3 S10'
_cell_volume   445.91328759
_cell_formula_units_Z   1
loop_
 _symmetry_equiv_pos_site_id
 _symmetry_equiv_pos_as_xyz
  1  'x, y, z'
loop_
 _atom_site_type_symbol
 _atom_site_label
 _atom_site_symmetry_multiplicity
 _atom_site_fract_x
 _atom_site_fract_y
 _atom_site_fract_z
 _atom_site_occupancy
  Ba  Ba0  1  0.43251600  0.43251600  -0.43251600  1.0
  Ba  Ba1  1  -0.43251600  0.56748400  0.43251600  1.0
  Ba  Ba2  1  0.30003825  0.30003825  -0.30003825  1.0
  Ba  Ba3  1  -0.30003825  0.69996175  0.30003825  1.0
  Hf  Hf4  1  0.00000000  0.00000000  0.00000000  1.0
  Hf  Hf5  1  -0.14267581  0.85732419  0.14267581  1.0
  Hf  Hf6  1  0.14267581  0.14267581  -0.14267581  1.0
  S  S7  1  -0.07032278  0.92967722  0.07032278  1.0
  S  S8  1  0.07032278  0.07032278  -0.07032278  1.0
  S  S9  1  -0.21248483  0.78751517  0.21248483  1.0
  S  S10  1  0.21248483  0.21248483  -0.21248483  1.0
  S  S11  1  -0.00000000  0.00000000  1.50000000  1.0
  S  S12  1  -0.50000000  0.50000000  1.00000000  1.0
  S  S13  1  -0.13910523  0.86089477  0.63910523  1.0
  S  S14  1  -0.36089477  0.63910523  0.86089477  1.0
  S  S15  1  0.13910523  0.13910523  1.36089477  1.0
  S  S16  1  0.36089477  0.36089477  1.13910523  1.0
