# generated using pymatgen
data_Sr2Cu3O5
_symmetry_space_group_name_H-M   'P 1'
_cell_length_a   9.73297463
_cell_length_b   9.73297463
_cell_length_c   9.73297463
_cell_angle_alpha   159.52661151
_cell_angle_beta   156.62476964
_cell_angle_gamma   31.26666147
_symmetry_Int_Tables_number   1
_chemical_formula_structural   Sr2Cu3O5
_chemical_formula_sum   'Sr2 Cu3 O5'
_cell_volume   127.86069501
_cell_formula_units_Z   1
loop_
 _symmetry_equiv_pos_site_id
 _symmetry_equiv_pos_as_xyz
  1  'x, y, z'
loop_
 _atom_site_type_symbol
 _atom_site_label
 _atom_site_symmetry_multiplicity
 _atom_site_fract_x
 _atom_site_fract_y
 _atom_site_fract_z
 _atom_site_occupancy
  Sr  Sr0  1  0.60566482  0.60566482  1.00000000  1.0
  Sr  Sr1  1  0.39433518  0.39433518  0.00000000  1.0
  Cu  Cu2  1  0.78809073  0.78809073  1.00000000  1.0
  Cu  Cu3  1  0.21190927  0.21190927  0.00000000  1.0
  Cu  Cu4  1  0.00000000  0.00000000  0.00000000  1.0
  O  O5  1  0.50000000  0.00000000  0.50000000  1.0
  O  O6  1  0.71850178  0.21850178  0.50000000  1.0
  O  O7  1  0.28149822  0.78149822  0.50000000  1.0
  O  O8  1  0.89650010  0.89650010  1.00000000  1.0
  O  O9  1  0.10349990  0.10349990  0.00000000  1.0
