# generated using pymatgen
data_S2N2O
_symmetry_space_group_name_H-M   'P 1'
_cell_length_a   11.07446717
_cell_length_b   8.31762302
_cell_length_c   9.49576973
_cell_angle_alpha   90.00000000
_cell_angle_beta   114.33145978
_cell_angle_gamma   90.00000000
_symmetry_Int_Tables_number   1
_chemical_formula_structural   S2N2O
_chemical_formula_sum   'S16 N16 O8'
_cell_volume   796.99406101
_cell_formula_units_Z   8
loop_
 _symmetry_equiv_pos_site_id
 _symmetry_equiv_pos_as_xyz
  1  'x, y, z'
loop_
 _atom_site_type_symbol
 _atom_site_label
 _atom_site_symmetry_multiplicity
 _atom_site_fract_x
 _atom_site_fract_y
 _atom_site_fract_z
 _atom_site_occupancy
  S  S0  1  0.95029730  0.72983797  0.80606594  1.0
  S  S1  1  0.95029730  0.77016203  0.30606594  1.0
  S  S2  1  0.04970270  0.22983797  0.69393406  1.0
  S  S3  1  0.04970270  0.27016203  0.19393406  1.0
  S  S4  1  0.75906458  0.95010351  0.82690461  1.0
  S  S5  1  0.75906458  0.54989649  0.32690461  1.0
  S  S6  1  0.24093542  0.45010351  0.67309539  1.0
  S  S7  1  0.24093542  0.04989649  0.17309539  1.0
  S  S8  1  0.72732594  0.50339578  0.77641661  1.0
  S  S9  1  0.72732594  -0.00339578  0.27641661  1.0
  S  S10  1  0.27267405  1.00339578  0.72358339  1.0
  S  S11  1  0.27267405  0.49660422  0.22358339  1.0
  S  S12  1  0.54341070  0.77401257  0.60238695  1.0
  S  S13  1  0.54341070  0.72598743  0.10238695  1.0
  S  S14  1  0.45658930  0.27401257  0.89761305  1.0
  S  S15  1  0.45658930  0.22598743  0.39761305  1.0
  N  N16  1  0.88444483  0.90148128  0.78608122  1.0
  N  N17  1  0.88444483  0.59851872  0.28608122  1.0
  N  N18  1  0.11555517  0.40148128  0.71391878  1.0
  N  N19  1  0.11555517  0.09851872  0.21391878  1.0
  N  N20  1  0.87094937  0.57635683  0.81535382  1.0
  N  N21  1  0.87094937  0.92364317  0.31535382  1.0
  N  N22  1  0.12905063  0.07635683  0.68464618  1.0
  N  N23  1  0.12905063  0.42364317  0.18464618  1.0
  N  N24  1  0.63308549  0.92922824  0.65896408  1.0
  N  N25  1  0.63308549  0.57077176  0.15896408  1.0
  N  N26  1  0.36691451  0.42922824  0.84103592  1.0
  N  N27  1  0.36691451  0.07077176  0.34103592  1.0
  N  N28  1  0.59774445  0.60628245  0.67890717  1.0
  N  N29  1  0.59774445  0.89371755  0.17890717  1.0
  N  N30  1  0.40225555  0.10628245  0.82109283  1.0
  N  N31  1  0.40225555  0.39371755  0.32109283  1.0
  O  O32  1  0.77132909  0.12006478  0.86103066  1.0
  O  O33  1  0.77132909  0.37993522  0.36103066  1.0
  O  O34  1  0.22867091  0.62006478  0.63896934  1.0
  O  O35  1  0.22867091  0.87993522  0.13896934  1.0
  O  O36  1  0.74813513  0.83995930  0.94051858  1.0
  O  O37  1  0.74813513  0.66004070  0.44051858  1.0
  O  O38  1  0.25186487  0.33995930  0.55948142  1.0
  O  O39  1  0.25186487  0.16004070  0.05948142  1.0
