# generated using pymatgen
data_Cu2Te
_symmetry_space_group_name_H-M   'P 1'
_cell_length_a   4.44142701
_cell_length_b   4.44142701
_cell_length_c   7.72338760
_cell_angle_alpha   81.96902474
_cell_angle_beta   98.03097526
_cell_angle_gamma   127.50257483
_symmetry_Int_Tables_number   1
_chemical_formula_structural   Cu2Te
_chemical_formula_sum   'Cu4 Te2'
_cell_volume   119.39072463
_cell_formula_units_Z   2
loop_
 _symmetry_equiv_pos_site_id
 _symmetry_equiv_pos_as_xyz
  1  'x, y, z'
loop_
 _atom_site_type_symbol
 _atom_site_label
 _atom_site_symmetry_multiplicity
 _atom_site_fract_x
 _atom_site_fract_y
 _atom_site_fract_z
 _atom_site_occupancy
  Cu  Cu0  1  0.97564230  0.02435770  0.66129602  1.0
  Cu  Cu1  1  0.02435770  -0.02435770  0.33870398  1.0
  Cu  Cu2  1  0.65759327  0.34240673  0.55671048  1.0
  Cu  Cu3  1  0.34240673  -0.34240673  0.44328952  1.0
  Te  Te4  1  0.30008789  -0.30008789  0.78867929  1.0
  Te  Te5  1  0.69991211  0.30008789  0.21132071  1.0
