# generated using pymatgen
data_LiSbF6
_symmetry_space_group_name_H-M   'P 1'
_cell_length_a   5.56545619
_cell_length_b   5.56545619
_cell_length_c   5.56545619
_cell_angle_alpha   58.39013480
_cell_angle_beta   58.39013480
_cell_angle_gamma   58.39013480
_symmetry_Int_Tables_number   1
_chemical_formula_structural   LiSbF6
_chemical_formula_sum   'Li1 Sb1 F6'
_cell_volume   117.40359281
_cell_formula_units_Z   1
loop_
 _symmetry_equiv_pos_site_id
 _symmetry_equiv_pos_as_xyz
  1  'x, y, z'
loop_
 _atom_site_type_symbol
 _atom_site_label
 _atom_site_symmetry_multiplicity
 _atom_site_fract_x
 _atom_site_fract_y
 _atom_site_fract_z
 _atom_site_occupancy
  Li  Li0  1  0.50000000  0.50000000  -0.50000000  1.0
  Sb  Sb1  1  -0.00000000  0.00000000  0.00000000  1.0
  F  F2  1  0.15638243  0.76031478  -0.67524237  1.0
  F  F3  1  0.67524237  -0.15638243  0.23968522  1.0
  F  F4  1  1.23968522  -0.32475763  -0.15638243  1.0
  F  F5  1  0.84361757  0.23968522  -0.32475763  1.0
  F  F6  1  0.32475763  0.15638243  -0.23968522  1.0
  F  F7  1  0.76031478  0.32475763  -0.84361757  1.0
