# generated using pymatgen
data_NaSc(WO4)2
_symmetry_space_group_name_H-M   'P 1'
_cell_length_a   10.16879356
_cell_length_b   5.88567895
_cell_length_c   5.06965456
_cell_angle_alpha   90.00000000
_cell_angle_beta   90.80613807
_cell_angle_gamma   90.00000000
_symmetry_Int_Tables_number   1
_chemical_formula_structural   NaSc(WO4)2
_chemical_formula_sum   'Na2 Sc2 W4 O16'
_cell_volume   303.39008236
_cell_formula_units_Z   2
loop_
 _symmetry_equiv_pos_site_id
 _symmetry_equiv_pos_as_xyz
  1  'x, y, z'
loop_
 _atom_site_type_symbol
 _atom_site_label
 _atom_site_symmetry_multiplicity
 _atom_site_fract_x
 _atom_site_fract_y
 _atom_site_fract_z
 _atom_site_occupancy
  Na  Na0  1  0.50000000  0.68822971  0.25000000  1.0
  Na  Na1  1  0.50000000  0.31177029  0.75000000  1.0
  Sc  Sc2  1  0.00000000  0.68042811  0.25000000  1.0
  Sc  Sc3  1  0.00000000  0.31957189  0.75000000  1.0
  W  W4  1  0.75938760  0.82100462  0.75003054  1.0
  W  W5  1  0.75938760  0.17899538  0.25003054  1.0
  W  W6  1  0.24061240  0.82100462  0.74996946  1.0
  W  W7  1  0.24061240  0.17899538  0.24996946  1.0
  O  O8  1  0.88672547  0.37271269  0.40120222  1.0
  O  O9  1  0.88672547  0.62728731  0.90120222  1.0
  O  O10  1  0.11327453  0.37271269  0.09879778  1.0
  O  O11  1  0.11327453  0.62728731  0.59879778  1.0
  O  O12  1  0.87031014  0.88356959  0.44262701  1.0
  O  O13  1  0.87031014  0.11643041  0.94262701  1.0
  O  O14  1  0.12968986  0.88356959  0.05737299  1.0
  O  O15  1  0.12968986  0.11643041  0.55737299  1.0
  O  O16  1  0.66962518  0.90874366  0.05622353  1.0
  O  O17  1  0.66962518  0.09125634  0.55622353  1.0
  O  O18  1  0.33037482  0.90874366  0.44377647  1.0
  O  O19  1  0.33037482  0.09125634  0.94377647  1.0
  O  O20  1  0.64373937  0.37124014  0.12422406  1.0
  O  O21  1  0.64373937  0.62875986  0.62422406  1.0
  O  O22  1  0.35626063  0.37124014  0.37577594  1.0
  O  O23  1  0.35626063  0.62875986  0.87577594  1.0
