# generated using pymatgen
data_TiTl2F6
_symmetry_space_group_name_H-M   'P 1'
_cell_length_a   6.04587098
_cell_length_b   6.04587098
_cell_length_c   4.98415994
_cell_angle_alpha   90.00000000
_cell_angle_beta   90.00000000
_cell_angle_gamma   120.00000000
_symmetry_Int_Tables_number   1
_chemical_formula_structural   TiTl2F6
_chemical_formula_sum   'Ti1 Tl2 F6'
_cell_volume   157.77578584
_cell_formula_units_Z   1
loop_
 _symmetry_equiv_pos_site_id
 _symmetry_equiv_pos_as_xyz
  1  'x, y, z'
loop_
 _atom_site_type_symbol
 _atom_site_label
 _atom_site_symmetry_multiplicity
 _atom_site_fract_x
 _atom_site_fract_y
 _atom_site_fract_z
 _atom_site_occupancy
  Ti  Ti0  1  0.00000000  0.00000000  0.00000000  1.0
  Tl  Tl1  1  0.33333333  0.66666667  0.31032393  1.0
  Tl  Tl2  1  0.66666667  0.33333333  0.68967607  1.0
  F  F3  1  0.29918438  0.14959219  0.21367980  1.0
  F  F4  1  0.14959219  0.29918438  0.78632020  1.0
  F  F5  1  0.14959219  0.85040781  0.78632020  1.0
  F  F6  1  0.85040781  0.14959219  0.21367980  1.0
  F  F7  1  0.85040781  0.70081562  0.21367980  1.0
  F  F8  1  0.70081562  0.85040781  0.78632020  1.0
