# generated using pymatgen
data_MgSn(BO3)2
_symmetry_space_group_name_H-M   'P 1'
_cell_length_a   5.74804615
_cell_length_b   5.74804615
_cell_length_c   5.74804615
_cell_angle_alpha   48.93067504
_cell_angle_beta   48.93067504
_cell_angle_gamma   48.93067504
_symmetry_Int_Tables_number   1
_chemical_formula_structural   MgSn(BO3)2
_chemical_formula_sum   'Mg1 Sn1 B2 O6'
_cell_volume   99.09849218
_cell_formula_units_Z   1
loop_
 _symmetry_equiv_pos_site_id
 _symmetry_equiv_pos_as_xyz
  1  'x, y, z'
loop_
 _atom_site_type_symbol
 _atom_site_label
 _atom_site_symmetry_multiplicity
 _atom_site_fract_x
 _atom_site_fract_y
 _atom_site_fract_z
 _atom_site_occupancy
  Mg  Mg0  1  0.50000000  0.50000000  -0.50000000  1.0
  Sn  Sn1  1  0.00000000  0.00000000  0.00000000  1.0
  B  B2  1  0.25229535  0.25229535  0.25229535  1.0
  B  B3  1  0.74770465  -0.25229535  -0.25229535  1.0
  O  O4  1  0.25049783  0.96124397  -0.45724017  1.0
  O  O5  1  0.45724017  -0.25049783  0.03875603  1.0
  O  O6  1  1.03875603  -0.54275983  -0.25049783  1.0
  O  O7  1  0.74950217  0.03875603  -0.54275983  1.0
  O  O8  1  0.54275983  0.25049783  -0.03875603  1.0
  O  O9  1  0.96124397  0.54275983  -0.74950217  1.0
