# generated using pymatgen
data_CaSO6
_symmetry_space_group_name_H-M   'P 1'
_cell_length_a   5.92539540
_cell_length_b   20.02517971
_cell_length_c   6.85609749
_cell_angle_alpha   90.00000000
_cell_angle_beta   125.16217267
_cell_angle_gamma   90.00000000
_symmetry_Int_Tables_number   1
_chemical_formula_structural   CaSO6
_chemical_formula_sum   'Ca4 S4 O24'
_cell_volume   665.07701248
_cell_formula_units_Z   4
loop_
 _symmetry_equiv_pos_site_id
 _symmetry_equiv_pos_as_xyz
  1  'x, y, z'
loop_
 _atom_site_type_symbol
 _atom_site_label
 _atom_site_symmetry_multiplicity
 _atom_site_fract_x
 _atom_site_fract_y
 _atom_site_fract_z
 _atom_site_occupancy
  O  O0  1  0.50680799  0.27357828  0.42733684  1.0
  O  O1  1  0.50680799  0.22642172  0.92733684  1.0
  O  O2  1  0.49319201  0.77357828  0.07266316  1.0
  O  O3  1  0.49319201  0.72642172  0.57266316  1.0
  O  O4  1  0.99420276  0.22655979  0.06749662  1.0
  O  O5  1  0.99420276  0.27344021  0.56749662  1.0
  O  O6  1  0.00579724  0.72655979  0.43250338  1.0
  O  O7  1  0.00579724  0.77344021  0.93250338  1.0
  O  O8  1  0.94277240  0.98006501  0.41770720  1.0
  O  O9  1  0.94277240  0.51993499  0.91770720  1.0
  O  O10  1  0.05722760  0.48006501  0.08229280  1.0
  O  O11  1  0.05722760  0.01993499  0.58229280  1.0
  O  O12  1  0.44199724  0.01958662  0.41665218  1.0
  O  O13  1  0.44199724  0.48041338  0.91665218  1.0
  O  O14  1  0.55800276  0.51958662  0.08334782  1.0
  O  O15  1  0.55800276  0.98041338  0.58334782  1.0
  O  O16  1  0.84167776  0.14232542  0.21283561  1.0
  O  O17  1  0.84167776  0.35767458  0.71283561  1.0
  O  O18  1  0.15832224  0.64232542  0.28716439  1.0
  O  O19  1  0.15832224  0.85767458  0.78716439  1.0
  O  O20  1  0.65991330  0.35757129  0.28170877  1.0
  O  O21  1  0.65991330  0.14242871  0.78170877  1.0
  O  O22  1  0.34008670  0.85757129  0.21829123  1.0
  O  O23  1  0.34008670  0.64242871  0.71829123  1.0
  Ca  Ca24  1  0.74938910  0.79745343  0.50264653  1.0
  Ca  Ca25  1  0.74938910  0.70254657  0.00264653  1.0
  Ca  Ca26  1  0.25061090  0.29745343  -0.00264653  1.0
  Ca  Ca27  1  0.25061090  0.20254657  0.49735347  1.0
  S  S28  1  0.75065727  0.31777427  0.49734326  1.0
  S  S29  1  0.75065727  0.18222573  -0.00265674  1.0
  S  S30  1  0.24934273  0.81777427  0.00265674  1.0
  S  S31  1  0.24934273  0.68222573  0.50265674  1.0
