# generated using pymatgen
data_SbAsO5
_symmetry_space_group_name_H-M   'P 1'
_cell_length_a   5.00885461
_cell_length_b   8.99419116
_cell_length_c   9.35717744
_cell_angle_alpha   90.00000000
_cell_angle_beta   90.00000000
_cell_angle_gamma   90.00000000
_symmetry_Int_Tables_number   1
_chemical_formula_structural   SbAsO5
_chemical_formula_sum   'Sb4 As4 O20'
_cell_volume   421.54641896
_cell_formula_units_Z   4
loop_
 _symmetry_equiv_pos_site_id
 _symmetry_equiv_pos_as_xyz
  1  'x, y, z'
loop_
 _atom_site_type_symbol
 _atom_site_label
 _atom_site_symmetry_multiplicity
 _atom_site_fract_x
 _atom_site_fract_y
 _atom_site_fract_z
 _atom_site_occupancy
  Sb  Sb0  1  0.11934578  0.65256782  0.60160804  1.0
  Sb  Sb1  1  0.61934578  0.84743218  0.39839196  1.0
  Sb  Sb2  1  0.88065422  0.15256782  0.89839196  1.0
  Sb  Sb3  1  0.38065422  0.34743218  0.10160804  1.0
  As  As4  1  0.39047921  0.97065665  0.71269421  1.0
  As  As5  1  0.89047921  0.52934335  0.28730579  1.0
  As  As6  1  0.60952079  0.47065665  0.78730579  1.0
  As  As7  1  0.10952079  0.02934335  0.21269421  1.0
  O  O8  1  0.32761710  0.88540335  0.25138614  1.0
  O  O9  1  0.82761710  0.61459665  0.74861386  1.0
  O  O10  1  0.67238290  0.38540335  0.24861386  1.0
  O  O11  1  0.17238290  0.11459665  0.75138614  1.0
  O  O12  1  0.31326998  0.47800157  0.69009008  1.0
  O  O13  1  0.81326998  0.02199843  0.30990992  1.0
  O  O14  1  0.68673002  0.97800157  0.80990992  1.0
  O  O15  1  0.18673002  0.52199843  0.19009008  1.0
  O  O16  1  0.27899313  0.79143317  0.75271398  1.0
  O  O17  1  0.77899313  0.70856683  0.24728602  1.0
  O  O18  1  0.72100687  0.29143317  0.74728602  1.0
  O  O19  1  0.22100687  0.20856683  0.25271398  1.0
  O  O20  1  0.05122889  0.99979024  0.03054561  1.0
  O  O21  1  0.55122889  0.50020976  0.96945439  1.0
  O  O22  1  0.94877111  0.49979024  0.46945439  1.0
  O  O23  1  0.44877111  0.00020976  0.53054561  1.0
  O  O24  1  0.92233400  0.82515956  0.53010632  1.0
  O  O25  1  0.42233400  0.67484044  0.46989368  1.0
  O  O26  1  0.07766600  0.32515956  0.96989368  1.0
  O  O27  1  0.57766600  0.17484044  0.03010632  1.0
