# generated using pymatgen
data_SiC
_symmetry_space_group_name_H-M   'P 1'
_cell_length_a   38.03337823
_cell_length_b   38.03337823
_cell_length_c   38.03337823
_cell_angle_alpha   4.66450286
_cell_angle_beta   4.66450286
_cell_angle_gamma   4.66450286
_symmetry_Int_Tables_number   1
_chemical_formula_structural   SiC
_chemical_formula_sum   'Si15 C15'
_cell_volume   315.26149064
_cell_formula_units_Z   15
loop_
 _symmetry_equiv_pos_site_id
 _symmetry_equiv_pos_as_xyz
  1  'x, y, z'
loop_
 _atom_site_type_symbol
 _atom_site_label
 _atom_site_symmetry_multiplicity
 _atom_site_fract_x
 _atom_site_fract_y
 _atom_site_fract_z
 _atom_site_occupancy
  Si  Si0  1  0.00002504  0.00002504  0.00002504  1.0
  Si  Si1  1  0.95553364  -0.04446636  -0.04446636  1.0
  Si  Si2  1  0.91106933  -0.08893067  -0.08893067  1.0
  Si  Si3  1  0.84443976  -0.15556024  -0.15556024  1.0
  Si  Si4  1  0.77778804  -0.22221196  -0.22221196  1.0
  Si  Si5  1  0.71113933  -0.28886067  -0.28886067  1.0
  Si  Si6  1  0.59996793  0.59996793  -0.40003207  1.0
  Si  Si7  1  0.53333849  0.53333849  -0.46666151  1.0
  Si  Si8  1  0.48887989  0.48887989  -0.51112011  1.0
  Si  Si9  1  0.40003508  0.40003508  -0.59996492  1.0
  Si  Si10  1  0.35558805  0.35558805  -0.64441195  1.0
  Si  Si11  1  0.31109373  0.31109373  0.31109373  1.0
  Si  Si12  1  0.22220246  0.22220246  0.22220246  1.0
  Si  Si13  1  0.13335302  0.13335302  0.13335302  1.0
  Si  Si14  1  0.08889467  0.08889467  0.08889467  1.0
  C  C15  1  0.98331607  -0.01668393  -0.01668393  1.0
  C  C16  1  0.93888021  -0.06111979  -0.06111979  1.0
  C  C17  1  0.89441348  -0.10558652  -0.10558652  1.0
  C  C18  1  0.82773364  -0.17226636  -0.17226636  1.0
  C  C19  1  0.76107726  -0.23892274  -0.23892274  1.0
  C  C20  1  0.69442437  -0.30557563  -0.30557563  1.0
  C  C21  1  0.58326280  0.58326280  -0.41673720  1.0
  C  C22  1  0.51668136  0.51668136  -0.48331864  1.0
  C  C23  1  0.47222053  0.47222053  -0.52777947  1.0
  C  C24  1  0.38336909  0.38336909  -0.61663091  1.0
  C  C25  1  0.33892357  0.33892357  -0.66107643  1.0
  C  C26  1  0.29438627  0.29438627  0.29438627  1.0
  C  C27  1  0.20554057  0.20554057  0.20554057  1.0
  C  C28  1  0.11669300  0.11669300  0.11669300  1.0
  C  C29  1  0.07222933  0.07222933  0.07222933  1.0
