# generated using pymatgen
data_V2H
_symmetry_space_group_name_H-M   'P 1'
_cell_length_a   2.66265455
_cell_length_b   2.66265455
_cell_length_c   4.45241010
_cell_angle_alpha   84.07425740
_cell_angle_beta   95.92574260
_cell_angle_gamma   112.71907489
_symmetry_Int_Tables_number   1
_chemical_formula_structural   V2H
_chemical_formula_sum   'V2 H1'
_cell_volume   28.89238825
_cell_formula_units_Z   1
loop_
 _symmetry_equiv_pos_site_id
 _symmetry_equiv_pos_as_xyz
  1  'x, y, z'
loop_
 _atom_site_type_symbol
 _atom_site_label
 _atom_site_symmetry_multiplicity
 _atom_site_fract_x
 _atom_site_fract_y
 _atom_site_fract_z
 _atom_site_occupancy
  V  V0  1  0.00190706  -0.00190706  -0.00391270  1.0
  V  V1  1  0.54260983  -0.54260983  0.46032499  1.0
  H  H2  1  0.27188311  -0.27188311  0.72778771  1.0
