# generated using pymatgen
data_BaTi2O5
_symmetry_space_group_name_H-M   'P 1'
_cell_length_a   10.69476142
_cell_length_b   3.91724050
_cell_length_c   10.96895165
_cell_angle_alpha   90.00000000
_cell_angle_beta   90.00000000
_cell_angle_gamma   90.00000000
_symmetry_Int_Tables_number   1
_chemical_formula_structural   BaTi2O5
_chemical_formula_sum   'Ba4 Ti8 O20'
_cell_volume   459.53273989
_cell_formula_units_Z   4
loop_
 _symmetry_equiv_pos_site_id
 _symmetry_equiv_pos_as_xyz
  1  'x, y, z'
loop_
 _atom_site_type_symbol
 _atom_site_label
 _atom_site_symmetry_multiplicity
 _atom_site_fract_x
 _atom_site_fract_y
 _atom_site_fract_z
 _atom_site_occupancy
  Ba  Ba0  1  0.94771267  0.75000000  0.81834902  1.0
  Ba  Ba1  1  0.44771267  0.75000000  0.68165098  1.0
  Ba  Ba2  1  0.05228733  0.25000000  0.18165098  1.0
  Ba  Ba3  1  0.55228733  0.25000000  0.31834902  1.0
  Ti  Ti4  1  0.84790615  0.75000000  0.40636596  1.0
  Ti  Ti5  1  0.34790615  0.75000000  0.09363404  1.0
  Ti  Ti6  1  0.15209385  0.25000000  0.59363404  1.0
  Ti  Ti7  1  0.65209385  0.25000000  0.90636596  1.0
  Ti  Ti8  1  0.74189805  0.75000000  0.10154655  1.0
  Ti  Ti9  1  0.24189805  0.75000000  0.39845345  1.0
  Ti  Ti10  1  0.25810195  0.25000000  0.89845345  1.0
  Ti  Ti11  1  0.75810195  0.25000000  0.60154655  1.0
  O  O12  1  0.90247941  0.75000000  0.07614806  1.0
  O  O13  1  0.40247941  0.75000000  0.42385194  1.0
  O  O14  1  0.09752059  0.25000000  0.92385194  1.0
  O  O15  1  0.59752059  0.25000000  0.57614806  1.0
  O  O16  1  0.79885254  0.75000000  0.58370281  1.0
  O  O17  1  0.29885254  0.75000000  0.91629719  1.0
  O  O18  1  0.20114746  0.25000000  0.41629719  1.0
  O  O19  1  0.70114746  0.25000000  0.08370281  1.0
  O  O20  1  0.73171020  0.75000000  0.27757294  1.0
  O  O21  1  0.23171020  0.75000000  0.22242706  1.0
  O  O22  1  0.26828980  0.25000000  0.72242706  1.0
  O  O23  1  0.76828980  0.25000000  0.77757294  1.0
  O  O24  1  0.68150005  0.75000000  0.93100400  1.0
  O  O25  1  0.18150005  0.75000000  0.56899600  1.0
  O  O26  1  0.31849995  0.25000000  0.06899600  1.0
  O  O27  1  0.81849995  0.25000000  0.43100400  1.0
  O  O28  1  0.49934813  0.75000000  0.15037680  1.0
  O  O29  1  -0.00065187  0.75000000  0.34962320  1.0
  O  O30  1  0.50065187  0.25000000  0.84962320  1.0
  O  O31  1  1.00065187  0.25000000  0.65037680  1.0
