# generated using pymatgen
data_Fe7O9
_symmetry_space_group_name_H-M   'P 1'
_cell_length_a   5.08020984
_cell_length_b   5.08020984
_cell_length_c   11.84222661
_cell_angle_alpha   78.63947810
_cell_angle_beta   101.36052190
_cell_angle_gamma   147.36434814
_symmetry_Int_Tables_number   1
_chemical_formula_structural   Fe7O9
_chemical_formula_sum   'Fe7 O9'
_cell_volume   161.31577406
_cell_formula_units_Z   1
loop_
 _symmetry_equiv_pos_site_id
 _symmetry_equiv_pos_as_xyz
  1  'x, y, z'
loop_
 _atom_site_type_symbol
 _atom_site_label
 _atom_site_symmetry_multiplicity
 _atom_site_fract_x
 _atom_site_fract_y
 _atom_site_fract_z
 _atom_site_occupancy
  Fe  Fe0  1  0.50000000  0.50000000  0.50000000  1.0
  Fe  Fe1  1  0.28489564  -0.28489564  0.63719416  1.0
  Fe  Fe2  1  0.71510436  0.28489564  0.36280584  1.0
  Fe  Fe3  1  0.35917987  -0.35917987  0.93007208  1.0
  Fe  Fe4  1  0.64082013  0.35917987  0.06992792  1.0
  Fe  Fe5  1  0.08716827  -0.08716827  0.78487429  1.0
  Fe  Fe6  1  0.91283173  0.08716827  0.21512571  1.0
  O  O7  1  0.43144987  -0.43144987  0.78081238  1.0
  O  O8  1  0.56855013  0.43144987  0.21918762  1.0
  O  O9  1  0.00000000  0.00000000  0.00000000  1.0
  O  O10  1  0.12046405  -0.12046405  0.44806373  1.0
  O  O11  1  0.87953595  0.12046405  0.55193627  1.0
  O  O12  1  0.35550735  -0.35550735  0.33599885  1.0
  O  O13  1  0.64449265  0.35550735  0.66400115  1.0
  O  O14  1  0.29225374  -0.29225374  0.10332063  1.0
  O  O15  1  0.70774626  0.29225374  0.89667937  1.0
