# generated using pymatgen
data_PBr7
_symmetry_space_group_name_H-M   'P 1'
_cell_length_a   10.97724280
_cell_length_b   8.67218740
_cell_length_c   14.42465465
_cell_angle_alpha   90.00000000
_cell_angle_beta   90.00000000
_cell_angle_gamma   90.00000000
_symmetry_Int_Tables_number   1
_chemical_formula_structural   PBr7
_chemical_formula_sum   'P4 Br28'
_cell_volume   1373.17961759
_cell_formula_units_Z   4
loop_
 _symmetry_equiv_pos_site_id
 _symmetry_equiv_pos_as_xyz
  1  'x, y, z'
loop_
 _atom_site_type_symbol
 _atom_site_label
 _atom_site_symmetry_multiplicity
 _atom_site_fract_x
 _atom_site_fract_y
 _atom_site_fract_z
 _atom_site_occupancy
  P  P0  1  0.87531006  0.75000000  0.14635642  1.0
  P  P1  1  0.37531006  0.75000000  0.35364358  1.0
  P  P2  1  0.12468994  0.25000000  0.85364358  1.0
  P  P3  1  0.62468994  0.25000000  0.64635642  1.0
  Br  Br4  1  0.78172149  0.95892119  0.09700125  1.0
  Br  Br5  1  0.78172149  0.54107881  0.09700125  1.0
  Br  Br6  1  0.28172149  0.95892119  0.40299875  1.0
  Br  Br7  1  0.28172149  0.54107881  0.40299875  1.0
  Br  Br8  1  0.21827851  0.45892119  0.90299875  1.0
  Br  Br9  1  0.21827851  0.04107881  0.90299875  1.0
  Br  Br10  1  0.71827851  0.45892119  0.59700125  1.0
  Br  Br11  1  0.71827851  0.04107881  0.59700125  1.0
  Br  Br12  1  0.88229061  0.75000000  0.29890179  1.0
  Br  Br13  1  0.38229061  0.75000000  0.20109821  1.0
  Br  Br14  1  0.11770939  0.25000000  0.70109821  1.0
  Br  Br15  1  0.61770939  0.25000000  0.79890179  1.0
  Br  Br16  1  0.83969181  0.75000000  0.51740502  1.0
  Br  Br17  1  0.33969181  0.75000000  0.98259498  1.0
  Br  Br18  1  0.16030819  0.25000000  0.48259498  1.0
  Br  Br19  1  0.66030819  0.25000000  0.01740502  1.0
  Br  Br20  1  0.76786252  0.75000000  0.82386152  1.0
  Br  Br21  1  0.26786252  0.75000000  0.67613848  1.0
  Br  Br22  1  0.23213748  0.25000000  0.17613848  1.0
  Br  Br23  1  0.73213748  0.25000000  0.32386152  1.0
  Br  Br24  1  0.56819609  0.75000000  0.89485878  1.0
  Br  Br25  1  0.06819609  0.75000000  0.60514122  1.0
  Br  Br26  1  0.43180391  0.25000000  0.10514122  1.0
  Br  Br27  1  0.93180391  0.25000000  0.39485878  1.0
  Br  Br28  1  0.56136460  0.75000000  0.40964952  1.0
  Br  Br29  1  0.06136460  0.75000000  0.09035048  1.0
  Br  Br30  1  0.43863540  0.25000000  0.59035048  1.0
  Br  Br31  1  0.93863540  0.25000000  0.90964952  1.0
