# generated using pymatgen
data_Tl4SnS4
_symmetry_space_group_name_H-M   'P 1'
_cell_length_a   8.52290572
_cell_length_b   8.43419737
_cell_length_c   15.90309289
_cell_angle_alpha   90.00000000
_cell_angle_beta   104.77979391
_cell_angle_gamma   90.00000000
_symmetry_Int_Tables_number   1
_chemical_formula_structural   Tl4SnS4
_chemical_formula_sum   'Tl16 Sn4 S16'
_cell_volume   1105.35206077
_cell_formula_units_Z   4
loop_
 _symmetry_equiv_pos_site_id
 _symmetry_equiv_pos_as_xyz
  1  'x, y, z'
loop_
 _atom_site_type_symbol
 _atom_site_label
 _atom_site_symmetry_multiplicity
 _atom_site_fract_x
 _atom_site_fract_y
 _atom_site_fract_z
 _atom_site_occupancy
  Tl  Tl0  1  0.39410056  0.17743901  0.11074152  1.0
  Tl  Tl1  1  0.39410056  0.32256099  0.61074152  1.0
  Tl  Tl2  1  0.60589944  0.67743901  0.38925848  1.0
  Tl  Tl3  1  0.60589944  0.82256099  0.88925848  1.0
  Tl  Tl4  1  0.97582412  0.49311822  0.36893517  1.0
  Tl  Tl5  1  0.97582412  0.00688178  0.86893517  1.0
  Tl  Tl6  1  0.02417588  0.99311822  0.13106483  1.0
  Tl  Tl7  1  0.02417588  0.50688178  0.63106483  1.0
  Tl  Tl8  1  0.81573222  0.10028333  0.37616492  1.0
  Tl  Tl9  1  0.81573222  0.39971667  0.87616492  1.0
  Tl  Tl10  1  0.18426778  0.60028333  0.12383508  1.0
  Tl  Tl11  1  0.18426778  0.89971667  0.62383508  1.0
  Tl  Tl12  1  0.40090422  0.28556528  0.36086087  1.0
  Tl  Tl13  1  0.40090422  0.21443472  0.86086087  1.0
  Tl  Tl14  1  0.59909578  0.78556528  0.13913913  1.0
  Tl  Tl15  1  0.59909578  0.71443472  0.63913913  1.0
  Sn  Sn16  1  0.78593829  0.38357405  0.12263803  1.0
  Sn  Sn17  1  0.78593829  0.11642595  0.62263803  1.0
  Sn  Sn18  1  0.21406171  0.88357405  0.37736197  1.0
  Sn  Sn19  1  0.21406171  0.61642595  0.87736197  1.0
  S  S20  1  0.59734129  0.44387799  0.20969109  1.0
  S  S21  1  0.59734129  0.05612201  0.70969109  1.0
  S  S22  1  0.40265871  0.94387799  0.29030891  1.0
  S  S23  1  0.40265871  0.55612201  0.79030891  1.0
  S  S24  1  0.18692408  0.11490798  0.46448148  1.0
  S  S25  1  0.18692408  0.38509202  0.96448148  1.0
  S  S26  1  0.81307592  0.61490798  0.03551852  1.0
  S  S27  1  0.81307592  0.88509202  0.53551852  1.0
  S  S28  1  0.94459883  0.82460564  0.28551079  1.0
  S  S29  1  0.94459883  0.67539436  0.78551079  1.0
  S  S30  1  0.05540117  0.32460564  0.21448921  1.0
  S  S31  1  0.05540117  0.17539436  0.71448921  1.0
  S  S32  1  0.69245375  0.14953239  0.03620882  1.0
  S  S33  1  0.69245375  0.35046761  0.53620882  1.0
  S  S34  1  0.30754625  0.64953239  0.46379118  1.0
  S  S35  1  0.30754625  0.85046761  0.96379118  1.0
