# generated using pymatgen
data_Lu4Mn4Sn7
_symmetry_space_group_name_H-M   'P 1'
_cell_length_a   10.93618283
_cell_length_b   10.93618283
_cell_length_c   10.93618283
_cell_angle_alpha   93.99911420
_cell_angle_beta   93.99911420
_cell_angle_gamma   149.37478220
_symmetry_Int_Tables_number   1
_chemical_formula_structural   Lu4Mn4Sn7
_chemical_formula_sum   'Lu8 Mn8 Sn14'
_cell_volume   642.65128931
_cell_formula_units_Z   2
loop_
 _symmetry_equiv_pos_site_id
 _symmetry_equiv_pos_as_xyz
  1  'x, y, z'
loop_
 _atom_site_type_symbol
 _atom_site_label
 _atom_site_symmetry_multiplicity
 _atom_site_fract_x
 _atom_site_fract_y
 _atom_site_fract_z
 _atom_site_occupancy
  Lu  Lu0  1  0.00000000  0.80787534  0.80787534  1.0
  Lu  Lu1  1  0.80787534  1.00000000  0.80787534  1.0
  Lu  Lu2  1  1.19212466  1.00000000  1.19212466  1.0
  Lu  Lu3  1  -0.00000000  0.19212466  0.19212466  1.0
  Lu  Lu4  1  0.63906206  0.63906206  0.27812412  1.0
  Lu  Lu5  1  1.36093794  0.63906206  1.00000000  1.0
  Lu  Lu6  1  0.63906206  0.36093794  1.00000000  1.0
  Lu  Lu7  1  0.36093794  0.36093794  0.72187588  1.0
  Mn  Mn8  1  1.10008170  0.60008170  1.20016341  1.0
  Mn  Mn9  1  1.60008170  1.10008170  1.20016341  1.0
  Mn  Mn10  1  0.39991830  0.60008170  0.50000000  1.0
  Mn  Mn11  1  0.89991830  1.10008170  0.50000000  1.0
  Mn  Mn12  1  1.10008170  0.89991830  1.50000000  1.0
  Mn  Mn13  1  1.60008170  1.39991830  1.50000000  1.0
  Mn  Mn14  1  0.39991830  0.89991830  0.79983659  1.0
  Mn  Mn15  1  0.89991830  1.39991830  0.79983659  1.0
  Sn  Sn16  1  0.50000000  0.78611971  0.28611971  1.0
  Sn  Sn17  1  0.78611971  0.50000000  1.28611971  1.0
  Sn  Sn18  1  0.21388029  0.50000000  0.71388029  1.0
  Sn  Sn19  1  0.50000000  1.21388029  0.71388029  1.0
  Sn  Sn20  1  0.00000000  0.59773445  0.59773445  1.0
  Sn  Sn21  1  0.59773445  1.00000000  0.59773445  1.0
  Sn  Sn22  1  1.40226555  1.00000000  1.40226555  1.0
  Sn  Sn23  1  0.00000000  0.40226555  0.40226555  1.0
  Sn  Sn24  1  0.79688220  0.79688220  0.59376440  1.0
  Sn  Sn25  1  1.20311780  0.79688220  1.00000000  1.0
  Sn  Sn26  1  0.79688220  0.20311780  1.00000000  1.0
  Sn  Sn27  1  0.20311780  0.20311780  0.40623560  1.0
  Sn  Sn28  1  0.74915356  0.74915356  -0.00000000  1.0
  Sn  Sn29  1  0.25084644  0.25084644  0.00000000  1.0
