# generated using pymatgen
data_PbS
_symmetry_space_group_name_H-M   'P 1'
_cell_length_a   7.01018554
_cell_length_b   5.97677937
_cell_length_c   6.23633450
_cell_angle_alpha   90.00000000
_cell_angle_beta   90.00000000
_cell_angle_gamma   90.00000000
_symmetry_Int_Tables_number   1
_chemical_formula_structural   PbS
_chemical_formula_sum   'Pb4 S4'
_cell_volume   261.29201533
_cell_formula_units_Z   4
loop_
 _symmetry_equiv_pos_site_id
 _symmetry_equiv_pos_as_xyz
  1  'x, y, z'
loop_
 _atom_site_type_symbol
 _atom_site_label
 _atom_site_symmetry_multiplicity
 _atom_site_fract_x
 _atom_site_fract_y
 _atom_site_fract_z
 _atom_site_occupancy
  Pb  Pb0  1  0.25000000  0.31834519  0.01379391  1.0
  Pb  Pb1  1  0.75000000  0.68165481  0.01379391  1.0
  Pb  Pb2  1  0.75000000  0.16686024  0.56031012  1.0
  Pb  Pb3  1  0.25000000  0.83313976  0.56031012  1.0
  S  S4  1  0.00000000  0.00000000  0.87903541  1.0
  S  S5  1  0.50000000  0.00000000  0.87903541  1.0
  S  S6  1  0.25000000  0.26146563  0.42946057  1.0
  S  S7  1  0.75000000  0.73853437  0.42946057  1.0
