# generated using pymatgen
data_SbKr3F11
_symmetry_space_group_name_H-M   'P 1'
_cell_length_a   8.67633472
_cell_length_b   8.88055108
_cell_length_c   9.42039022
_cell_angle_alpha   108.37735974
_cell_angle_beta   115.70408364
_cell_angle_gamma   83.78252038
_symmetry_Int_Tables_number   1
_chemical_formula_structural   SbKr3F11
_chemical_formula_sum   'Sb2 Kr6 F22'
_cell_volume   620.32361762
_cell_formula_units_Z   2
loop_
 _symmetry_equiv_pos_site_id
 _symmetry_equiv_pos_as_xyz
  1  'x, y, z'
loop_
 _atom_site_type_symbol
 _atom_site_label
 _atom_site_symmetry_multiplicity
 _atom_site_fract_x
 _atom_site_fract_y
 _atom_site_fract_z
 _atom_site_occupancy
  Sb  Sb0  1  -0.79439250  -0.68738162  0.75858496  1.0
  Sb  Sb1  1  -0.20560750  -0.31261838  0.24141504  1.0
  Kr  Kr2  1  -0.83724244  -0.67530886  0.25318879  1.0
  Kr  Kr3  1  -0.16275756  -0.32469114  0.74681121  1.0
  Kr  Kr4  1  -0.74585871  -0.17508278  0.78686719  1.0
  Kr  Kr5  1  -0.25414129  -0.82491722  0.21313281  1.0
  Kr  Kr6  1  -0.31752557  -0.84907090  0.69555146  1.0
  Kr  Kr7  1  -0.68247443  -0.15092910  0.30444854  1.0
  F  F8  1  -0.99122323  -0.81813682  0.28201164  1.0
  F  F9  1  -0.00877677  -0.18186318  0.71798836  1.0
  F  F10  1  -0.96386567  -0.30983870  0.38408953  1.0
  F  F11  1  -0.03613433  -0.69016130  0.61591047  1.0
  F  F12  1  -0.84816608  -0.79344625  0.88287481  1.0
  F  F13  1  -0.15183392  -0.20655375  0.11712519  1.0
  F  F14  1  -0.82103735  -0.48282447  0.89751150  1.0
  F  F15  1  -0.17896265  -0.51717553  0.10248850  1.0
  F  F16  1  -0.77285943  -0.89108144  0.61563147  1.0
  F  F17  1  -0.22714057  -0.10891856  0.38436853  1.0
  F  F18  1  -0.74685173  -0.57979994  0.63198345  1.0
  F  F19  1  -0.25314827  -0.42020006  0.36801655  1.0
  F  F20  1  -0.55465988  -0.68626643  0.89897766  1.0
  F  F21  1  -0.44534012  -0.31373357  0.10102234  1.0
  F  F22  1  -0.48564012  -0.84903497  0.15535949  1.0
  F  F23  1  -0.51435988  -0.15096503  0.84464051  1.0
  F  F24  1  -0.44424046  -0.78600952  0.49810115  1.0
  F  F25  1  -0.55575954  -0.21399048  0.50189885  1.0
  F  F26  1  -0.31286329  -0.44686254  0.76098155  1.0
  F  F27  1  -0.68713671  -0.55313746  0.23901845  1.0
  F  F28  1  -0.19372074  -0.91864936  0.89072678  1.0
  F  F29  1  -0.80627926  -0.08135064  0.10927322  1.0
