# generated using pymatgen
data_SrSi6
_symmetry_space_group_name_H-M   'P 1'
_cell_length_a   5.60749770
_cell_length_b   5.60749770
_cell_length_c   11.72665717
_cell_angle_alpha   90.00000000
_cell_angle_beta   90.00000000
_cell_angle_gamma   132.66251123
_symmetry_Int_Tables_number   1
_chemical_formula_structural   SrSi6
_chemical_formula_sum   'Sr2 Si12'
_cell_volume   271.15108877
_cell_formula_units_Z   2
loop_
 _symmetry_equiv_pos_site_id
 _symmetry_equiv_pos_as_xyz
  1  'x, y, z'
loop_
 _atom_site_type_symbol
 _atom_site_label
 _atom_site_symmetry_multiplicity
 _atom_site_fract_x
 _atom_site_fract_y
 _atom_site_fract_z
 _atom_site_occupancy
  Sr  Sr0  1  -0.27176751  0.27176751  0.75000000  1.0
  Sr  Sr1  1  0.27176751  0.72823249  0.25000000  1.0
  Si  Si2  1  0.02227105  0.97772895  0.89909489  1.0
  Si  Si3  1  0.02227105  0.97772895  0.60090511  1.0
  Si  Si4  1  -0.02227105  0.02227105  0.39909489  1.0
  Si  Si5  1  -0.02227105  0.02227105  0.10090511  1.0
  Si  Si6  1  0.24677081  0.75322919  0.96242876  1.0
  Si  Si7  1  0.24677081  0.75322919  0.53757124  1.0
  Si  Si8  1  -0.24677081  0.24677081  0.46242876  1.0
  Si  Si9  1  -0.24677081  0.24677081  0.03757124  1.0
  Si  Si10  1  0.44276511  0.55723489  0.85270223  1.0
  Si  Si11  1  0.44276511  0.55723489  0.64729777  1.0
  Si  Si12  1  -0.44276511  0.44276511  0.35270223  1.0
  Si  Si13  1  -0.44276511  0.44276511  0.14729777  1.0
