# generated using pymatgen
data_Ga2Au7
_symmetry_space_group_name_H-M   'P 1'
_cell_length_a   7.80632436
_cell_length_b   7.80632436
_cell_length_c   8.98747051
_cell_angle_alpha   90.00000000
_cell_angle_beta   90.00000000
_cell_angle_gamma   120.00000000
_symmetry_Int_Tables_number   1
_chemical_formula_structural   Ga2Au7
_chemical_formula_sum   'Ga6 Au21'
_cell_volume   474.30892383
_cell_formula_units_Z   3
loop_
 _symmetry_equiv_pos_site_id
 _symmetry_equiv_pos_as_xyz
  1  'x, y, z'
loop_
 _atom_site_type_symbol
 _atom_site_label
 _atom_site_symmetry_multiplicity
 _atom_site_fract_x
 _atom_site_fract_y
 _atom_site_fract_z
 _atom_site_occupancy
  Ga  Ga0  1  0.33333333  0.66666667  0.81564505  1.0
  Ga  Ga1  1  0.33333333  0.66666667  0.18435495  1.0
  Ga  Ga2  1  0.66666667  0.33333333  0.81564505  1.0
  Ga  Ga3  1  0.66666667  0.33333333  0.18435495  1.0
  Ga  Ga4  1  0.00000000  0.00000000  0.69122479  1.0
  Ga  Ga5  1  0.00000000  0.00000000  0.30877521  1.0
  Au  Au6  1  0.35766018  0.35766018  0.66891396  1.0
  Au  Au7  1  0.35766018  0.35766018  0.33108604  1.0
  Au  Au8  1  -0.00000000  0.64233982  0.66891396  1.0
  Au  Au9  1  -0.00000000  0.64233982  0.33108604  1.0
  Au  Au10  1  0.64233982  0.00000000  0.66891396  1.0
  Au  Au11  1  0.64233982  0.00000000  0.33108604  1.0
  Au  Au12  1  0.68381638  0.68381638  0.83199810  1.0
  Au  Au13  1  0.68381638  0.68381638  0.16800190  1.0
  Au  Au14  1  -0.00000000  0.31618362  0.83199810  1.0
  Au  Au15  1  -0.00000000  0.31618362  0.16800190  1.0
  Au  Au16  1  0.31618362  0.00000000  0.83199810  1.0
  Au  Au17  1  0.31618362  0.00000000  0.16800190  1.0
  Au  Au18  1  0.72207165  0.72207165  0.50000000  1.0
  Au  Au19  1  0.00000000  0.27792835  0.50000000  1.0
  Au  Au20  1  0.27792835  0.00000000  0.50000000  1.0
  Au  Au21  1  0.36793030  0.36793030  0.00000000  1.0
  Au  Au22  1  -0.00000000  0.63206970  0.00000000  1.0
  Au  Au23  1  0.63206970  0.00000000  0.00000000  1.0
  Au  Au24  1  0.33333333  0.66666667  0.50000000  1.0
  Au  Au25  1  0.66666667  0.33333333  0.50000000  1.0
  Au  Au26  1  0.00000000  0.00000000  0.00000000  1.0
