# generated using pymatgen
data_Pt(NF3)2
_symmetry_space_group_name_H-M   'P 1'
_cell_length_a   5.71231841
_cell_length_b   5.71231841
_cell_length_c   10.17261037
_cell_angle_alpha   90.00000000
_cell_angle_beta   90.00000000
_cell_angle_gamma   120.00000000
_symmetry_Int_Tables_number   1
_chemical_formula_structural   Pt(NF3)2
_chemical_formula_sum   'Pt1 N2 F6'
_cell_volume   287.46690809
_cell_formula_units_Z   1
loop_
 _symmetry_equiv_pos_site_id
 _symmetry_equiv_pos_as_xyz
  1  'x, y, z'
loop_
 _atom_site_type_symbol
 _atom_site_label
 _atom_site_symmetry_multiplicity
 _atom_site_fract_x
 _atom_site_fract_y
 _atom_site_fract_z
 _atom_site_occupancy
  Pt  Pt0  1  -0.00000000  0.00000000  -0.00000000  1.0
  N  N1  1  -0.00000000  -0.00000000  0.33761099  1.0
  N  N2  1  0.00000000  0.00000000  0.66238901  1.0
  F  F3  1  0.15368385  0.84631615  0.11100845  1.0
  F  F4  1  0.84631615  0.69263230  0.88899155  1.0
  F  F5  1  0.69263230  0.84631615  0.11100845  1.0
  F  F6  1  0.15368385  0.30736770  0.11100845  1.0
  F  F7  1  0.84631615  0.15368385  0.88899155  1.0
  F  F8  1  0.30736770  0.15368385  0.88899155  1.0
