# generated using pymatgen
data_BaV2CdO7
_symmetry_space_group_name_H-M   'P 1'
_cell_length_a   15.50003271
_cell_length_b   5.78076151
_cell_length_c   7.61015798
_cell_angle_alpha   90.00000000
_cell_angle_beta   90.00000000
_cell_angle_gamma   90.00000000
_symmetry_Int_Tables_number   1
_chemical_formula_structural   BaV2CdO7
_chemical_formula_sum   'Ba4 V8 Cd4 O28'
_cell_volume   681.88531804
_cell_formula_units_Z   4
loop_
 _symmetry_equiv_pos_site_id
 _symmetry_equiv_pos_as_xyz
  1  'x, y, z'
loop_
 _atom_site_type_symbol
 _atom_site_label
 _atom_site_symmetry_multiplicity
 _atom_site_fract_x
 _atom_site_fract_y
 _atom_site_fract_z
 _atom_site_occupancy
  Ba  Ba0  1  0.21531691  0.75000000  0.13991839  1.0
  Ba  Ba1  1  0.71531691  0.75000000  0.36008161  1.0
  Ba  Ba2  1  0.78468309  0.25000000  0.86008161  1.0
  Ba  Ba3  1  0.28468309  0.25000000  0.63991839  1.0
  V  V4  1  0.43773602  0.75000000  0.79465958  1.0
  V  V5  1  0.93773602  0.75000000  0.70534042  1.0
  V  V6  1  0.56226398  0.25000000  0.20534042  1.0
  V  V7  1  0.06226398  0.25000000  0.29465958  1.0
  V  V8  1  0.13930457  0.75000000  0.66510768  1.0
  V  V9  1  0.63930457  0.75000000  0.83489232  1.0
  V  V10  1  0.86069543  0.25000000  0.33489232  1.0
  V  V11  1  0.36069543  0.25000000  0.16510768  1.0
  Cd  Cd12  1  0.44954210  0.75000000  0.38061069  1.0
  Cd  Cd13  1  0.94954210  0.75000000  0.11938931  1.0
  Cd  Cd14  1  0.55045790  0.25000000  0.61938931  1.0
  Cd  Cd15  1  0.05045790  0.25000000  0.88061069  1.0
  O  O16  1  0.44012005  0.99001411  0.65809188  1.0
  O  O17  1  0.44012005  0.50998589  0.65809188  1.0
  O  O18  1  0.94012005  0.99001411  0.84190812  1.0
  O  O19  1  0.94012005  0.50998589  0.84190812  1.0
  O  O20  1  0.55987995  0.49001411  0.34190812  1.0
  O  O21  1  0.55987995  0.00998589  0.34190812  1.0
  O  O22  1  0.05987995  0.49001411  0.15809188  1.0
  O  O23  1  0.05987995  0.00998589  0.15809188  1.0
  O  O24  1  0.15052928  0.98936202  0.79610127  1.0
  O  O25  1  0.15052928  0.51063798  0.79610127  1.0
  O  O26  1  0.65052928  0.98936202  0.70389873  1.0
  O  O27  1  0.65052928  0.51063798  0.70389873  1.0
  O  O28  1  0.84947072  0.48936202  0.20389873  1.0
  O  O29  1  0.84947072  0.01063798  0.20389873  1.0
  O  O30  1  0.34947072  0.48936202  0.29610127  1.0
  O  O31  1  0.34947072  0.01063798  0.29610127  1.0
  O  O32  1  0.34708196  0.75000000  0.90842655  1.0
  O  O33  1  0.84708196  0.75000000  0.59157345  1.0
  O  O34  1  0.65291804  0.25000000  0.09157345  1.0
  O  O35  1  0.15291804  0.25000000  0.40842655  1.0
  O  O36  1  0.21815383  0.75000000  0.51658430  1.0
  O  O37  1  0.71815383  0.75000000  0.98341570  1.0
  O  O38  1  0.78184617  0.25000000  0.48341570  1.0
  O  O39  1  0.28184617  0.25000000  0.01658430  1.0
  O  O40  1  0.03225993  0.75000000  0.56905706  1.0
  O  O41  1  0.53225993  0.75000000  0.93094294  1.0
  O  O42  1  0.96774007  0.25000000  0.43094294  1.0
  O  O43  1  0.46774007  0.25000000  0.06905706  1.0
