# generated using pymatgen
data_V2CoO6
_symmetry_space_group_name_H-M   'P 1'
_cell_length_a   4.84778314
_cell_length_b   8.77371415
_cell_length_c   7.22579276
_cell_angle_alpha   102.13445562
_cell_angle_beta   94.94301173
_cell_angle_gamma   89.80021075
_symmetry_Int_Tables_number   1
_chemical_formula_structural   V2CoO6
_chemical_formula_sum   'V6 Co3 O18'
_cell_volume   299.31709289
_cell_formula_units_Z   3
loop_
 _symmetry_equiv_pos_site_id
 _symmetry_equiv_pos_as_xyz
  1  'x, y, z'
loop_
 _atom_site_type_symbol
 _atom_site_label
 _atom_site_symmetry_multiplicity
 _atom_site_fract_x
 _atom_site_fract_y
 _atom_site_fract_z
 _atom_site_occupancy
  Co  Co0  1  -1.00159190  -0.33906653  -0.48988894  1.0
  Co  Co1  1  0.00159190  -0.66093347  -0.51011106  1.0
  Co  Co2  1  -0.00000000  -0.00000000  -0.50000000  1.0
  O  O3  1  -0.89609178  -0.19877251  -0.67595286  1.0
  O  O4  1  -0.10390822  -0.80122749  -0.32404714  1.0
  O  O5  1  -0.79105460  -0.74628513  -0.96982820  1.0
  O  O6  1  -0.20894540  -0.25371487  -0.03017180  1.0
  O  O7  1  -0.70525561  -0.07777775  -0.97199781  1.0
  O  O8  1  -0.29474439  -0.92222225  -0.02800219  1.0
  O  O9  1  -0.70516649  -0.41332964  -0.97723881  1.0
  O  O10  1  -0.29483351  -0.58667036  -0.02276119  1.0
  O  O11  1  -0.66032645  -0.60926682  -0.33249197  1.0
  O  O12  1  -0.33967355  -0.39073318  -0.66750803  1.0
  O  O13  1  -0.35976576  -0.69840199  -0.70670758  1.0
  O  O14  1  -0.64023424  -0.30159801  -0.29329242  1.0
  O  O15  1  -0.33403060  -0.98931561  -0.66313443  1.0
  O  O16  1  -0.66596940  -0.01068439  -0.33686557  1.0
  O  O17  1  -0.82668283  -0.51715159  -0.65201287  1.0
  O  O18  1  -0.17331717  -0.48284841  -0.34798713  1.0
  O  O19  1  -0.82155563  -0.85612723  -0.64535752  1.0
  O  O20  1  -0.17844437  -0.14387277  -0.35464248  1.0
  V  V21  1  -0.88550039  -0.23563856  -0.91713447  1.0
  V  V22  1  -0.11449961  -0.76436144  -0.08286553  1.0
  V  V23  1  -0.54452869  -0.89154270  -0.78430956  1.0
  V  V24  1  -0.45547131  -0.10845730  -0.21569044  1.0
  V  V25  1  -0.54180661  -0.53214767  -0.78769362  1.0
  V  V26  1  -0.45819339  -0.46785233  -0.21230638  1.0
