# generated using pymatgen
data_TiCu(O2F3)2
_symmetry_space_group_name_H-M   'P 1'
_cell_length_a   4.99424215
_cell_length_b   8.12196554
_cell_length_c   8.13114690
_cell_angle_alpha   90.00000000
_cell_angle_beta   103.14294792
_cell_angle_gamma   90.00000000
_symmetry_Int_Tables_number   1
_chemical_formula_structural   TiCu(O2F3)2
_chemical_formula_sum   'Ti2 Cu2 O8 F12'
_cell_volume   321.18473960
_cell_formula_units_Z   2
loop_
 _symmetry_equiv_pos_site_id
 _symmetry_equiv_pos_as_xyz
  1  'x, y, z'
loop_
 _atom_site_type_symbol
 _atom_site_label
 _atom_site_symmetry_multiplicity
 _atom_site_fract_x
 _atom_site_fract_y
 _atom_site_fract_z
 _atom_site_occupancy
  O  O0  1  0.53083822  0.20619622  0.41701673  1.0
  O  O1  1  0.53083822  0.29380378  0.91701673  1.0
  O  O2  1  0.46916178  0.70619622  0.08298327  1.0
  O  O3  1  0.46916178  0.79380378  0.58298327  1.0
  O  O4  1  0.80927650  0.94303078  0.42822961  1.0
  O  O5  1  0.80927650  0.55696922  0.92822961  1.0
  O  O6  1  0.19072350  0.44303078  0.07177039  1.0
  O  O7  1  0.19072350  0.05696922  0.57177039  1.0
  F  F8  1  0.74357380  0.50046468  0.29467009  1.0
  F  F9  1  0.74357380  -0.00046468  0.79467009  1.0
  F  F10  1  0.25642620  1.00046468  0.20532991  1.0
  F  F11  1  0.25642620  0.49953532  0.70532991  1.0
  F  F12  1  0.13349602  0.29658477  0.42946742  1.0
  F  F13  1  0.13349602  0.20341523  0.92946742  1.0
  F  F14  1  0.86650398  0.79658477  0.07053258  1.0
  F  F15  1  0.86650398  0.70341523  0.57053258  1.0
  F  F16  1  0.75989790  0.12493629  0.10166755  1.0
  F  F17  1  0.75989790  0.37506371  0.60166755  1.0
  F  F18  1  0.24010210  0.62493629  0.39833245  1.0
  F  F19  1  0.24010210  0.87506371  0.89833245  1.0
  Cu  Cu20  1  0.50000000  0.50000000  0.00000000  1.0
  Cu  Cu21  1  0.50000000  0.00000000  0.50000000  1.0
  Ti  Ti22  1  -0.00000000  0.50000000  0.50000000  1.0
  Ti  Ti23  1  0.00000000  0.00000000  0.00000000  1.0
