# generated using pymatgen
data_LiLa2FeO6
_symmetry_space_group_name_H-M   'P 1'
_cell_length_a   5.41436537
_cell_length_b   5.41436537
_cell_length_c   5.41436537
_cell_angle_alpha   61.24811712
_cell_angle_beta   61.24811712
_cell_angle_gamma   61.24811712
_symmetry_Int_Tables_number   1
_chemical_formula_structural   LiLa2FeO6
_chemical_formula_sum   'Li1 La2 Fe1 O6'
_cell_volume   115.38483053
_cell_formula_units_Z   1
loop_
 _symmetry_equiv_pos_site_id
 _symmetry_equiv_pos_as_xyz
  1  'x, y, z'
loop_
 _atom_site_type_symbol
 _atom_site_label
 _atom_site_symmetry_multiplicity
 _atom_site_fract_x
 _atom_site_fract_y
 _atom_site_fract_z
 _atom_site_occupancy
  Li  Li0  1  0.50000000  0.50000000  -0.50000000  1.0
  La  La1  1  0.74989375  0.74989375  -0.25010625  1.0
  La  La2  1  1.25010625  1.25010625  0.25010625  1.0
  Fe  Fe3  1  0.00000000  0.00000000  0.00000000  1.0
  O  O4  1  0.29462345  0.76665807  -0.81900004  1.0
  O  O5  1  0.76665807  0.18099996  -0.70537655  1.0
  O  O6  1  0.18099996  0.29462345  -0.23334193  1.0
  O  O7  1  0.70537655  0.23334193  -0.18099996  1.0
  O  O8  1  1.23334193  -0.18099996  -0.29462345  1.0
  O  O9  1  0.81900004  -0.29462345  0.23334193  1.0
