# generated using pymatgen
data_K2Mo9S11
_symmetry_space_group_name_H-M   'P 1'
_cell_length_a   13.18051543
_cell_length_b   13.18051543
_cell_length_c   13.18051543
_cell_angle_alpha   41.56351803
_cell_angle_beta   41.56351803
_cell_angle_gamma   41.56351803
_symmetry_Int_Tables_number   1
_chemical_formula_structural   K2Mo9S11
_chemical_formula_sum   'K4 Mo18 S22'
_cell_volume   910.91514102
_cell_formula_units_Z   2
loop_
 _symmetry_equiv_pos_site_id
 _symmetry_equiv_pos_as_xyz
  1  'x, y, z'
loop_
 _atom_site_type_symbol
 _atom_site_label
 _atom_site_symmetry_multiplicity
 _atom_site_fract_x
 _atom_site_fract_y
 _atom_site_fract_z
 _atom_site_occupancy
  K  K0  1  0.16670131  0.16670131  0.16670131  1.0
  K  K1  1  0.83329869  -0.16670131  -0.16670131  1.0
  K  K2  1  0.27221565  0.27221565  0.27221565  1.0
  K  K3  1  0.72778435  -0.27221565  -0.27221565  1.0
  Mo  Mo4  1  0.19203817  0.86048093  -0.95612494  1.0
  Mo  Mo5  1  0.95612494  -0.19203817  0.13951907  1.0
  Mo  Mo6  1  1.13951907  -0.04387506  -0.19203817  1.0
  Mo  Mo7  1  0.80796183  0.13951907  -0.04387506  1.0
  Mo  Mo8  1  0.04387506  0.19203817  -0.13951907  1.0
  Mo  Mo9  1  0.86048093  0.04387506  -0.80796183  1.0
  Mo  Mo10  1  0.63131436  0.30045099  -0.52324239  1.0
  Mo  Mo11  1  0.52324239  0.36868564  -0.30045099  1.0
  Mo  Mo12  1  0.69954901  0.52324239  -0.63131436  1.0
  Mo  Mo13  1  0.36868564  0.69954901  -0.47675761  1.0
  Mo  Mo14  1  0.47675761  0.63131436  -0.69954901  1.0
  Mo  Mo15  1  0.30045099  0.47675761  -0.36868564  1.0
  Mo  Mo16  1  0.57556723  0.39274516  -0.75127505  1.0
  Mo  Mo17  1  0.75127505  0.42443277  -0.39274516  1.0
  Mo  Mo18  1  0.60725484  0.75127505  -0.57556723  1.0
  Mo  Mo19  1  0.42443277  0.60725484  -0.24872495  1.0
  Mo  Mo20  1  0.24872495  0.57556723  -0.60725484  1.0
  Mo  Mo21  1  0.39274516  0.24872495  -0.42443277  1.0
  S  S22  1  0.16808599  0.77991952  -0.54339655  1.0
  S  S23  1  0.54339655  0.83191401  -0.77991952  1.0
  S  S24  1  0.22008048  0.54339655  -0.16808599  1.0
  S  S25  1  0.83191401  0.22008048  -0.45660345  1.0
  S  S26  1  0.45660345  0.16808599  -0.22008048  1.0
  S  S27  1  0.77991952  0.45660345  -0.83191401  1.0
  S  S28  1  0.29633673  0.90225857  -0.43440980  1.0
  S  S29  1  0.43440980  0.70366327  -0.90225857  1.0
  S  S30  1  0.09774143  0.43440980  -0.29633673  1.0
  S  S31  1  0.70366327  0.09774143  -0.56559020  1.0
  S  S32  1  0.56559020  0.29633673  -0.09774143  1.0
  S  S33  1  0.90225857  0.56559020  -0.70366327  1.0
  S  S34  1  0.34065834  0.00133884  -0.26345822  1.0
  S  S35  1  1.26345822  -0.34065834  -0.00133884  1.0
  S  S36  1  0.99866116  0.26345822  -0.34065834  1.0
  S  S37  1  0.65934166  -0.00133884  0.26345822  1.0
  S  S38  1  0.73654178  -0.65934166  0.00133884  1.0
  S  S39  1  1.00133884  -0.26345822  -0.65934166  1.0
  S  S40  1  0.08320130  0.08320130  0.08320130  1.0
  S  S41  1  0.91679870  -0.08320130  -0.08320130  1.0
  S  S42  1  0.35485079  0.35485079  -0.64514921  1.0
  S  S43  1  0.64514921  0.64514921  -0.35485079  1.0
