# generated using pymatgen
data_BaMgH4
_symmetry_space_group_name_H-M   'P 1'
_cell_length_a   7.17967334
_cell_length_b   7.17967334
_cell_length_c   5.69492432
_cell_angle_alpha   90.00000000
_cell_angle_beta   90.00000000
_cell_angle_gamma   146.08513211
_symmetry_Int_Tables_number   1
_chemical_formula_structural   BaMgH4
_chemical_formula_sum   'Ba2 Mg2 H8'
_cell_volume   163.79504570
_cell_formula_units_Z   2
loop_
 _symmetry_equiv_pos_site_id
 _symmetry_equiv_pos_as_xyz
  1  'x, y, z'
loop_
 _atom_site_type_symbol
 _atom_site_label
 _atom_site_symmetry_multiplicity
 _atom_site_fract_x
 _atom_site_fract_y
 _atom_site_fract_z
 _atom_site_occupancy
  Ba  Ba0  1  -0.63697184  0.63697184  0.25000000  1.0
  Ba  Ba1  1  -0.36302816  1.36302816  0.75000000  1.0
  Mg  Mg2  1  -0.90352421  0.90352421  0.25000000  1.0
  Mg  Mg3  1  -0.09647579  1.09647579  0.75000000  1.0
  H  H4  1  -0.81057439  0.81057439  0.49290862  1.0
  H  H5  1  -0.81057439  0.81057439  0.00709138  1.0
  H  H6  1  -0.18942561  1.18942561  0.99290862  1.0
  H  H7  1  -0.18942561  1.18942561  0.50709138  1.0
  H  H8  1  -0.41658229  1.41658229  0.25000000  1.0
  H  H9  1  -0.58341771  0.58341771  0.75000000  1.0
  H  H10  1  0.00000000  0.00000000  0.50000000  1.0
  H  H11  1  0.00000000  0.00000000  0.00000000  1.0
