# generated using pymatgen
data_CoH2SeO4
_symmetry_space_group_name_H-M   'P 1'
_cell_length_a   5.67602855
_cell_length_b   4.80338694
_cell_length_c   14.13066661
_cell_angle_alpha   90.00000000
_cell_angle_beta   100.99911684
_cell_angle_gamma   90.00000000
_symmetry_Int_Tables_number   1
_chemical_formula_structural   CoH2SeO4
_chemical_formula_sum   'Co4 H8 Se4 O16'
_cell_volume   378.18358296
_cell_formula_units_Z   4
loop_
 _symmetry_equiv_pos_site_id
 _symmetry_equiv_pos_as_xyz
  1  'x, y, z'
loop_
 _atom_site_type_symbol
 _atom_site_label
 _atom_site_symmetry_multiplicity
 _atom_site_fract_x
 _atom_site_fract_y
 _atom_site_fract_z
 _atom_site_occupancy
  O  O0  1  0.79803951  0.39689628  0.36661520  1.0
  O  O1  1  0.79803951  0.10310371  0.86661520  1.0
  O  O2  1  0.20196049  0.89689629  0.13338480  1.0
  O  O3  1  0.20196049  0.60310371  0.63338480  1.0
  O  O4  1  0.31381033  0.37532139  0.38552756  1.0
  O  O5  1  0.31381033  0.12467861  0.88552756  1.0
  O  O6  1  0.68618967  0.87532139  0.11447244  1.0
  O  O7  1  0.68618967  0.62467861  0.61447244  1.0
  O  O8  1  0.98907250  0.38161223  0.18362510  1.0
  O  O9  1  0.98907250  0.11838777  0.68362510  1.0
  O  O10  1  0.01092750  0.88161223  0.31637490  1.0
  O  O11  1  0.01092750  0.61838777  0.81637490  1.0
  O  O12  1  0.43806847  0.38151019  0.18366431  1.0
  O  O13  1  0.43806847  0.11848981  0.68366431  1.0
  O  O14  1  0.56193153  0.88151019  0.31633569  1.0
  O  O15  1  0.56193153  0.61848981  0.81633569  1.0
  Se  Se16  1  0.82044493  0.74155833  0.39087206  1.0
  Se  Se17  1  0.82044493  0.75844167  0.89087206  1.0
  Se  Se18  1  0.17955507  0.24155833  0.10912794  1.0
  Se  Se19  1  0.17955507  0.25844167  0.60912794  1.0
  H  H20  1  0.47513936  0.30089856  0.38481897  1.0
  H  H21  1  0.47513936  0.19910144  0.88481897  1.0
  H  H22  1  0.52486064  0.80089856  0.11518103  1.0
  H  H23  1  0.52486064  0.69910144  0.61518103  1.0
  H  H24  1  0.20255673  0.21825408  0.36781499  1.0
  H  H25  1  0.20255673  0.28174592  0.86781499  1.0
  H  H26  1  0.79744327  0.71825408  0.13218501  1.0
  H  H27  1  0.79744327  0.78174592  0.63218501  1.0
  Co  Co28  1  0.73901373  0.16605267  0.23430461  1.0
  Co  Co29  1  0.73901373  0.33394733  0.73430461  1.0
  Co  Co30  1  0.26098627  0.66605267  0.26569539  1.0
  Co  Co31  1  0.26098627  0.83394733  0.76569539  1.0
