# generated using pymatgen
data_Na2SiF6
_symmetry_space_group_name_H-M   'P 1'
_cell_length_a   5.25818588
_cell_length_b   5.25818588
_cell_length_c   4.45413170
_cell_angle_alpha   90.00000000
_cell_angle_beta   90.00000000
_cell_angle_gamma   120.00000000
_symmetry_Int_Tables_number   1
_chemical_formula_structural   Na2SiF6
_chemical_formula_sum   'Na2 Si1 F6'
_cell_volume   106.65115329
_cell_formula_units_Z   1
loop_
 _symmetry_equiv_pos_site_id
 _symmetry_equiv_pos_as_xyz
  1  'x, y, z'
loop_
 _atom_site_type_symbol
 _atom_site_label
 _atom_site_symmetry_multiplicity
 _atom_site_fract_x
 _atom_site_fract_y
 _atom_site_fract_z
 _atom_site_occupancy
  Na  Na0  1  0.33333333  0.66666667  0.30909349  1.0
  Na  Na1  1  0.66666667  0.33333333  0.69090651  1.0
  Si  Si2  1  0.00000000  0.00000000  -0.00000000  1.0
  F  F3  1  0.31058356  0.15529178  0.21858010  1.0
  F  F4  1  0.15529178  0.31058356  0.78141990  1.0
  F  F5  1  0.15529178  0.84470822  0.78141990  1.0
  F  F6  1  0.84470822  0.15529178  0.21858010  1.0
  F  F7  1  0.84470822  0.68941644  0.21858010  1.0
  F  F8  1  0.68941644  0.84470822  0.78141990  1.0
