# generated using pymatgen
data_AgTeO3
_symmetry_space_group_name_H-M   'P 1'
_cell_length_a   6.11357983
_cell_length_b   11.74519694
_cell_length_c   9.22622230
_cell_angle_alpha   90.00000000
_cell_angle_beta   119.31747060
_cell_angle_gamma   90.00000000
_symmetry_Int_Tables_number   1
_chemical_formula_structural   AgTeO3
_chemical_formula_sum   'Ag8 Te8 O24'
_cell_volume   577.63892370
_cell_formula_units_Z   8
loop_
 _symmetry_equiv_pos_site_id
 _symmetry_equiv_pos_as_xyz
  1  'x, y, z'
loop_
 _atom_site_type_symbol
 _atom_site_label
 _atom_site_symmetry_multiplicity
 _atom_site_fract_x
 _atom_site_fract_y
 _atom_site_fract_z
 _atom_site_occupancy
  Ag  Ag0  1  0.56016700  0.32805974  0.21258879  1.0
  Ag  Ag1  1  0.56016700  0.17194026  0.71258879  1.0
  Ag  Ag2  1  0.43983300  0.82805974  0.28741121  1.0
  Ag  Ag3  1  0.43983300  0.67194026  0.78741121  1.0
  Ag  Ag4  1  0.39487108  0.35487345  0.46139680  1.0
  Ag  Ag5  1  0.39487108  0.14512655  0.96139680  1.0
  Ag  Ag6  1  0.60512892  0.85487345  0.03860320  1.0
  Ag  Ag7  1  0.60512892  0.64512655  0.53860320  1.0
  Te  Te8  1  0.92933105  0.92962504  0.81676919  1.0
  Te  Te9  1  0.92933105  0.57037496  0.31676919  1.0
  Te  Te10  1  0.07066895  0.42962504  0.68323081  1.0
  Te  Te11  1  0.07066895  0.07037496  0.18323081  1.0
  Te  Te12  1  0.89524897  0.37349536  -0.00272274  1.0
  Te  Te13  1  0.89524897  0.12650464  0.49727726  1.0
  Te  Te14  1  0.10475103  0.87349536  0.50272274  1.0
  Te  Te15  1  0.10475103  0.62650464  1.00272274  1.0
  O  O16  1  0.96872903  0.40217174  0.23479718  1.0
  O  O17  1  0.96872903  0.09782826  0.73479718  1.0
  O  O18  1  0.03127097  0.90217174  0.26520282  1.0
  O  O19  1  0.03127097  0.59782826  0.76520282  1.0
  O  O20  1  0.90091551  0.73147230  0.42960946  1.0
  O  O21  1  0.90091551  0.76852770  0.92960946  1.0
  O  O22  1  0.09908449  0.23147230  0.07039054  1.0
  O  O23  1  0.09908449  0.26852770  0.57039054  1.0
  O  O24  1  0.82956549  0.14171781  0.25637695  1.0
  O  O25  1  0.82956549  0.35828219  0.75637695  1.0
  O  O26  1  0.17043451  0.64171781  0.24362305  1.0
  O  O27  1  0.17043451  0.85828219  0.74362305  1.0
  O  O28  1  0.77429787  0.95764789  0.44925112  1.0
  O  O29  1  0.77429787  0.54235211  0.94925112  1.0
  O  O30  1  0.22570213  0.45764789  0.05074888  1.0
  O  O31  1  0.22570213  0.04235211  0.55074888  1.0
  O  O32  1  0.76559153  0.47413937  0.47357881  1.0
  O  O33  1  0.76559153  0.02586063  0.97357881  1.0
  O  O34  1  0.23440847  0.97413937  0.02642119  1.0
  O  O35  1  0.23440847  0.52586063  0.52642119  1.0
  O  O36  1  0.56201182  0.18847388  0.42245001  1.0
  O  O37  1  0.56201182  0.31152612  0.92245001  1.0
  O  O38  1  0.43798818  0.68847388  0.07754999  1.0
  O  O39  1  0.43798818  0.81152612  0.57754999  1.0
