# generated using pymatgen
data_Zn3(PO4)2
_symmetry_space_group_name_H-M   'P 1'
_cell_length_a   8.49608520
_cell_length_b   9.03567194
_cell_length_c   9.08223237
_cell_angle_alpha   90.00000000
_cell_angle_beta   110.04910620
_cell_angle_gamma   90.00000000
_symmetry_Int_Tables_number   1
_chemical_formula_structural   Zn3(PO4)2
_chemical_formula_sum   'Zn12 P8 O32'
_cell_volume   654.97101596
_cell_formula_units_Z   4
loop_
 _symmetry_equiv_pos_site_id
 _symmetry_equiv_pos_as_xyz
  1  'x, y, z'
loop_
 _atom_site_type_symbol
 _atom_site_label
 _atom_site_symmetry_multiplicity
 _atom_site_fract_x
 _atom_site_fract_y
 _atom_site_fract_z
 _atom_site_occupancy
  Zn  Zn0  1  0.42630143  0.23472460  0.02595216  1.0
  Zn  Zn1  1  0.42630143  0.26527540  0.52595216  1.0
  Zn  Zn2  1  0.57369857  0.73472460  0.47404784  1.0
  Zn  Zn3  1  0.57369857  0.76527540  0.97404784  1.0
  Zn  Zn4  1  0.74518668  0.10871101  0.49752401  1.0
  Zn  Zn5  1  0.74518668  0.39128899  0.99752401  1.0
  Zn  Zn6  1  0.25481332  0.60871101  0.00247599  1.0
  Zn  Zn7  1  0.25481332  0.89128899  0.50247599  1.0
  Zn  Zn8  1  0.98659178  0.10162453  0.12779346  1.0
  Zn  Zn9  1  0.98659178  0.39837547  0.62779346  1.0
  Zn  Zn10  1  0.01340822  0.60162453  0.37220654  1.0
  Zn  Zn11  1  0.01340822  0.89837547  0.87220654  1.0
  P  P12  1  0.65454201  0.42897436  0.32530265  1.0
  P  P13  1  0.65454201  0.07102564  0.82530265  1.0
  P  P14  1  0.34545799  0.92897436  0.17469735  1.0
  P  P15  1  0.34545799  0.57102564  0.67469735  1.0
  P  P16  1  0.84075285  0.88769030  0.31039077  1.0
  P  P17  1  0.84075285  0.61230970  0.81039077  1.0
  P  P18  1  0.15924715  0.38769030  0.18960923  1.0
  P  P19  1  0.15924715  0.11230970  0.68960923  1.0
  O  O20  1  0.75678286  0.77747665  0.17875897  1.0
  O  O21  1  0.75678286  0.72252335  0.67875897  1.0
  O  O22  1  0.24321714  0.27747665  0.32124103  1.0
  O  O23  1  0.24321714  0.22252335  0.82124103  1.0
  O  O24  1  0.74041105  0.90356685  0.42629582  1.0
  O  O25  1  0.74041105  0.59643315  0.92629582  1.0
  O  O26  1  0.25958895  0.40356685  0.07370418  1.0
  O  O27  1  0.25958895  0.09643315  0.57370418  1.0
  O  O28  1  0.61900307  0.29350833  0.41693433  1.0
  O  O29  1  0.61900307  0.20649167  0.91693433  1.0
  O  O30  1  0.38099693  0.79350833  0.08306567  1.0
  O  O31  1  0.38099693  0.70649167  0.58306567  1.0
  O  O32  1  0.61472229  0.38473809  0.14886964  1.0
  O  O33  1  0.61472229  0.11526191  0.64886964  1.0
  O  O34  1  0.38527771  0.88473809  0.35113036  1.0
  O  O35  1  0.38527771  0.61526191  0.85113036  1.0
  O  O36  1  0.45015816  0.06251074  0.16144146  1.0
  O  O37  1  0.45015816  0.43748926  0.66144146  1.0
  O  O38  1  0.54984184  0.56251074  0.33855854  1.0
  O  O39  1  0.54984184  0.93748926  0.83855854  1.0
  O  O40  1  0.98085583  0.31622895  0.09863073  1.0
  O  O41  1  0.98085583  0.18377105  0.59863073  1.0
  O  O42  1  0.01914417  0.81622895  0.40136927  1.0
  O  O43  1  0.01914417  0.68377105  0.90136927  1.0
  O  O44  1  0.86657272  0.04723374  0.26244864  1.0
  O  O45  1  0.86657272  0.45276626  0.76244864  1.0
  O  O46  1  0.13342728  0.54723374  0.23755136  1.0
  O  O47  1  0.13342728  0.95276626  0.73755136  1.0
  O  O48  1  0.84836069  0.46113041  0.39879471  1.0
  O  O49  1  0.84836069  0.03886959  0.89879471  1.0
  O  O50  1  0.15163931  0.96113041  0.10120529  1.0
  O  O51  1  0.15163931  0.53886959  0.60120529  1.0
