# generated using pymatgen
data_Na6ZnH4(S2O9)2
_symmetry_space_group_name_H-M   'P 1'
_cell_length_a   6.19081759
_cell_length_b   10.20960468
_cell_length_c   6.93250851
_cell_angle_alpha   70.31340995
_cell_angle_beta   75.50765962
_cell_angle_gamma   76.52867878
_symmetry_Int_Tables_number   1
_chemical_formula_structural   Na6ZnH4(S2O9)2
_chemical_formula_sum   'Na6 Zn1 H4 S4 O18'
_cell_volume   394.08904721
_cell_formula_units_Z   1
loop_
 _symmetry_equiv_pos_site_id
 _symmetry_equiv_pos_as_xyz
  1  'x, y, z'
loop_
 _atom_site_type_symbol
 _atom_site_label
 _atom_site_symmetry_multiplicity
 _atom_site_fract_x
 _atom_site_fract_y
 _atom_site_fract_z
 _atom_site_occupancy
  Na  Na0  1  -0.56627220  0.89336661  -0.70109480  1.0
  Na  Na1  1  -0.43372780  0.10663339  0.70109480  1.0
  Na  Na2  1  -0.61427310  0.54071684  0.26160454  1.0
  Na  Na3  1  -0.38572690  0.45928316  -0.26160454  1.0
  Na  Na4  1  -0.94842534  0.32978005  0.21030564  1.0
  Na  Na5  1  -0.05157466  0.67021995  -0.21030564  1.0
  Zn  Zn6  1  0.00000000  0.00000000  0.00000000  1.0
  H  H7  1  -0.91613878  0.96517355  -0.34965480  1.0
  H  H8  1  -0.08386122  0.03482645  0.34965480  1.0
  H  H9  1  -0.98709463  0.13385581  0.62593829  1.0
  H  H10  1  -0.01290537  0.86614419  -0.62593829  1.0
  S  S11  1  -0.13058950  0.67669295  0.26853057  1.0
  S  S12  1  -0.86941050  0.32330705  -0.26853057  1.0
  S  S13  1  -0.56534055  0.79819672  -0.19881801  1.0
  S  S14  1  -0.43465945  0.20180328  0.19881801  1.0
  O  O15  1  -0.38069114  0.87505399  -0.33856925  1.0
  O  O16  1  -0.61930886  0.12494601  0.33856925  1.0
  O  O17  1  -0.18684944  0.82148464  0.11767364  1.0
  O  O18  1  -0.81315056  0.17851536  -0.11767364  1.0
  O  O19  1  -0.46842044  0.64885091  -0.10193235  1.0
  O  O20  1  -0.53157956  0.35114909  0.10193235  1.0
  O  O21  1  -0.65026977  0.37212098  0.61530929  1.0
  O  O22  1  -0.34973023  0.62787902  -0.61530929  1.0
  O  O23  1  -0.67887255  0.86728144  -0.02814739  1.0
  O  O24  1  -0.32112745  0.13271856  0.02814739  1.0
  O  O25  1  -0.73978230  0.80482756  -0.32098585  1.0
  O  O26  1  -0.26021770  0.19517244  0.32098585  1.0
  O  O27  1  -0.96657616  0.96079530  -0.69717705  1.0
  O  O28  1  -0.03342384  0.03920470  0.69717705  1.0
  O  O29  1  -0.99833969  0.68788393  -0.58441598  1.0
  O  O30  1  -0.00166031  0.31211607  0.58441598  1.0
  O  O31  1  -0.98980629  0.57898021  0.14983939  1.0
  O  O32  1  -0.01019371  0.42101979  -0.14983939  1.0
