# generated using pymatgen
data_CdI2
_symmetry_space_group_name_H-M   'P 1'
_cell_length_a   4.32835371
_cell_length_b   4.32835371
_cell_length_c   91.05132305
_cell_angle_alpha   90.00000000
_cell_angle_beta   90.00000000
_cell_angle_gamma   120.00000000
_symmetry_Int_Tables_number   1
_chemical_formula_structural   CdI2
_chemical_formula_sum   'Cd12 I24'
_cell_volume   1477.27850695
_cell_formula_units_Z   12
loop_
 _symmetry_equiv_pos_site_id
 _symmetry_equiv_pos_as_xyz
  1  'x, y, z'
loop_
 _atom_site_type_symbol
 _atom_site_label
 _atom_site_symmetry_multiplicity
 _atom_site_fract_x
 _atom_site_fract_y
 _atom_site_fract_z
 _atom_site_occupancy
  Cd  Cd0  1  0.00000000  0.00000000  0.02084491  1.0
  Cd  Cd1  1  0.00000000  0.00000000  0.10415314  1.0
  Cd  Cd2  1  0.00000000  0.00000000  0.27083301  1.0
  Cd  Cd3  1  0.00000000  0.00000000  0.43750053  1.0
  Cd  Cd4  1  0.00000000  0.00000000  0.68751119  1.0
  Cd  Cd5  1  0.00000000  0.00000000  0.77082479  1.0
  Cd  Cd6  1  0.66666667  0.33333333  0.18750024  1.0
  Cd  Cd7  1  0.66666667  0.33333333  0.35416713  1.0
  Cd  Cd8  1  0.66666667  0.33333333  0.52084461  1.0
  Cd  Cd9  1  0.66666667  0.33333333  0.60415545  1.0
  Cd  Cd10  1  0.66666667  0.33333333  0.85417826  1.0
  Cd  Cd11  1  0.66666667  0.33333333  0.93748690  1.0
  I  I12  1  0.00000000  0.00000000  0.20637461  1.0
  I  I13  1  0.00000000  0.00000000  0.37304675  1.0
  I  I14  1  0.00000000  0.00000000  0.53972426  1.0
  I  I15  1  0.00000000  0.00000000  0.62303621  1.0
  I  I16  1  0.00000000  0.00000000  0.87305782  1.0
  I  I17  1  0.00000000  0.00000000  0.95636221  1.0
  I  I18  1  0.66666667  0.33333333  0.03972467  1.0
  I  I19  1  0.66666667  0.33333333  0.12303370  1.0
  I  I20  1  0.66666667  0.33333333  0.28971264  1.0
  I  I21  1  0.66666667  0.33333333  0.45637484  1.0
  I  I22  1  0.66666667  0.33333333  0.70638551  1.0
  I  I23  1  0.66666667  0.33333333  0.78970572  1.0
  I  I24  1  0.33333333  0.66666667  0.00196531  1.0
  I  I25  1  0.33333333  0.66666667  0.08527210  1.0
  I  I26  1  0.33333333  0.66666667  0.16862585  1.0
  I  I27  1  0.33333333  0.66666667  0.25195349  1.0
  I  I28  1  0.33333333  0.66666667  0.33528758  1.0
  I  I29  1  0.33333333  0.66666667  0.41862622  1.0
  I  I30  1  0.33333333  0.66666667  0.50196527  1.0
  I  I31  1  0.33333333  0.66666667  0.58527454  1.0
  I  I32  1  0.33333333  0.66666667  0.66863676  1.0
  I  I33  1  0.33333333  0.66666667  0.75194412  1.0
  I  I34  1  0.33333333  0.66666667  0.83529866  1.0
  I  I35  1  0.33333333  0.66666667  0.91861100  1.0
