# generated using pymatgen
data_Ag2PHO4
_symmetry_space_group_name_H-M   'P 1'
_cell_length_a   6.47079822
_cell_length_b   6.47079822
_cell_length_c   8.60706022
_cell_angle_alpha   90.00000000
_cell_angle_beta   90.00000000
_cell_angle_gamma   120.00000000
_symmetry_Int_Tables_number   1
_chemical_formula_structural   Ag2PHO4
_chemical_formula_sum   'Ag6 P3 H3 O12'
_cell_volume   312.10533129
_cell_formula_units_Z   3
loop_
 _symmetry_equiv_pos_site_id
 _symmetry_equiv_pos_as_xyz
  1  'x, y, z'
loop_
 _atom_site_type_symbol
 _atom_site_label
 _atom_site_symmetry_multiplicity
 _atom_site_fract_x
 _atom_site_fract_y
 _atom_site_fract_z
 _atom_site_occupancy
  Ag  Ag0  1  0.06729809  0.53364905  0.00000000  1.0
  Ag  Ag1  1  0.46635095  0.53364905  0.33333333  1.0
  Ag  Ag2  1  0.46635095  0.93270191  0.66666667  1.0
  Ag  Ag3  1  0.53104524  0.26552262  0.00000000  1.0
  Ag  Ag4  1  0.73447738  0.26552262  0.33333333  1.0
  Ag  Ag5  1  0.73447738  0.46895476  0.66666667  1.0
  P  P6  1  0.68148948  0.84074474  0.00000000  1.0
  P  P7  1  0.15925526  0.84074474  0.33333333  1.0
  P  P8  1  0.15925526  0.31851052  0.66666667  1.0
  H  H9  1  0.97037353  0.98518677  0.50000000  1.0
  H  H10  1  0.01481323  0.98518677  0.83333333  1.0
  H  H11  1  0.01481323  0.02962647  0.16666667  1.0
  O  O12  1  0.52076900  0.92873170  0.92237152  1.0
  O  O13  1  0.52076900  0.59203730  0.07762848  1.0
  O  O14  1  0.40796270  0.92873170  0.41096181  1.0
  O  O15  1  0.40796270  0.47923100  0.58903819  1.0
  O  O16  1  0.07126830  0.47923100  0.74429515  1.0
  O  O17  1  0.07126830  0.59203730  0.25570485  1.0
  O  O18  1  0.84139618  0.80639953  0.87785004  1.0
  O  O19  1  0.84139618  0.03499665  0.12214996  1.0
  O  O20  1  0.96500335  0.80639953  0.45548330  1.0
  O  O21  1  0.96500335  0.15860382  0.54451670  1.0
  O  O22  1  0.19360047  0.15860382  0.78881663  1.0
  O  O23  1  0.19360047  0.03499665  0.21118337  1.0
