# generated using pymatgen
data_NaZnSO4F
_symmetry_space_group_name_H-M   'P 1'
_cell_length_a   5.53182815
_cell_length_b   5.53182815
_cell_length_c   7.21996633
_cell_angle_alpha   75.51044875
_cell_angle_beta   104.48955125
_cell_angle_gamma   75.72763852
_symmetry_Int_Tables_number   1
_chemical_formula_structural   NaZnSO4F
_chemical_formula_sum   'Na2 Zn2 S2 O8 F2'
_cell_volume   195.52197547
_cell_formula_units_Z   2
loop_
 _symmetry_equiv_pos_site_id
 _symmetry_equiv_pos_as_xyz
  1  'x, y, z'
loop_
 _atom_site_type_symbol
 _atom_site_label
 _atom_site_symmetry_multiplicity
 _atom_site_fract_x
 _atom_site_fract_y
 _atom_site_fract_z
 _atom_site_occupancy
  Na  Na0  1  0.66374325  -0.33625675  0.25000000  1.0
  Na  Na1  1  1.33625675  0.33625675  0.75000000  1.0
  Zn  Zn2  1  -0.00000000  0.00000000  0.50000000  1.0
  Zn  Zn3  1  -0.00000000  0.00000000  -0.00000000  1.0
  S  S4  1  1.31920174  0.31920174  0.25000000  1.0
  S  S5  1  0.68079826  -0.31920174  0.75000000  1.0
  O  O6  1  1.58582204  0.25559067  0.40220001  1.0
  O  O7  1  0.74440933  -0.58582204  0.90220001  1.0
  O  O8  1  1.25559067  0.58582204  0.09779999  1.0
  O  O9  1  0.41417796  -0.25559067  0.59779999  1.0
  O  O10  1  1.32516354  0.11715368  0.14363320  1.0
  O  O11  1  0.88284632  -0.32516354  0.64363320  1.0
  O  O12  1  1.11715368  0.32516354  0.35636680  1.0
  O  O13  1  0.67483646  -0.11715368  0.85636680  1.0
  F  F14  1  0.91518710  -0.08481290  0.25000000  1.0
  F  F15  1  1.08481290  0.08481290  0.75000000  1.0
