# generated using pymatgen
data_Mg(SbO2)2
_symmetry_space_group_name_H-M   'P 1'
_cell_length_a   8.60540539
_cell_length_b   8.60540539
_cell_length_c   6.08279257
_cell_angle_alpha   90.00000000
_cell_angle_beta   90.00000000
_cell_angle_gamma   90.00000000
_symmetry_Int_Tables_number   1
_chemical_formula_structural   Mg(SbO2)2
_chemical_formula_sum   'Mg4 Sb8 O16'
_cell_volume   450.44905027
_cell_formula_units_Z   4
loop_
 _symmetry_equiv_pos_site_id
 _symmetry_equiv_pos_as_xyz
  1  'x, y, z'
loop_
 _atom_site_type_symbol
 _atom_site_label
 _atom_site_symmetry_multiplicity
 _atom_site_fract_x
 _atom_site_fract_y
 _atom_site_fract_z
 _atom_site_occupancy
  Mg  Mg0  1  0.50000000  0.00000000  0.75000000  1.0
  Mg  Mg1  1  0.50000000  0.00000000  0.25000000  1.0
  Mg  Mg2  1  0.00000000  0.50000000  0.75000000  1.0
  Mg  Mg3  1  0.00000000  0.50000000  0.25000000  1.0
  Sb  Sb4  1  0.33424610  0.67603027  0.00000000  1.0
  Sb  Sb5  1  0.83424610  0.82396973  -0.00000000  1.0
  Sb  Sb6  1  0.32396973  0.33424610  0.50000000  1.0
  Sb  Sb7  1  0.82396973  0.16575390  0.50000000  1.0
  Sb  Sb8  1  0.66575390  0.32396973  0.00000000  1.0
  Sb  Sb9  1  0.16575390  0.17603027  -0.00000000  1.0
  Sb  Sb10  1  0.67603027  0.66575390  0.50000000  1.0
  Sb  Sb11  1  0.17603027  0.83424610  0.50000000  1.0
  O  O12  1  0.36714123  0.90109679  0.00000000  1.0
  O  O13  1  0.86714123  0.59890321  -0.00000000  1.0
  O  O14  1  0.09890321  0.36714123  0.50000000  1.0
  O  O15  1  0.59890321  0.13285877  0.50000000  1.0
  O  O16  1  0.63285877  0.09890321  0.00000000  1.0
  O  O17  1  0.13285877  0.40109679  -0.00000000  1.0
  O  O18  1  0.90109679  0.63285877  0.50000000  1.0
  O  O19  1  0.40109679  0.86714123  0.50000000  1.0
  O  O20  1  0.32290614  0.17709386  0.75000000  1.0
  O  O21  1  0.32290614  0.17709386  0.25000000  1.0
  O  O22  1  0.82290614  0.32290614  0.75000000  1.0
  O  O23  1  0.82290614  0.32290614  0.25000000  1.0
  O  O24  1  0.67709386  0.82290614  0.75000000  1.0
  O  O25  1  0.67709386  0.82290614  0.25000000  1.0
  O  O26  1  0.17709386  0.67709386  0.75000000  1.0
  O  O27  1  0.17709386  0.67709386  0.25000000  1.0
