# generated using pymatgen
data_Sr3CuPtO6
_symmetry_space_group_name_H-M   'P 1'
_cell_length_a   6.81795924
_cell_length_b   6.81795924
_cell_length_c   6.74622903
_cell_angle_alpha   89.21129161
_cell_angle_beta   90.78870839
_cell_angle_gamma   87.90812988
_symmetry_Int_Tables_number   1
_chemical_formula_structural   Sr3CuPtO6
_chemical_formula_sum   'Sr6 Cu2 Pt2 O12'
_cell_volume   313.32492211
_cell_formula_units_Z   2
loop_
 _symmetry_equiv_pos_site_id
 _symmetry_equiv_pos_as_xyz
  1  'x, y, z'
loop_
 _atom_site_type_symbol
 _atom_site_label
 _atom_site_symmetry_multiplicity
 _atom_site_fract_x
 _atom_site_fract_y
 _atom_site_fract_z
 _atom_site_occupancy
  Sr  Sr0  1  1.74052720  0.10983139  0.12253403  1.0
  Sr  Sr1  1  0.89016861  -0.74052720  0.62253403  1.0
  Sr  Sr2  1  1.10983139  0.74052720  0.37746597  1.0
  Sr  Sr3  1  0.25947280  -0.10983139  0.87746597  1.0
  Sr  Sr4  1  0.59757816  -0.40242184  0.25000000  1.0
  Sr  Sr5  1  1.40242184  0.40242184  0.75000000  1.0
  Cu  Cu6  1  1.19396792  0.19396792  0.25000000  1.0
  Cu  Cu7  1  0.80603208  -0.19396792  0.75000000  1.0
  Pt  Pt8  1  1.50000000  -0.00000000  0.50000000  1.0
  Pt  Pt9  1  1.00000000  -0.50000000  0.00000000  1.0
  O  O10  1  0.78125620  -0.10698564  0.46294412  1.0
  O  O11  1  1.10698564  0.21874380  0.96294412  1.0
  O  O12  1  0.89301436  -0.21874380  0.03705588  1.0
  O  O13  1  1.21874380  0.10698564  0.53705588  1.0
  O  O14  1  0.39647502  -0.02181729  0.21532891  1.0
  O  O15  1  1.02181729  0.60352498  0.71532891  1.0
  O  O16  1  0.97818271  -0.60352498  0.28467109  1.0
  O  O17  1  1.60352498  0.02181729  0.78467109  1.0
  O  O18  1  1.57827570  0.28156758  0.43141510  1.0
  O  O19  1  0.71843242  -0.57827570  0.93141510  1.0
  O  O20  1  1.28156758  0.57827570  0.06858490  1.0
  O  O21  1  0.42172430  -0.28156758  0.56858490  1.0
