# generated using pymatgen
data_Ca5P3ClO12
_symmetry_space_group_name_H-M   'P 1'
_cell_length_a   9.95574096
_cell_length_b   9.95574096
_cell_length_c   6.75592181
_cell_angle_alpha   90.00000000
_cell_angle_beta   90.00000000
_cell_angle_gamma   120.00000000
_symmetry_Int_Tables_number   1
_chemical_formula_structural   Ca5P3ClO12
_chemical_formula_sum   'Ca10 P6 Cl2 O24'
_cell_volume   579.91243597
_cell_formula_units_Z   2
loop_
 _symmetry_equiv_pos_site_id
 _symmetry_equiv_pos_as_xyz
  1  'x, y, z'
loop_
 _atom_site_type_symbol
 _atom_site_label
 _atom_site_symmetry_multiplicity
 _atom_site_fract_x
 _atom_site_fract_y
 _atom_site_fract_z
 _atom_site_occupancy
  Ca  Ca0  1  -0.02223957  0.72130714  0.25000000  1.0
  Ca  Ca1  1  0.72130714  0.74354671  0.75000000  1.0
  Ca  Ca2  1  0.74354671  1.02223957  0.25000000  1.0
  Ca  Ca3  1  0.27869286  0.25645329  0.25000000  1.0
  Ca  Ca4  1  1.02223957  0.27869286  0.75000000  1.0
  Ca  Ca5  1  0.25645329  -0.02223957  0.75000000  1.0
  Ca  Ca6  1  0.33333333  0.66666667  0.49485424  1.0
  Ca  Ca7  1  0.33333333  0.66666667  0.00514576  1.0
  Ca  Ca8  1  0.66666667  0.33333333  0.99485424  1.0
  Ca  Ca9  1  0.66666667  0.33333333  0.50514576  1.0
  P  P10  1  0.62327017  0.59017205  0.25000000  1.0
  P  P11  1  0.59017205  0.96690188  0.75000000  1.0
  P  P12  1  0.96690188  0.37672983  0.25000000  1.0
  P  P13  1  0.40982795  0.03309812  0.25000000  1.0
  P  P14  1  0.37672983  0.40982795  0.75000000  1.0
  P  P15  1  0.03309812  0.62327017  0.75000000  1.0
  Cl  Cl16  1  0.00000000  0.00000000  0.25000000  1.0
  Cl  Cl17  1  -0.00000000  -0.00000000  0.75000000  1.0
  O  O18  1  0.73034058  0.64762170  0.43608326  1.0
  O  O19  1  0.73034058  0.64762170  0.06391674  1.0
  O  O20  1  0.64762170  0.91728112  0.93608326  1.0
  O  O21  1  0.64762170  0.91728112  0.56391674  1.0
  O  O22  1  0.91728112  0.26965942  0.43608326  1.0
  O  O23  1  0.91728112  0.26965942  0.06391674  1.0
  O  O24  1  0.35237830  0.08271888  0.43608326  1.0
  O  O25  1  0.35237830  0.08271888  0.06391674  1.0
  O  O26  1  0.26965942  0.35237830  0.93608326  1.0
  O  O27  1  0.26965942  0.35237830  0.56391674  1.0
  O  O28  1  0.08271888  0.73034058  0.93608326  1.0
  O  O29  1  0.08271888  0.73034058  0.56391674  1.0
  O  O30  1  0.36004139  0.85814562  0.25000000  1.0
  O  O31  1  0.85814562  0.49810423  0.75000000  1.0
  O  O32  1  0.49810423  0.63995861  0.25000000  1.0
  O  O33  1  0.14185438  0.50189577  0.25000000  1.0
  O  O34  1  0.63995861  0.14185438  0.75000000  1.0
  O  O35  1  0.50189577  0.36004139  0.75000000  1.0
  O  O36  1  0.54362015  0.40747634  0.25000000  1.0
  O  O37  1  0.40747634  0.86385619  0.75000000  1.0
  O  O38  1  0.86385619  0.45637985  0.25000000  1.0
  O  O39  1  0.59252366  0.13614381  0.25000000  1.0
  O  O40  1  0.45637985  0.59252366  0.75000000  1.0
  O  O41  1  0.13614381  0.54362015  0.75000000  1.0
