# generated using pymatgen
data_YI3O11
_symmetry_space_group_name_H-M   'P 1'
_cell_length_a   11.06266962
_cell_length_b   7.39102917
_cell_length_c   7.22171912
_cell_angle_alpha   109.09332594
_cell_angle_beta   105.01053694
_cell_angle_gamma   94.57401621
_symmetry_Int_Tables_number   1
_chemical_formula_structural   YI3O11
_chemical_formula_sum   'Y2 I6 O22'
_cell_volume   530.13474154
_cell_formula_units_Z   2
loop_
 _symmetry_equiv_pos_site_id
 _symmetry_equiv_pos_as_xyz
  1  'x, y, z'
loop_
 _atom_site_type_symbol
 _atom_site_label
 _atom_site_symmetry_multiplicity
 _atom_site_fract_x
 _atom_site_fract_y
 _atom_site_fract_z
 _atom_site_occupancy
  Y  Y0  1  -0.70514705  -0.08524106  -0.91416358  1.0
  Y  Y1  1  -0.29485295  -0.91475894  -0.08583642  1.0
  O  O2  1  -0.87692594  -0.89283022  -0.93729151  1.0
  O  O3  1  -0.12307406  -0.10716978  -0.06270849  1.0
  O  O4  1  -0.36737326  -0.64976994  -0.89519053  1.0
  O  O5  1  -0.63262674  -0.35023006  -0.10480947  1.0
  O  O6  1  -0.09762801  -0.70179722  -0.91077055  1.0
  O  O7  1  -0.90237199  -0.29820278  -0.08922945  1.0
  O  O8  1  -0.61035345  -0.76611683  -0.87006930  1.0
  O  O9  1  -0.38964655  -0.23388317  -0.12993070  1.0
  O  O10  1  -0.24822358  -0.94286652  -0.76218298  1.0
  O  O11  1  -0.75177642  -0.05713348  -0.23781702  1.0
  O  O12  1  -0.71945707  -0.97179045  -0.57861265  1.0
  O  O13  1  -0.28054293  -0.02820955  -0.42138735  1.0
  O  O14  1  -0.53690506  -0.61356991  -0.39157938  1.0
  O  O15  1  -0.46309494  -0.38643009  -0.60842062  1.0
  O  O16  1  -0.51172298  -0.97736929  -0.26244891  1.0
  O  O17  1  -0.48827702  -0.02263071  -0.73755109  1.0
  O  O18  1  -0.85583773  -0.80512360  -0.40979239  1.0
  O  O19  1  -0.14416227  -0.19487640  -0.59020761  1.0
  O  O20  1  -0.70855635  -0.28736926  -0.71402081  1.0
  O  O21  1  -0.29144365  -0.71263074  -0.28597919  1.0
  O  O22  1  -0.86855832  -0.58827301  -0.56120713  1.0
  O  O23  1  -0.13144168  -0.41172699  -0.43879287  1.0
  I  I24  1  -0.98270891  -0.81606475  -0.76291591  1.0
  I  I25  1  -0.01729109  -0.18393525  -0.23708409  1.0
  I  I26  1  -0.44243795  -0.65409305  -0.68962826  1.0
  I  I27  1  -0.55756205  -0.34590695  -0.31037174  1.0
  I  I28  1  -0.65971606  -0.85478961  -0.28094598  1.0
  I  I29  1  -0.34028394  -0.14521039  -0.71905402  1.0
