# generated using pymatgen
data_Na2Zn(SnS3)2
_symmetry_space_group_name_H-M   'P 1'
_cell_length_a   12.59475339
_cell_length_b   7.53709070
_cell_length_c   13.70162078
_cell_angle_alpha   65.41970725
_cell_angle_beta   32.97006016
_cell_angle_gamma   81.61023259
_symmetry_Int_Tables_number   1
_chemical_formula_structural   Na2Zn(SnS3)2
_chemical_formula_sum   'Na4 Zn2 Sn4 S12'
_cell_volume   586.99144173
_cell_formula_units_Z   2
loop_
 _symmetry_equiv_pos_site_id
 _symmetry_equiv_pos_as_xyz
  1  'x, y, z'
loop_
 _atom_site_type_symbol
 _atom_site_label
 _atom_site_symmetry_multiplicity
 _atom_site_fract_x
 _atom_site_fract_y
 _atom_site_fract_z
 _atom_site_occupancy
  Na  Na0  1  0.61519532  0.36896639  0.29057808  1.0
  Na  Na1  1  0.95942192  0.52473979  -0.36519532  1.0
  Na  Na2  1  0.36896639  0.61519532  -0.27473979  1.0
  Na  Na3  1  0.52473979  0.95942192  -0.11896639  1.0
  Zn  Zn4  1  0.99799546  -0.00200454  0.00200454  1.0
  Zn  Zn5  1  0.24799546  0.24799546  0.25200454  1.0
  Sn  Sn6  1  0.49312914  -0.03998678  0.28330448  1.0
  Sn  Sn7  1  0.96669552  0.98644684  -0.24312914  1.0
  Sn  Sn8  1  -0.03998678  0.49312914  0.26355316  1.0
  Sn  Sn9  1  0.98644684  0.96669552  -0.71001322  1.0
  S  S10  1  0.14400557  0.21629201  0.70168720  1.0
  S  S11  1  0.54831280  0.31198478  0.10599443  1.0
  S  S12  1  0.21629201  0.14400557  -0.06198478  1.0
  S  S13  1  0.31198478  0.54831280  0.03370799  1.0
  S  S14  1  -0.06196583  0.19554144  0.59607557  1.0
  S  S15  1  0.65392443  -0.02034882  0.31196583  1.0
  S  S16  1  0.19554144  -0.06196583  0.27034882  1.0
  S  S17  1  -0.02034882  0.65392443  0.05445856  1.0
  S  S18  1  0.59024000  0.74578729  0.13863985  1.0
  S  S19  1  1.11136015  0.72466714  -0.34024000  1.0
  S  S20  1  0.74578729  0.59024000  -0.47466714  1.0
  S  S21  1  0.72466714  1.11136015  -0.49578729  1.0
