# generated using pymatgen
data_K2CoH8(CO5)2
_symmetry_space_group_name_H-M   'P 1'
_cell_length_a   6.97468735
_cell_length_b   6.28096743
_cell_length_c   12.38021709
_cell_angle_alpha   90.00000000
_cell_angle_beta   115.00882644
_cell_angle_gamma   90.00000000
_symmetry_Int_Tables_number   1
_chemical_formula_structural   K2CoH8(CO5)2
_chemical_formula_sum   'K4 Co2 H16 C4 O20'
_cell_volume   491.50060119
_cell_formula_units_Z   2
loop_
 _symmetry_equiv_pos_site_id
 _symmetry_equiv_pos_as_xyz
  1  'x, y, z'
loop_
 _atom_site_type_symbol
 _atom_site_label
 _atom_site_symmetry_multiplicity
 _atom_site_fract_x
 _atom_site_fract_y
 _atom_site_fract_z
 _atom_site_occupancy
  K  K0  1  0.76793699  0.84040430  0.18275829  1.0
  K  K1  1  0.76793699  0.65959570  0.68275829  1.0
  K  K2  1  0.23206301  0.34040430  0.31724171  1.0
  K  K3  1  0.23206301  0.15959570  0.81724171  1.0
  Co  Co4  1  0.00000000  0.50000000  0.00000000  1.0
  Co  Co5  1  0.00000000  0.00000000  0.50000000  1.0
  H  H6  1  0.57447813  0.88516764  0.38980019  1.0
  H  H7  1  0.57447813  0.61483236  0.88980019  1.0
  H  H8  1  0.42552187  0.38516764  0.11019981  1.0
  H  H9  1  0.42552187  0.11483236  0.61019981  1.0
  H  H10  1  0.70447574  0.67046610  0.41995529  1.0
  H  H11  1  0.70447574  0.82953390  0.91995529  1.0
  H  H12  1  0.29552426  0.17046610  0.08004471  1.0
  H  H13  1  0.29552426  0.32953390  0.58004471  1.0
  H  H14  1  0.79005282  0.19725618  0.01263139  1.0
  H  H15  1  0.79005282  0.30274382  0.51263139  1.0
  H  H16  1  0.20994718  0.69725618  0.48736861  1.0
  H  H17  1  0.20994718  0.80274382  0.98736861  1.0
  H  H18  1  0.79990200  0.33288478  0.12887307  1.0
  H  H19  1  0.79990200  0.16711522  0.62887307  1.0
  H  H20  1  0.20009800  0.83288478  0.37112693  1.0
  H  H21  1  0.20009800  0.66711522  0.87112693  1.0
  C  C22  1  0.74094439  0.34023061  0.31485322  1.0
  C  C23  1  0.74094439  0.15976939  0.81485322  1.0
  C  C24  1  0.25905561  0.84023061  0.18514678  1.0
  C  C25  1  0.25905561  0.65976939  0.68514678  1.0
  O  O26  1  0.88789896  0.27324129  0.08891920  1.0
  O  O27  1  0.88789896  0.22675871  0.58891920  1.0
  O  O28  1  0.11210104  0.77324129  0.41108080  1.0
  O  O29  1  0.11210104  0.72675871  0.91108080  1.0
  O  O30  1  0.66650671  0.41162882  0.38830693  1.0
  O  O31  1  0.66650671  0.08837118  0.88830693  1.0
  O  O32  1  0.33349329  0.91162882  0.11169307  1.0
  O  O33  1  0.33349329  0.58837118  0.61169307  1.0
  O  O34  1  0.68167855  0.42719076  0.21059227  1.0
  O  O35  1  0.68167855  0.07280924  0.71059227  1.0
  O  O36  1  0.31832145  0.92719076  0.28940773  1.0
  O  O37  1  0.31832145  0.57280924  0.78940773  1.0
  O  O38  1  0.71213875  0.82273253  0.44643838  1.0
  O  O39  1  0.71213875  0.67726747  0.94643838  1.0
  O  O40  1  0.28786125  0.32273253  0.05356162  1.0
  O  O41  1  0.28786125  0.17726747  0.55356162  1.0
  O  O42  1  0.87484228  0.18361786  0.34451447  1.0
  O  O43  1  0.87484228  0.31638214  0.84451447  1.0
  O  O44  1  0.12515772  0.68361786  0.15548553  1.0
  O  O45  1  0.12515772  0.81638214  0.65548553  1.0
