# generated using pymatgen
data_N2
_symmetry_space_group_name_H-M   'P 1'
_cell_length_a   7.92693213
_cell_length_b   7.92693213
_cell_length_c   2.15618455
_cell_angle_alpha   82.24524655
_cell_angle_beta   97.75475345
_cell_angle_gamma   130.87435290
_symmetry_Int_Tables_number   1
_chemical_formula_structural   N2
_chemical_formula_sum   N8
_cell_volume   101.31395755
_cell_formula_units_Z   4
loop_
 _symmetry_equiv_pos_site_id
 _symmetry_equiv_pos_as_xyz
  1  'x, y, z'
loop_
 _atom_site_type_symbol
 _atom_site_label
 _atom_site_symmetry_multiplicity
 _atom_site_fract_x
 _atom_site_fract_y
 _atom_site_fract_z
 _atom_site_occupancy
  N  N0  1  1.19522575  -0.30214168  0.74874914  1.0
  N  N1  1  0.69785832  0.19522575  0.75125086  1.0
  N  N2  1  0.80477425  0.30214168  0.25125086  1.0
  N  N3  1  1.30214168  -0.19522575  0.24874914  1.0
  N  N4  1  1.22340901  -0.72347335  0.97365029  1.0
  N  N5  1  0.27652665  0.22340901  0.52634971  1.0
  N  N6  1  0.77659099  0.72347335  0.02634971  1.0
  N  N7  1  1.72347335  -0.22340901  0.47365029  1.0
