# generated using pymatgen
data_Te2MoCl4O
_symmetry_space_group_name_H-M   'P 1'
_cell_length_a   10.47764917
_cell_length_b   8.00521438
_cell_length_c   16.62630093
_cell_angle_alpha   90.00000000
_cell_angle_beta   130.93772550
_cell_angle_gamma   90.00000000
_symmetry_Int_Tables_number   1
_chemical_formula_structural   Te2MoCl4O
_chemical_formula_sum   'Te8 Mo4 Cl16 O4'
_cell_volume   1053.47006918
_cell_formula_units_Z   4
loop_
 _symmetry_equiv_pos_site_id
 _symmetry_equiv_pos_as_xyz
  1  'x, y, z'
loop_
 _atom_site_type_symbol
 _atom_site_label
 _atom_site_symmetry_multiplicity
 _atom_site_fract_x
 _atom_site_fract_y
 _atom_site_fract_z
 _atom_site_occupancy
  Te  Te0  1  0.55982923  0.42340931  0.13077028  1.0
  Te  Te1  1  0.55982923  0.07659069  0.63077028  1.0
  Te  Te2  1  0.44017077  0.92340931  0.36922972  1.0
  Te  Te3  1  0.44017077  0.57659069  0.86922972  1.0
  Te  Te4  1  0.35564317  0.19474746  0.42574113  1.0
  Te  Te5  1  0.35564317  0.30525254  0.92574113  1.0
  Te  Te6  1  0.64435683  0.69474746  0.07425887  1.0
  Te  Te7  1  0.64435683  0.80525254  0.57425887  1.0
  Mo  Mo8  1  0.90312172  0.14087205  0.05845993  1.0
  Mo  Mo9  1  0.90312172  0.35912795  0.55845993  1.0
  Mo  Mo10  1  0.09687828  0.64087205  0.44154007  1.0
  Mo  Mo11  1  0.09687828  0.85912795  0.94154007  1.0
  Cl  Cl12  1  0.92217287  0.32861707  0.42300799  1.0
  Cl  Cl13  1  0.92217287  0.17138293  0.92300799  1.0
  Cl  Cl14  1  0.07782713  0.82861707  0.07699201  1.0
  Cl  Cl15  1  0.07782713  0.67138293  0.57699201  1.0
  Cl  Cl16  1  0.94031660  0.01152605  0.19879964  1.0
  Cl  Cl17  1  0.94031660  0.48847395  0.69879964  1.0
  Cl  Cl18  1  0.05968340  0.51152605  0.30120036  1.0
  Cl  Cl19  1  0.05968340  0.98847395  0.80120036  1.0
  Cl  Cl20  1  0.80940771  0.73084261  0.31576041  1.0
  Cl  Cl21  1  0.80940771  0.76915739  0.81576041  1.0
  Cl  Cl22  1  0.19059229  0.23084261  0.18423959  1.0
  Cl  Cl23  1  0.19059229  0.26915739  0.68423959  1.0
  Cl  Cl24  1  0.65890872  0.53224051  0.43893524  1.0
  Cl  Cl25  1  0.65890872  -0.03224051  0.93893524  1.0
  Cl  Cl26  1  0.34109128  1.03224051  0.06106476  1.0
  Cl  Cl27  1  0.34109128  0.46775949  0.56106476  1.0
  O  O28  1  0.80603979  0.31838814  0.04250161  1.0
  O  O29  1  0.80603979  0.18161186  0.54250161  1.0
  O  O30  1  0.19396021  0.81838814  0.45749839  1.0
  O  O31  1  0.19396021  0.68161186  0.95749839  1.0
