# generated using pymatgen
data_Sr3Sc2Cu2S2O5
_symmetry_space_group_name_H-M   'P 1'
_cell_length_a   13.39285102
_cell_length_b   13.39285102
_cell_length_c   13.39285102
_cell_angle_alpha   162.42107063
_cell_angle_beta   162.42107063
_cell_angle_gamma   24.95986537
_symmetry_Int_Tables_number   1
_chemical_formula_structural   Sr3Sc2Cu2S2O5
_chemical_formula_sum   'Sr3 Sc2 Cu2 S2 O5'
_cell_volume   219.06069057
_cell_formula_units_Z   1
loop_
 _symmetry_equiv_pos_site_id
 _symmetry_equiv_pos_as_xyz
  1  'x, y, z'
loop_
 _atom_site_type_symbol
 _atom_site_label
 _atom_site_symmetry_multiplicity
 _atom_site_fract_x
 _atom_site_fract_y
 _atom_site_fract_z
 _atom_site_occupancy
  Sr  Sr0  1  0.64463752  0.64463752  1.00000000  1.0
  Sr  Sr1  1  0.35536248  0.35536248  0.00000000  1.0
  Sr  Sr2  1  0.50000000  0.50000000  1.00000000  1.0
  Sc  Sc3  1  0.92375546  0.92375546  1.00000000  1.0
  Sc  Sc4  1  0.07624454  0.07624454  -0.00000000  1.0
  Cu  Cu5  1  0.25000000  0.75000000  0.50000000  1.0
  Cu  Cu6  1  0.75000000  0.25000000  0.50000000  1.0
  S  S7  1  0.80098765  0.80098765  1.00000000  1.0
  S  S8  1  0.19901235  0.19901235  0.00000000  1.0
  O  O9  1  0.41334481  0.91334481  0.50000000  1.0
  O  O10  1  0.58665519  0.08665519  0.50000000  1.0
  O  O11  1  0.91334481  0.41334481  0.50000000  1.0
  O  O12  1  0.08665519  0.58665519  0.50000000  1.0
  O  O13  1  0.00000000  0.00000000  0.00000000  1.0
