# generated using pymatgen
data_TiAs2O9
_symmetry_space_group_name_H-M   'P 1'
_cell_length_a   8.79240606
_cell_length_b   5.15596231
_cell_length_c   15.98288139
_cell_angle_alpha   90.00000000
_cell_angle_beta   108.95497261
_cell_angle_gamma   90.00000000
_symmetry_Int_Tables_number   1
_chemical_formula_structural   TiAs2O9
_chemical_formula_sum   'Ti4 As8 O36'
_cell_volume   685.26725933
_cell_formula_units_Z   4
loop_
 _symmetry_equiv_pos_site_id
 _symmetry_equiv_pos_as_xyz
  1  'x, y, z'
loop_
 _atom_site_type_symbol
 _atom_site_label
 _atom_site_symmetry_multiplicity
 _atom_site_fract_x
 _atom_site_fract_y
 _atom_site_fract_z
 _atom_site_occupancy
  As  As0  1  0.99310431  0.27215813  0.38129614  1.0
  As  As1  1  0.99310431  0.22784187  0.88129614  1.0
  As  As2  1  0.00689569  0.77215813  0.11870386  1.0
  As  As3  1  0.00689569  0.72784187  0.61870386  1.0
  As  As4  1  0.43593028  0.23264020  0.10236947  1.0
  As  As5  1  0.43593028  0.26735980  0.60236947  1.0
  As  As6  1  0.56406972  0.73264020  0.39763053  1.0
  As  As7  1  0.56406972  0.76735980  0.89763053  1.0
  O  O8  1  0.83752564  0.96407030  0.10283767  1.0
  O  O9  1  0.83752564  0.53592970  0.60283767  1.0
  O  O10  1  0.16247436  0.46407030  0.39716233  1.0
  O  O11  1  0.16247436  0.03592970  0.89716233  1.0
  O  O12  1  0.95039857  0.44899183  0.10826335  1.0
  O  O13  1  0.95039857  0.05100817  0.60826335  1.0
  O  O14  1  0.04960143  0.94899183  0.39173665  1.0
  O  O15  1  0.04960143  0.55100817  0.89173665  1.0
  O  O16  1  0.89961721  0.38034545  0.45713356  1.0
  O  O17  1  0.89961721  0.11965455  0.95713356  1.0
  O  O18  1  0.10038279  0.88034545  0.04286644  1.0
  O  O19  1  0.10038279  0.61965455  0.54286644  1.0
  O  O20  1  0.72246574  0.93259380  0.45321306  1.0
  O  O21  1  0.72246574  0.56740620  0.95321306  1.0
  O  O22  1  0.27753426  0.43259380  0.04678694  1.0
  O  O23  1  0.27753426  0.06740620  0.54678694  1.0
  O  O24  1  0.61399024  0.35731853  0.09210996  1.0
  O  O25  1  0.61399024  0.14268147  0.59210996  1.0
  O  O26  1  0.38600976  0.85731853  0.40789004  1.0
  O  O27  1  0.38600976  0.64268147  0.90789004  1.0
  O  O28  1  0.58915937  0.42222229  0.44075966  1.0
  O  O29  1  0.58915937  0.07777771  0.94075966  1.0
  O  O30  1  0.41084063  0.92222229  0.05924034  1.0
  O  O31  1  0.41084063  0.57777771  0.55924034  1.0
  O  O32  1  0.21293976  0.21631145  0.22185338  1.0
  O  O33  1  0.21293976  0.28368855  0.72185338  1.0
  O  O34  1  0.78706024  0.71631145  0.27814662  1.0
  O  O35  1  0.78706024  0.78368855  0.77814662  1.0
  O  O36  1  0.45369905  0.21733738  0.21501732  1.0
  O  O37  1  0.45369905  0.28266262  0.71501732  1.0
  O  O38  1  0.54630095  0.71733738  0.28498268  1.0
  O  O39  1  0.54630095  0.78266262  0.78498268  1.0
  O  O40  1  0.84557107  0.31545196  0.27975650  1.0
  O  O41  1  0.84557107  0.18454804  0.77975650  1.0
  O  O42  1  0.15442893  0.81545196  0.22024350  1.0
  O  O43  1  0.15442893  0.68454804  0.72024350  1.0
  Ti  Ti44  1  0.75729913  0.26505457  0.03176705  1.0
  Ti  Ti45  1  0.75729913  0.23494543  0.53176705  1.0
  Ti  Ti46  1  0.24270087  0.76505457  0.46823295  1.0
  Ti  Ti47  1  0.24270087  0.73494543  0.96823295  1.0
