# generated using pymatgen
data_Sn2PClO4
_symmetry_space_group_name_H-M   'P 1'
_cell_length_a   5.10747492
_cell_length_b   5.10747492
_cell_length_c   13.73605017
_cell_angle_alpha   90.00000000
_cell_angle_beta   90.00000000
_cell_angle_gamma   56.87240980
_symmetry_Int_Tables_number   1
_chemical_formula_structural   Sn2PClO4
_chemical_formula_sum   'Sn4 P2 Cl2 O8'
_cell_volume   300.07939145
_cell_formula_units_Z   2
loop_
 _symmetry_equiv_pos_site_id
 _symmetry_equiv_pos_as_xyz
  1  'x, y, z'
loop_
 _atom_site_type_symbol
 _atom_site_label
 _atom_site_symmetry_multiplicity
 _atom_site_fract_x
 _atom_site_fract_y
 _atom_site_fract_z
 _atom_site_occupancy
  Sn  Sn0  1  0.33632138  0.26515459  0.61305025  1.0
  Sn  Sn1  1  -0.26515459  0.66367862  0.11305025  1.0
  Sn  Sn2  1  -0.26515459  0.66367862  0.38694975  1.0
  Sn  Sn3  1  0.33632138  0.26515459  0.88694975  1.0
  P  P4  1  -0.31249886  0.58010156  0.75000000  1.0
  P  P5  1  -0.58010156  1.31249886  0.25000000  1.0
  Cl  Cl6  1  -0.05572656  0.05572656  0.50000000  1.0
  Cl  Cl7  1  -0.05572656  0.05572656  0.00000000  1.0
  O  O8  1  -0.38307002  0.77345793  0.65565947  1.0
  O  O9  1  0.22654207  0.38307002  0.15565947  1.0
  O  O10  1  0.22654207  0.38307002  0.34434053  1.0
  O  O11  1  -0.38307002  0.77345793  0.84434053  1.0
  O  O12  1  -0.49536468  1.41322584  0.75000000  1.0
  O  O13  1  -0.41322584  0.49536468  0.25000000  1.0
  O  O14  1  0.04675786  0.31339147  0.75000000  1.0
  O  O15  1  -0.31339147  0.95324214  0.25000000  1.0
