# generated using pymatgen
data_YIr3
_symmetry_space_group_name_H-M   'P 1'
_cell_length_a   9.29286398
_cell_length_b   9.29286398
_cell_length_c   9.29286398
_cell_angle_alpha   33.15517763
_cell_angle_beta   33.15517763
_cell_angle_gamma   33.15517763
_symmetry_Int_Tables_number   1
_chemical_formula_structural   YIr3
_chemical_formula_sum   'Y3 Ir9'
_cell_volume   213.66595394
_cell_formula_units_Z   3
loop_
 _symmetry_equiv_pos_site_id
 _symmetry_equiv_pos_as_xyz
  1  'x, y, z'
loop_
 _atom_site_type_symbol
 _atom_site_label
 _atom_site_symmetry_multiplicity
 _atom_site_fract_x
 _atom_site_fract_y
 _atom_site_fract_z
 _atom_site_occupancy
  Y  Y0  1  0.86079933  0.86079933  0.86079933  1.0
  Y  Y1  1  1.13920067  1.13920067  0.13920067  1.0
  Y  Y2  1  0.00000000  0.00000000  0.00000000  1.0
  Ir  Ir3  1  1.41868757  1.41868757  -0.08320479  1.0
  Ir  Ir4  1  1.41868757  0.91679521  0.41868757  1.0
  Ir  Ir5  1  1.08320479  0.58131243  0.58131243  1.0
  Ir  Ir6  1  1.58131243  0.08320479  0.58131243  1.0
  Ir  Ir7  1  1.58131243  0.58131243  0.08320479  1.0
  Ir  Ir8  1  0.91679521  1.41868757  0.41868757  1.0
  Ir  Ir9  1  1.66731819  0.66731819  0.66731819  1.0
  Ir  Ir10  1  1.33268181  0.33268181  0.33268181  1.0
  Ir  Ir11  1  1.50000000  0.50000000  0.50000000  1.0
