# generated using pymatgen
data_K5La4Si4O16F
_symmetry_space_group_name_H-M   'P 1'
_cell_length_a   9.34942209
_cell_length_b   9.34942209
_cell_length_c   9.34942209
_cell_angle_alpha   95.15140573
_cell_angle_beta   95.15140573
_cell_angle_gamma   145.12727870
_symmetry_Int_Tables_number   1
_chemical_formula_structural   K5La4Si4O16F
_chemical_formula_sum   'K5 La4 Si4 O16 F1'
_cell_volume   445.79564830
_cell_formula_units_Z   1
loop_
 _symmetry_equiv_pos_site_id
 _symmetry_equiv_pos_as_xyz
  1  'x, y, z'
loop_
 _atom_site_type_symbol
 _atom_site_label
 _atom_site_symmetry_multiplicity
 _atom_site_fract_x
 _atom_site_fract_y
 _atom_site_fract_z
 _atom_site_occupancy
  K  K0  1  0.89666851  0.59374130  0.49033057  1.0
  K  K1  1  1.59366206  1.10333149  0.69707279  1.0
  K  K2  1  1.10341073  1.40633794  1.50966943  1.0
  K  K3  1  1.40625870  1.89658927  1.30292721  1.0
  K  K4  1  0.00000000  0.00000000  0.00000000  1.0
  La  La5  1  0.39909971  0.33128518  0.69730723  1.0
  La  La6  1  1.29820752  0.60090029  0.93218548  1.0
  La  La7  1  0.63397796  0.70179248  1.30269277  1.0
  La  La8  1  0.66871482  1.36602204  1.06781452  1.0
  Si  Si9  1  1.74387774  1.88533898  1.65006773  1.0
  Si  Si10  1  0.90618999  1.25612226  1.14146124  1.0
  Si  Si11  1  1.23527125  1.09381001  0.34993227  1.0
  Si  Si12  1  1.11466102  0.76472875  0.85853876  1.0
  O  O13  1  0.88042257  1.37186720  1.26093112  1.0
  O  O14  1  0.38050855  0.11957743  0.49144463  1.0
  O  O15  1  1.11093608  0.61949145  0.73906888  1.0
  O  O16  1  0.62813280  0.88906392  1.50855537  1.0
  O  O17  1  0.74126450  0.71664121  0.57330373  1.0
  O  O18  1  0.83203923  0.25873550  0.97537671  1.0
  O  O19  1  1.14333748  1.16796077  1.42669627  1.0
  O  O20  1  0.28335879  0.85666252  1.02462329  1.0
  O  O21  1  1.54697612  1.71789295  1.75780393  1.0
  O  O22  1  1.21082782  1.45302388  1.17091683  1.0
  O  O23  1  0.96008901  0.78917218  0.24219607  1.0
  O  O24  1  1.28210705  1.03991099  0.82908317  1.0
  O  O25  1  0.43464964  0.28907609  0.24936516  1.0
  O  O26  1  0.81471551  0.56535036  0.85442644  1.0
  O  O27  1  1.03971093  1.18528449  1.75063484  1.0
  O  O28  1  0.71092391  0.96028907  1.14557356  1.0
  F  F29  1  0.50000000  0.50000000  -0.00000000  1.0
