# generated using pymatgen
data_SmSiAg
_symmetry_space_group_name_H-M   'P 1'
_cell_length_a   7.16249201
_cell_length_b   7.16249201
_cell_length_c   4.37252559
_cell_angle_alpha   90.00000000
_cell_angle_beta   90.00000000
_cell_angle_gamma   120.00000000
_symmetry_Int_Tables_number   1
_chemical_formula_structural   SmSiAg
_chemical_formula_sum   'Sm3 Si3 Ag3'
_cell_volume   194.26353700
_cell_formula_units_Z   3
loop_
 _symmetry_equiv_pos_site_id
 _symmetry_equiv_pos_as_xyz
  1  'x, y, z'
loop_
 _atom_site_type_symbol
 _atom_site_label
 _atom_site_symmetry_multiplicity
 _atom_site_fract_x
 _atom_site_fract_y
 _atom_site_fract_z
 _atom_site_occupancy
  Ag  Ag0  1  0.75584182  0.75584182  0.50000000  1.0
  Ag  Ag1  1  0.00000000  0.24415818  0.50000000  1.0
  Ag  Ag2  1  0.24415818  0.00000000  0.50000000  1.0
  Si  Si3  1  0.00000000  0.00000000  0.00000000  1.0
  Si  Si4  1  0.33333333  0.66666667  0.50000000  1.0
  Si  Si5  1  0.66666667  0.33333333  0.50000000  1.0
  Sm  Sm6  1  0.42159547  0.42159547  0.00000000  1.0
  Sm  Sm7  1  -0.00000000  0.57840453  0.00000000  1.0
  Sm  Sm8  1  0.57840453  0.00000000  0.00000000  1.0
