# generated using pymatgen
data_CrAsO4
_symmetry_space_group_name_H-M   'P 1'
_cell_length_a   9.12824146
_cell_length_b   6.32133154
_cell_length_c   4.85940275
_cell_angle_alpha   90.00000000
_cell_angle_beta   90.00000000
_cell_angle_gamma   90.00000000
_symmetry_Int_Tables_number   1
_chemical_formula_structural   CrAsO4
_chemical_formula_sum   'Cr4 As4 O16'
_cell_volume   280.40037007
_cell_formula_units_Z   4
loop_
 _symmetry_equiv_pos_site_id
 _symmetry_equiv_pos_as_xyz
  1  'x, y, z'
loop_
 _atom_site_type_symbol
 _atom_site_label
 _atom_site_symmetry_multiplicity
 _atom_site_fract_x
 _atom_site_fract_y
 _atom_site_fract_z
 _atom_site_occupancy
  Cr  Cr0  1  0.00000000  0.50000000  0.00000000  1.0
  Cr  Cr1  1  0.00000000  0.00000000  0.00000000  1.0
  Cr  Cr2  1  0.50000000  0.50000000  0.50000000  1.0
  Cr  Cr3  1  0.50000000  0.00000000  0.50000000  1.0
  As  As4  1  0.68060728  0.25000000  0.02397508  1.0
  As  As5  1  0.18060728  0.25000000  0.47602492  1.0
  As  As6  1  0.31939272  0.75000000  0.97602492  1.0
  As  As7  1  0.81939272  0.75000000  0.52397508  1.0
  O  O8  1  0.62503884  0.48107591  0.17810204  1.0
  O  O9  1  0.62503884  0.01892409  0.17810204  1.0
  O  O10  1  0.12503884  0.48107591  0.32189796  1.0
  O  O11  1  0.12503884  0.01892409  0.32189796  1.0
  O  O12  1  0.37496116  0.98107591  0.82189796  1.0
  O  O13  1  0.37496116  0.51892409  0.82189796  1.0
  O  O14  1  0.87496116  0.98107591  0.67810204  1.0
  O  O15  1  0.87496116  0.51892409  0.67810204  1.0
  O  O16  1  0.87423167  0.25000000  0.09407134  1.0
  O  O17  1  0.37423167  0.25000000  0.40592866  1.0
  O  O18  1  0.12576833  0.75000000  0.90592866  1.0
  O  O19  1  0.62576833  0.75000000  0.59407134  1.0
  O  O20  1  0.61229503  0.25000000  0.67952246  1.0
  O  O21  1  0.11229503  0.25000000  0.82047754  1.0
  O  O22  1  0.38770497  0.75000000  0.32047754  1.0
  O  O23  1  0.88770497  0.75000000  0.17952246  1.0
