# generated using pymatgen
data_Ba2Tl2O5
_symmetry_space_group_name_H-M   'P 1'
_cell_length_a   6.16430989
_cell_length_b   17.35279043
_cell_length_c   6.44423452
_cell_angle_alpha   90.00000000
_cell_angle_beta   90.00000000
_cell_angle_gamma   90.00000000
_symmetry_Int_Tables_number   1
_chemical_formula_structural   Ba2Tl2O5
_chemical_formula_sum   'Ba8 Tl8 O20'
_cell_volume   689.32673434
_cell_formula_units_Z   4
loop_
 _symmetry_equiv_pos_site_id
 _symmetry_equiv_pos_as_xyz
  1  'x, y, z'
loop_
 _atom_site_type_symbol
 _atom_site_label
 _atom_site_symmetry_multiplicity
 _atom_site_fract_x
 _atom_site_fract_y
 _atom_site_fract_z
 _atom_site_occupancy
  Ba  Ba0  1  0.48959341  0.38815045  0.01934482  1.0
  Ba  Ba1  1  0.48959341  0.11184955  0.01934482  1.0
  Ba  Ba2  1  0.98959341  0.38815045  0.48065518  1.0
  Ba  Ba3  1  0.98959341  0.11184955  0.48065518  1.0
  Ba  Ba4  1  0.51040659  0.88815045  0.98065518  1.0
  Ba  Ba5  1  0.51040659  0.61184955  0.98065518  1.0
  Ba  Ba6  1  0.01040659  0.88815045  0.51934482  1.0
  Ba  Ba7  1  0.01040659  0.61184955  0.51934482  1.0
  Tl  Tl8  1  0.47507049  0.25000000  0.55471782  1.0
  Tl  Tl9  1  0.97507049  0.25000000  0.94528218  1.0
  Tl  Tl10  1  0.52492951  0.75000000  0.44528218  1.0
  Tl  Tl11  1  0.02492951  0.75000000  0.05471782  1.0
  Tl  Tl12  1  0.50000000  0.50000000  0.50000000  1.0
  Tl  Tl13  1  0.50000000  0.00000000  0.50000000  1.0
  Tl  Tl14  1  0.00000000  0.50000000  0.00000000  1.0
  Tl  Tl15  1  0.00000000  0.00000000  0.00000000  1.0
  O  O16  1  0.45142888  0.86027150  0.57606404  1.0
  O  O17  1  0.45142888  0.63972850  0.57606404  1.0
  O  O18  1  0.95142888  0.86027150  0.92393596  1.0
  O  O19  1  0.95142888  0.63972850  0.92393596  1.0
  O  O20  1  0.54857112  0.36027150  0.42393596  1.0
  O  O21  1  0.54857112  0.13972850  0.42393596  1.0
  O  O22  1  0.04857112  0.36027150  0.07606404  1.0
  O  O23  1  0.04857112  0.13972850  0.07606404  1.0
  O  O24  1  0.25152723  0.48435945  0.71693248  1.0
  O  O25  1  0.25152723  0.01564055  0.71693248  1.0
  O  O26  1  0.75152723  0.48435945  0.78306752  1.0
  O  O27  1  0.75152723  0.01564055  0.78306752  1.0
  O  O28  1  0.74847277  0.98435945  0.28306752  1.0
  O  O29  1  0.74847277  0.51564055  0.28306752  1.0
  O  O30  1  0.24847277  0.98435945  0.21693248  1.0
  O  O31  1  0.24847277  0.51564055  0.21693248  1.0
  O  O32  1  0.11338060  0.25000000  0.62060122  1.0
  O  O33  1  0.61338060  0.25000000  0.87939878  1.0
  O  O34  1  0.88661940  0.75000000  0.37939878  1.0
  O  O35  1  0.38661940  0.75000000  0.12060122  1.0
