# generated using pymatgen
data_KMoP2O7
_symmetry_space_group_name_H-M   'P 1'
_cell_length_a   7.52271091
_cell_length_b   10.49537212
_cell_length_c   8.49151315
_cell_angle_alpha   90.00000000
_cell_angle_beta   107.27655391
_cell_angle_gamma   90.00000000
_symmetry_Int_Tables_number   1
_chemical_formula_structural   KMoP2O7
_chemical_formula_sum   'K4 Mo4 P8 O28'
_cell_volume   640.18750463
_cell_formula_units_Z   4
loop_
 _symmetry_equiv_pos_site_id
 _symmetry_equiv_pos_as_xyz
  1  'x, y, z'
loop_
 _atom_site_type_symbol
 _atom_site_label
 _atom_site_symmetry_multiplicity
 _atom_site_fract_x
 _atom_site_fract_y
 _atom_site_fract_z
 _atom_site_occupancy
  K  K0  1  0.82426900  0.82504701  0.43856937  1.0
  K  K1  1  0.82426900  0.67495299  0.93856937  1.0
  K  K2  1  0.17573100  0.32504701  0.06143063  1.0
  K  K3  1  0.17573100  0.17495299  0.56143063  1.0
  Mo  Mo4  1  0.76486455  0.39895469  0.24005015  1.0
  Mo  Mo5  1  0.76486455  0.10104531  0.74005015  1.0
  Mo  Mo6  1  0.23513545  0.89895469  0.25994985  1.0
  Mo  Mo7  1  0.23513545  0.60104531  0.75994985  1.0
  P  P8  1  0.86899570  0.09982892  0.17366882  1.0
  P  P9  1  0.86899570  0.40017108  0.67366882  1.0
  P  P10  1  0.13100430  0.59982892  0.32633118  1.0
  P  P11  1  0.13100430  0.90017108  0.82633118  1.0
  P  P12  1  0.55791431  0.13745089  0.30496398  1.0
  P  P13  1  0.55791431  0.36254911  0.80496398  1.0
  P  P14  1  0.44208569  0.63745089  0.19503602  1.0
  P  P15  1  0.44208569  0.86254911  0.69503602  1.0
  O  O16  1  0.00337893  0.49793410  0.21877842  1.0
  O  O17  1  0.00337893  0.00206590  0.71877842  1.0
  O  O18  1  0.99662107  0.99793410  0.28122158  1.0
  O  O19  1  0.99662107  0.50206590  0.78122158  1.0
  O  O20  1  0.92559397  0.23207512  0.25388032  1.0
  O  O21  1  0.92559397  0.26792488  0.75388032  1.0
  O  O22  1  0.07440603  0.73207512  0.24611968  1.0
  O  O23  1  0.07440603  0.76792488  0.74611968  1.0
  O  O24  1  0.86510979  0.40323826  0.49475216  1.0
  O  O25  1  0.86510979  0.09676174  0.99475216  1.0
  O  O26  1  0.13489021  0.90323826  0.00524784  1.0
  O  O27  1  0.13489021  0.59676174  0.50524784  1.0
  O  O28  1  0.68015694  0.10554848  0.47913956  1.0
  O  O29  1  0.68015694  0.39445152  0.97913956  1.0
  O  O30  1  0.31984306  0.60554848  0.02086044  1.0
  O  O31  1  0.31984306  0.89445152  0.52086044  1.0
  O  O32  1  0.66009678  0.06717843  0.18199126  1.0
  O  O33  1  0.66009678  0.43282157  0.68199126  1.0
  O  O34  1  0.33990322  0.56717843  0.31800874  1.0
  O  O35  1  0.33990322  0.93282157  0.81800874  1.0
  O  O36  1  0.54215013  0.28044777  0.25857509  1.0
  O  O37  1  0.54215013  0.21955223  0.75857509  1.0
  O  O38  1  0.45784987  0.78044777  0.24142491  1.0
  O  O39  1  0.45784987  0.71955223  0.74142491  1.0
  O  O40  1  0.36108607  0.08098508  0.25996388  1.0
  O  O41  1  0.36108607  0.41901492  0.75996388  1.0
  O  O42  1  0.63891393  0.58098508  0.24003612  1.0
  O  O43  1  0.63891393  0.91901492  0.74003612  1.0
