# generated using pymatgen
data_Cs2RhF6
_symmetry_space_group_name_H-M   'P 1'
_cell_length_a   6.31148714
_cell_length_b   6.31148714
_cell_length_c   5.22060991
_cell_angle_alpha   90.00000000
_cell_angle_beta   90.00000000
_cell_angle_gamma   120.00000000
_symmetry_Int_Tables_number   1
_chemical_formula_structural   Cs2RhF6
_chemical_formula_sum   'Cs2 Rh1 F6'
_cell_volume   180.10064919
_cell_formula_units_Z   1
loop_
 _symmetry_equiv_pos_site_id
 _symmetry_equiv_pos_as_xyz
  1  'x, y, z'
loop_
 _atom_site_type_symbol
 _atom_site_label
 _atom_site_symmetry_multiplicity
 _atom_site_fract_x
 _atom_site_fract_y
 _atom_site_fract_z
 _atom_site_occupancy
  Cs  Cs0  1  0.33333333  0.66666667  0.29018991  1.0
  Cs  Cs1  1  0.66666667  0.33333333  0.70981009  1.0
  Rh  Rh2  1  0.00000000  0.00000000  -0.00000000  1.0
  F  F3  1  0.29567575  0.14783788  0.20837713  1.0
  F  F4  1  0.14783788  0.29567575  0.79162287  1.0
  F  F5  1  0.14783788  0.85216212  0.79162287  1.0
  F  F6  1  0.85216212  0.14783788  0.20837713  1.0
  F  F7  1  0.85216212  0.70432425  0.20837713  1.0
  F  F8  1  0.70432425  0.85216212  0.79162287  1.0
