# generated using pymatgen
data_Cu3As
_symmetry_space_group_name_H-M   'P 1'
_cell_length_a   7.18378223
_cell_length_b   7.18378223
_cell_length_c   7.49640688
_cell_angle_alpha   90.00000000
_cell_angle_beta   90.00000000
_cell_angle_gamma   120.00000000
_symmetry_Int_Tables_number   1
_chemical_formula_structural   Cu3As
_chemical_formula_sum   'Cu18 As6'
_cell_volume   335.03493901
_cell_formula_units_Z   6
loop_
 _symmetry_equiv_pos_site_id
 _symmetry_equiv_pos_as_xyz
  1  'x, y, z'
loop_
 _atom_site_type_symbol
 _atom_site_label
 _atom_site_symmetry_multiplicity
 _atom_site_fract_x
 _atom_site_fract_y
 _atom_site_fract_z
 _atom_site_occupancy
  Cu  Cu0  1  0.94800883  0.63264182  0.08114602  1.0
  Cu  Cu1  1  0.94800883  0.31536701  0.58114602  1.0
  Cu  Cu2  1  0.63264182  0.94800883  0.41885398  1.0
  Cu  Cu3  1  0.63264182  0.68463299  0.91885398  1.0
  Cu  Cu4  1  0.68463299  0.63264182  0.58114602  1.0
  Cu  Cu5  1  0.68463299  0.05199117  0.08114602  1.0
  Cu  Cu6  1  0.36735818  0.05199117  0.58114602  1.0
  Cu  Cu7  1  0.36735818  0.31536701  0.08114602  1.0
  Cu  Cu8  1  0.05199117  0.68463299  0.41885398  1.0
  Cu  Cu9  1  0.05199117  0.36735818  0.91885398  1.0
  Cu  Cu10  1  0.31536701  0.94800883  0.91885398  1.0
  Cu  Cu11  1  0.31536701  0.36735818  0.41885398  1.0
  Cu  Cu12  1  0.33333333  0.66666667  0.14591901  1.0
  Cu  Cu13  1  0.33333333  0.66666667  0.64591901  1.0
  Cu  Cu14  1  0.66666667  0.33333333  0.35408099  1.0
  Cu  Cu15  1  0.66666667  0.33333333  0.85408099  1.0
  Cu  Cu16  1  0.00000000  0.00000000  0.25000000  1.0
  Cu  Cu17  1  0.00000000  0.00000000  0.75000000  1.0
  As  As18  1  0.66169412  0.66169412  0.25000000  1.0
  As  As19  1  0.66169412  0.00000000  0.75000000  1.0
  As  As20  1  -0.00000000  0.66169412  0.75000000  1.0
  As  As21  1  0.00000000  0.33830588  0.25000000  1.0
  As  As22  1  0.33830588  0.33830588  0.75000000  1.0
  As  As23  1  0.33830588  0.00000000  0.25000000  1.0
