# generated using pymatgen
data_K2Pt(CN)4
_symmetry_space_group_name_H-M   'P 1'
_cell_length_a   9.09484369
_cell_length_b   13.73654931
_cell_length_c   7.45218405
_cell_angle_alpha   90.00000000
_cell_angle_beta   90.00000000
_cell_angle_gamma   90.00000000
_symmetry_Int_Tables_number   1
_chemical_formula_structural   K2Pt(CN)4
_chemical_formula_sum   'K8 Pt4 C16 N16'
_cell_volume   931.01453504
_cell_formula_units_Z   4
loop_
 _symmetry_equiv_pos_site_id
 _symmetry_equiv_pos_as_xyz
  1  'x, y, z'
loop_
 _atom_site_type_symbol
 _atom_site_label
 _atom_site_symmetry_multiplicity
 _atom_site_fract_x
 _atom_site_fract_y
 _atom_site_fract_z
 _atom_site_occupancy
  K  K0  1  0.34936372  0.89827292  0.29702001  1.0
  K  K1  1  0.34936372  0.60172708  0.79702001  1.0
  K  K2  1  0.84936372  0.39827292  0.70297999  1.0
  K  K3  1  0.84936372  0.10172708  0.20297999  1.0
  K  K4  1  0.65063628  0.39827292  0.20297999  1.0
  K  K5  1  0.65063628  0.10172708  0.70297999  1.0
  K  K6  1  0.15063628  0.89827292  0.79702001  1.0
  K  K7  1  0.15063628  0.60172708  0.29702001  1.0
  Pt  Pt8  1  0.25000000  0.25000000  0.07599517  1.0
  Pt  Pt9  1  0.25000000  0.25000000  0.57599517  1.0
  Pt  Pt10  1  0.75000000  0.75000000  0.92400483  1.0
  Pt  Pt11  1  0.75000000  0.75000000  0.42400483  1.0
  C  C12  1  0.46014000  0.21049508  0.06977385  1.0
  C  C13  1  0.46014000  0.28950492  0.56977385  1.0
  C  C14  1  0.96014000  0.71049508  0.93022615  1.0
  C  C15  1  0.96014000  0.78950492  0.43022615  1.0
  C  C16  1  0.53986000  0.71049508  0.43022615  1.0
  C  C17  1  0.53986000  0.78950492  0.93022615  1.0
  C  C18  1  0.03986000  0.21049508  0.56977385  1.0
  C  C19  1  0.03986000  0.28950492  0.06977385  1.0
  C  C20  1  0.30257653  0.39002357  0.08270223  1.0
  C  C21  1  0.30257653  0.10997643  0.58270223  1.0
  C  C22  1  0.80257653  0.89002357  0.91729777  1.0
  C  C23  1  0.80257653  0.60997643  0.41729777  1.0
  C  C24  1  0.69742347  0.89002357  0.41729777  1.0
  C  C25  1  0.69742347  0.60997643  0.91729777  1.0
  C  C26  1  0.19742347  0.39002357  0.58270223  1.0
  C  C27  1  0.19742347  0.10997643  0.08270223  1.0
  N  N28  1  0.33143179  0.47306057  0.09303616  1.0
  N  N29  1  0.33143179  0.02693943  0.59303616  1.0
  N  N30  1  0.83143179  0.97306057  0.90696384  1.0
  N  N31  1  0.83143179  0.52693943  0.40696384  1.0
  N  N32  1  0.66856821  0.97306057  0.40696384  1.0
  N  N33  1  0.66856821  0.52693943  0.90696384  1.0
  N  N34  1  0.16856821  0.47306057  0.59303616  1.0
  N  N35  1  0.16856821  0.02693943  0.09303616  1.0
  N  N36  1  0.91626836  0.31358982  0.06138311  1.0
  N  N37  1  0.91626836  0.18641018  0.56138311  1.0
  N  N38  1  0.41626836  0.81358982  0.93861689  1.0
  N  N39  1  0.41626836  0.68641018  0.43861689  1.0
  N  N40  1  0.08373164  0.81358982  0.43861689  1.0
  N  N41  1  0.08373164  0.68641018  0.93861689  1.0
  N  N42  1  0.58373164  0.31358982  0.56138311  1.0
  N  N43  1  0.58373164  0.18641018  0.06138311  1.0
