# generated using pymatgen
data_HfTaNO3
_symmetry_space_group_name_H-M   'P 1'
_cell_length_a   3.23219372
_cell_length_b   5.57777376
_cell_length_c   6.49788633
_cell_angle_alpha   90.00000000
_cell_angle_beta   90.00000000
_cell_angle_gamma   90.00000000
_symmetry_Int_Tables_number   1
_chemical_formula_structural   HfTaNO3
_chemical_formula_sum   'Hf2 Ta2 N2 O6'
_cell_volume   117.14678870
_cell_formula_units_Z   2
loop_
 _symmetry_equiv_pos_site_id
 _symmetry_equiv_pos_as_xyz
  1  'x, y, z'
loop_
 _atom_site_type_symbol
 _atom_site_label
 _atom_site_symmetry_multiplicity
 _atom_site_fract_x
 _atom_site_fract_y
 _atom_site_fract_z
 _atom_site_occupancy
  Hf  Hf0  1  0.50000000  0.52416221  0.60768408  1.0
  Hf  Hf1  1  0.00000000  0.47583779  0.10768408  1.0
  Ta  Ta2  1  0.50000000  0.98244777  0.87865585  1.0
  Ta  Ta3  1  0.00000000  0.01755223  0.37865585  1.0
  N  N4  1  0.50000000  0.19662637  0.16782903  1.0
  N  N5  1  0.00000000  0.80337363  0.66782903  1.0
  O  O6  1  0.50000000  0.59758460  0.92331150  1.0
  O  O7  1  0.00000000  0.40241540  0.42331150  1.0
  O  O8  1  0.50000000  0.13059946  0.57384347  1.0
  O  O9  1  0.00000000  0.86940054  0.07384347  1.0
  O  O10  1  0.50000000  0.75567283  0.34777608  1.0
  O  O11  1  0.00000000  0.24432717  0.84777608  1.0
