# generated using pymatgen
data_Gd2CCl
_symmetry_space_group_name_H-M   'P 1'
_cell_length_a   7.20563248
_cell_length_b   7.20563248
_cell_length_c   7.20563248
_cell_angle_alpha   29.74295994
_cell_angle_beta   29.74295994
_cell_angle_gamma   29.74295994
_symmetry_Int_Tables_number   1
_chemical_formula_structural   Gd2CCl
_chemical_formula_sum   'Gd2 C1 Cl1'
_cell_volume   81.53310604
_cell_formula_units_Z   1
loop_
 _symmetry_equiv_pos_site_id
 _symmetry_equiv_pos_as_xyz
  1  'x, y, z'
loop_
 _atom_site_type_symbol
 _atom_site_label
 _atom_site_symmetry_multiplicity
 _atom_site_fract_x
 _atom_site_fract_y
 _atom_site_fract_z
 _atom_site_occupancy
  Gd  Gd0  1  0.77009075  0.77009075  0.77009075  1.0
  Gd  Gd1  1  1.22990925  1.22990925  0.22990925  1.0
  C  C2  1  1.50000000  0.50000000  0.50000000  1.0
  Cl  Cl3  1  0.00000000  0.00000000  0.00000000  1.0
