# generated using pymatgen
data_RbC2N3
_symmetry_space_group_name_H-M   'P 1'
_cell_length_a   8.64926891
_cell_length_b   6.81113250
_cell_length_c   7.91261021
_cell_angle_alpha   90.00000000
_cell_angle_beta   90.00000000
_cell_angle_gamma   90.00000000
_symmetry_Int_Tables_number   1
_chemical_formula_structural   RbC2N3
_chemical_formula_sum   'Rb4 C8 N12'
_cell_volume   466.14228497
_cell_formula_units_Z   4
loop_
 _symmetry_equiv_pos_site_id
 _symmetry_equiv_pos_as_xyz
  1  'x, y, z'
loop_
 _atom_site_type_symbol
 _atom_site_label
 _atom_site_symmetry_multiplicity
 _atom_site_fract_x
 _atom_site_fract_y
 _atom_site_fract_z
 _atom_site_occupancy
  Rb  Rb0  1  0.68378802  0.25000000  0.50000000  1.0
  Rb  Rb1  1  0.31621198  0.75000000  0.00000000  1.0
  Rb  Rb2  1  0.31621198  0.75000000  0.50000000  1.0
  Rb  Rb3  1  0.68378802  0.25000000  0.00000000  1.0
  C  C4  1  0.06527658  0.34620215  0.75000000  1.0
  C  C5  1  0.93472342  0.65379785  0.25000000  1.0
  C  C6  1  0.06527658  0.15379785  0.25000000  1.0
  C  C7  1  0.93472342  0.84620215  0.75000000  1.0
  C  C8  1  0.31636484  0.23031267  0.75000000  1.0
  C  C9  1  0.68363516  0.76968733  0.25000000  1.0
  C  C10  1  0.31636484  0.26968733  0.25000000  1.0
  C  C11  1  0.68363516  0.73031267  0.75000000  1.0
  N  N12  1  0.92910092  0.34418083  0.75000000  1.0
  N  N13  1  0.07089908  0.65581917  0.25000000  1.0
  N  N14  1  0.92910092  0.15581917  0.25000000  1.0
  N  N15  1  0.07089908  0.84418083  0.75000000  1.0
  N  N16  1  0.21486596  0.37042326  0.75000000  1.0
  N  N17  1  0.78513404  0.62957674  0.25000000  1.0
  N  N18  1  0.21486596  0.12957674  0.25000000  1.0
  N  N19  1  0.78513404  0.87042326  0.75000000  1.0
  N  N20  1  0.42050599  0.11734501  0.75000000  1.0
  N  N21  1  0.57949401  0.88265499  0.25000000  1.0
  N  N22  1  0.42050599  0.38265499  0.25000000  1.0
  N  N23  1  0.57949401  0.61734501  0.75000000  1.0
