# generated using pymatgen
data_Sr(BH4)2
_symmetry_space_group_name_H-M   'P 1'
_cell_length_a   6.87168144
_cell_length_b   8.59918311
_cell_length_c   7.75650196
_cell_angle_alpha   90.00000000
_cell_angle_beta   90.00000000
_cell_angle_gamma   90.00000000
_symmetry_Int_Tables_number   1
_chemical_formula_structural   Sr(BH4)2
_chemical_formula_sum   'Sr4 B8 H32'
_cell_volume   458.33826991
_cell_formula_units_Z   4
loop_
 _symmetry_equiv_pos_site_id
 _symmetry_equiv_pos_as_xyz
  1  'x, y, z'
loop_
 _atom_site_type_symbol
 _atom_site_label
 _atom_site_symmetry_multiplicity
 _atom_site_fract_x
 _atom_site_fract_y
 _atom_site_fract_z
 _atom_site_occupancy
  Sr  Sr0  1  0.50000000  0.63630752  0.25000000  1.0
  Sr  Sr1  1  0.00000000  0.86369248  0.75000000  1.0
  Sr  Sr2  1  0.50000000  0.36369248  0.75000000  1.0
  Sr  Sr3  1  0.00000000  0.13630752  0.25000000  1.0
  B  B4  1  0.78500258  0.85048693  0.07308827  1.0
  B  B5  1  0.71499742  0.64951307  0.57308827  1.0
  B  B6  1  0.28500258  0.64951307  0.92691173  1.0
  B  B7  1  0.21499742  0.85048693  0.42691173  1.0
  B  B8  1  0.21499742  0.14951307  0.92691173  1.0
  B  B9  1  0.28500258  0.35048693  0.42691173  1.0
  B  B10  1  0.71499742  0.35048693  0.07308827  1.0
  B  B11  1  0.78500258  0.14951307  0.57308827  1.0
  H  H12  1  0.78303996  0.70851006  0.06010471  1.0
  H  H13  1  0.71696004  0.79148994  0.56010471  1.0
  H  H14  1  0.28303996  0.79148994  0.93989529  1.0
  H  H15  1  0.21696004  0.70851006  0.43989529  1.0
  H  H16  1  0.21696004  0.29148994  0.93989529  1.0
  H  H17  1  0.28303996  0.20851006  0.43989529  1.0
  H  H18  1  0.71696004  0.20851006  0.06010471  1.0
  H  H19  1  0.78303996  0.29148994  0.56010471  1.0
  H  H20  1  0.69885685  0.89685749  0.20164447  1.0
  H  H21  1  0.80114315  0.60314251  0.70164447  1.0
  H  H22  1  0.19885685  0.60314251  0.79835553  1.0
  H  H23  1  0.30114315  0.89685749  0.29835553  1.0
  H  H24  1  0.30114315  0.10314251  0.79835553  1.0
  H  H25  1  0.19885685  0.39685749  0.29835553  1.0
  H  H26  1  0.80114315  0.39685749  0.20164447  1.0
  H  H27  1  0.69885685  0.10314251  0.70164447  1.0
  H  H28  1  0.71052280  0.90974477  0.94577661  1.0
  H  H29  1  0.78947720  0.59025523  0.44577661  1.0
  H  H30  1  0.21052280  0.59025523  0.05422339  1.0
  H  H31  1  0.28947720  0.90974477  0.55422339  1.0
  H  H32  1  0.28947720  0.09025523  0.05422339  1.0
  H  H33  1  0.21052280  0.40974477  0.55422339  1.0
  H  H34  1  0.78947720  0.40974477  0.94577661  1.0
  H  H35  1  0.71052280  0.09025523  0.44577661  1.0
  H  H36  1  0.95833353  0.88400508  0.08473811  1.0
  H  H37  1  0.54166647  0.61599492  0.58473811  1.0
  H  H38  1  0.45833353  0.61599492  0.91526189  1.0
  H  H39  1  0.04166647  0.88400508  0.41526189  1.0
  H  H40  1  0.04166647  0.11599492  0.91526189  1.0
  H  H41  1  0.45833353  0.38400508  0.41526189  1.0
  H  H42  1  0.54166647  0.38400508  0.08473811  1.0
  H  H43  1  0.95833353  0.11599492  0.58473811  1.0
