# generated using pymatgen
data_Gd3SiI3
_symmetry_space_group_name_H-M   'P 1'
_cell_length_a   10.61063937
_cell_length_b   10.61063937
_cell_length_c   10.61063937
_cell_angle_alpha   109.47122063
_cell_angle_beta   109.47122063
_cell_angle_gamma   109.47122063
_symmetry_Int_Tables_number   1
_chemical_formula_structural   Gd3SiI3
_chemical_formula_sum   'Gd12 Si4 I12'
_cell_volume   919.60806536
_cell_formula_units_Z   4
loop_
 _symmetry_equiv_pos_site_id
 _symmetry_equiv_pos_as_xyz
  1  'x, y, z'
loop_
 _atom_site_type_symbol
 _atom_site_label
 _atom_site_symmetry_multiplicity
 _atom_site_fract_x
 _atom_site_fract_y
 _atom_site_fract_z
 _atom_site_occupancy
  Gd  Gd0  1  1.75000000  1.23204206  1.26795794  1.0
  Gd  Gd1  1  0.75000000  1.01795794  0.48204206  1.0
  Gd  Gd2  1  1.03591588  0.26795794  1.01795794  1.0
  Gd  Gd3  1  0.46408412  0.48204206  0.23204206  1.0
  Gd  Gd4  1  1.26795794  1.01795794  1.03591588  1.0
  Gd  Gd5  1  1.23204206  1.26795794  0.75000000  1.0
  Gd  Gd6  1  1.01795794  1.03591588  0.26795794  1.0
  Gd  Gd7  1  1.48204206  0.75000000  1.01795794  1.0
  Gd  Gd8  1  1.01795794  1.48204206  0.75000000  1.0
  Gd  Gd9  1  1.48204206  1.23204206  1.46408412  1.0
  Gd  Gd10  1  0.23204206  0.46408412  0.48204206  1.0
  Gd  Gd11  1  1.26795794  0.75000000  1.23204206  1.0
  Si  Si12  1  1.50000000  1.00000000  1.25000000  1.0
  Si  Si13  1  1.00000000  1.25000000  0.50000000  1.0
  Si  Si14  1  0.25000000  0.25000000  0.25000000  1.0
  Si  Si15  1  1.25000000  0.50000000  1.00000000  1.0
  I  I16  1  0.51392129  0.50696064  0.75696064  1.0
  I  I17  1  0.98607871  0.74303936  0.99303936  1.0
  I  I18  1  1.25000000  0.75696064  0.74303936  1.0
  I  I19  1  1.25000000  0.99303936  0.50696064  1.0
  I  I20  1  0.99303936  1.50696064  1.25000000  1.0
  I  I21  1  1.50696064  1.75696064  1.51392129  1.0
  I  I22  1  0.74303936  0.25000000  0.75696064  1.0
  I  I23  1  0.75696064  0.51392129  0.50696064  1.0
  I  I24  1  0.99303936  0.98607871  0.74303936  1.0
  I  I25  1  1.50696064  1.25000000  0.99303936  1.0
  I  I26  1  0.75696064  0.74303936  0.25000000  1.0
  I  I27  1  1.74303936  0.99303936  0.98607871  1.0
