# generated using pymatgen
data_RbMnPO4
_symmetry_space_group_name_H-M   'P 1'
_cell_length_a   9.05952141
_cell_length_b   5.53769519
_cell_length_c   9.30407936
_cell_angle_alpha   90.00000000
_cell_angle_beta   90.51740384
_cell_angle_gamma   90.00000000
_symmetry_Int_Tables_number   1
_chemical_formula_structural   RbMnPO4
_chemical_formula_sum   'Rb4 Mn4 P4 O16'
_cell_volume   466.75609882
_cell_formula_units_Z   4
loop_
 _symmetry_equiv_pos_site_id
 _symmetry_equiv_pos_as_xyz
  1  'x, y, z'
loop_
 _atom_site_type_symbol
 _atom_site_label
 _atom_site_symmetry_multiplicity
 _atom_site_fract_x
 _atom_site_fract_y
 _atom_site_fract_z
 _atom_site_occupancy
  Rb  Rb0  1  0.00751923  0.51232910  0.81002739  1.0
  Rb  Rb1  1  0.99248077  0.01232910  0.18997261  1.0
  Rb  Rb2  1  0.50858428  0.48270444  0.70176840  1.0
  Rb  Rb3  1  0.49141572  0.98270444  0.29823160  1.0
  Mn  Mn4  1  0.17402099  0.51619041  0.41157563  1.0
  Mn  Mn5  1  0.82597901  0.01619041  0.58842437  1.0
  Mn  Mn6  1  0.33346915  0.96631899  0.93012090  1.0
  Mn  Mn7  1  0.66653085  0.46631899  0.06987910  1.0
  P  P8  1  0.19870521  1.01336428  0.59976305  1.0
  P  P9  1  0.80129479  0.51336428  0.40023695  1.0
  P  P10  1  0.70324882  0.99743869  0.92290925  1.0
  P  P11  1  0.29675118  0.49743869  0.07709075  1.0
  O  O12  1  0.03776987  -0.01417636  0.65581545  1.0
  O  O13  1  0.96223013  0.48582364  0.34418455  1.0
  O  O14  1  0.21884789  0.86969313  0.45640846  1.0
  O  O15  1  0.78115211  0.36969313  0.54359154  1.0
  O  O16  1  0.23064558  0.27626518  0.99542590  1.0
  O  O17  1  0.76935442  0.77626518  0.00457410  1.0
  O  O18  1  0.23436677  0.28627890  0.57213231  1.0
  O  O19  1  0.76563323  0.78627890  0.42786769  1.0
  O  O20  1  0.30839877  0.91215572  0.71506170  1.0
  O  O21  1  0.69160123  0.41215572  0.28493830  1.0
  O  O22  1  0.30523046  0.44252948  0.24121931  1.0
  O  O23  1  0.69476954  0.94252948  0.75878069  1.0
  O  O24  1  0.45400547  0.56328004  0.02020145  1.0
  O  O25  1  0.54599453  0.06328004  0.97979855  1.0
  O  O26  1  0.79990198  0.22532800  0.95614814  1.0
  O  O27  1  0.20009802  0.72532800  0.04385186  1.0
