# generated using pymatgen
data_SrSeO4
_symmetry_space_group_name_H-M   'P 1'
_cell_length_a   6.96846936
_cell_length_b   7.47036178
_cell_length_c   8.77141874
_cell_angle_alpha   90.00000000
_cell_angle_beta   126.76405042
_cell_angle_gamma   90.00000000
_symmetry_Int_Tables_number   1
_chemical_formula_structural   SrSeO4
_chemical_formula_sum   'Sr4 Se4 O16'
_cell_volume   365.79640701
_cell_formula_units_Z   4
loop_
 _symmetry_equiv_pos_site_id
 _symmetry_equiv_pos_as_xyz
  1  'x, y, z'
loop_
 _atom_site_type_symbol
 _atom_site_label
 _atom_site_symmetry_multiplicity
 _atom_site_fract_x
 _atom_site_fract_y
 _atom_site_fract_z
 _atom_site_occupancy
  Sr  Sr0  1  0.81397249  0.84607193  0.21889752  1.0
  Sr  Sr1  1  0.81397249  0.65392807  0.71889752  1.0
  Sr  Sr2  1  0.18602751  0.34607193  0.28110248  1.0
  Sr  Sr3  1  0.18602751  0.15392807  0.78110248  1.0
  Se  Se4  1  0.69461537  0.33795141  0.30653996  1.0
  Se  Se5  1  0.69461537  0.16204859  0.80653996  1.0
  Se  Se6  1  0.30538463  0.83795141  0.19346004  1.0
  Se  Se7  1  0.30538463  0.66204859  0.69346004  1.0
  O  O8  1  0.88541520  0.16470939  0.38693160  1.0
  O  O9  1  0.88541520  0.33529061  0.88693160  1.0
  O  O10  1  0.11458480  0.66470939  0.11306840  1.0
  O  O11  1  0.11458480  0.83529061  0.61306840  1.0
  O  O12  1  0.81470498  0.49645584  0.25348060  1.0
  O  O13  1  0.81470498  0.00354416  0.75348060  1.0
  O  O14  1  0.18529502  0.99645584  0.24651940  1.0
  O  O15  1  0.18529502  0.50354416  0.74651940  1.0
  O  O16  1  0.66717304  0.39582675  0.47624397  1.0
  O  O17  1  0.66717304  0.10417325  0.97624397  1.0
  O  O18  1  0.33282696  0.89582675  0.02375603  1.0
  O  O19  1  0.33282696  0.60417325  0.52375603  1.0
  O  O20  1  0.41525111  0.28814306  0.12286394  1.0
  O  O21  1  0.41525111  0.21185694  0.62286394  1.0
  O  O22  1  0.58474889  0.78814306  0.37713606  1.0
  O  O23  1  0.58474889  0.71185694  0.87713606  1.0
