# generated using pymatgen
data_TeO2
_symmetry_space_group_name_H-M   'P 1'
_cell_length_a   5.41476279
_cell_length_b   4.11687020
_cell_length_c   8.19911877
_cell_angle_alpha   90.00000000
_cell_angle_beta   89.99865101
_cell_angle_gamma   90.00000000
_symmetry_Int_Tables_number   1
_chemical_formula_structural   TeO2
_chemical_formula_sum   'Te4 O8'
_cell_volume   182.77373522
_cell_formula_units_Z   4
loop_
 _symmetry_equiv_pos_site_id
 _symmetry_equiv_pos_as_xyz
  1  'x, y, z'
loop_
 _atom_site_type_symbol
 _atom_site_label
 _atom_site_symmetry_multiplicity
 _atom_site_fract_x
 _atom_site_fract_y
 _atom_site_fract_z
 _atom_site_occupancy
  Te  Te0  1  0.28575626  0.25000000  0.10160525  1.0
  Te  Te1  1  0.71424374  0.75000000  0.89839475  1.0
  Te  Te2  1  0.78573636  0.75000000  0.39841045  1.0
  Te  Te3  1  0.21426364  0.25000000  0.60158955  1.0
  O  O4  1  0.59696804  0.25000000  -0.04893955  1.0
  O  O5  1  0.40303196  0.75000000  1.04893955  1.0
  O  O6  1  -0.04144087  0.75000000  0.19322581  1.0
  O  O7  1  1.04144087  0.25000000  0.80677419  1.0
  O  O8  1  0.45859053  0.25000000  0.30678270  1.0
  O  O9  1  0.54140947  0.75000000  0.69321730  1.0
  O  O10  1  0.90305081  0.25000000  0.45104676  1.0
  O  O11  1  0.09694919  0.75000000  0.54895324  1.0
