# generated using pymatgen
data_Ba2La2Mn(WO6)2
_symmetry_space_group_name_H-M   'P 1'
_cell_length_a   9.78823550
_cell_length_b   9.78823550
_cell_length_c   9.78823550
_cell_angle_alpha   34.12801033
_cell_angle_beta   34.12801033
_cell_angle_gamma   34.12801033
_symmetry_Int_Tables_number   1
_chemical_formula_structural   Ba2La2Mn(WO6)2
_chemical_formula_sum   'Ba2 La2 Mn1 W2 O12'
_cell_volume   263.18453090
_cell_formula_units_Z   1
loop_
 _symmetry_equiv_pos_site_id
 _symmetry_equiv_pos_as_xyz
  1  'x, y, z'
loop_
 _atom_site_type_symbol
 _atom_site_label
 _atom_site_symmetry_multiplicity
 _atom_site_fract_x
 _atom_site_fract_y
 _atom_site_fract_z
 _atom_site_occupancy
  Ba  Ba0  1  0.86661573  0.86661573  0.86661573  1.0
  Ba  Ba1  1  1.13338427  1.13338427  0.13338427  1.0
  La  La2  1  0.70499523  0.70499523  0.70499523  1.0
  La  La3  1  1.29500477  1.29500477  0.29500477  1.0
  Mn  Mn4  1  0.00000000  -0.00000000  0.00000000  1.0
  W  W5  1  1.58011223  0.58011223  0.58011223  1.0
  W  W6  1  1.41988777  0.41988777  0.41988777  1.0
  O  O7  1  1.38282802  1.38282802  -0.11838472  1.0
  O  O8  1  1.38282802  0.88161528  0.38282802  1.0
  O  O9  1  1.11838472  0.61717198  0.61717198  1.0
  O  O10  1  1.61717198  0.11838472  0.61717198  1.0
  O  O11  1  1.61717198  0.61717198  0.11838472  1.0
  O  O12  1  0.88161528  1.38282802  0.38282802  1.0
  O  O13  1  1.21859249  0.21859249  0.67727133  1.0
  O  O14  1  1.21859249  0.67727133  0.21859249  1.0
  O  O15  1  1.32272867  0.78140751  0.78140751  1.0
  O  O16  1  1.78140751  0.32272867  0.78140751  1.0
  O  O17  1  1.78140751  0.78140751  0.32272867  1.0
  O  O18  1  1.67727133  0.21859249  0.21859249  1.0
