# generated using pymatgen
data_Y(Zn10Ru)2
_symmetry_space_group_name_H-M   'P 1'
_cell_length_a   10.07096364
_cell_length_b   10.07096364
_cell_length_c   10.07096364
_cell_angle_alpha   60.00000000
_cell_angle_beta   60.00000000
_cell_angle_gamma   60.00000000
_symmetry_Int_Tables_number   1
_chemical_formula_structural   Y(Zn10Ru)2
_chemical_formula_sum   'Y2 Zn40 Ru4'
_cell_volume   722.26752185
_cell_formula_units_Z   2
loop_
 _symmetry_equiv_pos_site_id
 _symmetry_equiv_pos_as_xyz
  1  'x, y, z'
loop_
 _atom_site_type_symbol
 _atom_site_label
 _atom_site_symmetry_multiplicity
 _atom_site_fract_x
 _atom_site_fract_y
 _atom_site_fract_z
 _atom_site_occupancy
  Y  Y0  1  0.50000000  -0.50000000  0.50000000  1.0
  Y  Y1  1  0.75000000  0.75000000  0.75000000  1.0
  Zn  Zn2  1  0.56872404  1.29992940  0.29992940  1.0
  Zn  Zn3  1  0.29992940  1.56872404  -0.16858283  1.0
  Zn  Zn4  1  0.29992940  -0.16858283  0.56872404  1.0
  Zn  Zn5  1  -0.16858283  0.29992940  0.29992940  1.0
  Zn  Zn6  1  0.29992940  1.29992940  0.56872404  1.0
  Zn  Zn7  1  0.56872404  0.83141717  0.29992940  1.0
  Zn  Zn8  1  -0.16858283  1.56872404  0.29992940  1.0
  Zn  Zn9  1  0.29992940  1.29992940  -0.16858283  1.0
  Zn  Zn10  1  0.29992940  1.56872404  0.29992940  1.0
  Zn  Zn11  1  -0.16858283  0.29992940  0.56872404  1.0
  Zn  Zn12  1  0.56872404  1.29992940  -0.16858283  1.0
  Zn  Zn13  1  0.29992940  -0.16858283  0.29992940  1.0
  Zn  Zn14  1  0.68127596  0.95007060  0.95007060  1.0
  Zn  Zn15  1  0.95007060  0.68127596  -0.58141717  1.0
  Zn  Zn16  1  0.95007060  0.41858283  0.68127596  1.0
  Zn  Zn17  1  0.41858283  0.95007060  -0.04992940  1.0
  Zn  Zn18  1  0.95007060  0.95007060  0.68127596  1.0
  Zn  Zn19  1  0.68127596  -0.58141717  0.95007060  1.0
  Zn  Zn20  1  -0.58141717  0.68127596  0.95007060  1.0
  Zn  Zn21  1  0.95007060  0.95007060  -0.58141717  1.0
  Zn  Zn22  1  0.95007060  0.68127596  0.95007060  1.0
  Zn  Zn23  1  0.41858283  0.95007060  -0.31872404  1.0
  Zn  Zn24  1  0.68127596  0.95007060  -0.58141717  1.0
  Zn  Zn25  1  0.95007060  0.41858283  0.95007060  1.0
  Zn  Zn26  1  0.86341270  0.86341270  -0.86341270  1.0
  Zn  Zn27  1  0.13658730  1.13658730  -0.13658730  1.0
  Zn  Zn28  1  0.86341270  -0.86341270  0.86341270  1.0
  Zn  Zn29  1  0.13658730  -0.13658730  0.13658730  1.0
  Zn  Zn30  1  -0.86341270  0.86341270  0.86341270  1.0
  Zn  Zn31  1  -0.13658730  0.13658730  0.13658730  1.0
  Zn  Zn32  1  0.38658730  1.38658730  0.11341270  1.0
  Zn  Zn33  1  0.11341270  0.11341270  0.38658730  1.0
  Zn  Zn34  1  0.38658730  1.11341270  0.38658730  1.0
  Zn  Zn35  1  0.11341270  1.38658730  0.11341270  1.0
  Zn  Zn36  1  0.11341270  1.38658730  0.38658730  1.0
  Zn  Zn37  1  0.38658730  1.11341270  0.11341270  1.0
  Zn  Zn38  1  1.12500000  0.62500000  0.62500000  1.0
  Zn  Zn39  1  0.62500000  1.12500000  -0.37500000  1.0
  Zn  Zn40  1  -0.37500000  0.62500000  1.12500000  1.0
  Zn  Zn41  1  -0.37500000  0.62500000  0.62500000  1.0
  Ru  Ru42  1  0.62500000  1.12500000  0.12500000  1.0
  Ru  Ru43  1  0.12500000  1.62500000  0.12500000  1.0
  Ru  Ru44  1  0.12500000  0.12500000  1.62500000  1.0
  Ru  Ru45  1  0.12500000  0.12500000  0.12500000  1.0
