# generated using pymatgen
data_P2W
_symmetry_space_group_name_H-M   'P 1'
_cell_length_a   4.55332547
_cell_length_b   4.55332547
_cell_length_c   7.50623963
_cell_angle_alpha   62.79190987
_cell_angle_beta   117.20809013
_cell_angle_gamma   138.98571760
_symmetry_Int_Tables_number   1
_chemical_formula_structural   P2W
_chemical_formula_sum   'P4 W2'
_cell_volume   89.13319669
_cell_formula_units_Z   2
loop_
 _symmetry_equiv_pos_site_id
 _symmetry_equiv_pos_as_xyz
  1  'x, y, z'
loop_
 _atom_site_type_symbol
 _atom_site_label
 _atom_site_symmetry_multiplicity
 _atom_site_fract_x
 _atom_site_fract_y
 _atom_site_fract_z
 _atom_site_occupancy
  P  P0  1  0.86155663  -0.86155663  0.47497811  1.0
  P  P1  1  0.13844337  -0.13844337  0.52502189  1.0
  P  P2  1  0.60037886  0.39962114  0.89943030  1.0
  P  P3  1  1.39962114  -0.39962114  0.10056970  1.0
  W  W4  1  0.84224122  0.15775878  0.79354107  1.0
  W  W5  1  1.15775878  -0.15775878  0.20645893  1.0
