# generated using pymatgen
data_Ho(HO)3
_symmetry_space_group_name_H-M   'P 1'
_cell_length_a   6.35337164
_cell_length_b   6.35337164
_cell_length_c   3.54967222
_cell_angle_alpha   90.00000000
_cell_angle_beta   90.00000000
_cell_angle_gamma   120.00000000
_symmetry_Int_Tables_number   1
_chemical_formula_structural   Ho(HO)3
_chemical_formula_sum   'Ho2 H6 O6'
_cell_volume   124.08731951
_cell_formula_units_Z   2
loop_
 _symmetry_equiv_pos_site_id
 _symmetry_equiv_pos_as_xyz
  1  'x, y, z'
loop_
 _atom_site_type_symbol
 _atom_site_label
 _atom_site_symmetry_multiplicity
 _atom_site_fract_x
 _atom_site_fract_y
 _atom_site_fract_z
 _atom_site_occupancy
  Ho  Ho0  1  0.33333333  0.66666667  0.25000000  1.0
  Ho  Ho1  1  0.66666667  0.33333333  0.75000000  1.0
  H  H2  1  0.85891187  0.72054084  0.25000000  1.0
  H  H3  1  0.86162897  0.14108813  0.25000000  1.0
  H  H4  1  0.27945916  0.13837103  0.25000000  1.0
  H  H5  1  0.14108813  0.27945916  0.75000000  1.0
  H  H6  1  0.13837103  0.85891187  0.75000000  1.0
  H  H7  1  0.72054084  0.86162897  0.75000000  1.0
  O  O8  1  0.91402146  0.60274119  0.25000000  1.0
  O  O9  1  0.68871973  0.08597854  0.25000000  1.0
  O  O10  1  0.39725881  0.31128027  0.25000000  1.0
  O  O11  1  0.08597854  0.39725881  0.75000000  1.0
  O  O12  1  0.31128027  0.91402146  0.75000000  1.0
  O  O13  1  0.60274119  0.68871973  0.75000000  1.0
