# generated using pymatgen
data_Li8C3
_symmetry_space_group_name_H-M   'P 1'
_cell_length_a   8.90561364
_cell_length_b   8.90561364
_cell_length_c   8.90561364
_cell_angle_alpha   25.03642434
_cell_angle_beta   25.03642434
_cell_angle_gamma   25.03642434
_symmetry_Int_Tables_number   1
_chemical_formula_structural   Li8C3
_chemical_formula_sum   'Li8 C3'
_cell_volume   111.28923345
_cell_formula_units_Z   1
loop_
 _symmetry_equiv_pos_site_id
 _symmetry_equiv_pos_as_xyz
  1  'x, y, z'
loop_
 _atom_site_type_symbol
 _atom_site_label
 _atom_site_symmetry_multiplicity
 _atom_site_fract_x
 _atom_site_fract_y
 _atom_site_fract_z
 _atom_site_occupancy
  Li  Li0  1  0.68793838  -0.31206162  -0.31206162  1.0
  Li  Li1  1  0.31206162  0.31206162  0.31206162  1.0
  Li  Li2  1  0.58471308  0.58471308  -0.41528692  1.0
  Li  Li3  1  0.41528692  0.41528692  -0.58471308  1.0
  Li  Li4  1  0.10414520  0.10414520  0.10414520  1.0
  Li  Li5  1  0.89585480  -0.10414520  -0.10414520  1.0
  Li  Li6  1  0.81268940  -0.18731060  -0.18731060  1.0
  Li  Li7  1  0.18731060  0.18731060  0.18731060  1.0
  C  C8  1  0.50000000  0.50000000  -0.50000000  1.0
  C  C9  1  0.02614658  0.02614658  0.02614658  1.0
  C  C10  1  0.97385342  -0.02614658  -0.02614658  1.0
