# generated using pymatgen
data_Gd2AlCo2
_symmetry_space_group_name_H-M   'P 1'
_cell_length_a   5.43893363
_cell_length_b   5.43893363
_cell_length_c   5.43893363
_cell_angle_alpha   136.28473029
_cell_angle_beta   119.54043649
_cell_angle_gamma   77.53632039
_symmetry_Int_Tables_number   1
_chemical_formula_structural   Gd2AlCo2
_chemical_formula_sum   'Gd2 Al1 Co2'
_cell_volume   94.05649877
_cell_formula_units_Z   1
loop_
 _symmetry_equiv_pos_site_id
 _symmetry_equiv_pos_as_xyz
  1  'x, y, z'
loop_
 _atom_site_type_symbol
 _atom_site_label
 _atom_site_symmetry_multiplicity
 _atom_site_fract_x
 _atom_site_fract_y
 _atom_site_fract_z
 _atom_site_occupancy
  Gd  Gd0  1  0.70400916  0.20400916  0.50000000  1.0
  Gd  Gd1  1  1.29599084  0.79599084  0.50000000  1.0
  Al  Al2  1  0.00000000  0.00000000  0.00000000  1.0
  Co  Co3  1  0.27726857  0.50000000  0.77726857  1.0
  Co  Co4  1  0.72273143  0.50000000  1.22273143  1.0
