# generated using pymatgen
data_TeCF2
_symmetry_space_group_name_H-M   'P 1'
_cell_length_a   7.29863505
_cell_length_b   12.76075557
_cell_length_c   7.50665687
_cell_angle_alpha   90.00000000
_cell_angle_beta   92.44498481
_cell_angle_gamma   90.00000000
_symmetry_Int_Tables_number   1
_chemical_formula_structural   TeCF2
_chemical_formula_sum   'Te8 C8 F16'
_cell_volume   698.50426258
_cell_formula_units_Z   8
loop_
 _symmetry_equiv_pos_site_id
 _symmetry_equiv_pos_as_xyz
  1  'x, y, z'
loop_
 _atom_site_type_symbol
 _atom_site_label
 _atom_site_symmetry_multiplicity
 _atom_site_fract_x
 _atom_site_fract_y
 _atom_site_fract_z
 _atom_site_occupancy
  Te  Te0  1  0.98384442  0.35126597  0.41158253  1.0
  Te  Te1  1  0.01615558  0.85126597  0.58841747  1.0
  Te  Te2  1  0.74776166  0.48790875  0.72179261  1.0
  Te  Te3  1  0.25223834  -0.01209125  0.27820739  1.0
  Te  Te4  1  0.62863690  0.01355755  0.56693574  1.0
  Te  Te5  1  0.37136310  0.51355755  0.43306426  1.0
  Te  Te6  1  0.60961513  0.37849332  0.12152309  1.0
  Te  Te7  1  0.39038487  0.87849332  0.87847691  1.0
  C  C8  1  0.91375953  0.00333001  0.69706815  1.0
  C  C9  1  0.08624047  0.50333001  0.30293185  1.0
  C  C10  1  0.76217153  0.33683847  0.87512294  1.0
  C  C11  1  0.23782847  0.83683847  0.12487706  1.0
  C  C12  1  0.59660064  0.53007956  0.96905700  1.0
  C  C13  1  0.40339936  0.03007956  0.03094300  1.0
  C  C14  1  0.26922604  0.36152664  0.54147639  1.0
  C  C15  1  0.73077396  0.86152664  0.45852361  1.0
  F  F16  1  0.97972410  0.58654649  0.35149396  1.0
  F  F17  1  0.02027590  0.08654649  0.64850604  1.0
  F  F18  1  0.93861579  0.30537871  0.90995963  1.0
  F  F19  1  0.06138421  0.80537871  0.09004037  1.0
  F  F20  1  0.91699063  0.00423287  0.87848323  1.0
  F  F21  1  0.08300937  0.50423287  0.12151677  1.0
  F  F22  1  0.67966003  0.25588507  0.78147703  1.0
  F  F23  1  0.32033997  0.75588507  0.21852297  1.0
  F  F24  1  0.41932350  0.56139770  0.93374575  1.0
  F  F25  1  0.58067650  0.06139770  0.06625425  1.0
  F  F26  1  0.37513853  0.27787042  0.49248794  1.0
  F  F27  1  0.62486147  0.77787042  0.50751206  1.0
  F  F28  1  0.32144799  0.11079293  0.93834214  1.0
  F  F29  1  0.67855201  0.61079293  0.06165786  1.0
  F  F30  1  0.27296522  0.36039553  0.72285251  1.0
  F  F31  1  0.72703478  0.86039553  0.27714749  1.0
