# generated using pymatgen
data_KPH12PtC2N2(ClO2)2
_symmetry_space_group_name_H-M   'P 1'
_cell_length_a   8.24883170
_cell_length_b   8.81741173
_cell_length_c   8.87857930
_cell_angle_alpha   84.74924712
_cell_angle_beta   70.27026172
_cell_angle_gamma   85.80966158
_symmetry_Int_Tables_number   1
_chemical_formula_structural   KPH12PtC2N2(ClO2)2
_chemical_formula_sum   'K2 P2 H24 Pt2 C4 N4 Cl4 O8'
_cell_volume   604.69541095
_cell_formula_units_Z   2
loop_
 _symmetry_equiv_pos_site_id
 _symmetry_equiv_pos_as_xyz
  1  'x, y, z'
loop_
 _atom_site_type_symbol
 _atom_site_label
 _atom_site_symmetry_multiplicity
 _atom_site_fract_x
 _atom_site_fract_y
 _atom_site_fract_z
 _atom_site_occupancy
  K  K0  1  0.43069997  0.21750837  0.57438762  1.0
  K  K1  1  0.56930003  0.78249163  0.42561238  1.0
  P  P2  1  0.18101420  0.78772638  0.26254865  1.0
  P  P3  1  0.81898580  0.21227362  0.73745135  1.0
  H  H4  1  0.20802490  0.54958367  0.40860390  1.0
  H  H5  1  0.79197510  0.45041633  0.59139610  1.0
  H  H6  1  0.38316176  0.56753519  0.22460633  1.0
  H  H7  1  0.61683824  0.43246481  0.77539367  1.0
  H  H8  1  0.39491219  0.81422627  -0.00382553  1.0
  H  H9  1  0.60508781  0.18577373  1.00382553  1.0
  H  H10  1  0.22932335  0.96148781  0.02814481  1.0
  H  H11  1  0.77067665  0.03851219  0.97185519  1.0
  H  H12  1  0.02511334  0.50348942  0.25196130  1.0
  H  H13  1  0.97488666  0.49651058  0.74803870  1.0
  H  H14  1  0.18652553  0.37466869  0.23229522  1.0
  H  H15  1  0.81347447  0.62533131  0.76770478  1.0
  H  H16  1  0.14016276  0.02746414  0.68085649  1.0
  H  H17  1  0.85983724  0.97253586  0.31914351  1.0
  H  H18  1  0.03425301  0.76738382  0.01493162  1.0
  H  H19  1  0.96574699  0.23261618  0.98506838  1.0
  H  H20  1  0.19489449  0.79931026  0.84512827  1.0
  H  H21  1  0.80510551  0.20068974  0.15487173  1.0
  H  H22  1  0.13974247  0.20220897  0.47204402  1.0
  H  H23  1  0.86025753  0.79779103  0.52795598  1.0
  H  H24  1  0.24964671  0.09982991  0.33561546  1.0
  H  H25  1  0.75035329  0.90017009  0.66438454  1.0
  H  H26  1  0.22458649  0.90423400  0.56026544  1.0
  H  H27  1  0.77541351  0.09576600  0.43973456  1.0
  Pt  Pt28  1  0.21859778  0.51894962  0.95710010  1.0
  Pt  Pt29  1  0.78140222  0.48105038  0.04289990  1.0
  C  C30  1  0.24277062  0.58443783  0.27961218  1.0
  C  C31  1  0.75722938  0.41556217  0.72038782  1.0
  C  C32  1  0.25513667  0.83786523  0.04588171  1.0
  C  C33  1  0.74486333  0.16213477  0.95411829  1.0
  N  N34  1  0.15720331  0.48803923  0.20292240  1.0
  N  N35  1  0.84279669  0.51196077  0.79707760  1.0
  N  N36  1  0.16615659  0.75208711  0.96246186  1.0
  N  N37  1  0.83384341  0.24791289  0.03753814  1.0
  Cl  Cl38  1  0.27475110  0.25619240  0.94937847  1.0
  Cl  Cl39  1  0.72524890  0.74380760  0.05062153  1.0
  Cl  Cl40  1  0.28693935  0.54887259  0.67868593  1.0
  Cl  Cl41  1  0.71306065  0.45112741  0.32131407  1.0
  O  O42  1  0.27840009  0.87665131  0.34198418  1.0
  O  O43  1  0.72159991  0.12334869  0.65801582  1.0
  O  O44  1  0.98348283  0.80327012  0.32250425  1.0
  O  O45  1  0.01651717  0.19672988  0.67749575  1.0
  O  O46  1  0.23499558  0.20537601  0.36747745  1.0
  O  O47  1  0.76500442  0.79462399  0.63252255  1.0
  O  O48  1  0.23104421  0.94384816  0.65855226  1.0
  O  O49  1  0.76895579  0.05615184  0.34144774  1.0
