# generated using pymatgen
data_BaH2
_symmetry_space_group_name_H-M   'P 1'
_cell_length_a   6.83794583
_cell_length_b   4.16254987
_cell_length_c   7.86226859
_cell_angle_alpha   90.00000000
_cell_angle_beta   90.00000000
_cell_angle_gamma   90.00000000
_symmetry_Int_Tables_number   1
_chemical_formula_structural   BaH2
_chemical_formula_sum   'Ba4 H8'
_cell_volume   223.78603523
_cell_formula_units_Z   4
loop_
 _symmetry_equiv_pos_site_id
 _symmetry_equiv_pos_as_xyz
  1  'x, y, z'
loop_
 _atom_site_type_symbol
 _atom_site_label
 _atom_site_symmetry_multiplicity
 _atom_site_fract_x
 _atom_site_fract_y
 _atom_site_fract_z
 _atom_site_occupancy
  Ba  Ba0  1  0.73909852  0.75000000  0.38748673  1.0
  Ba  Ba1  1  0.23909852  0.75000000  0.11251327  1.0
  Ba  Ba2  1  0.26090148  0.25000000  0.61251327  1.0
  Ba  Ba3  1  0.76090148  0.25000000  0.88748673  1.0
  H  H4  1  0.85535685  0.75000000  0.07160284  1.0
  H  H5  1  0.35535685  0.75000000  0.42839716  1.0
  H  H6  1  0.14464315  0.25000000  0.92839716  1.0
  H  H7  1  0.64464315  0.25000000  0.57160284  1.0
  H  H8  1  0.97170719  0.75000000  0.67978295  1.0
  H  H9  1  0.47170719  0.75000000  0.82021705  1.0
  H  H10  1  0.02829281  0.25000000  0.32021705  1.0
  H  H11  1  0.52829281  0.25000000  0.17978295  1.0
