# generated using pymatgen
data_SrLi4N2
_symmetry_space_group_name_H-M   'P 1'
_cell_length_a   13.78614121
_cell_length_b   13.78614121
_cell_length_c   13.78614121
_cell_angle_alpha   164.12865263
_cell_angle_beta   164.12865263
_cell_angle_gamma   22.51843091
_symmetry_Int_Tables_number   1
_chemical_formula_structural   SrLi4N2
_chemical_formula_sum   'Sr2 Li8 N4'
_cell_volume   195.92583114
_cell_formula_units_Z   2
loop_
 _symmetry_equiv_pos_site_id
 _symmetry_equiv_pos_as_xyz
  1  'x, y, z'
loop_
 _atom_site_type_symbol
 _atom_site_label
 _atom_site_symmetry_multiplicity
 _atom_site_fract_x
 _atom_site_fract_y
 _atom_site_fract_z
 _atom_site_occupancy
  Sr  Sr0  1  1.25000000  0.75000000  0.50000000  1.0
  Sr  Sr1  1  0.50000000  0.50000000  1.00000000  1.0
  Li  Li2  1  0.07205714  0.07205714  -0.00000000  1.0
  Li  Li3  1  0.82205714  1.32205714  0.50000000  1.0
  Li  Li4  1  0.67794286  1.17794286  0.50000000  1.0
  Li  Li5  1  0.92794286  0.92794286  0.00000000  1.0
  Li  Li6  1  0.60415795  0.60415795  1.00000000  1.0
  Li  Li7  1  1.35415795  0.85415795  0.50000000  1.0
  Li  Li8  1  1.14584205  0.64584205  0.50000000  1.0
  Li  Li9  1  1.39584205  1.39584205  1.00000000  1.0
  N  N10  1  1.31827616  1.31827616  1.00000000  1.0
  N  N11  1  0.06827616  0.56827616  0.50000000  1.0
  N  N12  1  1.43172384  0.93172384  0.50000000  1.0
  N  N13  1  0.68172384  0.68172384  0.00000000  1.0
