# generated using pymatgen
data_Na3CoO2
_symmetry_space_group_name_H-M   'P 1'
_cell_length_a   9.39897748
_cell_length_b   9.39897748
_cell_length_c   4.71336620
_cell_angle_alpha   90.00000000
_cell_angle_beta   90.00000000
_cell_angle_gamma   90.00000000
_symmetry_Int_Tables_number   1
_chemical_formula_structural   Na3CoO2
_chemical_formula_sum   'Na12 Co4 O8'
_cell_volume   416.38243534
_cell_formula_units_Z   4
loop_
 _symmetry_equiv_pos_site_id
 _symmetry_equiv_pos_as_xyz
  1  'x, y, z'
loop_
 _atom_site_type_symbol
 _atom_site_label
 _atom_site_symmetry_multiplicity
 _atom_site_fract_x
 _atom_site_fract_y
 _atom_site_fract_z
 _atom_site_occupancy
  Na  Na0  1  0.33812110  0.97050081  0.50000000  1.0
  Na  Na1  1  0.83812110  0.52949919  0.00000000  1.0
  Na  Na2  1  0.02949919  0.66187890  0.50000000  1.0
  Na  Na3  1  0.52949919  0.83812110  0.00000000  1.0
  Na  Na4  1  0.66187890  0.02949919  0.50000000  1.0
  Na  Na5  1  0.16187890  0.47050081  0.00000000  1.0
  Na  Na6  1  0.97050081  0.33812110  0.50000000  1.0
  Na  Na7  1  0.47050081  0.16187890  0.00000000  1.0
  Na  Na8  1  0.36366570  0.63633430  0.50000000  1.0
  Na  Na9  1  0.86366570  0.86366570  0.00000000  1.0
  Na  Na10  1  0.63633430  0.36366570  0.50000000  1.0
  Na  Na11  1  0.13633430  0.13633430  0.00000000  1.0
  Co  Co12  1  0.31960918  0.31960918  0.50000000  1.0
  Co  Co13  1  0.81960918  0.18039082  0.00000000  1.0
  Co  Co14  1  0.68039082  0.68039082  0.50000000  1.0
  Co  Co15  1  0.18039082  0.81960918  0.00000000  1.0
  O  O16  1  0.54415625  0.80652834  0.50000000  1.0
  O  O17  1  0.04415625  0.69347166  0.00000000  1.0
  O  O18  1  0.19347166  0.45584375  0.50000000  1.0
  O  O19  1  0.69347166  0.04415625  0.00000000  1.0
  O  O20  1  0.45584375  0.19347166  0.50000000  1.0
  O  O21  1  0.95584375  0.30652834  0.00000000  1.0
  O  O22  1  0.80652834  0.54415625  0.50000000  1.0
  O  O23  1  0.30652834  0.95584375  0.00000000  1.0
