# generated using pymatgen
data_AlClO
_symmetry_space_group_name_H-M   'P 1'
_cell_length_a   3.66683022
_cell_length_b   3.17164130
_cell_length_c   8.74020743
_cell_angle_alpha   90.00000000
_cell_angle_beta   90.00000000
_cell_angle_gamma   90.00000000
_symmetry_Int_Tables_number   1
_chemical_formula_structural   AlClO
_chemical_formula_sum   'Al2 Cl2 O2'
_cell_volume   101.64747786
_cell_formula_units_Z   2
loop_
 _symmetry_equiv_pos_site_id
 _symmetry_equiv_pos_as_xyz
  1  'x, y, z'
loop_
 _atom_site_type_symbol
 _atom_site_label
 _atom_site_symmetry_multiplicity
 _atom_site_fract_x
 _atom_site_fract_y
 _atom_site_fract_z
 _atom_site_occupancy
  Al  Al0  1  0.50000000  0.00000000  0.09510219  1.0
  Al  Al1  1  0.00000000  0.50000000  0.90489781  1.0
  Cl  Cl2  1  0.50000000  0.50000000  0.28819595  1.0
  Cl  Cl3  1  0.00000000  0.00000000  0.71180405  1.0
  O  O4  1  0.50000000  0.50000000  0.95573870  1.0
  O  O5  1  0.00000000  0.00000000  0.04426130  1.0
