# generated using pymatgen
data_SrMnP2O7
_symmetry_space_group_name_H-M   'P 1'
_cell_length_a   5.43266298
_cell_length_b   8.47301033
_cell_length_c   14.04615461
_cell_angle_alpha   90.00000000
_cell_angle_beta   112.37697952
_cell_angle_gamma   90.00000000
_symmetry_Int_Tables_number   1
_chemical_formula_structural   SrMnP2O7
_chemical_formula_sum   'Sr4 Mn4 P8 O28'
_cell_volume   597.87220536
_cell_formula_units_Z   4
loop_
 _symmetry_equiv_pos_site_id
 _symmetry_equiv_pos_as_xyz
  1  'x, y, z'
loop_
 _atom_site_type_symbol
 _atom_site_label
 _atom_site_symmetry_multiplicity
 _atom_site_fract_x
 _atom_site_fract_y
 _atom_site_fract_z
 _atom_site_occupancy
  Sr  Sr0  1  0.98715533  0.16976314  0.27484154  1.0
  Sr  Sr1  1  0.98715533  0.33023686  0.77484154  1.0
  Sr  Sr2  1  0.01284467  0.66976314  0.22515846  1.0
  Sr  Sr3  1  0.01284467  0.83023686  0.72515846  1.0
  Mn  Mn4  1  0.72361075  0.85055870  0.39902117  1.0
  Mn  Mn5  1  0.72361075  0.64944130  0.89902117  1.0
  Mn  Mn6  1  0.27638925  0.35055870  0.10097883  1.0
  Mn  Mn7  1  0.27638925  0.14944130  0.60097883  1.0
  P  P8  1  0.66817233  0.20648125  0.47731697  1.0
  P  P9  1  0.66817233  0.29351875  0.97731697  1.0
  P  P10  1  0.33182767  0.70648125  0.02268303  1.0
  P  P11  1  0.33182767  0.79351875  0.52268303  1.0
  P  P12  1  0.57565005  0.46749642  0.32999938  1.0
  P  P13  1  0.57565005  0.03250358  0.82999938  1.0
  P  P14  1  0.42434995  0.96749642  0.17000062  1.0
  P  P15  1  0.42434995  0.53250358  0.67000062  1.0
  O  O16  1  0.88199324  0.30146084  0.08736631  1.0
  O  O17  1  0.88199324  0.19853916  0.58736631  1.0
  O  O18  1  0.11800676  0.80146084  0.41263369  1.0
  O  O19  1  0.11800676  0.69853916  0.91263369  1.0
  O  O20  1  0.79269938  0.44395649  0.28670893  1.0
  O  O21  1  0.79269938  0.05604351  0.78670893  1.0
  O  O22  1  0.20730062  0.94395649  0.21329107  1.0
  O  O23  1  0.20730062  0.55604351  0.71329107  1.0
  O  O24  1  0.74795976  0.10325644  0.40251900  1.0
  O  O25  1  0.74795976  0.39674356  0.90251900  1.0
  O  O26  1  0.25204024  0.60325644  0.09748100  1.0
  O  O27  1  0.25204024  0.89674356  0.59748100  1.0
  O  O28  1  0.68031363  0.38969635  0.44441878  1.0
  O  O29  1  0.68031363  0.11030365  0.94441878  1.0
  O  O30  1  0.31968637  0.88969635  0.05558122  1.0
  O  O31  1  0.31968637  0.61030365  0.55558122  1.0
  O  O32  1  0.48108541  0.14107236  0.15479737  1.0
  O  O33  1  0.48108541  0.35892764  0.65479737  1.0
  O  O34  1  0.51891459  0.64107236  0.34520263  1.0
  O  O35  1  0.51891459  0.85892764  0.84520263  1.0
  O  O36  1  0.38184754  0.17152344  0.46853009  1.0
  O  O37  1  0.38184754  0.32847656  0.96853009  1.0
  O  O38  1  0.61815246  0.67152344  0.03146991  1.0
  O  O39  1  0.61815246  0.82847656  0.53146991  1.0
  O  O40  1  0.31064705  0.38580033  0.26358032  1.0
  O  O41  1  0.31064705  0.11419967  0.76358032  1.0
  O  O42  1  0.68935295  0.88580033  0.23641968  1.0
  O  O43  1  0.68935295  0.61419967  0.73641968  1.0
