# generated using pymatgen
data_Lu7(TeAu)2
_symmetry_space_group_name_H-M   'P 1'
_cell_length_a   9.07593177
_cell_length_b   9.07593177
_cell_length_c   16.83500774
_cell_angle_alpha   76.01985057
_cell_angle_beta   103.98014943
_cell_angle_gamma   154.62953467
_symmetry_Int_Tables_number   1
_chemical_formula_structural   Lu7(TeAu)2
_chemical_formula_sum   'Lu14 Te4 Au4'
_cell_volume   575.67084565
_cell_formula_units_Z   2
loop_
 _symmetry_equiv_pos_site_id
 _symmetry_equiv_pos_as_xyz
  1  'x, y, z'
loop_
 _atom_site_type_symbol
 _atom_site_label
 _atom_site_symmetry_multiplicity
 _atom_site_fract_x
 _atom_site_fract_y
 _atom_site_fract_z
 _atom_site_occupancy
  Lu  Lu0  1  0.99621743  0.00378257  0.66416765  1.0
  Lu  Lu1  1  0.00378257  -0.00378257  0.33583235  1.0
  Lu  Lu2  1  0.66136275  0.33863725  0.98048520  1.0
  Lu  Lu3  1  0.33863725  -0.33863725  0.01951480  1.0
  Lu  Lu4  1  0.80833364  0.19166636  0.68185763  1.0
  Lu  Lu5  1  0.19166636  -0.19166636  0.31814237  1.0
  Lu  Lu6  1  0.82520167  0.17479833  0.46926116  1.0
  Lu  Lu7  1  0.17479833  -0.17479833  0.53073884  1.0
  Lu  Lu8  1  0.00000000  0.00000000  0.00000000  1.0
  Lu  Lu9  1  0.50000000  0.50000000  0.50000000  1.0
  Lu  Lu10  1  0.21998001  -0.21998001  0.80592039  1.0
  Lu  Lu11  1  0.78001999  0.21998001  0.19407961  1.0
  Lu  Lu12  1  0.42295098  -0.42295098  0.82968612  1.0
  Lu  Lu13  1  0.57704902  0.42295098  0.17031388  1.0
  Te  Te14  1  0.63259487  0.36740513  0.66290110  1.0
  Te  Te15  1  0.36740513  -0.36740513  0.33709890  1.0
  Te  Te16  1  0.93624797  0.06375203  0.15188142  1.0
  Te  Te17  1  0.06375203  -0.06375203  0.84811858  1.0
  Au  Au18  1  0.62170431  0.37829569  0.39929926  1.0
  Au  Au19  1  0.37829569  -0.37829569  0.60070074  1.0
  Au  Au20  1  0.82785925  0.17214075  0.89040621  1.0
  Au  Au21  1  0.17214075  -0.17214075  0.10959379  1.0
