# generated using pymatgen
data_Al4SiC4
_symmetry_space_group_name_H-M   'P 1'
_cell_length_a   3.32898269
_cell_length_b   3.32898269
_cell_length_c   21.93009654
_cell_angle_alpha   90.00000000
_cell_angle_beta   90.00000000
_cell_angle_gamma   120.00000000
_symmetry_Int_Tables_number   1
_chemical_formula_structural   Al4SiC4
_chemical_formula_sum   'Al8 Si2 C8'
_cell_volume   210.47196216
_cell_formula_units_Z   2
loop_
 _symmetry_equiv_pos_site_id
 _symmetry_equiv_pos_as_xyz
  1  'x, y, z'
loop_
 _atom_site_type_symbol
 _atom_site_label
 _atom_site_symmetry_multiplicity
 _atom_site_fract_x
 _atom_site_fract_y
 _atom_site_fract_z
 _atom_site_occupancy
  Al  Al0  1  0.66666667  0.33333333  0.55103051  1.0
  Al  Al1  1  0.33333333  0.66666667  0.05103051  1.0
  Al  Al2  1  0.00000000  0.00000000  0.65743961  1.0
  Al  Al3  1  0.00000000  0.00000000  0.15743961  1.0
  Al  Al4  1  0.66666667  0.33333333  0.74556318  1.0
  Al  Al5  1  0.33333333  0.66666667  0.24556318  1.0
  Al  Al6  1  0.00000000  0.00000000  0.84556407  1.0
  Al  Al7  1  -0.00000000  0.00000000  0.34556407  1.0
  Si  Si8  1  0.66666667  0.33333333  0.95340503  1.0
  Si  Si9  1  0.33333333  0.66666667  0.45340503  1.0
  C  C10  1  0.66666667  0.33333333  0.63657378  1.0
  C  C11  1  0.33333333  0.66666667  0.13657378  1.0
  C  C12  1  -0.00000000  0.00000000  0.49684420  1.0
  C  C13  1  -0.00000000  -0.00000000  -0.00315580  1.0
  C  C14  1  -0.00000000  0.00000000  0.75304235  1.0
  C  C15  1  -0.00000000  0.00000000  0.25304235  1.0
  C  C16  1  0.66666667  0.33333333  0.87353728  1.0
  C  C17  1  0.33333333  0.66666667  0.37353728  1.0
