# generated using pymatgen
data_GdGa3Ni
_symmetry_space_group_name_H-M   'P 1'
_cell_length_a   5.93330181
_cell_length_b   5.93330181
_cell_length_c   5.93330181
_cell_angle_alpha   138.66520203
_cell_angle_beta   138.66520203
_cell_angle_gamma   59.88572303
_symmetry_Int_Tables_number   1
_chemical_formula_structural   GdGa3Ni
_chemical_formula_sum   'Gd1 Ga3 Ni1'
_cell_volume   90.18570019
_cell_formula_units_Z   1
loop_
 _symmetry_equiv_pos_site_id
 _symmetry_equiv_pos_as_xyz
  1  'x, y, z'
loop_
 _atom_site_type_symbol
 _atom_site_label
 _atom_site_symmetry_multiplicity
 _atom_site_fract_x
 _atom_site_fract_y
 _atom_site_fract_z
 _atom_site_occupancy
  Gd  Gd0  1  -0.00254118  -0.00254118  -0.00000000  1.0
  Ga  Ga1  1  0.41047846  0.41047846  0.00000000  1.0
  Ga  Ga2  1  0.24576736  0.74576736  0.50000000  1.0
  Ga  Ga3  1  0.74576736  0.24576736  0.50000000  1.0
  Ni  Ni4  1  0.63552801  0.63552801  1.00000000  1.0
