# generated using pymatgen
data_Ba3(GaN2)2
_symmetry_space_group_name_H-M   'P 1'
_cell_length_a   6.26335303
_cell_length_b   10.61258336
_cell_length_c   10.14074621
_cell_angle_alpha   90.00000000
_cell_angle_beta   90.00000000
_cell_angle_gamma   90.00000000
_symmetry_Int_Tables_number   1
_chemical_formula_structural   Ba3(GaN2)2
_chemical_formula_sum   'Ba12 Ga8 N16'
_cell_volume   674.05901285
_cell_formula_units_Z   4
loop_
 _symmetry_equiv_pos_site_id
 _symmetry_equiv_pos_as_xyz
  1  'x, y, z'
loop_
 _atom_site_type_symbol
 _atom_site_label
 _atom_site_symmetry_multiplicity
 _atom_site_fract_x
 _atom_site_fract_y
 _atom_site_fract_z
 _atom_site_occupancy
  Ba  Ba0  1  0.39145417  0.34531564  0.58807001  1.0
  Ba  Ba1  1  0.39145417  0.15468436  0.91192999  1.0
  Ba  Ba2  1  0.89145417  0.34531564  0.41192999  1.0
  Ba  Ba3  1  0.89145417  0.15468436  0.08807001  1.0
  Ba  Ba4  1  0.60854583  0.84531564  0.08807001  1.0
  Ba  Ba5  1  0.60854583  0.65468436  0.41192999  1.0
  Ba  Ba6  1  0.10854583  0.84531564  0.91192999  1.0
  Ba  Ba7  1  0.10854583  0.65468436  0.58807001  1.0
  Ba  Ba8  1  0.75000000  0.50000000  0.09294485  1.0
  Ba  Ba9  1  0.75000000  0.00000000  0.40705515  1.0
  Ba  Ba10  1  0.25000000  0.50000000  0.90705515  1.0
  Ba  Ba11  1  0.25000000  0.00000000  0.59294485  1.0
  Ga  Ga12  1  0.83617809  0.25000000  0.75000000  1.0
  Ga  Ga13  1  0.33617809  0.25000000  0.25000000  1.0
  Ga  Ga14  1  0.16382191  0.75000000  0.25000000  1.0
  Ga  Ga15  1  0.66382191  0.75000000  0.75000000  1.0
  Ga  Ga16  1  0.75000000  0.50000000  0.76917282  1.0
  Ga  Ga17  1  0.75000000  0.00000000  0.73082718  1.0
  Ga  Ga18  1  0.25000000  0.50000000  0.23082718  1.0
  Ga  Ga19  1  0.25000000  0.00000000  0.26917282  1.0
  N  N20  1  0.97999854  0.40326064  0.67074199  1.0
  N  N21  1  0.97999854  0.09673936  0.82925801  1.0
  N  N22  1  0.47999854  0.40326064  0.32925801  1.0
  N  N23  1  0.47999854  0.09673936  0.17074199  1.0
  N  N24  1  0.02000146  0.90326064  0.17074199  1.0
  N  N25  1  0.02000146  0.59673936  0.32925801  1.0
  N  N26  1  0.52000146  0.90326064  0.82925801  1.0
  N  N27  1  0.52000146  0.59673936  0.67074199  1.0
  N  N28  1  0.63672369  0.14624771  0.62919403  1.0
  N  N29  1  0.63672369  0.35375229  0.87080597  1.0
  N  N30  1  0.13672369  0.14624771  0.37080597  1.0
  N  N31  1  0.13672369  0.35375229  0.12919403  1.0
  N  N32  1  0.36327631  0.64624771  0.12919403  1.0
  N  N33  1  0.36327631  0.85375229  0.37080597  1.0
  N  N34  1  0.86327631  0.64624771  0.87080597  1.0
  N  N35  1  0.86327631  0.85375229  0.62919403  1.0
