# generated using pymatgen
data_Y3(CuSn)4
_symmetry_space_group_name_H-M   'P 1'
_cell_length_a   8.46166702
_cell_length_b   8.46166702
_cell_length_c   8.46166702
_cell_angle_alpha   149.32599026
_cell_angle_beta   131.34051158
_cell_angle_gamma   58.62638813
_symmetry_Int_Tables_number   1
_chemical_formula_structural   Y3(CuSn)4
_chemical_formula_sum   'Y3 Cu4 Sn4'
_cell_volume   230.26379391
_cell_formula_units_Z   1
loop_
 _symmetry_equiv_pos_site_id
 _symmetry_equiv_pos_as_xyz
  1  'x, y, z'
loop_
 _atom_site_type_symbol
 _atom_site_label
 _atom_site_symmetry_multiplicity
 _atom_site_fract_x
 _atom_site_fract_y
 _atom_site_fract_z
 _atom_site_occupancy
  Y  Y0  1  0.63099643  0.13099643  0.50000000  1.0
  Y  Y1  1  0.36900357  0.86900357  0.50000000  1.0
  Y  Y2  1  0.00000000  0.00000000  0.00000000  1.0
  Cu  Cu3  1  0.35786042  0.67044316  0.68741727  1.0
  Cu  Cu4  1  1.01697411  0.32955684  0.68741727  1.0
  Cu  Cu5  1  0.98302589  0.67044316  1.31258273  1.0
  Cu  Cu6  1  0.64213958  0.32955684  0.31258273  1.0
  Sn  Sn7  1  0.78335751  0.78335751  1.00000000  1.0
  Sn  Sn8  1  0.21664249  0.21664249  0.00000000  1.0
  Sn  Sn9  1  0.29700974  0.50000000  0.79700974  1.0
  Sn  Sn10  1  0.70299026  0.50000000  1.20299026  1.0
