# generated using pymatgen
data_Ta4Ag2O11
_symmetry_space_group_name_H-M   'P 1'
_cell_length_a   12.96365629
_cell_length_b   12.96365629
_cell_length_c   12.96365629
_cell_angle_alpha   27.97309564
_cell_angle_beta   27.97309564
_cell_angle_gamma   27.97309564
_symmetry_Int_Tables_number   1
_chemical_formula_structural   Ta4Ag2O11
_chemical_formula_sum   'Ta8 Ag4 O22'
_cell_volume   423.34749510
_cell_formula_units_Z   2
loop_
 _symmetry_equiv_pos_site_id
 _symmetry_equiv_pos_as_xyz
  1  'x, y, z'
loop_
 _atom_site_type_symbol
 _atom_site_label
 _atom_site_symmetry_multiplicity
 _atom_site_fract_x
 _atom_site_fract_y
 _atom_site_fract_z
 _atom_site_occupancy
  Ta  Ta0  1  1.11262583  -0.25000000  0.38737417  1.0
  Ta  Ta1  1  0.61262583  -0.11262583  0.25000000  1.0
  Ta  Ta2  1  0.25000000  0.61262583  -0.11262583  1.0
  Ta  Ta3  1  0.75000000  0.38737417  0.11262583  1.0
  Ta  Ta4  1  0.88737417  0.25000000  -0.38737417  1.0
  Ta  Ta5  1  1.38737417  0.11262583  -0.25000000  1.0
  Ta  Ta6  1  1.00000000  0.00000000  -0.00000000  1.0
  Ta  Ta7  1  0.50000000  0.50000000  0.50000000  1.0
  Ag  Ag8  1  0.83004008  0.83004008  -0.16995992  1.0
  Ag  Ag9  1  0.33004008  0.33004008  0.33004008  1.0
  Ag  Ag10  1  0.66995992  0.66995992  -0.33004008  1.0
  Ag  Ag11  1  0.16995992  0.16995992  0.16995992  1.0
  O  O12  1  0.93393806  0.24454065  -0.27194521  1.0
  O  O13  1  1.43393806  0.22805479  -0.25545935  1.0
  O  O14  1  0.77194521  0.25545935  -0.43393806  1.0
  O  O15  1  1.27194521  0.06606194  -0.24454065  1.0
  O  O16  1  0.75545935  0.27194521  0.06606194  1.0
  O  O17  1  0.25545935  0.56606194  -0.22805479  1.0
  O  O18  1  1.06606194  -0.24454065  0.27194521  1.0
  O  O19  1  0.56606194  0.77194521  -0.74454065  1.0
  O  O20  1  0.72805479  -0.06606194  0.24454065  1.0
  O  O21  1  1.22805479  -0.25545935  0.43393806  1.0
  O  O22  1  0.74454065  0.43393806  0.22805479  1.0
  O  O23  1  1.24454065  -0.27194521  -0.06606194  1.0
  O  O24  1  0.50288292  0.75000000  -0.00288292  1.0
  O  O25  1  1.00288292  -0.50288292  0.25000000  1.0
  O  O26  1  0.25000000  1.00288292  -0.50288292  1.0
  O  O27  1  0.75000000  0.99711708  -0.49711708  1.0
  O  O28  1  0.49711708  0.25000000  0.00288292  1.0
  O  O29  1  0.99711708  0.50288292  -0.25000000  1.0
  O  O30  1  0.90698103  -0.09301897  -0.09301897  1.0
  O  O31  1  0.40698103  0.40698103  0.40698103  1.0
  O  O32  1  0.59301897  0.59301897  -0.40698103  1.0
  O  O33  1  1.09301897  0.09301897  0.09301897  1.0
