# generated using pymatgen
data_Cs3Cr2Cl9
_symmetry_space_group_name_H-M   'P 1'
_cell_length_a   7.43159226
_cell_length_b   7.43159226
_cell_length_c   18.59077581
_cell_angle_alpha   90.00000000
_cell_angle_beta   90.00000000
_cell_angle_gamma   120.00000000
_symmetry_Int_Tables_number   1
_chemical_formula_structural   Cs3Cr2Cl9
_chemical_formula_sum   'Cs6 Cr4 Cl18'
_cell_volume   889.18451859
_cell_formula_units_Z   2
loop_
 _symmetry_equiv_pos_site_id
 _symmetry_equiv_pos_as_xyz
  1  'x, y, z'
loop_
 _atom_site_type_symbol
 _atom_site_label
 _atom_site_symmetry_multiplicity
 _atom_site_fract_x
 _atom_site_fract_y
 _atom_site_fract_z
 _atom_site_occupancy
  Cs  Cs0  1  0.33333333  0.66666667  0.43037139  1.0
  Cs  Cs1  1  0.33333333  0.66666667  0.06962861  1.0
  Cs  Cs2  1  0.66666667  0.33333333  0.93037139  1.0
  Cs  Cs3  1  0.66666667  0.33333333  0.56962861  1.0
  Cs  Cs4  1  0.00000000  0.00000000  0.25000000  1.0
  Cs  Cs5  1  -0.00000000  -0.00000000  0.75000000  1.0
  Cr  Cr6  1  0.33333333  0.66666667  0.83563722  1.0
  Cr  Cr7  1  0.33333333  0.66666667  0.66436278  1.0
  Cr  Cr8  1  0.66666667  0.33333333  0.33563722  1.0
  Cr  Cr9  1  0.66666667  0.33333333  0.16436278  1.0
  Cl  Cl10  1  0.18312372  0.81687628  0.90267154  1.0
  Cl  Cl11  1  0.18312372  0.81687628  0.59732846  1.0
  Cl  Cl12  1  0.18312372  0.36624743  0.90267154  1.0
  Cl  Cl13  1  0.18312372  0.36624743  0.59732846  1.0
  Cl  Cl14  1  0.81687628  0.18312372  0.40267154  1.0
  Cl  Cl15  1  0.81687628  0.18312372  0.09732846  1.0
  Cl  Cl16  1  0.81687628  0.63375257  0.40267154  1.0
  Cl  Cl17  1  0.81687628  0.63375257  0.09732846  1.0
  Cl  Cl18  1  0.63375257  0.81687628  0.90267154  1.0
  Cl  Cl19  1  0.63375257  0.81687628  0.59732846  1.0
  Cl  Cl20  1  0.36624743  0.18312372  0.40267154  1.0
  Cl  Cl21  1  0.36624743  0.18312372  0.09732846  1.0
  Cl  Cl22  1  0.52279809  0.47720191  0.25000000  1.0
  Cl  Cl23  1  0.52279809  0.04559619  0.25000000  1.0
  Cl  Cl24  1  0.47720191  0.52279809  0.75000000  1.0
  Cl  Cl25  1  0.47720191  0.95440381  0.75000000  1.0
  Cl  Cl26  1  0.95440381  0.47720191  0.25000000  1.0
  Cl  Cl27  1  0.04559619  0.52279809  0.75000000  1.0
