# generated using pymatgen
data_ReNCl4
_symmetry_space_group_name_H-M   'P 1'
_cell_length_a   6.79464628
_cell_length_b   6.80111079
_cell_length_c   4.08509658
_cell_angle_alpha   107.49743417
_cell_angle_beta   107.34029100
_cell_angle_gamma   84.94975360
_symmetry_Int_Tables_number   1
_chemical_formula_structural   ReNCl4
_chemical_formula_sum   'Re1 N1 Cl4'
_cell_volume   171.85942244
_cell_formula_units_Z   1
loop_
 _symmetry_equiv_pos_site_id
 _symmetry_equiv_pos_as_xyz
  1  'x, y, z'
loop_
 _atom_site_type_symbol
 _atom_site_label
 _atom_site_symmetry_multiplicity
 _atom_site_fract_x
 _atom_site_fract_y
 _atom_site_fract_z
 _atom_site_occupancy
  Re  Re0  1  0.19620622  0.33147894  -0.66172878  1.0
  N  N1  1  0.19622969  0.33152306  -0.25110976  1.0
  Cl  Cl2  1  0.03484924  0.01970311  0.01502030  1.0
  Cl  Cl3  1  0.35733469  0.64335084  -0.51316449  1.0
  Cl  Cl4  1  0.50776881  0.17072409  -0.67491143  1.0
  Cl  Cl5  1  0.88461136  0.49221996  -0.82310584  1.0
