# generated using pymatgen
data_Gd2Ti3Ge4
_symmetry_space_group_name_H-M   'P 1'
_cell_length_a   7.08388314
_cell_length_b   13.52394293
_cell_length_c   7.20798437
_cell_angle_alpha   90.00000000
_cell_angle_beta   90.00000000
_cell_angle_gamma   90.00000000
_symmetry_Int_Tables_number   1
_chemical_formula_structural   Gd2Ti3Ge4
_chemical_formula_sum   'Gd8 Ti12 Ge16'
_cell_volume   690.53954489
_cell_formula_units_Z   4
loop_
 _symmetry_equiv_pos_site_id
 _symmetry_equiv_pos_as_xyz
  1  'x, y, z'
loop_
 _atom_site_type_symbol
 _atom_site_label
 _atom_site_symmetry_multiplicity
 _atom_site_fract_x
 _atom_site_fract_y
 _atom_site_fract_z
 _atom_site_occupancy
  Ti  Ti0  1  0.15797133  0.37236978  0.66826909  1.0
  Ti  Ti1  1  0.15797133  0.12763022  0.66826909  1.0
  Ti  Ti2  1  0.65797133  0.37236978  0.83173091  1.0
  Ti  Ti3  1  0.65797133  0.12763022  0.83173091  1.0
  Ti  Ti4  1  0.84202867  0.87236978  0.33173091  1.0
  Ti  Ti5  1  0.84202867  0.62763022  0.33173091  1.0
  Ti  Ti6  1  0.34202867  0.87236978  0.16826909  1.0
  Ti  Ti7  1  0.34202867  0.62763022  0.16826909  1.0
  Ti  Ti8  1  0.33081181  0.25000000  -0.00970716  1.0
  Ti  Ti9  1  0.83081181  0.25000000  0.50970716  1.0
  Ti  Ti10  1  0.66918819  0.75000000  1.00970716  1.0
  Ti  Ti11  1  0.16918819  0.75000000  0.49029284  1.0
  Ge  Ge12  1  0.32771041  0.45522873  0.95467411  1.0
  Ge  Ge13  1  0.32771041  0.04477127  0.95467411  1.0
  Ge  Ge14  1  0.82771041  0.45522873  0.54532589  1.0
  Ge  Ge15  1  0.82771041  0.04477127  0.54532589  1.0
  Ge  Ge16  1  0.67228959  0.95522873  0.04532589  1.0
  Ge  Ge17  1  0.67228959  0.54477127  0.04532589  1.0
  Ge  Ge18  1  0.17228959  0.95522873  0.45467411  1.0
  Ge  Ge19  1  0.17228959  0.54477127  0.45467411  1.0
  Ge  Ge20  1  0.45973965  0.25000000  0.63344393  1.0
  Ge  Ge21  1  0.95973965  0.25000000  0.86655607  1.0
  Ge  Ge22  1  0.54026035  0.75000000  0.36655607  1.0
  Ge  Ge23  1  0.04026035  0.75000000  0.13344393  1.0
  Ge  Ge24  1  0.18930836  0.25000000  0.36797254  1.0
  Ge  Ge25  1  0.68930836  0.25000000  0.13202746  1.0
  Ge  Ge26  1  0.81069164  0.75000000  0.63202746  1.0
  Ge  Ge27  1  0.31069164  0.75000000  0.86797254  1.0
  Gd  Gd28  1  0.50442311  0.90488495  0.67217438  1.0
  Gd  Gd29  1  0.50442311  0.59511505  0.67217438  1.0
  Gd  Gd30  1  1.00442311  0.90488495  0.82782562  1.0
  Gd  Gd31  1  1.00442311  0.59511505  0.82782562  1.0
  Gd  Gd32  1  0.49557689  0.40488495  0.32782562  1.0
  Gd  Gd33  1  0.49557689  0.09511505  0.32782562  1.0
  Gd  Gd34  1  -0.00442311  0.40488495  0.17217438  1.0
  Gd  Gd35  1  -0.00442311  0.09511505  0.17217438  1.0
