# generated using pymatgen
data_YVB4
_symmetry_space_group_name_H-M   'P 1'
_cell_length_a   6.00175014
_cell_length_b   11.61628705
_cell_length_c   3.43733639
_cell_angle_alpha   90.00000000
_cell_angle_beta   90.00000000
_cell_angle_gamma   90.00000000
_symmetry_Int_Tables_number   1
_chemical_formula_structural   YVB4
_chemical_formula_sum   'Y4 V4 B16'
_cell_volume   239.64439880
_cell_formula_units_Z   4
loop_
 _symmetry_equiv_pos_site_id
 _symmetry_equiv_pos_as_xyz
  1  'x, y, z'
loop_
 _atom_site_type_symbol
 _atom_site_label
 _atom_site_symmetry_multiplicity
 _atom_site_fract_x
 _atom_site_fract_y
 _atom_site_fract_z
 _atom_site_occupancy
  Y  Y0  1  0.12396212  0.65150003  0.50000000  1.0
  Y  Y1  1  0.62396212  0.84849997  0.50000000  1.0
  Y  Y2  1  0.87603788  0.34849997  0.50000000  1.0
  Y  Y3  1  0.37603788  0.15150003  0.50000000  1.0
  V  V4  1  0.12708480  0.91707514  0.50000000  1.0
  V  V5  1  0.62708480  0.58292486  0.50000000  1.0
  V  V6  1  0.87291520  0.08292486  0.50000000  1.0
  V  V7  1  0.37291520  0.41707514  0.50000000  1.0
  B  B8  1  0.47693848  0.69208751  0.00000000  1.0
  B  B9  1  0.97693848  0.80791249  0.00000000  1.0
  B  B10  1  0.52306152  0.30791249  0.00000000  1.0
  B  B11  1  0.02306152  0.19208751  0.00000000  1.0
  B  B12  1  0.38546216  0.54732645  0.00000000  1.0
  B  B13  1  0.88546216  0.95267355  0.00000000  1.0
  B  B14  1  0.61453784  0.45267355  0.00000000  1.0
  B  B15  1  0.11453784  0.04732645  0.00000000  1.0
  B  B16  1  0.36418539  0.96746653  0.00000000  1.0
  B  B17  1  0.86418539  0.53253347  0.00000000  1.0
  B  B18  1  0.63581461  0.03253347  0.00000000  1.0
  B  B19  1  0.13581461  0.46746653  0.00000000  1.0
  B  B20  1  0.28582367  0.81444289  0.00000000  1.0
  B  B21  1  0.78582367  0.68555711  0.00000000  1.0
  B  B22  1  0.71417633  0.18555711  0.00000000  1.0
  B  B23  1  0.21417633  0.31444289  0.00000000  1.0
