# generated using pymatgen
data_ZnFe2As2(HO5)2
_symmetry_space_group_name_H-M   'P 1'
_cell_length_a   6.79042864
_cell_length_b   7.87510596
_cell_length_c   9.98585039
_cell_angle_alpha   90.00000000
_cell_angle_beta   131.45155735
_cell_angle_gamma   90.00000000
_symmetry_Int_Tables_number   1
_chemical_formula_structural   ZnFe2As2(HO5)2
_chemical_formula_sum   'Zn2 Fe4 As4 H4 O20'
_cell_volume   400.23897494
_cell_formula_units_Z   2
loop_
 _symmetry_equiv_pos_site_id
 _symmetry_equiv_pos_as_xyz
  1  'x, y, z'
loop_
 _atom_site_type_symbol
 _atom_site_label
 _atom_site_symmetry_multiplicity
 _atom_site_fract_x
 _atom_site_fract_y
 _atom_site_fract_z
 _atom_site_occupancy
  Zn  Zn0  1  0.00000000  0.50000000  0.50000000  1.0
  Zn  Zn1  1  0.00000000  0.00000000  0.00000000  1.0
  Fe  Fe2  1  0.45996907  0.35805695  0.23359909  1.0
  Fe  Fe3  1  0.45996907  0.14194305  0.73359909  1.0
  Fe  Fe4  1  0.54003093  0.85805695  0.26640091  1.0
  Fe  Fe5  1  0.54003093  0.64194305  0.76640091  1.0
  As  As6  1  0.88999442  0.37207748  0.13275923  1.0
  As  As7  1  0.88999442  0.12792252  0.63275923  1.0
  As  As8  1  0.11000558  0.87207748  0.36724077  1.0
  As  As9  1  0.11000558  0.62792252  0.86724077  1.0
  H  H10  1  0.37633173  0.12157996  0.03864087  1.0
  H  H11  1  0.37633173  0.37842004  0.53864087  1.0
  H  H12  1  0.62366827  0.62157996  0.46135913  1.0
  H  H13  1  0.62366827  0.87842004  0.96135913  1.0
  O  O14  1  0.79319536  0.38106197  0.25595247  1.0
  O  O15  1  0.79319536  0.11893803  0.75595247  1.0
  O  O16  1  0.20680464  0.88106197  0.24404753  1.0
  O  O17  1  0.20680464  0.61893803  0.74404753  1.0
  O  O18  1  0.76811549  0.86335584  0.21086579  1.0
  O  O19  1  0.76811549  0.63664416  0.71086579  1.0
  O  O20  1  0.23188451  0.36335584  0.28913421  1.0
  O  O21  1  0.23188451  0.13664416  0.78913421  1.0
  O  O22  1  0.77076130  0.18783915  0.00434360  1.0
  O  O23  1  0.77076130  0.31216085  0.50434360  1.0
  O  O24  1  0.22923870  0.68783915  0.49565640  1.0
  O  O25  1  0.22923870  0.81216085  0.99565640  1.0
  O  O26  1  0.37701363  0.11756461  0.13788998  1.0
  O  O27  1  0.37701363  0.38243539  0.63788998  1.0
  O  O28  1  0.62298637  0.61756461  0.36211002  1.0
  O  O29  1  0.62298637  0.88243539  0.86211002  1.0
  O  O30  1  0.21916663  0.05250267  0.49831282  1.0
  O  O31  1  0.21916663  0.44749733  0.99831282  1.0
  O  O32  1  0.78083337  0.55250267  0.00168718  1.0
  O  O33  1  0.78083337  0.94749733  0.50168718  1.0
