# generated using pymatgen
data_Ba3CoIr2O9
_symmetry_space_group_name_H-M   'P 1'
_cell_length_a   5.78067551
_cell_length_b   5.78067551
_cell_length_c   14.34977134
_cell_angle_alpha   90.00000000
_cell_angle_beta   90.00000000
_cell_angle_gamma   120.00000000
_symmetry_Int_Tables_number   1
_chemical_formula_structural   Ba3CoIr2O9
_chemical_formula_sum   'Ba6 Co2 Ir4 O18'
_cell_volume   415.27213934
_cell_formula_units_Z   2
loop_
 _symmetry_equiv_pos_site_id
 _symmetry_equiv_pos_as_xyz
  1  'x, y, z'
loop_
 _atom_site_type_symbol
 _atom_site_label
 _atom_site_symmetry_multiplicity
 _atom_site_fract_x
 _atom_site_fract_y
 _atom_site_fract_z
 _atom_site_occupancy
  O  O0  1  0.51385881  0.48614119  0.25000000  1.0
  O  O1  1  0.51385881  0.02771762  0.25000000  1.0
  O  O2  1  0.48614119  0.51385881  0.75000000  1.0
  O  O3  1  0.48614119  0.97228238  0.75000000  1.0
  O  O4  1  0.97228238  0.48614119  0.25000000  1.0
  O  O5  1  0.02771762  0.51385881  0.75000000  1.0
  O  O6  1  0.16785947  0.83214053  0.91978406  1.0
  O  O7  1  0.16785947  0.83214053  0.58021594  1.0
  O  O8  1  0.16785947  0.33571895  0.91978406  1.0
  O  O9  1  0.16785947  0.33571895  0.58021594  1.0
  O  O10  1  0.83214053  0.16785947  0.41978406  1.0
  O  O11  1  0.83214053  0.16785947  0.08021594  1.0
  O  O12  1  0.83214053  0.66428105  0.41978406  1.0
  O  O13  1  0.83214053  0.66428105  0.08021594  1.0
  O  O14  1  0.66428105  0.83214053  0.91978406  1.0
  O  O15  1  0.66428105  0.83214053  0.58021594  1.0
  O  O16  1  0.33571895  0.16785947  0.41978406  1.0
  O  O17  1  0.33571895  0.16785947  0.08021594  1.0
  Ir  Ir18  1  0.33333333  0.66666667  0.84473078  1.0
  Ir  Ir19  1  0.33333333  0.66666667  0.65526922  1.0
  Ir  Ir20  1  0.66666667  0.33333333  0.34473078  1.0
  Ir  Ir21  1  0.66666667  0.33333333  0.15526922  1.0
  Ba  Ba22  1  0.33333333  0.66666667  0.41440031  1.0
  Ba  Ba23  1  0.33333333  0.66666667  0.08559969  1.0
  Ba  Ba24  1  0.66666667  0.33333333  0.91440031  1.0
  Ba  Ba25  1  0.66666667  0.33333333  0.58559969  1.0
  Ba  Ba26  1  0.00000000  0.00000000  0.25000000  1.0
  Ba  Ba27  1  0.00000000  0.00000000  0.75000000  1.0
  Co  Co28  1  0.00000000  0.00000000  0.50000000  1.0
  Co  Co29  1  0.00000000  0.00000000  0.00000000  1.0
