# generated using pymatgen
data_InP2H5O7
_symmetry_space_group_name_H-M   'P 1'
_cell_length_a   5.57653992
_cell_length_b   5.57653992
_cell_length_c   13.33094068
_cell_angle_alpha   90.00000000
_cell_angle_beta   90.00000000
_cell_angle_gamma   120.00000000
_symmetry_Int_Tables_number   1
_chemical_formula_structural   InP2H5O7
_chemical_formula_sum   'In2 P4 H10 O14'
_cell_volume   359.02199716
_cell_formula_units_Z   2
loop_
 _symmetry_equiv_pos_site_id
 _symmetry_equiv_pos_as_xyz
  1  'x, y, z'
loop_
 _atom_site_type_symbol
 _atom_site_label
 _atom_site_symmetry_multiplicity
 _atom_site_fract_x
 _atom_site_fract_y
 _atom_site_fract_z
 _atom_site_occupancy
  In  In0  1  0.33333333  0.66666667  0.06427851  1.0
  In  In1  1  0.66666667  0.33333333  0.56427851  1.0
  P  P2  1  0.33333333  0.66666667  0.68379702  1.0
  P  P3  1  0.66666667  0.33333333  0.18379702  1.0
  P  P4  1  -0.00000000  0.00000000  0.00011298  1.0
  P  P5  1  -0.00000000  -0.00000000  0.50011298  1.0
  H  H6  1  0.53009870  0.76504935  0.40769778  1.0
  H  H7  1  0.76504935  0.53009870  0.90769778  1.0
  H  H8  1  0.76504935  0.23495065  0.90769778  1.0
  H  H9  1  0.23495065  0.76504935  0.40769778  1.0
  H  H10  1  0.23495065  0.46990130  0.40769778  1.0
  H  H11  1  0.46990130  0.23495065  0.90769778  1.0
  H  H12  1  0.33333333  0.66666667  0.78943811  1.0
  H  H13  1  0.66666667  0.33333333  0.28943811  1.0
  H  H14  1  0.00000000  0.00000000  0.10553048  1.0
  H  H15  1  -0.00000000  -0.00000000  0.60553048  1.0
  O  O16  1  0.97253659  0.48626829  0.15270894  1.0
  O  O17  1  0.48626829  0.97253659  0.65270894  1.0
  O  O18  1  0.48626829  0.51373171  0.65270894  1.0
  O  O19  1  0.51373171  0.48626829  0.15270894  1.0
  O  O20  1  0.51373171  0.02746341  0.15270894  1.0
  O  O21  1  0.02746341  0.51373171  0.65270894  1.0
  O  O22  1  0.30379972  0.15189986  0.46112029  1.0
  O  O23  1  0.15189986  0.30379972  0.96112029  1.0
  O  O24  1  0.15189986  0.84810014  0.96112029  1.0
  O  O25  1  0.84810014  0.15189986  0.46112029  1.0
  O  O26  1  0.84810014  0.69620028  0.46112029  1.0
  O  O27  1  0.69620028  0.84810014  0.96112029  1.0
  O  O28  1  0.33333333  0.66666667  0.38396190  1.0
  O  O29  1  0.66666667  0.33333333  0.88396190  1.0
