# generated using pymatgen
data_MgCdH4(N2O5)2
_symmetry_space_group_name_H-M   'P 1'
_cell_length_a   6.85449457
_cell_length_b   6.85449457
_cell_length_c   12.19930047
_cell_angle_alpha   88.71262515
_cell_angle_beta   91.28737485
_cell_angle_gamma   119.05802979
_symmetry_Int_Tables_number   1
_chemical_formula_structural   MgCdH4(N2O5)2
_chemical_formula_sum   'Mg2 Cd2 H8 N8 O20'
_cell_volume   500.85654048
_cell_formula_units_Z   2
loop_
 _symmetry_equiv_pos_site_id
 _symmetry_equiv_pos_as_xyz
  1  'x, y, z'
loop_
 _atom_site_type_symbol
 _atom_site_label
 _atom_site_symmetry_multiplicity
 _atom_site_fract_x
 _atom_site_fract_y
 _atom_site_fract_z
 _atom_site_occupancy
  Mg  Mg0  1  1.50000000  -0.00000000  0.50000000  1.0
  Mg  Mg1  1  1.00000000  -0.50000000  -0.00000000  1.0
  Cd  Cd2  1  0.98694781  -0.01305219  0.25000000  1.0
  Cd  Cd3  1  1.01305219  0.01305219  0.75000000  1.0
  H  H4  1  0.41625760  -0.22195797  0.07095591  1.0
  H  H5  1  1.22195797  0.58374240  0.57095591  1.0
  H  H6  1  0.77804203  -0.58374240  0.42904409  1.0
  H  H7  1  1.58374240  0.22195797  0.92904409  1.0
  H  H8  1  1.56971576  0.22525938  0.05621074  1.0
  H  H9  1  0.77474062  -0.56971576  0.55621074  1.0
  H  H10  1  1.22525938  0.56971576  0.44378926  1.0
  H  H11  1  0.43028424  -0.22525938  0.94378926  1.0
  N  N12  1  0.51025018  -0.12991166  0.27214264  1.0
  N  N13  1  1.12991166  0.48974982  0.77214264  1.0
  N  N14  1  0.87008834  -0.48974982  0.22785736  1.0
  N  N15  1  1.48974982  0.12991166  0.72785736  1.0
  N  N16  1  1.29125482  0.26237336  0.42498701  1.0
  N  N17  1  0.73762664  -0.29125482  0.92498701  1.0
  N  N18  1  1.26237336  0.29125482  0.07501299  1.0
  N  N19  1  0.70874518  -0.26237336  0.57501299  1.0
  O  O20  1  0.60396364  -0.14835138  0.18867724  1.0
  O  O21  1  1.14835138  0.39603636  0.68867724  1.0
  O  O22  1  0.85164862  -0.39603636  0.31132276  1.0
  O  O23  1  1.39603636  0.14835138  0.81132276  1.0
  O  O24  1  0.64169563  -0.04658146  0.35374352  1.0
  O  O25  1  1.04658146  0.35830437  0.85374352  1.0
  O  O26  1  0.95341854  -0.35830437  0.14625648  1.0
  O  O27  1  1.35830437  0.04658146  0.64625648  1.0
  O  O28  1  1.67548809  0.25388994  0.99675208  1.0
  O  O29  1  0.74611006  -0.67548809  0.49675208  1.0
  O  O30  1  1.25388994  0.67548809  0.50324792  1.0
  O  O31  1  0.32451191  -0.25388994  0.00324792  1.0
  O  O32  1  1.27390020  0.07385018  0.40257541  1.0
  O  O33  1  0.92614982  -0.27390020  0.90257541  1.0
  O  O34  1  1.07385018  0.27390020  0.09742459  1.0
  O  O35  1  0.72609980  -0.07385018  0.59742459  1.0
  O  O36  1  1.31285226  0.16919103  0.13351332  1.0
  O  O37  1  0.83080897  -0.31285226  0.63351332  1.0
  O  O38  1  1.16919103  0.31285226  0.36648668  1.0
  O  O39  1  0.68714774  -0.16919103  0.86648668  1.0
