# generated using pymatgen
data_Re4Si7
_symmetry_space_group_name_H-M   'P 1'
_cell_length_a   11.73957002
_cell_length_b   11.73957002
_cell_length_c   8.33856994
_cell_angle_alpha   87.22959999
_cell_angle_beta   92.77040001
_cell_angle_gamma   164.54585631
_symmetry_Int_Tables_number   1
_chemical_formula_structural   Re4Si7
_chemical_formula_sum   'Re8 Si14'
_cell_volume   305.85968347
_cell_formula_units_Z   2
loop_
 _symmetry_equiv_pos_site_id
 _symmetry_equiv_pos_as_xyz
  1  'x, y, z'
loop_
 _atom_site_type_symbol
 _atom_site_label
 _atom_site_symmetry_multiplicity
 _atom_site_fract_x
 _atom_site_fract_y
 _atom_site_fract_z
 _atom_site_occupancy
  Re  Re0  1  0.91334605  0.08665395  0.41589340  1.0
  Re  Re1  1  0.79721925  0.20278075  0.55624601  1.0
  Re  Re2  1  0.66761695  0.33238305  0.67059355  1.0
  Re  Re3  1  0.54312579  0.45687421  0.81327538  1.0
  Re  Re4  1  0.41923126  -0.41923126  0.92583983  1.0
  Re  Re5  1  0.29404858  -0.29404858  0.03492945  1.0
  Re  Re6  1  0.16837334  -0.16837334  0.16363581  1.0
  Re  Re7  1  0.04278360  -0.04278360  0.29689236  1.0
  Si  Si8  1  0.00033019  -0.00033019  0.00684411  1.0
  Si  Si9  1  0.97131707  0.02868293  0.68105471  1.0
  Si  Si10  1  0.87484923  0.12515077  0.13109528  1.0
  Si  Si11  1  0.83520237  0.16479763  0.84053539  1.0
  Si  Si12  1  0.72178260  0.27821740  0.34787902  1.0
  Si  Si13  1  0.71267287  0.28732713  0.97129557  1.0
  Si  Si14  1  0.58669718  0.41330282  0.10249810  1.0
  Si  Si15  1  0.55782312  0.44217688  0.52732164  1.0
  Si  Si16  1  0.46069595  -0.46069595  0.23328625  1.0
  Si  Si17  1  0.37975691  -0.37975691  0.63012158  1.0
  Si  Si18  1  0.32711016  -0.32711016  0.33537824  1.0
  Si  Si19  1  0.24973238  -0.24973238  0.74109101  1.0
  Si  Si20  1  0.13960620  -0.13960620  0.44822812  1.0
  Si  Si21  1  0.12567895  -0.12567895  0.86906519  1.0
