# generated using pymatgen
data_Sr2GeSe4
_symmetry_space_group_name_H-M   'P 1'
_cell_length_a   6.54216977
_cell_length_b   6.54216977
_cell_length_c   10.43957927
_cell_angle_alpha   90.00000000
_cell_angle_beta   90.00000000
_cell_angle_gamma   69.89281476
_symmetry_Int_Tables_number   1
_chemical_formula_structural   Sr2GeSe4
_chemical_formula_sum   'Sr4 Ge2 Se8'
_cell_volume   419.58104912
_cell_formula_units_Z   2
loop_
 _symmetry_equiv_pos_site_id
 _symmetry_equiv_pos_as_xyz
  1  'x, y, z'
loop_
 _atom_site_type_symbol
 _atom_site_label
 _atom_site_symmetry_multiplicity
 _atom_site_fract_x
 _atom_site_fract_y
 _atom_site_fract_z
 _atom_site_occupancy
  Sr  Sr0  1  -0.63367989  1.25509912  0.25000000  1.0
  Sr  Sr1  1  -0.25509912  1.63367989  0.75000000  1.0
  Sr  Sr2  1  -0.00021064  0.00021064  0.50000000  1.0
  Sr  Sr3  1  -0.00021064  0.00021064  0.00000000  1.0
  Ge  Ge4  1  -0.23634052  1.68915360  0.25000000  1.0
  Ge  Ge5  1  -0.68915360  1.23634052  0.75000000  1.0
  Se  Se6  1  0.13296577  0.42343986  0.93794627  1.0
  Se  Se7  1  0.57656014  0.86703423  0.43794627  1.0
  Se  Se8  1  0.57656014  0.86703423  0.06205373  1.0
  Se  Se9  1  0.13296577  0.42343986  0.56205373  1.0
  Se  Se10  1  0.11330637  0.73641898  0.25000000  1.0
  Se  Se11  1  0.26358102  0.88669363  0.75000000  1.0
  Se  Se12  1  -0.15933851  1.30210627  0.25000000  1.0
  Se  Se13  1  -0.30210627  1.15933851  0.75000000  1.0
