# generated using pymatgen
data_Cs2Ni3S4
_symmetry_space_group_name_H-M   'P 1'
_cell_length_a   9.16241360
_cell_length_b   8.20251145
_cell_length_c   5.86957867
_cell_angle_alpha   79.35729249
_cell_angle_beta   61.62245753
_cell_angle_gamma   39.02024998
_symmetry_Int_Tables_number   1
_chemical_formula_structural   Cs2Ni3S4
_chemical_formula_sum   'Cs2 Ni3 S4'
_cell_volume   230.39437673
_cell_formula_units_Z   1
loop_
 _symmetry_equiv_pos_site_id
 _symmetry_equiv_pos_as_xyz
  1  'x, y, z'
loop_
 _atom_site_type_symbol
 _atom_site_label
 _atom_site_symmetry_multiplicity
 _atom_site_fract_x
 _atom_site_fract_y
 _atom_site_fract_z
 _atom_site_occupancy
  Cs  Cs0  1  -0.34173336  0.65826664  0.34173336  1.0
  Cs  Cs1  1  0.34173336  0.34173336  -0.34173336  1.0
  Ni  Ni2  1  -0.00000000  0.00000000  1.50000000  1.0
  Ni  Ni3  1  -0.50000000  0.50000000  1.00000000  1.0
  Ni  Ni4  1  0.00000000  0.00000000  0.00000000  1.0
  S  S5  1  0.73927389  0.07484534  -0.07484534  1.0
  S  S6  1  -0.07484534  0.26072611  0.73927389  1.0
  S  S7  1  1.07484534  -0.26072611  0.26072611  1.0
  S  S8  1  0.26072611  -0.07484534  1.07484534  1.0
