# generated using pymatgen
data_K3LiP2O7
_symmetry_space_group_name_H-M   'P 1'
_cell_length_a   5.64286775
_cell_length_b   5.64286775
_cell_length_c   13.52042052
_cell_angle_alpha   90.00000000
_cell_angle_beta   90.00000000
_cell_angle_gamma   114.21632857
_symmetry_Int_Tables_number   1
_chemical_formula_structural   K3LiP2O7
_chemical_formula_sum   'K6 Li2 P4 O14'
_cell_volume   392.63257844
_cell_formula_units_Z   2
loop_
 _symmetry_equiv_pos_site_id
 _symmetry_equiv_pos_as_xyz
  1  'x, y, z'
loop_
 _atom_site_type_symbol
 _atom_site_label
 _atom_site_symmetry_multiplicity
 _atom_site_fract_x
 _atom_site_fract_y
 _atom_site_fract_z
 _atom_site_occupancy
  K  K0  1  0.13681865  0.13681865  0.00000000  1.0
  K  K1  1  0.86318135  0.86318135  0.50000000  1.0
  K  K2  1  -0.22164589  1.46134480  0.12259986  1.0
  K  K3  1  0.46134480  0.77835411  0.87740014  1.0
  K  K4  1  0.22164589  0.53865520  0.62259986  1.0
  K  K5  1  -0.46134480  1.22164589  0.37740014  1.0
  Li  Li6  1  0.01459311  0.98540689  0.25000000  1.0
  Li  Li7  1  -0.01459311  1.01459311  0.75000000  1.0
  P  P8  1  0.44469332  0.82394330  0.15567538  1.0
  P  P9  1  -0.17605670  1.44469332  0.84432462  1.0
  P  P10  1  -0.44469332  1.17605670  0.65567538  1.0
  P  P11  1  0.17605670  0.55530668  0.34432462  1.0
  O  O12  1  -0.65636188  1.03231311  0.18157207  1.0
  O  O13  1  0.03231311  0.34363812  0.81842793  1.0
  O  O14  1  0.65636188  0.96768689  0.68157207  1.0
  O  O15  1  -0.03231311  1.65636188  0.31842793  1.0
  O  O16  1  0.74444989  0.93851468  0.14818161  1.0
  O  O17  1  -0.06148532  1.74444989  0.85181839  1.0
  O  O18  1  -0.74444989  1.06148532  0.64818161  1.0
  O  O19  1  0.06148532  0.25555011  0.35181839  1.0
  O  O20  1  0.30631818  0.65596287  0.06646467  1.0
  O  O21  1  -0.34403713  1.30631818  0.93353533  1.0
  O  O22  1  -0.30631818  1.34403713  0.56646467  1.0
  O  O23  1  0.34403713  0.69368182  0.43353533  1.0
  O  O24  1  0.37994384  0.62005616  0.25000000  1.0
  O  O25  1  -0.37994384  1.37994384  0.75000000  1.0
