# generated using pymatgen
data_Ti5NiSb3
_symmetry_space_group_name_H-M   'P 1'
_cell_length_a   8.18643523
_cell_length_b   8.18643523
_cell_length_c   5.45126803
_cell_angle_alpha   90.00000000
_cell_angle_beta   90.00000000
_cell_angle_gamma   120.00000000
_symmetry_Int_Tables_number   1
_chemical_formula_structural   Ti5NiSb3
_chemical_formula_sum   'Ti10 Ni2 Sb6'
_cell_volume   316.38641590
_cell_formula_units_Z   2
loop_
 _symmetry_equiv_pos_site_id
 _symmetry_equiv_pos_as_xyz
  1  'x, y, z'
loop_
 _atom_site_type_symbol
 _atom_site_label
 _atom_site_symmetry_multiplicity
 _atom_site_fract_x
 _atom_site_fract_y
 _atom_site_fract_z
 _atom_site_occupancy
  Ti  Ti0  1  0.73911008  0.73911008  0.25000000  1.0
  Ti  Ti1  1  0.73911008  0.00000000  0.75000000  1.0
  Ti  Ti2  1  -0.00000000  0.73911008  0.75000000  1.0
  Ti  Ti3  1  -0.00000000  0.26088992  0.25000000  1.0
  Ti  Ti4  1  0.26088992  0.26088992  0.75000000  1.0
  Ti  Ti5  1  0.26088992  0.00000000  0.25000000  1.0
  Ti  Ti6  1  0.33333333  0.66666667  0.50000000  1.0
  Ti  Ti7  1  0.33333333  0.66666667  0.00000000  1.0
  Ti  Ti8  1  0.66666667  0.33333333  0.50000000  1.0
  Ti  Ti9  1  0.66666667  0.33333333  0.00000000  1.0
  Ni  Ni10  1  0.00000000  0.00000000  0.50000000  1.0
  Ni  Ni11  1  0.00000000  0.00000000  0.00000000  1.0
  Sb  Sb12  1  0.38543456  0.38543456  0.25000000  1.0
  Sb  Sb13  1  0.38543456  0.00000000  0.75000000  1.0
  Sb  Sb14  1  -0.00000000  0.38543456  0.75000000  1.0
  Sb  Sb15  1  0.00000000  0.61456544  0.25000000  1.0
  Sb  Sb16  1  0.61456544  0.61456544  0.75000000  1.0
  Sb  Sb17  1  0.61456544  0.00000000  0.25000000  1.0
