# generated using pymatgen
data_Pb2O3
_symmetry_space_group_name_H-M   'P 1'
_cell_length_a   4.86196185
_cell_length_b   4.86383174
_cell_length_c   6.91207924
_cell_angle_alpha   90.00000000
_cell_angle_beta   90.02458620
_cell_angle_gamma   90.00000000
_symmetry_Int_Tables_number   1
_chemical_formula_structural   Pb2O3
_chemical_formula_sum   'Pb4 O6'
_cell_volume   163.45520602
_cell_formula_units_Z   2
loop_
 _symmetry_equiv_pos_site_id
 _symmetry_equiv_pos_as_xyz
  1  'x, y, z'
loop_
 _atom_site_type_symbol
 _atom_site_label
 _atom_site_symmetry_multiplicity
 _atom_site_fract_x
 _atom_site_fract_y
 _atom_site_fract_z
 _atom_site_occupancy
  Pb  Pb0  1  0.75001610  0.75000000  0.50021475  1.0
  Pb  Pb1  1  0.24998390  0.25000000  0.49978525  1.0
  Pb  Pb2  1  0.24985770  0.75000000  0.09586483  1.0
  Pb  Pb3  1  0.75014230  0.25000000  0.90413517  1.0
  O  O4  1  0.74983810  0.75000000  0.20477105  1.0
  O  O5  1  0.25016190  0.25000000  0.79522895  1.0
  O  O6  1  0.75033989  0.75000000  0.79566259  1.0
  O  O7  1  0.24966011  0.25000000  0.20433741  1.0
  O  O8  1  0.25006368  0.75000000  0.46080514  1.0
  O  O9  1  0.74993632  0.25000000  0.53919486  1.0
