# generated using pymatgen
data_Cs2NaAs7
_symmetry_space_group_name_H-M   'P 1'
_cell_length_a   12.15551497
_cell_length_b   11.16983902
_cell_length_c   10.35920565
_cell_angle_alpha   90.00000000
_cell_angle_beta   90.42531851
_cell_angle_gamma   90.00000000
_symmetry_Int_Tables_number   1
_chemical_formula_structural   Cs2NaAs7
_chemical_formula_sum   'Cs8 Na4 As28'
_cell_volume   1406.48390057
_cell_formula_units_Z   4
loop_
 _symmetry_equiv_pos_site_id
 _symmetry_equiv_pos_as_xyz
  1  'x, y, z'
loop_
 _atom_site_type_symbol
 _atom_site_label
 _atom_site_symmetry_multiplicity
 _atom_site_fract_x
 _atom_site_fract_y
 _atom_site_fract_z
 _atom_site_occupancy
  Cs  Cs0  1  0.98561696  0.30168123  0.46075170  1.0
  Cs  Cs1  1  0.98561696  0.19831877  0.96075170  1.0
  Cs  Cs2  1  0.01438304  0.80168123  0.03924830  1.0
  Cs  Cs3  1  0.01438304  0.69831877  0.53924830  1.0
  Cs  Cs4  1  0.73152302  0.99797675  0.35527400  1.0
  Cs  Cs5  1  0.73152302  0.50202325  0.85527400  1.0
  Cs  Cs6  1  0.26847698  0.49797675  0.14472600  1.0
  Cs  Cs7  1  0.26847698  0.00202325  0.64472600  1.0
  Na  Na8  1  0.46291037  0.19304749  0.05317717  1.0
  Na  Na9  1  0.46291037  0.30695251  0.55317717  1.0
  Na  Na10  1  0.53708963  0.69304749  0.44682283  1.0
  Na  Na11  1  0.53708963  0.80695251  0.94682283  1.0
  As  As12  1  0.90045033  0.49879542  0.17455167  1.0
  As  As13  1  0.90045033  0.00120458  0.67455167  1.0
  As  As14  1  0.09954967  0.99879542  0.32544833  1.0
  As  As15  1  0.09954967  0.50120458  0.82544833  1.0
  As  As16  1  0.78903441  0.65164030  0.28221169  1.0
  As  As17  1  0.78903441  0.84835970  0.78221169  1.0
  As  As18  1  0.21096559  0.15164030  0.21778831  1.0
  As  As19  1  0.21096559  0.34835970  0.71778831  1.0
  As  As20  1  0.77705513  0.33395519  0.18703470  1.0
  As  As21  1  0.77705513  0.16604481  0.68703470  1.0
  As  As22  1  0.22294487  0.83395519  0.31296530  1.0
  As  As23  1  0.22294487  0.66604481  0.81296530  1.0
  As  As24  1  0.74541992  0.95194204  0.98562297  1.0
  As  As25  1  0.74541992  0.54805796  0.48562297  1.0
  As  As26  1  0.25458008  0.45194204  0.51437703  1.0
  As  As27  1  0.25458008  0.04805796  0.01437703  1.0
  As  As28  1  0.67311449  0.36599422  0.40052283  1.0
  As  As29  1  0.67311449  0.13400578  0.90052283  1.0
  As  As30  1  0.32688551  0.86599422  0.09947717  1.0
  As  As31  1  0.32688551  0.63400578  0.59947717  1.0
  As  As32  1  0.58442092  0.42445986  0.18878177  1.0
  As  As33  1  0.58442092  0.07554014  0.68878177  1.0
  As  As34  1  0.41557908  0.92445986  0.31121823  1.0
  As  As35  1  0.41557908  0.57554014  0.81121823  1.0
  As  As36  1  0.38880212  0.13590923  0.32931763  1.0
  As  As37  1  0.38880212  0.36409077  0.82931763  1.0
  As  As38  1  0.61119788  0.63590923  0.17068237  1.0
  As  As39  1  0.61119788  0.86409077  0.67068237  1.0
