# generated using pymatgen
data_Co2NiSe4
_symmetry_space_group_name_H-M   'P 1'
_cell_length_a   6.27566489
_cell_length_b   6.27566489
_cell_length_c   6.14878486
_cell_angle_alpha   61.95301905
_cell_angle_beta   118.04698095
_cell_angle_gamma   146.82814593
_symmetry_Int_Tables_number   1
_chemical_formula_structural   Co2NiSe4
_chemical_formula_sum   'Co2 Ni1 Se4'
_cell_volume   115.45814344
_cell_formula_units_Z   1
loop_
 _symmetry_equiv_pos_site_id
 _symmetry_equiv_pos_as_xyz
  1  'x, y, z'
loop_
 _atom_site_type_symbol
 _atom_site_label
 _atom_site_symmetry_multiplicity
 _atom_site_fract_x
 _atom_site_fract_y
 _atom_site_fract_z
 _atom_site_occupancy
  Co  Co0  1  0.73964898  -0.73964898  0.72157229  1.0
  Co  Co1  1  1.26035102  -0.26035102  0.27842771  1.0
  Ni  Ni2  1  0.00000000  0.00000000  0.00000000  1.0
  Se  Se3  1  0.87448806  -0.87448806  0.53986873  1.0
  Se  Se4  1  1.12551194  -0.12551194  0.46013127  1.0
  Se  Se5  1  0.63744039  -0.63744039  0.97789240  1.0
  Se  Se6  1  1.36255961  -0.36255961  0.02210760  1.0
