# generated using pymatgen
data_Sc9Ni5Ge8
_symmetry_space_group_name_H-M   'P 1'
_cell_length_a   11.65364954
_cell_length_b   11.65364954
_cell_length_c   11.65364954
_cell_angle_alpha   160.52465860
_cell_angle_beta   134.14730891
_cell_angle_gamma   50.26105992
_symmetry_Int_Tables_number   1
_chemical_formula_structural   Sc9Ni5Ge8
_chemical_formula_sum   'Sc9 Ni5 Ge8'
_cell_volume   377.62343250
_cell_formula_units_Z   1
loop_
 _symmetry_equiv_pos_site_id
 _symmetry_equiv_pos_as_xyz
  1  'x, y, z'
loop_
 _atom_site_type_symbol
 _atom_site_label
 _atom_site_symmetry_multiplicity
 _atom_site_fract_x
 _atom_site_fract_y
 _atom_site_fract_z
 _atom_site_occupancy
  Sc  Sc0  1  0.28408924  0.58538415  0.69870509  1.0
  Sc  Sc1  1  1.11332095  0.41461585  0.69870509  1.0
  Sc  Sc2  1  0.88667905  0.58538415  1.30129491  1.0
  Sc  Sc3  1  0.71591076  0.41461585  0.30129491  1.0
  Sc  Sc4  1  0.77424616  0.27424616  0.50000000  1.0
  Sc  Sc5  1  0.22575384  0.72575384  0.50000000  1.0
  Sc  Sc6  1  0.61081083  0.11081083  0.50000000  1.0
  Sc  Sc7  1  0.38918917  0.88918917  0.50000000  1.0
  Sc  Sc8  1  0.00000000  0.00000000  0.00000000  1.0
  Ni  Ni9  1  0.57919295  0.80420490  0.77498805  1.0
  Ni  Ni10  1  0.97078315  0.19579510  0.77498805  1.0
  Ni  Ni11  1  1.02921685  0.80420490  1.22501195  1.0
  Ni  Ni12  1  0.42080705  0.19579510  0.22501195  1.0
  Ni  Ni13  1  0.50000000  0.50000000  1.00000000  1.0
  Ge  Ge14  1  0.55444674  0.69366794  0.86077880  1.0
  Ge  Ge15  1  1.16711086  0.30633206  0.86077880  1.0
  Ge  Ge16  1  0.83288914  0.69366794  1.13922120  1.0
  Ge  Ge17  1  0.44555326  0.30633206  0.13922120  1.0
  Ge  Ge18  1  0.86764435  0.86764435  1.00000000  1.0
  Ge  Ge19  1  0.13235565  0.13235565  0.00000000  1.0
  Ge  Ge20  1  0.68029012  0.00000000  0.68029012  1.0
  Ge  Ge21  1  0.31970988  0.00000000  0.31970988  1.0
